MODEL 1
REMARK minimizedAffinity 9.73954201
REMARK minimizedRMSD -1
REMARK  1 active torsions:
REMARK  status: ('A' for Active; 'I' for Inactive)
REMARK    1  A    between atoms: N_2  and  C1_3 
ROOT
ATOM      1  C1  UNL d   1      -0.931  -0.126   2.304  0.00  0.00     0.143 A 
ATOM      2  C2  UNL d   1      -0.268   1.104   2.224  0.00  0.00    -0.057 A 
ATOM      3  C3  UNL d   1       0.602   1.392   1.166  0.00  0.00     0.033 A 
ATOM      4  C4  UNL d   1       0.848   0.441   0.180  0.00  0.00    -0.042 A 
ATOM      5  C5  UNL d   1       0.219  -0.797   0.253  0.00  0.00     0.033 A 
ATOM      6  C6  UNL d   1      -0.654  -1.076   1.309  0.00  0.00    -0.057 A 
ENDROOT
BRANCH   1   7
ATOM      7  N   UNL d   1      -1.731  -0.509   3.383  0.00  0.00    -0.732 N 
ATOM      8  C   UNL d   1      -1.139  -1.078   4.574  0.00  0.00     0.284 C 
ATOM      9  H3  UNL d   1      -2.479   0.155   3.567  0.00  0.00     0.395 HD
ENDBRANCH   1   7
TORSDOF 1
ENDMDL
