MODEL 1
REMARK minimizedAffinity 1.19838083
REMARK minimizedRMSD -1
REMARK  1 active torsions:
REMARK  status: ('A' for Active; 'I' for Inactive)
REMARK    1  A    between atoms: N_2  and  C1_3 
ROOT
ATOM      1  C1  UNL d   1      -0.452  -5.971   4.022  0.00  0.00     0.143 A 
ATOM      2  C2  UNL d   1      -1.791  -5.959   3.618  0.00  0.00    -0.057 A 
ATOM      3  C3  UNL d   1      -2.141  -5.982   2.262  0.00  0.00     0.033 A 
ATOM      4  C4  UNL d   1      -1.153  -5.989   1.283  0.00  0.00    -0.042 A 
ATOM      5  C5  UNL d   1       0.185  -5.976   1.662  0.00  0.00     0.033 A 
ATOM      6  C6  UNL d   1       0.528  -5.960   3.017  0.00  0.00    -0.057 A 
ENDROOT
BRANCH   1   7
ATOM      7  N   UNL d   1      -0.040  -5.850   5.352  0.00  0.00    -0.732 N 
ATOM      8  C   UNL d   1       1.357  -5.985   5.705  0.00  0.00     0.284 C 
ATOM      9  H3  UNL d   1      -0.522  -5.099   5.841  0.00  0.00     0.395 HD
ENDBRANCH   1   7
TORSDOF 1
ENDMDL
