MODEL 1
REMARK minimizedAffinity 5.5597043
REMARK minimizedRMSD -1
REMARK  1 active torsions:
REMARK  status: ('A' for Active; 'I' for Inactive)
REMARK    1  A    between atoms: N_2  and  C1_3 
ROOT
ATOM      1  C1  UNL d   1      -0.590  -5.994   2.800  0.00  0.00     0.143 A 
ATOM      2  C2  UNL d   1      -1.914  -5.973   3.252  0.00  0.00    -0.057 A 
ATOM      3  C3  UNL d   1      -2.988  -5.984   2.354  0.00  0.00     0.033 A 
ATOM      4  C4  UNL d   1      -2.756  -5.987   0.983  0.00  0.00    -0.042 A 
ATOM      5  C5  UNL d   1      -1.448  -5.983   0.511  0.00  0.00     0.033 A 
ATOM      6  C6  UNL d   1      -0.379  -5.979   1.412  0.00  0.00    -0.057 A 
ENDROOT
BRANCH   1   7
ATOM      7  N   UNL d   1       0.521  -5.886   3.641  0.00  0.00    -0.732 N 
ATOM      8  C   UNL d   1       0.352  -5.719   5.068  0.00  0.00     0.284 C 
ATOM      9  H3  UNL d   1       1.267  -6.527   3.383  0.00  0.00     0.395 HD
ENDBRANCH   1   7
TORSDOF 1
ENDMDL
