MODEL 1
REMARK minimizedAffinity -0.214536369
REMARK minimizedRMSD -1
REMARK  1 active torsions:
REMARK  status: ('A' for Active; 'I' for Inactive)
REMARK    1  A    between atoms: N_2  and  C1_3 
ROOT
ATOM      1  C1  UNL d   1       2.518  -5.905   3.304  0.00  0.00     0.143 A 
ATOM      2  C2  UNL d   1       1.171  -5.995   2.937  0.00  0.00    -0.057 A 
ATOM      3  C3  UNL d   1       0.154  -5.995   3.900  0.00  0.00     0.033 A 
ATOM      4  C4  UNL d   1       0.469  -5.935   5.253  0.00  0.00    -0.042 A 
ATOM      5  C5  UNL d   1       1.802  -5.870   5.642  0.00  0.00     0.033 A 
ATOM      6  C6  UNL d   1       2.813  -5.863   4.676  0.00  0.00    -0.057 A 
ENDROOT
BRANCH   1   7
ATOM      7  N   UNL d   1       3.578  -5.999   2.400  0.00  0.00    -0.732 N 
ATOM      8  C   UNL d   1       4.948  -5.993   2.867  0.00  0.00     0.284 C 
ATOM      9  H3  UNL d   1       3.396  -6.669   1.656  0.00  0.00     0.395 HD
ENDBRANCH   1   7
TORSDOF 1
ENDMDL
