MODEL 1
REMARK minimizedAffinity -0.241313577
REMARK minimizedRMSD -1
REMARK  1 active torsions:
REMARK  status: ('A' for Active; 'I' for Inactive)
REMARK    1  A    between atoms: C1_2  and  C2_3 
ROOT
ATOM      1  C2  UNL d   1      -3.776   5.981  -3.570  0.00  0.00    -0.076 A 
ATOM      2  C3  UNL d   1      -4.375   5.956  -4.841  0.00  0.00     0.004 A 
ATOM      3  C4  UNL d   1      -3.600   5.963  -6.000  0.00  0.00    -0.003 A 
ATOM      4  C5  UNL d   1      -2.213   5.993  -5.906  0.00  0.00     0.000 A 
ATOM      5  C6  UNL d   1      -1.602   6.000  -4.652  0.00  0.00     0.000 A 
ATOM      6  C7  UNL d   1      -2.368   5.977  -3.475  0.00  0.00    -0.073 A 
ATOM      7  C8  UNL d   1      -1.656   5.991  -2.150  0.00  0.00     0.078 C 
ENDROOT
BRANCH   1   8
ATOM      8  C1  UNL d   1      -4.668   6.000  -2.349  0.00  0.00     0.053 C 
ATOM      9  C   UNL d   1      -5.044   4.602  -1.880  0.00  0.00     0.018 C 
ENDBRANCH   1   8
TORSDOF 1
ENDMDL
