MODEL 1
REMARK minimizedAffinity 7.78430176
REMARK minimizedRMSD -1
REMARK  1 active torsions:
REMARK  status: ('A' for Active; 'I' for Inactive)
REMARK    1  A    between atoms: C1_2  and  C2_3 
ROOT
ATOM      1  C2  UNL d   1      -4.356  -0.320   4.616  0.00  0.00    -0.076 A 
ATOM      2  C3  UNL d   1      -3.978   0.176   3.356  0.00  0.00     0.004 A 
ATOM      3  C4  UNL d   1      -4.282  -0.523   2.189  0.00  0.00    -0.003 A 
ATOM      4  C5  UNL d   1      -4.970  -1.729   2.263  0.00  0.00     0.000 A 
ATOM      5  C6  UNL d   1      -5.368  -2.227   3.503  0.00  0.00     0.000 A 
ATOM      6  C7  UNL d   1      -5.084  -1.526   4.688  0.00  0.00    -0.073 A 
ATOM      7  C8  UNL d   1      -5.533  -2.113   5.998  0.00  0.00     0.078 C 
ENDROOT
BRANCH   1   8
ATOM      8  C1  UNL d   1      -3.975   0.469   5.848  0.00  0.00     0.053 C 
ATOM      9  C   UNL d   1      -2.548   0.992   5.788  0.00  0.00     0.018 C 
ENDBRANCH   1   8
TORSDOF 1
ENDMDL
