MODEL 1
REMARK minimizedAffinity 17.1251354
REMARK minimizedRMSD -1
REMARK  1 active torsions:
REMARK  status: ('A' for Active; 'I' for Inactive)
REMARK    1  A    between atoms: C1_2  and  C2_3 
ROOT
ATOM      1  C2  UNL d   1      -5.627   1.464  -1.519  0.00  0.00    -0.076 A 
ATOM      2  C3  UNL d   1      -5.813   1.378  -2.910  0.00  0.00     0.004 A 
ATOM      3  C4  UNL d   1      -5.996   0.146  -3.535  0.00  0.00    -0.003 A 
ATOM      4  C5  UNL d   1      -5.996  -1.021  -2.778  0.00  0.00     0.000 A 
ATOM      5  C6  UNL d   1      -5.831  -0.953  -1.395  0.00  0.00     0.000 A 
ATOM      6  C7  UNL d   1      -5.662   0.283  -0.748  0.00  0.00    -0.073 A 
ATOM      7  C8  UNL d   1      -5.482   0.297   0.745  0.00  0.00     0.078 C 
ENDROOT
BRANCH   1   8
ATOM      8  C1  UNL d   1      -5.407   2.826  -0.901  0.00  0.00     0.053 C 
ATOM      9  C   UNL d   1      -4.461   3.692  -1.719  0.00  0.00     0.018 C 
ENDBRANCH   1   8
TORSDOF 1
ENDMDL
