MODEL 1
REMARK minimizedAffinity 19.6426563
REMARK minimizedRMSD -1
REMARK  1 active torsions:
REMARK  status: ('A' for Active; 'I' for Inactive)
REMARK    1  A    between atoms: C1_2  and  C2_3 
ROOT
ATOM      1  C2  UNL d   1      -0.361  -0.708   3.164  0.00  0.00    -0.076 A 
ATOM      2  C3  UNL d   1       0.741  -0.899   4.017  0.00  0.00     0.004 A 
ATOM      3  C4  UNL d   1       1.630  -1.953   3.816  0.00  0.00    -0.003 A 
ATOM      4  C5  UNL d   1       1.432  -2.835   2.759  0.00  0.00     0.000 A 
ATOM      5  C6  UNL d   1       0.355  -2.651   1.893  0.00  0.00     0.000 A 
ATOM      6  C7  UNL d   1      -0.542  -1.583   2.072  0.00  0.00    -0.073 A 
ATOM      7  C8  UNL d   1      -1.690  -1.436   1.111  0.00  0.00     0.078 C 
ENDROOT
BRANCH   1   8
ATOM      8  C1  UNL d   1      -1.306   0.437   3.447  0.00  0.00     0.053 C 
ATOM      9  C   UNL d   1      -1.600   0.597   4.931  0.00  0.00     0.018 C 
ENDBRANCH   1   8
TORSDOF 1
ENDMDL
