MODEL 1
REMARK minimizedAffinity 13.2104273
REMARK minimizedRMSD -1
REMARK  1 active torsions:
REMARK  status: ('A' for Active; 'I' for Inactive)
REMARK    1  A    between atoms: C1_2  and  C2_3 
ROOT
ATOM      1  C2  UNL d   1      -1.454  -0.142   2.501  0.00  0.00    -0.076 A 
ATOM      2  C3  UNL d   1      -0.169  -0.702   2.613  0.00  0.00     0.004 A 
ATOM      3  C4  UNL d   1       0.191  -1.825   1.871  0.00  0.00    -0.003 A 
ATOM      4  C5  UNL d   1      -0.728  -2.407   1.004  0.00  0.00     0.000 A 
ATOM      5  C6  UNL d   1      -2.001  -1.855   0.868  0.00  0.00     0.000 A 
ATOM      6  C7  UNL d   1      -2.375  -0.713   1.597  0.00  0.00    -0.073 A 
ATOM      7  C8  UNL d   1      -3.763  -0.163   1.415  0.00  0.00     0.078 C 
ENDROOT
BRANCH   1   8
ATOM      8  C1  UNL d   1      -1.797   1.060   3.352  0.00  0.00     0.053 C 
ATOM      9  C   UNL d   1      -2.124   0.684   4.788  0.00  0.00     0.018 C 
ENDBRANCH   1   8
TORSDOF 1
ENDMDL
