MODEL 1
REMARK minimizedAffinity 8.4834919
REMARK minimizedRMSD -1
REMARK  1 active torsions:
REMARK  status: ('A' for Active; 'I' for Inactive)
REMARK    1  A    between atoms: C1_2  and  C2_3 
ROOT
ATOM      1  C2  UNL d   1      -5.269  -3.882   3.685  0.00  0.00    -0.076 A 
ATOM      2  C3  UNL d   1      -5.821  -3.325   4.852  0.00  0.00     0.004 A 
ATOM      3  C4  UNL d   1      -5.999  -4.095   6.000  0.00  0.00    -0.003 A 
ATOM      4  C5  UNL d   1      -5.628  -5.435   6.000  0.00  0.00     0.000 A 
ATOM      5  C6  UNL d   1      -5.063  -6.000   4.857  0.00  0.00     0.000 A 
ATOM      6  C7  UNL d   1      -4.861  -5.233   3.697  0.00  0.00    -0.073 A 
ATOM      7  C8  UNL d   1      -4.253  -5.895   2.491  0.00  0.00     0.078 C 
ENDROOT
BRANCH   1   8
ATOM      8  C1  UNL d   1      -5.124  -3.005   2.462  0.00  0.00     0.053 C 
ATOM      9  C   UNL d   1      -3.877  -2.136   2.513  0.00  0.00     0.018 C 
ENDBRANCH   1   8
TORSDOF 1
ENDMDL
