MODEL 1
REMARK minimizedAffinity 6.94816923
REMARK minimizedRMSD -1
REMARK  1 active torsions:
REMARK  status: ('A' for Active; 'I' for Inactive)
REMARK    1  A    between atoms: C1_2  and  C2_3 
ROOT
ATOM      1  C2  UNL d   1      -0.079  -1.228   2.902  0.00  0.00    -0.076 A 
ATOM      2  C3  UNL d   1      -0.115  -0.715   4.210  0.00  0.00     0.004 A 
ATOM      3  C4  UNL d   1      -1.105   0.184   4.601  0.00  0.00    -0.003 A 
ATOM      4  C5  UNL d   1      -2.077   0.585   3.691  0.00  0.00     0.000 A 
ATOM      5  C6  UNL d   1      -2.067   0.072   2.394  0.00  0.00     0.000 A 
ATOM      6  C7  UNL d   1      -1.085  -0.848   1.988  0.00  0.00    -0.073 A 
ATOM      7  C8  UNL d   1      -1.118  -1.363   0.575  0.00  0.00     0.078 C 
ENDROOT
BRANCH   1   8
ATOM      8  C1  UNL d   1       1.035  -2.179   2.527  0.00  0.00     0.053 C 
ATOM      9  C   UNL d   1       2.057  -2.347   3.641  0.00  0.00     0.018 C 
ENDBRANCH   1   8
TORSDOF 1
ENDMDL
