MODEL 1
REMARK minimizedAffinity 18.2996044
REMARK minimizedRMSD -1
REMARK  1 active torsions:
REMARK  status: ('A' for Active; 'I' for Inactive)
REMARK    1  A    between atoms: C1_2  and  C2_3 
ROOT
ATOM      1  C2  UNL d   1       4.287   1.870   0.323  0.00  0.00    -0.076 A 
ATOM      2  C3  UNL d   1       4.914   2.915  -0.376  0.00  0.00     0.004 A 
ATOM      3  C4  UNL d   1       5.763   3.807   0.278  0.00  0.00    -0.003 A 
ATOM      4  C5  UNL d   1       5.999   3.667   1.641  0.00  0.00     0.000 A 
ATOM      5  C6  UNL d   1       5.399   2.624   2.346  0.00  0.00     0.000 A 
ATOM      6  C7  UNL d   1       4.553   1.707   1.700  0.00  0.00    -0.073 A 
ATOM      7  C8  UNL d   1       3.928   0.606   2.511  0.00  0.00     0.078 C 
ENDROOT
BRANCH   1   8
ATOM      8  C1  UNL d   1       3.354   0.950  -0.433  0.00  0.00     0.053 C 
ATOM      9  C   UNL d   1       1.954   1.527  -0.573  0.00  0.00     0.018 C 
ENDBRANCH   1   8
TORSDOF 1
ENDMDL
