MODEL 1
REMARK minimizedAffinity 14.6012468
REMARK minimizedRMSD -1
REMARK  1 active torsions:
REMARK  status: ('A' for Active; 'I' for Inactive)
REMARK    1  A    between atoms: C1_2  and  C2_3 
ROOT
ATOM      1  C2  UNL d   1      -2.408  -1.623   1.876  0.00  0.00    -0.076 A 
ATOM      2  C3  UNL d   1      -1.525  -1.266   2.909  0.00  0.00     0.004 A 
ATOM      3  C4  UNL d   1      -1.604  -0.015   3.520  0.00  0.00    -0.003 A 
ATOM      4  C5  UNL d   1      -2.568   0.898   3.108  0.00  0.00     0.000 A 
ATOM      5  C6  UNL d   1      -3.464   0.553   2.097  0.00  0.00     0.000 A 
ATOM      6  C7  UNL d   1      -3.409  -0.709   1.482  0.00  0.00    -0.073 A 
ATOM      7  C8  UNL d   1      -4.396  -1.025   0.392  0.00  0.00     0.078 C 
ENDROOT
BRANCH   1   8
ATOM      8  C1  UNL d   1      -2.258  -2.983   1.232  0.00  0.00     0.053 C 
ATOM      9  C   UNL d   1      -3.370  -3.941   1.628  0.00  0.00     0.018 C 
ENDBRANCH   1   8
TORSDOF 1
ENDMDL
