MODEL 1
REMARK minimizedAffinity 5.24068785
REMARK minimizedRMSD -1
REMARK  1 active torsions:
REMARK  status: ('A' for Active; 'I' for Inactive)
REMARK    1  A    between atoms: C1_2  and  C2_3 
ROOT
ATOM      1  C2  UNL d   1      -0.424  -2.648   1.858  0.00  0.00    -0.076 A 
ATOM      2  C3  UNL d   1      -1.399  -1.913   1.161  0.00  0.00     0.004 A 
ATOM      3  C4  UNL d   1      -2.032  -0.821   1.753  0.00  0.00    -0.003 A 
ATOM      4  C5  UNL d   1      -1.700  -0.446   3.050  0.00  0.00     0.000 A 
ATOM      5  C6  UNL d   1      -0.722  -1.153   3.749  0.00  0.00     0.000 A 
ATOM      6  C7  UNL d   1      -0.063  -2.246   3.161  0.00  0.00    -0.073 A 
ATOM      7  C8  UNL d   1       0.979  -2.977   3.963  0.00  0.00     0.078 C 
ENDROOT
BRANCH   1   8
ATOM      8  C1  UNL d   1       0.209  -3.840   1.175  0.00  0.00     0.053 C 
ATOM      9  C   UNL d   1      -0.680  -4.431   0.092  0.00  0.00     0.018 C 
ENDBRANCH   1   8
TORSDOF 1
ENDMDL
