MODEL 1
REMARK minimizedAffinity 10.3271885
REMARK minimizedRMSD -1
REMARK  1 active torsions:
REMARK  status: ('A' for Active; 'I' for Inactive)
REMARK    1  A    between atoms: C1_2  and  C2_3 
ROOT
ATOM      1  C2  UNL d   1      -1.897  -0.862   0.631  0.00  0.00    -0.076 A 
ATOM      2  C3  UNL d   1      -2.123  -1.118  -0.732  0.00  0.00     0.004 A 
ATOM      3  C4  UNL d   1      -3.214  -0.559  -1.396  0.00  0.00    -0.003 A 
ATOM      4  C5  UNL d   1      -4.096   0.267  -0.708  0.00  0.00     0.000 A 
ATOM      5  C6  UNL d   1      -3.877   0.546   0.641  0.00  0.00     0.000 A 
ATOM      6  C7  UNL d   1      -2.773   0.003   1.321  0.00  0.00    -0.073 A 
ATOM      7  C8  UNL d   1      -2.589   0.333   2.777  0.00  0.00     0.078 C 
ENDROOT
BRANCH   1   8
ATOM      8  C1  UNL d   1      -0.713  -1.518   1.305  0.00  0.00     0.053 C 
ATOM      9  C   UNL d   1       0.433  -0.547   1.545  0.00  0.00     0.018 C 
ENDBRANCH   1   8
TORSDOF 1
ENDMDL
