MODEL 1
REMARK minimizedAffinity 18.6885147
REMARK minimizedRMSD -1
REMARK  1 active torsions:
REMARK  status: ('A' for Active; 'I' for Inactive)
REMARK    1  A    between atoms: C1_2  and  C2_3 
ROOT
ATOM      1  C2  UNL d   1       3.744   3.728  -3.487  0.00  0.00    -0.076 A 
ATOM      2  C3  UNL d   1       4.146   4.435  -2.340  0.00  0.00     0.004 A 
ATOM      3  C4  UNL d   1       5.265   5.265  -2.366  0.00  0.00    -0.003 A 
ATOM      4  C5  UNL d   1       6.000   5.403  -3.539  0.00  0.00     0.000 A 
ATOM      5  C6  UNL d   1       5.605   4.723  -4.690  0.00  0.00     0.000 A 
ATOM      6  C7  UNL d   1       4.469   3.894  -4.686  0.00  0.00    -0.073 A 
ATOM      7  C8  UNL d   1       4.092   3.180  -5.955  0.00  0.00     0.078 C 
ENDROOT
BRANCH   1   8
ATOM      8  C1  UNL d   1       2.538   2.821  -3.392  0.00  0.00     0.053 C 
ATOM      9  C   UNL d   1       2.636   1.840  -2.233  0.00  0.00     0.018 C 
ENDBRANCH   1   8
TORSDOF 1
ENDMDL
