MODEL 1
REMARK minimizedAffinity 14.278861
REMARK minimizedRMSD -1
REMARK  1 active torsions:
REMARK  status: ('A' for Active; 'I' for Inactive)
REMARK    1  A    between atoms: C1_2  and  C2_3 
ROOT
ATOM      1  C2  UNL d   1       2.314   4.867  -2.613  0.00  0.00    -0.076 A 
ATOM      2  C3  UNL d   1       3.079   5.968  -2.191  0.00  0.00     0.004 A 
ATOM      3  C4  UNL d   1       4.464   5.983  -2.351  0.00  0.00    -0.003 A 
ATOM      4  C5  UNL d   1       5.105   4.897  -2.937  0.00  0.00     0.000 A 
ATOM      5  C6  UNL d   1       4.360   3.804  -3.378  0.00  0.00     0.000 A 
ATOM      6  C7  UNL d   1       2.962   3.780  -3.239  0.00  0.00    -0.073 A 
ATOM      7  C8  UNL d   1       2.208   2.573  -3.727  0.00  0.00     0.078 C 
ENDROOT
BRANCH   1   8
ATOM      8  C1  UNL d   1       0.819   4.896  -2.389  0.00  0.00     0.053 C 
ATOM      9  C   UNL d   1       0.394   5.998  -1.431  0.00  0.00     0.018 C 
ENDBRANCH   1   8
TORSDOF 1
ENDMDL
