MODEL 1
REMARK minimizedAffinity 13.8149509
REMARK minimizedRMSD -1
REMARK  1 active torsions:
REMARK  status: ('A' for Active; 'I' for Inactive)
REMARK    1  A    between atoms: C1_2  and  C2_3 
ROOT
ATOM      1  C2  UNL d   1      -2.450  -1.982   0.842  0.00  0.00    -0.076 A 
ATOM      2  C3  UNL d   1      -2.192  -3.304   1.246  0.00  0.00     0.004 A 
ATOM      3  C4  UNL d   1      -3.224  -4.235   1.354  0.00  0.00    -0.003 A 
ATOM      4  C5  UNL d   1      -4.530  -3.860   1.059  0.00  0.00     0.000 A 
ATOM      5  C6  UNL d   1      -4.801  -2.558   0.640  0.00  0.00     0.000 A 
ATOM      6  C7  UNL d   1      -3.770  -1.611   0.511  0.00  0.00    -0.073 A 
ATOM      7  C8  UNL d   1      -4.121  -0.219   0.061  0.00  0.00     0.078 C 
ENDROOT
BRANCH   1   8
ATOM      8  C1  UNL d   1      -1.295  -1.009   0.770  0.00  0.00     0.053 C 
ATOM      9  C   UNL d   1      -0.543  -0.898   2.087  0.00  0.00     0.018 C 
ENDBRANCH   1   8
TORSDOF 1
ENDMDL
