MODEL 1
REMARK minimizedAffinity 12.7838221
REMARK minimizedRMSD -1
REMARK  1 active torsions:
REMARK  status: ('A' for Active; 'I' for Inactive)
REMARK    1  A    between atoms: C1_2  and  C2_3 
ROOT
ATOM      1  C2  UNL d   1       4.496   4.193  -3.595  0.00  0.00    -0.076 A 
ATOM      2  C3  UNL d   1       4.061   4.900  -2.460  0.00  0.00     0.004 A 
ATOM      3  C4  UNL d   1       2.761   4.754  -1.980  0.00  0.00    -0.003 A 
ATOM      4  C5  UNL d   1       1.875   3.898  -2.625  0.00  0.00     0.000 A 
ATOM      5  C6  UNL d   1       2.296   3.176  -3.741  0.00  0.00     0.000 A 
ATOM      6  C7  UNL d   1       3.608   3.299  -4.229  0.00  0.00    -0.073 A 
ATOM      7  C8  UNL d   1       4.006   2.501  -5.440  0.00  0.00     0.078 C 
ENDROOT
BRANCH   1   8
ATOM      8  C1  UNL d   1       5.909   4.413  -4.087  0.00  0.00     0.053 C 
ATOM      9  C   UNL d   1       5.992   5.488  -5.159  0.00  0.00     0.018 C 
ENDBRANCH   1   8
TORSDOF 1
ENDMDL
