MODEL 1
REMARK minimizedAffinity -1.99229372
REMARK minimizedRMSD -1
REMARK  0 active torsions:
REMARK  status: ('A' for Active; 'I' for Inactive)
ROOT
ATOM      1  N1  IND d   1       4.143  -1.522   4.573  0.00  0.00    -0.196 N 
ATOM      2  C2  IND d   1       5.146  -0.792   5.148  0.00  0.00     0.054 A 
ATOM      3  C3  IND d   1       5.999  -1.605   5.811  0.00  0.00    -0.031 A 
ATOM      4  C4  IND d   1       5.998  -4.173   5.999  0.00  0.00     0.051 A 
ATOM      5  C5  IND d   1       5.262  -5.277   5.672  0.00  0.00    -0.031 A 
ATOM      6  C6  IND d   1       4.092  -5.184   4.945  0.00  0.00     0.015 A 
ATOM      7  C7  IND d   1       3.620  -3.979   4.507  0.00  0.00    -0.016 A 
ATOM      8  C8  IND d   1       4.362  -2.856   4.842  0.00  0.00    -0.047 A 
ATOM      9  C9  IND d   1       5.527  -2.939   5.616  0.00  0.00    -0.096 A 
ATOM     10  HN1 IND d   1       3.486  -1.203   4.120  0.00  0.00     0.298 HD
ENDROOT
TORSDOF 0
ENDMDL
