MODEL 1
REMARK minimizedAffinity 6.0165019
REMARK minimizedRMSD -1
REMARK  0 active torsions:
REMARK  status: ('A' for Active; 'I' for Inactive)
ROOT
ATOM      1  N1  IND d   1      -1.177  -1.158   0.140  0.00  0.00    -0.196 N 
ATOM      2  C2  IND d   1      -1.035  -2.456   0.544  0.00  0.00     0.054 A 
ATOM      3  C3  IND d   1       0.000  -3.039  -0.102  0.00  0.00    -0.031 A 
ATOM      4  C4  IND d   1       1.659  -2.021  -1.787  0.00  0.00     0.051 A 
ATOM      5  C5  IND d   1       1.911  -0.879  -2.495  0.00  0.00    -0.031 A 
ATOM      6  C6  IND d   1       1.132   0.251  -2.356  0.00  0.00     0.015 A 
ATOM      7  C7  IND d   1       0.075   0.286  -1.491  0.00  0.00    -0.016 A 
ATOM      8  C8  IND d   1      -0.188  -0.873  -0.776  0.00  0.00    -0.047 A 
ATOM      9  C9  IND d   1       0.572  -2.038  -0.945  0.00  0.00    -0.096 A 
ATOM     10  HN1 IND d   1      -1.783  -0.612   0.411  0.00  0.00     0.298 HD
ENDROOT
TORSDOF 0
ENDMDL
