MODEL 1
REMARK minimizedAffinity 0.847789645
REMARK minimizedRMSD -1
REMARK  0 active torsions:
REMARK  status: ('A' for Active; 'I' for Inactive)
ROOT
ATOM      1  N1  IND d   1       5.413   3.009   4.209  0.00  0.00    -0.196 N 
ATOM      2  C2  IND d   1       4.831   3.006   2.972  0.00  0.00     0.054 A 
ATOM      3  C3  IND d   1       4.538   1.742   2.593  0.00  0.00    -0.031 A 
ATOM      4  C4  IND d   1       4.834  -0.464   3.886  0.00  0.00     0.051 A 
ATOM      5  C5  IND d   1       5.357  -0.973   5.042  0.00  0.00    -0.031 A 
ATOM      6  C6  IND d   1       5.934  -0.164   6.000  0.00  0.00     0.015 A 
ATOM      7  C7  IND d   1       6.000   1.191   5.842  0.00  0.00    -0.016 A 
ATOM      8  C8  IND d   1       5.477   1.711   4.666  0.00  0.00    -0.047 A 
ATOM      9  C9  IND d   1       4.928   0.891   3.672  0.00  0.00    -0.096 A 
ATOM     10  HN1 IND d   1       5.692   3.704   4.631  0.00  0.00     0.298 HD
ENDROOT
TORSDOF 0
ENDMDL
