MODEL 1
REMARK minimizedAffinity -3.01610422
REMARK minimizedRMSD -1
REMARK  0 active torsions:
REMARK  status: ('A' for Active; 'I' for Inactive)
ROOT
ATOM      1  N1  IND d   1       5.989   0.373   3.671  0.00  0.00    -0.196 N 
ATOM      2  C2  IND d   1       5.985  -0.197   4.914  0.00  0.00     0.054 A 
ATOM      3  C3  IND d   1       5.999   0.759   5.869  0.00  0.00    -0.031 A 
ATOM      4  C4  IND d   1       5.926   3.321   5.621  0.00  0.00     0.051 A 
ATOM      5  C5  IND d   1       5.958   4.313   4.682  0.00  0.00    -0.031 A 
ATOM      6  C6  IND d   1       6.000   4.037   3.331  0.00  0.00     0.015 A 
ATOM      7  C7  IND d   1       6.000   2.753   2.866  0.00  0.00    -0.016 A 
ATOM      8  C8  IND d   1       5.975   1.742   3.816  0.00  0.00    -0.047 A 
ATOM      9  C9  IND d   1       5.976   2.016   5.190  0.00  0.00    -0.096 A 
ATOM     10  HN1 IND d   1       5.999  -0.053   2.924  0.00  0.00     0.298 HD
ENDROOT
TORSDOF 0
ENDMDL
