MODEL 1
REMARK minimizedAffinity -0.20672752
REMARK minimizedRMSD -1
REMARK  0 active torsions:
REMARK  status: ('A' for Active; 'I' for Inactive)
ROOT
ATOM      1  N1  IND d   1       5.949   1.962   3.810  0.00  0.00    -0.196 N 
ATOM      2  C2  IND d   1       5.766   2.648   4.978  0.00  0.00     0.054 A 
ATOM      3  C3  IND d   1       5.551   1.788   5.999  0.00  0.00    -0.031 A 
ATOM      4  C4  IND d   1       5.559  -0.786   5.999  0.00  0.00     0.051 A 
ATOM      5  C5  IND d   1       5.646  -1.863   5.163  0.00  0.00    -0.031 A 
ATOM      6  C6  IND d   1       5.845  -1.717   3.805  0.00  0.00     0.015 A 
ATOM      7  C7  IND d   1       5.977  -0.484   3.233  0.00  0.00    -0.016 A 
ATOM      8  C8  IND d   1       5.882   0.613   4.079  0.00  0.00    -0.047 A 
ATOM      9  C9  IND d   1       5.637   0.472   5.451  0.00  0.00    -0.096 A 
ATOM     10  HN1 IND d   1       6.084   2.314   3.037  0.00  0.00     0.298 HD
ENDROOT
TORSDOF 0
ENDMDL
