MODEL 1
REMARK minimizedAffinity -1.32136488
REMARK minimizedRMSD -1
REMARK  0 active torsions:
REMARK  status: ('A' for Active; 'I' for Inactive)
ROOT
ATOM      1  N1  IND d   1       5.641   1.792   5.999  0.00  0.00    -0.196 N 
ATOM      2  C2  IND d   1       5.800   2.729   5.017  0.00  0.00     0.054 A 
ATOM      3  C3  IND d   1       5.998   2.128   3.822  0.00  0.00    -0.031 A 
ATOM      4  C4  IND d   1       6.000  -0.377   3.231  0.00  0.00     0.051 A 
ATOM      5  C5  IND d   1       5.933  -1.618   3.799  0.00  0.00    -0.031 A 
ATOM      6  C6  IND d   1       5.759  -1.790   5.157  0.00  0.00     0.015 A 
ATOM      7  C7  IND d   1       5.634  -0.721   6.000  0.00  0.00    -0.016 A 
ATOM      8  C8  IND d   1       5.708   0.540   5.427  0.00  0.00    -0.047 A 
ATOM      9  C9  IND d   1       5.927   0.721   4.055  0.00  0.00    -0.096 A 
ATOM     10  HN1 IND d   1       5.520   1.956   6.835  0.00  0.00     0.298 HD
ENDROOT
TORSDOF 0
ENDMDL
