MODEL 1
REMARK minimizedAffinity -2.21384859
REMARK minimizedRMSD -1
REMARK  0 active torsions:
REMARK  status: ('A' for Active; 'I' for Inactive)
ROOT
ATOM      1  N1  IND d   1       6.000  -0.687   3.802  0.00  0.00    -0.196 N 
ATOM      2  C2  IND d   1       5.886  -1.397   4.965  0.00  0.00     0.054 A 
ATOM      3  C3  IND d   1       5.626  -0.568   6.000  0.00  0.00    -0.031 A 
ATOM      4  C4  IND d   1       5.244   1.978   5.998  0.00  0.00     0.051 A 
ATOM      5  C5  IND d   1       5.281   3.073   5.181  0.00  0.00    -0.031 A 
ATOM      6  C6  IND d   1       5.563   2.968   3.834  0.00  0.00     0.015 A 
ATOM      7  C7  IND d   1       5.808   1.757   3.250  0.00  0.00    -0.016 A 
ATOM      8  C8  IND d   1       5.778   0.644   4.079  0.00  0.00    -0.047 A 
ATOM      9  C9  IND d   1       5.534   0.750   5.454  0.00  0.00    -0.096 A 
ATOM     10  HN1 IND d   1       6.179  -1.016   3.028  0.00  0.00     0.298 HD
ENDROOT
TORSDOF 0
ENDMDL
