MODEL 1
REMARK minimizedAffinity -3.13058543
REMARK minimizedRMSD -1
REMARK  0 active torsions:
REMARK  status: ('A' for Active; 'I' for Inactive)
ROOT
ATOM      1  N1  IND d   1       5.034   1.497   3.521  0.00  0.00    -0.196 N 
ATOM      2  C2  IND d   1       5.390   2.374   4.507  0.00  0.00     0.054 A 
ATOM      3  C3  IND d   1       5.777   1.704   5.616  0.00  0.00    -0.031 A 
ATOM      4  C4  IND d   1       6.000  -0.832   5.999  0.00  0.00     0.051 A 
ATOM      5  C5  IND d   1       5.755  -2.037   5.403  0.00  0.00    -0.031 A 
ATOM      6  C6  IND d   1       5.250  -2.128   4.122  0.00  0.00     0.015 A 
ATOM      7  C7  IND d   1       4.980  -1.011   3.382  0.00  0.00    -0.016 A 
ATOM      8  C8  IND d   1       5.220   0.214   3.987  0.00  0.00    -0.047 A 
ATOM      9  C9  IND d   1       5.693   0.313   5.302  0.00  0.00    -0.096 A 
ATOM     10  HN1 IND d   1       4.742   1.711   2.741  0.00  0.00     0.298 HD
ENDROOT
TORSDOF 0
ENDMDL
