MODEL 1
REMARK minimizedAffinity 13.7859449
REMARK minimizedRMSD -1
REMARK  0 active torsions:
REMARK  status: ('A' for Active; 'I' for Inactive)
ROOT
ATOM      1  N1  IND d   1      -0.718  -2.017  -0.089  0.00  0.00    -0.196 N 
ATOM      2  C2  IND d   1      -0.280  -3.312  -0.098  0.00  0.00     0.054 A 
ATOM      3  C3  IND d   1       1.049  -3.357  -0.337  0.00  0.00    -0.031 A 
ATOM      4  C4  IND d   1       2.723  -1.425  -0.642  0.00  0.00     0.051 A 
ATOM      5  C5  IND d   1       2.789  -0.064  -0.751  0.00  0.00    -0.031 A 
ATOM      6  C6  IND d   1       1.667   0.732  -0.640  0.00  0.00     0.015 A 
ATOM      7  C7  IND d   1       0.433   0.194  -0.403  0.00  0.00    -0.016 A 
ATOM      8  C8  IND d   1       0.361  -1.188  -0.299  0.00  0.00    -0.047 A 
ATOM      9  C9  IND d   1       1.490  -2.003  -0.453  0.00  0.00    -0.096 A 
ATOM     10  HN1 IND d   1      -1.532  -1.763   0.028  0.00  0.00     0.298 HD
ENDROOT
TORSDOF 0
ENDMDL
