MODEL 1
REMARK minimizedAffinity 6.31724882
REMARK minimizedRMSD -1
REMARK  0 active torsions:
REMARK  status: ('A' for Active; 'I' for Inactive)
ROOT
ATOM      1  N1  IND d   1      -1.013  -0.693   1.783  0.00  0.00    -0.196 N 
ATOM      2  C2  IND d   1      -1.414   0.051   2.858  0.00  0.00     0.054 A 
ATOM      3  C3  IND d   1      -1.114   1.355   2.666  0.00  0.00    -0.031 A 
ATOM      4  C4  IND d   1      -0.059   2.506   0.619  0.00  0.00     0.051 A 
ATOM      5  C5  IND d   1       0.509   2.237  -0.594  0.00  0.00    -0.031 A 
ATOM      6  C6  IND d   1       0.598   0.951  -1.089  0.00  0.00     0.015 A 
ATOM      7  C7  IND d   1       0.110  -0.116  -0.389  0.00  0.00    -0.016 A 
ATOM      8  C8  IND d   1      -0.461   0.153   0.846  0.00  0.00    -0.047 A 
ATOM      9  C9  IND d   1      -0.516   1.450   1.372  0.00  0.00    -0.096 A 
ATOM     10  HN1 IND d   1      -1.092  -1.546   1.706  0.00  0.00     0.298 HD
ENDROOT
TORSDOF 0
ENDMDL
