MODEL 1
REMARK minimizedAffinity -3.23565173
REMARK minimizedRMSD -1
REMARK  0 active torsions:
REMARK  status: ('A' for Active; 'I' for Inactive)
ROOT
ATOM      1  N1  IND d   1       5.628  -0.655   3.772  0.00  0.00    -0.196 N 
ATOM      2  C2  IND d   1       5.684  -1.340   4.954  0.00  0.00     0.054 A 
ATOM      3  C3  IND d   1       5.697  -0.480   5.997  0.00  0.00    -0.031 A 
ATOM      4  C4  IND d   1       5.530   2.089   6.000  0.00  0.00     0.051 A 
ATOM      5  C5  IND d   1       5.497   3.167   5.161  0.00  0.00    -0.031 A 
ATOM      6  C6  IND d   1       5.503   3.024   3.788  0.00  0.00     0.015 A 
ATOM      7  C7  IND d   1       5.532   1.791   3.201  0.00  0.00    -0.016 A 
ATOM      8  C8  IND d   1       5.572   0.693   4.050  0.00  0.00    -0.047 A 
ATOM      9  C9  IND d   1       5.609   0.834   5.443  0.00  0.00    -0.096 A 
ATOM     10  HN1 IND d   1       5.627  -1.006   2.988  0.00  0.00     0.298 HD
ENDROOT
TORSDOF 0
ENDMDL
