MODEL 1
REMARK minimizedAffinity 3.90890241
REMARK minimizedRMSD -1
REMARK  0 active torsions:
REMARK  status: ('A' for Active; 'I' for Inactive)
ROOT
ATOM      1  N1  IND d   1       0.798   1.513  -0.894  0.00  0.00    -0.196 N 
ATOM      2  C2  IND d   1       1.076   2.826  -0.638  0.00  0.00     0.054 A 
ATOM      3  C3  IND d   1       0.629   3.171   0.591  0.00  0.00    -0.031 A 
ATOM      4  C4  IND d   1      -0.496   1.715   2.390  0.00  0.00     0.051 A 
ATOM      5  C5  IND d   1      -0.993   0.460   2.604  0.00  0.00    -0.031 A 
ATOM      6  C6  IND d   1      -0.914  -0.529   1.645  0.00  0.00     0.015 A 
ATOM      7  C7  IND d   1      -0.323  -0.302   0.435  0.00  0.00    -0.016 A 
ATOM      8  C8  IND d   1       0.176   0.973   0.211  0.00  0.00    -0.047 A 
ATOM      9  C9  IND d   1       0.061   1.993   1.165  0.00  0.00    -0.096 A 
ATOM     10  HN1 IND d   1       0.980   1.094  -1.622  0.00  0.00     0.298 HD
ENDROOT
TORSDOF 0
ENDMDL
