MODEL 1
REMARK minimizedAffinity -1.48563421
REMARK minimizedRMSD -1
REMARK  0 active torsions:
REMARK  status: ('A' for Active; 'I' for Inactive)
ROOT
ATOM      1  N1  IND d   1       5.809   0.027   5.999  0.00  0.00    -0.196 N 
ATOM      2  C2  IND d   1       5.442  -0.886   5.050  0.00  0.00     0.054 A 
ATOM      3  C3  IND d   1       5.115  -0.260   3.897  0.00  0.00    -0.031 A 
ATOM      4  C4  IND d   1       5.210   2.245   3.312  0.00  0.00     0.051 A 
ATOM      5  C5  IND d   1       5.449   3.472   3.864  0.00  0.00    -0.031 A 
ATOM      6  C6  IND d   1       5.831   3.616   5.183  0.00  0.00     0.015 A 
ATOM      7  C7  IND d   1       6.000   2.533   5.998  0.00  0.00    -0.016 A 
ATOM      8  C8  IND d   1       5.751   1.286   5.442  0.00  0.00    -0.047 A 
ATOM      9  C9  IND d   1       5.322   1.136   4.117  0.00  0.00    -0.096 A 
ATOM     10  HN1 IND d   1       6.038  -0.154   6.808  0.00  0.00     0.298 HD
ENDROOT
TORSDOF 0
ENDMDL
