MODEL 1
REMARK minimizedAffinity -2.35299516
REMARK minimizedRMSD -1
REMARK  0 active torsions:
REMARK  status: ('A' for Active; 'I' for Inactive)
ROOT
ATOM      1  N1  IND d   1       5.964   1.983   3.782  0.00  0.00    -0.196 N 
ATOM      2  C2  IND d   1       5.648   2.719   4.890  0.00  0.00     0.054 A 
ATOM      3  C3  IND d   1       5.277   1.906   5.904  0.00  0.00    -0.031 A 
ATOM      4  C4  IND d   1       5.213  -0.666   6.000  0.00  0.00     0.051 A 
ATOM      5  C5  IND d   1       5.379  -1.777   5.222  0.00  0.00    -0.031 A 
ATOM      6  C6  IND d   1       5.759  -1.690   3.898  0.00  0.00     0.015 A 
ATOM      7  C7  IND d   1       5.999  -0.484   3.304  0.00  0.00    -0.016 A 
ATOM      8  C8  IND d   1       5.825   0.647   4.089  0.00  0.00    -0.047 A 
ATOM      9  C9  IND d   1       5.398   0.567   5.421  0.00  0.00    -0.096 A 
ATOM     10  HN1 IND d   1       6.209   2.300   3.021  0.00  0.00     0.298 HD
ENDROOT
TORSDOF 0
ENDMDL
