MODEL 1
REMARK minimizedAffinity 10.4559402
REMARK minimizedRMSD -1
REMARK  0 active torsions:
REMARK  status: ('A' for Active; 'I' for Inactive)
ROOT
ATOM      1  N1  IND d   1       4.621  -1.405   3.128  0.00  0.00    -0.196 N 
ATOM      2  C2  IND d   1       5.146  -2.457   3.825  0.00  0.00     0.054 A 
ATOM      3  C3  IND d   1       5.687  -2.028   4.987  0.00  0.00    -0.031 A 
ATOM      4  C4  IND d   1       5.732   0.341   5.995  0.00  0.00     0.051 A 
ATOM      5  C5  IND d   1       5.409   1.638   5.711  0.00  0.00    -0.031 A 
ATOM      6  C6  IND d   1       4.793   1.994   4.529  0.00  0.00     0.015 A 
ATOM      7  C7  IND d   1       4.464   1.061   3.587  0.00  0.00    -0.016 A 
ATOM      8  C8  IND d   1       4.796  -0.257   3.869  0.00  0.00    -0.047 A 
ATOM      9  C9  IND d   1       5.460  -0.619   5.048  0.00  0.00    -0.096 A 
ATOM     10  HN1 IND d   1       4.244  -1.452   2.356  0.00  0.00     0.298 HD
ENDROOT
TORSDOF 0
ENDMDL
