MODEL 1
REMARK minimizedAffinity 10.9928036
REMARK minimizedRMSD -1
REMARK  0 active torsions:
REMARK  status: ('A' for Active; 'I' for Inactive)
ROOT
ATOM      1  C   UNL d   1       3.233   0.023  -0.067  0.00  0.00     0.020 A 
ATOM      2  C1  UNL d   1       3.001   1.079  -0.947  0.00  0.00     0.020 A 
ATOM      3  C2  UNL d   1       2.249   2.180  -0.533  0.00  0.00     0.034 A 
ATOM      4  C3  UNL d   1       1.724   2.227   0.764  0.00  0.00     0.017 A 
ATOM      5  C4  UNL d   1       1.957   1.166   1.646  0.00  0.00     0.017 A 
ATOM      6  C5  UNL d   1       2.712   0.066   1.227  0.00  0.00     0.034 A 
ATOM      7 Cl   UNL d   1       1.344   1.153   3.262  0.00  0.00    -0.070 Cl
ATOM      8 Cl1  UNL d   1       0.803   3.620   1.208  0.00  0.00    -0.070 Cl
ENDROOT
TORSDOF 0
ENDMDL
