MODEL 1
REMARK minimizedAffinity 9.39227295
REMARK minimizedRMSD -1
REMARK  0 active torsions:
REMARK  status: ('A' for Active; 'I' for Inactive)
ROOT
ATOM      1  C   UNL d   1      -5.999   0.370   5.805  0.00  0.00     0.020 A 
ATOM      2  C1  UNL d   1      -5.538  -0.296   4.670  0.00  0.00     0.020 A 
ATOM      3  C2  UNL d   1      -4.763   0.384   3.729  0.00  0.00     0.034 A 
ATOM      4  C3  UNL d   1      -4.447   1.734   3.920  0.00  0.00     0.017 A 
ATOM      5  C4  UNL d   1      -4.910   2.402   5.059  0.00  0.00     0.017 A 
ATOM      6  C5  UNL d   1      -5.686   1.716   5.999  0.00  0.00     0.034 A 
ATOM      7 Cl   UNL d   1      -4.562   4.067   5.364  0.00  0.00    -0.070 Cl
ATOM      8 Cl1  UNL d   1      -3.484   2.513   2.714  0.00  0.00    -0.070 Cl
ENDROOT
TORSDOF 0
ENDMDL
