MODEL 1
REMARK minimizedAffinity 14.6082373
REMARK minimizedRMSD -1
REMARK  0 active torsions:
REMARK  status: ('A' for Active; 'I' for Inactive)
ROOT
ATOM      1  C   UNL d   1      -5.611   2.202   5.999  0.00  0.00     0.020 A 
ATOM      2  C1  UNL d   1      -6.000   0.863   6.000  0.00  0.00     0.020 A 
ATOM      3  C2  UNL d   1      -5.694   0.046   4.909  0.00  0.00     0.034 A 
ATOM      4  C3  UNL d   1      -4.996   0.567   3.814  0.00  0.00     0.017 A 
ATOM      5  C4  UNL d   1      -4.605   1.911   3.814  0.00  0.00     0.017 A 
ATOM      6  C5  UNL d   1      -4.915   2.725   4.908  0.00  0.00     0.034 A 
ATOM      7 Cl   UNL d   1      -3.741   2.626   2.498  0.00  0.00    -0.070 Cl
ATOM      8 Cl1  UNL d   1      -4.650  -0.500   2.500  0.00  0.00    -0.070 Cl
ENDROOT
TORSDOF 0
ENDMDL
