MODEL 1
REMARK minimizedAffinity 1.30883312
REMARK minimizedRMSD -1
REMARK  0 active torsions:
REMARK  status: ('A' for Active; 'I' for Inactive)
ROOT
ATOM      1  C   UNL d   1       4.285   2.139  -3.772  0.00  0.00     0.020 A 
ATOM      2  C1  UNL d   1       5.618   2.547  -3.760  0.00  0.00     0.020 A 
ATOM      3  C2  UNL d   1       6.000   3.702  -4.446  0.00  0.00     0.034 A 
ATOM      4  C3  UNL d   1       5.048   4.453  -5.146  0.00  0.00     0.017 A 
ATOM      5  C4  UNL d   1       3.710   4.042  -5.156  0.00  0.00     0.017 A 
ATOM      6  C5  UNL d   1       3.333   2.885  -4.468  0.00  0.00     0.034 A 
ATOM      7 Cl   UNL d   1       2.479   4.916  -5.997  0.00  0.00    -0.070 Cl
ATOM      8 Cl1  UNL d   1       5.591   5.870  -5.971  0.00  0.00    -0.070 Cl
ENDROOT
TORSDOF 0
ENDMDL
