MODEL 1
REMARK minimizedAffinity 8.32255936
REMARK minimizedRMSD -1
REMARK  0 active torsions:
REMARK  status: ('A' for Active; 'I' for Inactive)
ROOT
ATOM      1  C   UNL d   1      -3.170  -5.999  -1.346  0.00  0.00     0.020 A 
ATOM      2  C1  UNL d   1      -1.871  -5.999  -0.841  0.00  0.00     0.020 A 
ATOM      3  C2  UNL d   1      -1.659  -5.997   0.540  0.00  0.00     0.034 A 
ATOM      4  C3  UNL d   1      -2.747  -5.995   1.419  0.00  0.00     0.017 A 
ATOM      5  C4  UNL d   1      -4.051  -5.995   0.911  0.00  0.00     0.017 A 
ATOM      6  C5  UNL d   1      -4.258  -5.997  -0.472  0.00  0.00     0.034 A 
ATOM      7 Cl   UNL d   1      -5.445  -5.993   1.933  0.00  0.00    -0.070 Cl
ATOM      8 Cl1  UNL d   1      -2.411  -5.993   3.114  0.00  0.00    -0.070 Cl
ENDROOT
TORSDOF 0
ENDMDL
