MODEL 1
REMARK minimizedAffinity 10.4498367
REMARK minimizedRMSD -1
REMARK  0 active torsions:
REMARK  status: ('A' for Active; 'I' for Inactive)
ROOT
ATOM      1  C   UNL d   1      -2.344  -4.608  -2.193  0.00  0.00     0.020 A 
ATOM      2  C1  UNL d   1      -2.320  -3.372  -2.839  0.00  0.00     0.020 A 
ATOM      3  C2  UNL d   1      -3.442  -2.930  -3.543  0.00  0.00     0.034 A 
ATOM      4  C3  UNL d   1      -4.593  -3.724  -3.604  0.00  0.00     0.017 A 
ATOM      5  C4  UNL d   1      -4.616  -4.964  -2.955  0.00  0.00     0.017 A 
ATOM      6  C5  UNL d   1      -3.490  -5.402  -2.251  0.00  0.00     0.034 A 
ATOM      7 Cl   UNL d   1      -6.000  -6.000  -2.985  0.00  0.00    -0.070 Cl
ATOM      8 Cl1  UNL d   1      -5.943  -3.115  -4.493  0.00  0.00    -0.070 Cl
ENDROOT
TORSDOF 0
ENDMDL
