MODEL 1
REMARK minimizedAffinity 21.5136528
REMARK minimizedRMSD -1
REMARK  0 active torsions:
REMARK  status: ('A' for Active; 'I' for Inactive)
ROOT
ATOM      1  C   UNL d   1      -2.632  -3.095  -2.275  0.00  0.00     0.020 A 
ATOM      2  C1  UNL d   1      -3.342  -4.277  -2.477  0.00  0.00     0.020 A 
ATOM      3  C2  UNL d   1      -3.550  -5.158  -1.414  0.00  0.00     0.034 A 
ATOM      4  C3  UNL d   1      -3.047  -4.857  -0.143  0.00  0.00     0.017 A 
ATOM      5  C4  UNL d   1      -2.334  -3.670   0.060  0.00  0.00     0.017 A 
ATOM      6  C5  UNL d   1      -2.129  -2.792  -1.009  0.00  0.00     0.034 A 
ATOM      7 Cl   UNL d   1      -1.682  -3.231   1.599  0.00  0.00    -0.070 Cl
ATOM      8 Cl1  UNL d   1      -3.341  -5.992   1.127  0.00  0.00    -0.070 Cl
ENDROOT
TORSDOF 0
ENDMDL
