MODEL 1
REMARK minimizedAffinity 16.6032658
REMARK minimizedRMSD -1
REMARK  0 active torsions:
REMARK  status: ('A' for Active; 'I' for Inactive)
ROOT
ATOM      1  C   UNL d   1       2.034   3.823  -3.671  0.00  0.00     0.020 A 
ATOM      2  C1  UNL d   1       2.099   3.494  -5.024  0.00  0.00     0.020 A 
ATOM      3  C2  UNL d   1       2.890   2.422  -5.445  0.00  0.00     0.034 A 
ATOM      4  C3  UNL d   1       3.618   1.676  -4.511  0.00  0.00     0.017 A 
ATOM      5  C4  UNL d   1       3.551   2.007  -3.153  0.00  0.00     0.017 A 
ATOM      6  C5  UNL d   1       2.758   3.081  -2.737  0.00  0.00     0.034 A 
ATOM      7 Cl   UNL d   1       4.421   1.132  -1.942  0.00  0.00    -0.070 Cl
ATOM      8 Cl1  UNL d   1       4.574   0.363  -5.102  0.00  0.00    -0.070 Cl
ENDROOT
TORSDOF 0
ENDMDL
