MODEL 1
REMARK minimizedAffinity 7.3116765
REMARK minimizedRMSD -1
REMARK  0 active torsions:
REMARK  status: ('A' for Active; 'I' for Inactive)
ROOT
ATOM      1  C   UNL d   1       1.407   1.073   5.400  0.00  0.00     0.020 A 
ATOM      2  C1  UNL d   1       2.073  -0.066   4.948  0.00  0.00     0.020 A 
ATOM      3  C2  UNL d   1       2.286  -0.253   3.581  0.00  0.00     0.034 A 
ATOM      4  C3  UNL d   1       1.834   0.700   2.661  0.00  0.00     0.017 A 
ATOM      5  C4  UNL d   1       1.166   1.843   3.115  0.00  0.00     0.017 A 
ATOM      6  C5  UNL d   1       0.955   2.025   4.485  0.00  0.00     0.034 A 
ATOM      7 Cl   UNL d   1       0.580   3.062   2.040  0.00  0.00    -0.070 Cl
ATOM      8 Cl1  UNL d   1       2.133   0.404   0.985  0.00  0.00    -0.070 Cl
ENDROOT
TORSDOF 0
ENDMDL
