MODEL 1
REMARK minimizedAffinity 14.4144726
REMARK minimizedRMSD -1
REMARK  0 active torsions:
REMARK  status: ('A' for Active; 'I' for Inactive)
ROOT
ATOM      1  C   UNL d   1       2.343   3.043  -1.781  0.00  0.00     0.020 A 
ATOM      2  C1  UNL d   1       1.942   2.989  -3.115  0.00  0.00     0.020 A 
ATOM      3  C2  UNL d   1       2.591   2.130  -4.005  0.00  0.00     0.034 A 
ATOM      4  C3  UNL d   1       3.644   1.322  -3.562  0.00  0.00     0.017 A 
ATOM      5  C4  UNL d   1       4.046   1.377  -2.223  0.00  0.00     0.017 A 
ATOM      6  C5  UNL d   1       3.393   2.239  -1.336  0.00  0.00     0.034 A 
ATOM      7 Cl   UNL d   1       5.337   0.410  -1.602  0.00  0.00    -0.070 Cl
ATOM      8 Cl1  UNL d   1       4.401   0.283  -4.717  0.00  0.00    -0.070 Cl
ENDROOT
TORSDOF 0
ENDMDL
