MODEL 1
REMARK minimizedAffinity 13.9792395
REMARK minimizedRMSD -1
REMARK  0 active torsions:
REMARK  status: ('A' for Active; 'I' for Inactive)
ROOT
ATOM      1  C   UNL d   1      -2.822  -3.006  -2.287  0.00  0.00     0.020 A 
ATOM      2  C1  UNL d   1      -1.966  -2.047  -2.825  0.00  0.00     0.020 A 
ATOM      3  C2  UNL d   1      -0.981  -1.462  -2.026  0.00  0.00     0.034 A 
ATOM      4  C3  UNL d   1      -0.851  -1.835  -0.683  0.00  0.00     0.017 A 
ATOM      5  C4  UNL d   1      -1.712  -2.798  -0.143  0.00  0.00     0.017 A 
ATOM      6  C5  UNL d   1      -2.695  -3.381  -0.948  0.00  0.00     0.034 A 
ATOM      7 Cl   UNL d   1      -1.612  -3.310   1.504  0.00  0.00    -0.070 Cl
ATOM      8 Cl1  UNL d   1       0.388  -1.071   0.247  0.00  0.00    -0.070 Cl
ENDROOT
TORSDOF 0
ENDMDL
