MODEL 1
REMARK minimizedAffinity 22.5143814
REMARK minimizedRMSD -1
REMARK  0 active torsions:
REMARK  status: ('A' for Active; 'I' for Inactive)
ROOT
ATOM      1  C   UNL d   1      -5.726  -5.999  -1.994  0.00  0.00     0.020 A 
ATOM      2  C1  UNL d   1      -4.505  -5.967  -1.321  0.00  0.00     0.020 A 
ATOM      3  C2  UNL d   1      -3.547  -5.009  -1.660  0.00  0.00     0.034 A 
ATOM      4  C3  UNL d   1      -3.807  -4.080  -2.674  0.00  0.00     0.017 A 
ATOM      5  C4  UNL d   1      -5.033  -4.113  -3.348  0.00  0.00     0.017 A 
ATOM      6  C5  UNL d   1      -5.989  -5.074  -3.005  0.00  0.00     0.034 A 
ATOM      7 Cl   UNL d   1      -5.427  -3.000  -4.610  0.00  0.00    -0.070 Cl
ATOM      8 Cl1  UNL d   1      -2.577  -2.924  -3.040  0.00  0.00    -0.070 Cl
ENDROOT
TORSDOF 0
ENDMDL
