MODEL 1
REMARK minimizedAffinity 8.5308466
REMARK minimizedRMSD -1
REMARK  0 active torsions:
REMARK  status: ('A' for Active; 'I' for Inactive)
ROOT
ATOM      1  C   UNL d   1      -2.795  -2.701  -0.826  0.00  0.00     0.020 A 
ATOM      2  C1  UNL d   1      -2.647  -1.362  -0.467  0.00  0.00     0.020 A 
ATOM      3  C2  UNL d   1      -1.872  -1.017   0.642  0.00  0.00     0.034 A 
ATOM      4  C3  UNL d   1      -1.242  -2.013   1.397  0.00  0.00     0.017 A 
ATOM      5  C4  UNL d   1      -1.390  -3.357   1.036  0.00  0.00     0.017 A 
ATOM      6  C5  UNL d   1      -2.167  -3.697  -0.075  0.00  0.00     0.034 A 
ATOM      7 Cl   UNL d   1      -0.643  -4.642   1.919  0.00  0.00    -0.070 Cl
ATOM      8 Cl1  UNL d   1      -0.298  -1.515   2.756  0.00  0.00    -0.070 Cl
ENDROOT
TORSDOF 0
ENDMDL
