MODEL 1
REMARK minimizedAffinity 7.98541641
REMARK minimizedRMSD -1
REMARK  0 active torsions:
REMARK  status: ('A' for Active; 'I' for Inactive)
ROOT
ATOM      1  C   UNL d   1      -0.444  -2.755  -0.701  0.00  0.00     0.020 A 
ATOM      2  C1  UNL d   1      -1.666  -2.308  -1.201  0.00  0.00     0.020 A 
ATOM      3  C2  UNL d   1      -1.883  -2.265  -2.580  0.00  0.00     0.034 A 
ATOM      4  C3  UNL d   1      -0.876  -2.671  -3.463  0.00  0.00     0.017 A 
ATOM      5  C4  UNL d   1       0.351  -3.119  -2.960  0.00  0.00     0.017 A 
ATOM      6  C5  UNL d   1       0.562  -3.160  -1.579  0.00  0.00     0.034 A 
ATOM      7 Cl   UNL d   1       1.641  -3.636  -3.988  0.00  0.00    -0.070 Cl
ATOM      8 Cl1  UNL d   1      -1.213  -2.593  -5.156  0.00  0.00    -0.070 Cl
ENDROOT
TORSDOF 0
ENDMDL
