MODEL 1
REMARK minimizedAffinity 4.61360455
REMARK minimizedRMSD -1
REMARK  0 active torsions:
REMARK  status: ('A' for Active; 'I' for Inactive)
ROOT
ATOM      1  C   UNL d   1       5.999   0.307   0.791  0.00  0.00     0.020 A 
ATOM      2  C1  UNL d   1       5.984   1.639   0.378  0.00  0.00     0.020 A 
ATOM      3  C2  UNL d   1       4.858   2.430   0.611  0.00  0.00     0.034 A 
ATOM      4  C3  UNL d   1       3.741   1.891   1.260  0.00  0.00     0.017 A 
ATOM      5  C4  UNL d   1       3.757   0.554   1.675  0.00  0.00     0.017 A 
ATOM      6  C5  UNL d   1       4.888  -0.234   1.438  0.00  0.00     0.034 A 
ATOM      7 Cl   UNL d   1       2.417  -0.182   2.482  0.00  0.00    -0.070 Cl
ATOM      8 Cl1  UNL d   1       2.382   2.927   1.517  0.00  0.00    -0.070 Cl
ENDROOT
TORSDOF 0
ENDMDL
