MODEL 1
REMARK minimizedAffinity 18.0981522
REMARK minimizedRMSD -1
REMARK  0 active torsions:
REMARK  status: ('A' for Active; 'I' for Inactive)
ROOT
ATOM      1  C   UNL d   1      -2.509  -2.383  -0.002  0.00  0.00     0.020 A 
ATOM      2  C1  UNL d   1      -1.326  -2.385   0.737  0.00  0.00     0.020 A 
ATOM      3  C2  UNL d   1      -0.970  -3.512   1.481  0.00  0.00     0.034 A 
ATOM      4  C3  UNL d   1      -1.797  -4.641   1.489  0.00  0.00     0.017 A 
ATOM      5  C4  UNL d   1      -2.984  -4.638   0.747  0.00  0.00     0.017 A 
ATOM      6  C5  UNL d   1      -3.336  -3.507   0.004  0.00  0.00     0.034 A 
ATOM      7 Cl   UNL d   1      -4.055  -5.994   0.707  0.00  0.00    -0.070 Cl
ATOM      8 Cl1  UNL d   1      -1.294  -5.999   2.432  0.00  0.00    -0.070 Cl
ENDROOT
TORSDOF 0
ENDMDL
