MODEL 1
REMARK minimizedAffinity 13.506546
REMARK minimizedRMSD -1
REMARK  0 active torsions:
REMARK  status: ('A' for Active; 'I' for Inactive)
ROOT
ATOM      1  C   UNL d   1       1.572   0.238   4.273  0.00  0.00     0.020 A 
ATOM      2  C1  UNL d   1       0.477   1.051   4.561  0.00  0.00     0.020 A 
ATOM      3  C2  UNL d   1       0.110   2.068   3.678  0.00  0.00     0.034 A 
ATOM      4  C3  UNL d   1       0.839   2.275   2.501  0.00  0.00     0.017 A 
ATOM      5  C4  UNL d   1       1.939   1.458   2.212  0.00  0.00     0.017 A 
ATOM      6  C5  UNL d   1       2.301   0.441   3.100  0.00  0.00     0.034 A 
ATOM      7 Cl   UNL d   1       2.887   1.652   0.780  0.00  0.00    -0.070 Cl
ATOM      8 Cl1  UNL d   1       0.330   3.551   1.454  0.00  0.00    -0.070 Cl
ENDROOT
TORSDOF 0
ENDMDL
