MODEL 1
REMARK minimizedAffinity 6.66062307
REMARK minimizedRMSD -1
REMARK  0 active torsions:
REMARK  status: ('A' for Active; 'I' for Inactive)
ROOT
ATOM      1  C   UNL d   1       4.003   5.808  -5.993  0.00  0.00     0.020 A 
ATOM      2  C1  UNL d   1       5.362   5.493  -5.993  0.00  0.00     0.020 A 
ATOM      3  C2  UNL d   1       5.769   4.157  -5.995  0.00  0.00     0.034 A 
ATOM      4  C3  UNL d   1       4.817   3.131  -5.996  0.00  0.00     0.017 A 
ATOM      5  C4  UNL d   1       3.454   3.448  -5.996  0.00  0.00     0.017 A 
ATOM      6  C5  UNL d   1       3.052   4.787  -5.995  0.00  0.00     0.034 A 
ATOM      7 Cl   UNL d   1       2.221   2.237  -5.998  0.00  0.00    -0.070 Cl
ATOM      8 Cl1  UNL d   1       5.392   1.502  -5.999  0.00  0.00    -0.070 Cl
ENDROOT
TORSDOF 0
ENDMDL
