MODEL 1
REMARK minimizedAffinity -4.74686241
REMARK minimizedRMSD -1
REMARK  0 active torsions:
REMARK  status: ('A' for Active; 'I' for Inactive)
ROOT
ATOM      1  C   UNL d   1       0.058   2.204  -2.220  0.00  0.00     0.023 A 
ATOM      2  C1  UNL d   1      -0.763   1.243  -1.630  0.00  0.00     0.003 A 
ATOM      3  C2  UNL d   1      -2.152   1.349  -1.734  0.00  0.00     0.048 A 
ATOM      4  C3  UNL d   1      -2.713   2.419  -2.431  0.00  0.00     0.023 A 
ATOM      5  C4  UNL d   1      -1.895   3.382  -3.024  0.00  0.00     0.048 A 
ATOM      6  C5  UNL d   1      -0.508   3.272  -2.916  0.00  0.00     0.003 A 
ATOM      7  I   UNL d   1      -4.779   2.579  -2.588  0.00  0.00    -0.146 I 
ENDROOT
TORSDOF 0
ENDMDL
