MODEL 1
REMARK minimizedAffinity -0.711413026
REMARK minimizedRMSD -1
REMARK  0 active torsions:
REMARK  status: ('A' for Active; 'I' for Inactive)
ROOT
ATOM      1  C   UNL d   1       0.078  -1.268   2.096  0.00  0.00     0.023 A 
ATOM      2  C1  UNL d   1       0.937  -1.537   1.029  0.00  0.00     0.003 A 
ATOM      3  C2  UNL d   1       0.785  -0.855  -0.180  0.00  0.00     0.048 A 
ATOM      4  C3  UNL d   1      -0.226   0.096  -0.315  0.00  0.00     0.023 A 
ATOM      5  C4  UNL d   1      -1.086   0.369   0.750  0.00  0.00     0.048 A 
ATOM      6  C5  UNL d   1      -0.932  -0.317   1.956  0.00  0.00     0.003 A 
ATOM      7  I   UNL d   1      -0.453   1.113  -2.113  0.00  0.00    -0.146 I 
ENDROOT
TORSDOF 0
ENDMDL
