MODEL 1
REMARK minimizedAffinity -4.19783401
REMARK minimizedRMSD -1
REMARK  0 active torsions:
REMARK  status: ('A' for Active; 'I' for Inactive)
ROOT
ATOM      1  C   UNL d   1       0.554  -0.539   2.575  0.00  0.00     0.023 A 
ATOM      2  C1  UNL d   1       1.008   0.763   2.365  0.00  0.00     0.003 A 
ATOM      3  C2  UNL d   1       0.627   1.459   1.216  0.00  0.00     0.048 A 
ATOM      4  C3  UNL d   1      -0.209   0.848   0.282  0.00  0.00     0.023 A 
ATOM      5  C4  UNL d   1      -0.666  -0.454   0.489  0.00  0.00     0.048 A 
ATOM      6  C5  UNL d   1      -0.283  -1.147   1.639  0.00  0.00     0.003 A 
ATOM      7  I   UNL d   1      -0.777   1.882  -1.429  0.00  0.00    -0.146 I 
ENDROOT
TORSDOF 0
ENDMDL
