MODEL 1
REMARK minimizedAffinity 2.50191379
REMARK minimizedRMSD -1
REMARK  0 active torsions:
REMARK  status: ('A' for Active; 'I' for Inactive)
ROOT
ATOM      1  C   UNL d   1       0.537  -0.790   3.011  0.00  0.00     0.023 A 
ATOM      2  C1  UNL d   1      -0.432  -1.046   2.041  0.00  0.00     0.003 A 
ATOM      3  C2  UNL d   1      -0.104  -0.969   0.686  0.00  0.00     0.048 A 
ATOM      4  C3  UNL d   1       1.196  -0.637   0.307  0.00  0.00     0.023 A 
ATOM      5  C4  UNL d   1       2.170  -0.382   1.274  0.00  0.00     0.048 A 
ATOM      6  C5  UNL d   1       1.837  -0.459   2.627  0.00  0.00     0.003 A 
ATOM      7  I   UNL d   1       1.687  -0.523  -1.709  0.00  0.00    -0.146 I 
ENDROOT
TORSDOF 0
ENDMDL
