MODEL 1
REMARK minimizedAffinity 4.94531155
REMARK minimizedRMSD -1
REMARK  0 active torsions:
REMARK  status: ('A' for Active; 'I' for Inactive)
ROOT
ATOM      1  C   UNL d   1      -0.331   3.616  -3.376  0.00  0.00     0.023 A 
ATOM      2  C1  UNL d   1      -1.423   2.970  -2.795  0.00  0.00     0.003 A 
ATOM      3  C2  UNL d   1      -2.188   2.076  -3.547  0.00  0.00     0.048 A 
ATOM      4  C3  UNL d   1      -1.855   1.831  -4.879  0.00  0.00     0.023 A 
ATOM      5  C4  UNL d   1      -0.763   2.474  -5.464  0.00  0.00     0.048 A 
ATOM      6  C5  UNL d   1      -0.001   3.368  -4.709  0.00  0.00     0.003 A 
ATOM      7  I   UNL d   1      -2.992   0.501  -6.000  0.00  0.00    -0.146 I 
ENDROOT
TORSDOF 0
ENDMDL
