MODEL 1
REMARK minimizedAffinity 0.841964841
REMARK minimizedRMSD -1
REMARK  0 active torsions:
REMARK  status: ('A' for Active; 'I' for Inactive)
ROOT
ATOM      1  N1  IND d   1       1.497  -3.302   3.369  0.00  0.00    -0.196 N 
ATOM      2  C2  IND d   1       1.033  -3.845   4.535  0.00  0.00     0.054 A 
ATOM      3  C3  IND d   1      -0.176  -3.325   4.847  0.00  0.00    -0.031 A 
ATOM      4  C4  IND d   1      -1.622  -1.647   3.537  0.00  0.00     0.051 A 
ATOM      5  C5  IND d   1      -1.605  -0.842   2.432  0.00  0.00    -0.031 A 
ATOM      6  C6  IND d   1      -0.533  -0.818   1.564  0.00  0.00     0.015 A 
ATOM      7  C7  IND d   1       0.563  -1.610   1.764  0.00  0.00    -0.016 A 
ATOM      8  C8  IND d   1       0.552  -2.423   2.888  0.00  0.00    -0.047 A 
ATOM      9  C9  IND d   1      -0.515  -2.420   3.796  0.00  0.00    -0.096 A 
ATOM     10  HN1 IND d   1       2.252  -3.480   2.999  0.00  0.00     0.298 HD
ENDROOT
TORSDOF 0
ENDMDL
