MODEL 1
REMARK minimizedAffinity 2.93113065
REMARK minimizedRMSD -1
REMARK  0 active torsions:
REMARK  status: ('A' for Active; 'I' for Inactive)
ROOT
ATOM      1  N1  IND d   1      -1.557  -0.052   1.280  0.00  0.00    -0.196 N 
ATOM      2  C2  IND d   1      -1.382   0.928   0.343  0.00  0.00     0.054 A 
ATOM      3  C3  IND d   1      -0.177   0.796  -0.256  0.00  0.00    -0.031 A 
ATOM      4  C4  IND d   1       1.623  -1.015   0.073  0.00  0.00     0.051 A 
ATOM      5  C5  IND d   1       1.931  -2.100   0.845  0.00  0.00    -0.031 A 
ATOM      6  C6  IND d   1       1.073  -2.569   1.820  0.00  0.00     0.015 A 
ATOM      7  C7  IND d   1      -0.135  -1.974   2.052  0.00  0.00    -0.016 A 
ATOM      8  C8  IND d   1      -0.448  -0.868   1.274  0.00  0.00    -0.047 A 
ATOM      9  C9  IND d   1       0.437  -0.362   0.313  0.00  0.00    -0.096 A 
ATOM     10  HN1 IND d   1      -2.245  -0.143   1.788  0.00  0.00     0.298 HD
ENDROOT
TORSDOF 0
ENDMDL
