MODEL 1
REMARK minimizedAffinity 5.2476306
REMARK minimizedRMSD -1
REMARK  0 active torsions:
REMARK  status: ('A' for Active; 'I' for Inactive)
ROOT
ATOM      1  N1  IND d   1       0.301   1.017   0.657  0.00  0.00    -0.196 N 
ATOM      2  C2  IND d   1      -0.678   0.072   0.528  0.00  0.00     0.054 A 
ATOM      3  C3  IND d   1      -0.133  -1.164   0.473  0.00  0.00    -0.031 A 
ATOM      4  C4  IND d   1       2.332  -1.876   0.676  0.00  0.00     0.051 A 
ATOM      5  C5  IND d   1       3.597  -1.366   0.769  0.00  0.00    -0.031 A 
ATOM      6  C6  IND d   1       3.832  -0.008   0.833  0.00  0.00     0.015 A 
ATOM      7  C7  IND d   1       2.806   0.894   0.818  0.00  0.00    -0.016 A 
ATOM      8  C8  IND d   1       1.521   0.380   0.717  0.00  0.00    -0.047 A 
ATOM      9  C9  IND d   1       1.279  -0.996   0.609  0.00  0.00    -0.096 A 
ATOM     10  HN1 IND d   1       0.176   1.867   0.693  0.00  0.00     0.298 HD
ENDROOT
TORSDOF 0
ENDMDL
