MODEL 1
REMARK minimizedAffinity 0.047643017
REMARK minimizedRMSD -1
REMARK  0 active torsions:
REMARK  status: ('A' for Active; 'I' for Inactive)
ROOT
ATOM      1  N1  IND d   1      -0.229  -0.389   0.759  0.00  0.00    -0.196 N 
ATOM      2  C2  IND d   1       0.710  -0.527  -0.225  0.00  0.00     0.054 A 
ATOM      3  C3  IND d   1       1.537  -1.559   0.055  0.00  0.00    -0.031 A 
ATOM      4  C4  IND d   1       1.471  -3.222   2.019  0.00  0.00     0.051 A 
ATOM      5  C5  IND d   1       0.817  -3.478   3.192  0.00  0.00    -0.031 A 
ATOM      6  C6  IND d   1      -0.241  -2.704   3.621  0.00  0.00     0.015 A 
ATOM      7  C7  IND d   1      -0.695  -1.647   2.884  0.00  0.00    -0.016 A 
ATOM      8  C8  IND d   1      -0.030  -1.379   1.696  0.00  0.00    -0.047 A 
ATOM      9  C9  IND d   1       1.072  -2.135   1.277  0.00  0.00    -0.096 A 
ATOM     10  HN1 IND d   1      -0.841   0.214   0.788  0.00  0.00     0.298 HD
ENDROOT
TORSDOF 0
ENDMDL
