MODEL 1
REMARK minimizedAffinity -1.26553881
REMARK minimizedRMSD -1
REMARK  0 active torsions:
REMARK  status: ('A' for Active; 'I' for Inactive)
ROOT
ATOM      1  N1  IND d   1      -3.067  -4.397  -3.686  0.00  0.00    -0.196 N 
ATOM      2  C2  IND d   1      -3.747  -4.141  -4.844  0.00  0.00     0.054 A 
ATOM      3  C3  IND d   1      -2.997  -4.486  -5.915  0.00  0.00    -0.031 A 
ATOM      4  C4  IND d   1      -0.669  -5.581  -5.999  0.00  0.00     0.051 A 
ATOM      5  C5  IND d   1       0.367  -5.972  -5.197  0.00  0.00    -0.031 A 
ATOM      6  C6  IND d   1       0.309  -5.859  -3.823  0.00  0.00     0.015 A 
ATOM      7  C7  IND d   1      -0.797  -5.358  -3.196  0.00  0.00    -0.016 A 
ATOM      8  C8  IND d   1      -1.848  -4.953  -4.007  0.00  0.00    -0.047 A 
ATOM      9  C9  IND d   1      -1.778  -5.026  -5.404  0.00  0.00    -0.096 A 
ATOM     10  HN1 IND d   1      -3.352  -4.238  -2.891  0.00  0.00     0.298 HD
ENDROOT
TORSDOF 0
ENDMDL
