MODEL 1
REMARK minimizedAffinity 1.132972
REMARK minimizedRMSD -1
REMARK  0 active torsions:
REMARK  status: ('A' for Active; 'I' for Inactive)
ROOT
ATOM      1  N1  IND d   1      -0.916   0.414   0.614  0.00  0.00    -0.196 N 
ATOM      2  C2  IND d   1       0.237  -0.315   0.693  0.00  0.00     0.054 A 
ATOM      3  C3  IND d   1       0.121  -1.460  -0.017  0.00  0.00    -0.031 A 
ATOM      4  C4  IND d   1      -1.836  -2.291  -1.470  0.00  0.00     0.051 A 
ATOM      5  C5  IND d   1      -3.120  -1.986  -1.823  0.00  0.00    -0.031 A 
ATOM      6  C6  IND d   1      -3.748  -0.841  -1.375  0.00  0.00     0.015 A 
ATOM      7  C7  IND d   1      -3.107   0.051  -0.563  0.00  0.00    -0.016 A 
ATOM      8  C8  IND d   1      -1.805  -0.259  -0.196  0.00  0.00    -0.047 A 
ATOM      9  C9  IND d   1      -1.177  -1.440  -0.613  0.00  0.00    -0.096 A 
ATOM     10  HN1 IND d   1      -1.063   1.165   1.005  0.00  0.00     0.298 HD
ENDROOT
TORSDOF 0
ENDMDL
