MODEL 1
REMARK minimizedAffinity 3.03028798
REMARK minimizedRMSD -1
REMARK  0 active torsions:
REMARK  status: ('A' for Active; 'I' for Inactive)
ROOT
ATOM      1  N1  IND d   1      -1.885  -2.483  -1.066  0.00  0.00    -0.196 N 
ATOM      2  C2  IND d   1      -3.022  -1.743  -0.895  0.00  0.00     0.054 A 
ATOM      3  C3  IND d   1      -2.767  -0.659  -0.127  0.00  0.00    -0.031 A 
ATOM      4  C4  IND d   1      -0.536   0.150   0.869  0.00  0.00     0.051 A 
ATOM      5  C5  IND d   1       0.774  -0.212   1.014  0.00  0.00    -0.031 A 
ATOM      6  C6  IND d   1       1.275  -1.372   0.459  0.00  0.00     0.015 A 
ATOM      7  C7  IND d   1       0.484  -2.211  -0.274  0.00  0.00    -0.016 A 
ATOM      8  C8  IND d   1      -0.848  -1.849  -0.417  0.00  0.00    -0.047 A 
ATOM      9  C9  IND d   1      -1.372  -0.695   0.179  0.00  0.00    -0.096 A 
ATOM     10  HN1 IND d   1      -1.828  -3.219  -1.506  0.00  0.00     0.298 HD
ENDROOT
TORSDOF 0
ENDMDL
