MODEL 1
REMARK minimizedAffinity 9.90666485
REMARK minimizedRMSD -1
REMARK  0 active torsions:
REMARK  status: ('A' for Active; 'I' for Inactive)
ROOT
ATOM      1  N1  IND d   1       1.782  -3.279   3.587  0.00  0.00    -0.196 N 
ATOM      2  C2  IND d   1       0.755  -3.511   4.459  0.00  0.00     0.054 A 
ATOM      3  C3  IND d   1      -0.387  -2.951   4.002  0.00  0.00    -0.031 A 
ATOM      4  C4  IND d   1      -0.822  -1.693   1.798  0.00  0.00     0.051 A 
ATOM      5  C5  IND d   1      -0.184  -1.201   0.694  0.00  0.00    -0.031 A 
ATOM      6  C6  IND d   1       1.169  -1.382   0.493  0.00  0.00     0.015 A 
ATOM      7  C7  IND d   1       1.935  -2.075   1.387  0.00  0.00    -0.016 A 
ATOM      8  C8  IND d   1       1.292  -2.571   2.512  0.00  0.00    -0.047 A 
ATOM      9  C9  IND d   1      -0.073  -2.353   2.743  0.00  0.00    -0.096 A 
ATOM     10  HN1 IND d   1       2.597  -3.533   3.693  0.00  0.00     0.298 HD
ENDROOT
TORSDOF 0
ENDMDL
