MODEL 1
REMARK minimizedAffinity 9.98974037
REMARK minimizedRMSD -1
REMARK  0 active torsions:
REMARK  status: ('A' for Active; 'I' for Inactive)
ROOT
ATOM      1  N1  IND d   1      -1.446  -1.400   2.398  0.00  0.00    -0.196 N 
ATOM      2  C2  IND d   1      -1.020  -1.200   1.115  0.00  0.00     0.054 A 
ATOM      3  C3  IND d   1       0.208  -1.737   0.938  0.00  0.00    -0.031 A 
ATOM      4  C4  IND d   1       1.661  -3.077   2.588  0.00  0.00     0.051 A 
ATOM      5  C5  IND d   1       1.712  -3.487   3.890  0.00  0.00    -0.031 A 
ATOM      6  C6  IND d   1       0.691  -3.220   4.779  0.00  0.00     0.015 A 
ATOM      7  C7  IND d   1      -0.429  -2.539   4.394  0.00  0.00    -0.016 A 
ATOM      8  C8  IND d   1      -0.481  -2.114   3.074  0.00  0.00    -0.047 A 
ATOM      9  C9  IND d   1       0.571  -2.346   2.178  0.00  0.00    -0.096 A 
ATOM     10  HN1 IND d   1      -2.191  -1.126   2.728  0.00  0.00     0.298 HD
ENDROOT
TORSDOF 0
ENDMDL
