MODEL 1
REMARK minimizedAffinity 6.31101274
REMARK minimizedRMSD -1
REMARK  0 active torsions:
REMARK  status: ('A' for Active; 'I' for Inactive)
ROOT
ATOM      1  N1  IND d   1       1.403  -3.427   3.371  0.00  0.00    -0.196 N 
ATOM      2  C2  IND d   1       0.703  -3.483   4.544  0.00  0.00     0.054 A 
ATOM      3  C3  IND d   1      -0.339  -2.624   4.512  0.00  0.00    -0.031 A 
ATOM      4  C4  IND d   1      -1.145  -1.101   2.598  0.00  0.00     0.051 A 
ATOM      5  C5  IND d   1      -0.807  -0.679   1.343  0.00  0.00    -0.031 A 
ATOM      6  C6  IND d   1       0.306  -1.162   0.686  0.00  0.00     0.015 A 
ATOM      7  C7  IND d   1       1.120  -2.099   1.257  0.00  0.00    -0.016 A 
ATOM      8  C8  IND d   1       0.784  -2.526   2.534  0.00  0.00    -0.047 A 
ATOM      9  C9  IND d   1      -0.320  -2.007   3.223  0.00  0.00    -0.096 A 
ATOM     10  HN1 IND d   1       2.111  -3.879   3.187  0.00  0.00     0.298 HD
ENDROOT
TORSDOF 0
ENDMDL
