MODEL 1
REMARK minimizedAffinity 6.40630484
REMARK minimizedRMSD -1
REMARK  0 active torsions:
REMARK  status: ('A' for Active; 'I' for Inactive)
ROOT
ATOM      1  N1  IND d   1      -0.011   2.518  -4.594  0.00  0.00    -0.196 N 
ATOM      2  C2  IND d   1       1.201   2.383  -3.976  0.00  0.00     0.054 A 
ATOM      3  C3  IND d   1       1.041   2.316  -2.635  0.00  0.00    -0.031 A 
ATOM      4  C4  IND d   1      -1.126   2.306  -1.245  0.00  0.00     0.051 A 
ATOM      5  C5  IND d   1      -2.481   2.444  -1.361  0.00  0.00    -0.031 A 
ATOM      6  C6  IND d   1      -3.094   2.616  -2.585  0.00  0.00     0.015 A 
ATOM      7  C7  IND d   1      -2.373   2.643  -3.745  0.00  0.00    -0.016 A 
ATOM      8  C8  IND d   1      -0.997   2.510  -3.631  0.00  0.00    -0.047 A 
ATOM      9  C9  IND d   1      -0.365   2.378  -2.388  0.00  0.00    -0.096 A 
ATOM     10  HN1 IND d   1      -0.137   2.596  -5.441  0.00  0.00     0.298 HD
ENDROOT
TORSDOF 0
ENDMDL
