MODEL 1
REMARK minimizedAffinity -6.08193874
REMARK minimizedRMSD -1
REMARK  0 active torsions:
REMARK  status: ('A' for Active; 'I' for Inactive)
ROOT
ATOM      1  N1  IND d   1      -4.390  -2.237   2.276  0.00  0.00    -0.196 N 
ATOM      2  C2  IND d   1      -4.583  -2.238   3.629  0.00  0.00     0.054 A 
ATOM      3  C3  IND d   1      -3.394  -2.232   4.273  0.00  0.00    -0.031 A 
ATOM      4  C4  IND d   1      -1.011  -2.119   3.307  0.00  0.00     0.051 A 
ATOM      5  C5  IND d   1      -0.326  -2.139   2.125  0.00  0.00    -0.031 A 
ATOM      6  C6  IND d   1      -0.974  -2.191   0.907  0.00  0.00     0.015 A 
ATOM      7  C7  IND d   1      -2.337  -2.213   0.827  0.00  0.00    -0.016 A 
ATOM      8  C8  IND d   1      -3.036  -2.201   2.026  0.00  0.00    -0.047 A 
ATOM      9  C9  IND d   1      -2.383  -2.191   3.265  0.00  0.00    -0.096 A 
ATOM     10  HN1 IND d   1      -5.011  -2.257   1.681  0.00  0.00     0.298 HD
ENDROOT
TORSDOF 0
ENDMDL
