MODEL 1
REMARK minimizedAffinity 14.367671
REMARK minimizedRMSD -1
REMARK  0 active torsions:
REMARK  status: ('A' for Active; 'I' for Inactive)
ROOT
ATOM      1  N1  IND d   1      -1.215  -0.779   2.213  0.00  0.00    -0.196 N 
ATOM      2  C2  IND d   1      -0.490  -0.453   1.102  0.00  0.00     0.054 A 
ATOM      3  C3  IND d   1       0.705  -1.086   1.118  0.00  0.00    -0.031 A 
ATOM      4  C4  IND d   1       1.635  -2.782   2.817  0.00  0.00     0.051 A 
ATOM      5  C5  IND d   1       1.352  -3.368   4.018  0.00  0.00    -0.031 A 
ATOM      6  C6  IND d   1       0.174  -3.119   4.692  0.00  0.00     0.015 A 
ATOM      7  C7  IND d   1      -0.774  -2.279   4.181  0.00  0.00    -0.016 A 
ATOM      8  C8  IND d   1      -0.487  -1.676   2.965  0.00  0.00    -0.047 A 
ATOM      9  C9  IND d   1       0.725  -1.892   2.297  0.00  0.00    -0.096 A 
ATOM     10  HN1 IND d   1      -1.996  -0.476   2.410  0.00  0.00     0.298 HD
ENDROOT
TORSDOF 0
ENDMDL
