MODEL 1
REMARK minimizedAffinity -0.157927543
REMARK minimizedRMSD -1
REMARK  0 active torsions:
REMARK  status: ('A' for Active; 'I' for Inactive)
ROOT
ATOM      1  N1  IND d   1      -0.783  -0.795   1.889  0.00  0.00    -0.196 N 
ATOM      2  C2  IND d   1      -0.031  -0.685   0.752  0.00  0.00     0.054 A 
ATOM      3  C3  IND d   1       1.071  -1.463   0.840  0.00  0.00    -0.031 A 
ATOM      4  C4  IND d   1       1.787  -3.079   2.712  0.00  0.00     0.051 A 
ATOM      5  C5  IND d   1       1.441  -3.494   3.968  0.00  0.00    -0.031 A 
ATOM      6  C6  IND d   1       0.312  -3.023   4.606  0.00  0.00     0.015 A 
ATOM      7  C7  IND d   1      -0.523  -2.124   4.005  0.00  0.00    -0.016 A 
ATOM      8  C8  IND d   1      -0.172  -1.695   2.733  0.00  0.00    -0.047 A 
ATOM      9  C9  IND d   1       0.996  -2.137   2.098  0.00  0.00    -0.096 A 
ATOM     10  HN1 IND d   1      -1.515  -0.373   2.049  0.00  0.00     0.298 HD
ENDROOT
TORSDOF 0
ENDMDL
