MODEL 1
REMARK minimizedAffinity -2.26805425
REMARK minimizedRMSD -1
REMARK  0 active torsions:
REMARK  status: ('A' for Active; 'I' for Inactive)
ROOT
ATOM      1  N1  IND d   1      -5.170  -2.513  -6.000  0.00  0.00    -0.196 N 
ATOM      2  C2  IND d   1      -4.272  -1.483  -5.982  0.00  0.00     0.054 A 
ATOM      3  C3  IND d   1      -3.008  -1.962  -5.939  0.00  0.00    -0.031 A 
ATOM      4  C4  IND d   1      -2.180  -4.398  -5.992  0.00  0.00     0.051 A 
ATOM      5  C5  IND d   1      -2.628  -5.689  -5.971  0.00  0.00    -0.031 A 
ATOM      6  C6  IND d   1      -3.974  -5.994  -5.961  0.00  0.00     0.015 A 
ATOM      7  C7  IND d   1      -4.926  -5.014  -5.983  0.00  0.00    -0.016 A 
ATOM      8  C8  IND d   1      -4.474  -3.702  -5.998  0.00  0.00    -0.047 A 
ATOM      9  C9  IND d   1      -3.110  -3.386  -5.965  0.00  0.00    -0.096 A 
ATOM     10  HN1 IND d   1      -6.026  -2.432  -6.010  0.00  0.00     0.298 HD
ENDROOT
TORSDOF 0
ENDMDL
