MODEL 1
REMARK minimizedAffinity -1.06249785
REMARK minimizedRMSD -1
REMARK  0 active torsions:
REMARK  status: ('A' for Active; 'I' for Inactive)
ROOT
ATOM      1  N1  IND d   1      -1.623  -3.757  -5.854  0.00  0.00    -0.196 N 
ATOM      2  C2  IND d   1      -0.959  -4.951  -5.831  0.00  0.00     0.054 A 
ATOM      3  C3  IND d   1      -1.837  -5.979  -5.839  0.00  0.00    -0.031 A 
ATOM      4  C4  IND d   1      -4.407  -5.933  -5.993  0.00  0.00     0.051 A 
ATOM      5  C5  IND d   1      -5.470  -5.074  -6.000  0.00  0.00    -0.031 A 
ATOM      6  C6  IND d   1      -5.302  -3.705  -5.960  0.00  0.00     0.015 A 
ATOM      7  C7  IND d   1      -4.059  -3.141  -5.924  0.00  0.00    -0.016 A 
ATOM      8  C8  IND d   1      -2.977  -4.009  -5.910  0.00  0.00    -0.047 A 
ATOM      9  C9  IND d   1      -3.142  -5.400  -5.907  0.00  0.00    -0.096 A 
ATOM     10  HN1 IND d   1      -1.258  -2.979  -5.837  0.00  0.00     0.298 HD
ENDROOT
TORSDOF 0
ENDMDL
