MODEL 1
REMARK minimizedAffinity -4.42241478
REMARK minimizedRMSD -1
REMARK  2 active torsions:
REMARK  status: ('A' for Active; 'I' for Inactive)
REMARK    1  A    between atoms: C1_2  and  C2_3 
REMARK    2  A    between atoms: C2_3  and  C3_4 
ROOT
ATOM      1  C3  UNL d   1       0.265  -0.059   0.069  0.00  0.00    -0.075 A 
ATOM      2  C4  UNL d   1      -1.131   0.068   0.126  0.00  0.00     0.002 A 
ATOM      3  C5  UNL d   1      -1.735   0.786   1.159  0.00  0.00     0.002 A 
ATOM      4  C6  UNL d   1      -0.955   1.376   2.150  0.00  0.00    -0.004 A 
ATOM      5  C7  UNL d   1       0.431   1.243   2.113  0.00  0.00     0.002 A 
ATOM      6  C8  UNL d   1       1.039   0.529   1.078  0.00  0.00     0.002 A 
ENDROOT
BRANCH   1   7
ATOM      7  C2  UNL d   1       0.927  -0.809  -1.062  0.00  0.00     0.056 C 
BRANCH   7   8
ATOM      8  C1  UNL d   1       0.269  -0.587  -2.427  0.00  0.00     0.007 C 
ATOM      9  C   UNL d   1       1.005   0.429  -3.290  0.00  0.00     0.009 C 
ENDBRANCH   7   8
ENDBRANCH   1   7
TORSDOF 2
ENDMDL
