MODEL 1
REMARK minimizedAffinity -4.10468674
REMARK minimizedRMSD -1
REMARK  2 active torsions:
REMARK  status: ('A' for Active; 'I' for Inactive)
REMARK    1  A    between atoms: C1_2  and  C2_3 
REMARK    2  A    between atoms: C2_3  and  C3_4 
ROOT
ATOM      1  C3  UNL d   1      -0.130   0.011  -0.272  0.00  0.00    -0.075 A 
ATOM      2  C4  UNL d   1       0.447   0.977   0.566  0.00  0.00     0.002 A 
ATOM      3  C5  UNL d   1      -0.156   1.315   1.777  0.00  0.00     0.002 A 
ATOM      4  C6  UNL d   1      -1.347   0.701   2.161  0.00  0.00    -0.004 A 
ATOM      5  C7  UNL d   1      -1.937  -0.247   1.329  0.00  0.00     0.002 A 
ATOM      6  C8  UNL d   1      -1.333  -0.590   0.118  0.00  0.00     0.002 A 
ENDROOT
BRANCH   1   7
ATOM      7  C2  UNL d   1       0.534  -0.380  -1.571  0.00  0.00     0.056 C 
BRANCH   7   8
ATOM      8  C1  UNL d   1       1.339   0.747  -2.225  0.00  0.00     0.007 C 
ATOM      9  C   UNL d   1       1.064   0.895  -3.716  0.00  0.00     0.009 C 
ENDBRANCH   7   8
ENDBRANCH   1   7
TORSDOF 2
ENDMDL
