MODEL 1
REMARK minimizedAffinity -4.57042837
REMARK minimizedRMSD -1
REMARK  2 active torsions:
REMARK  status: ('A' for Active; 'I' for Inactive)
REMARK    1  A    between atoms: C1_2  and  C2_3 
REMARK    2  A    between atoms: C2_3  and  C3_4 
ROOT
ATOM      1  C3  UNL d   1      -0.257   0.187  -0.183  0.00  0.00    -0.075 A 
ATOM      2  C4  UNL d   1      -1.617   0.206   0.160  0.00  0.00     0.002 A 
ATOM      3  C5  UNL d   1      -2.025   0.668   1.412  0.00  0.00     0.002 A 
ATOM      4  C6  UNL d   1      -1.081   1.106   2.338  0.00  0.00    -0.004 A 
ATOM      5  C7  UNL d   1       0.273   1.076   2.014  0.00  0.00     0.002 A 
ATOM      6  C8  UNL d   1       0.684   0.619   0.761  0.00  0.00     0.002 A 
ENDROOT
BRANCH   1   7
ATOM      7  C2  UNL d   1       0.189  -0.285  -1.546  0.00  0.00     0.056 C 
BRANCH   7   8
ATOM      8  C1  UNL d   1       1.071   0.720  -2.296  0.00  0.00     0.007 C 
ATOM      9  C   UNL d   1       0.855   0.701  -3.803  0.00  0.00     0.009 C 
ENDBRANCH   7   8
ENDBRANCH   1   7
TORSDOF 2
ENDMDL
