MODEL 1
REMARK minimizedAffinity -1.71259391
REMARK minimizedRMSD -1
REMARK  2 active torsions:
REMARK  status: ('A' for Active; 'I' for Inactive)
REMARK    1  A    between atoms: C1_2  and  C2_3 
REMARK    2  A    between atoms: C2_3  and  C3_4 
ROOT
ATOM      1  C3  UNL d   1       0.535   0.612   0.741  0.00  0.00    -0.075 A 
ATOM      2  C4  UNL d   1      -0.834   0.564   0.441  0.00  0.00     0.002 A 
ATOM      3  C5  UNL d   1      -1.317  -0.322  -0.523  0.00  0.00     0.002 A 
ATOM      4  C6  UNL d   1      -0.439  -1.161  -1.204  0.00  0.00    -0.004 A 
ATOM      5  C7  UNL d   1       0.925  -1.110  -0.926  0.00  0.00     0.002 A 
ATOM      6  C8  UNL d   1       1.411  -0.228   0.040  0.00  0.00     0.002 A 
ENDROOT
BRANCH   1   7
ATOM      7  C2  UNL d   1       1.061   1.548   1.803  0.00  0.00     0.056 C 
BRANCH   7   8
ATOM      8  C1  UNL d   1      -0.014   2.065   2.765  0.00  0.00     0.007 C 
ATOM      9  C   UNL d   1      -0.815   0.952   3.426  0.00  0.00     0.009 C 
ENDBRANCH   7   8
ENDBRANCH   1   7
TORSDOF 2
ENDMDL
