MODEL 1
REMARK minimizedAffinity -4.24982882
REMARK minimizedRMSD -1
REMARK  2 active torsions:
REMARK  status: ('A' for Active; 'I' for Inactive)
REMARK    1  A    between atoms: C1_2  and  C2_3 
REMARK    2  A    between atoms: C2_3  and  C3_4 
ROOT
ATOM      1  C3  UNL d   1       0.019   0.143   0.356  0.00  0.00    -0.075 A 
ATOM      2  C4  UNL d   1      -1.371  -0.032   0.428  0.00  0.00     0.002 A 
ATOM      3  C5  UNL d   1      -2.114   0.601   1.425  0.00  0.00     0.002 A 
ATOM      4  C6  UNL d   1      -1.478   1.408   2.366  0.00  0.00    -0.004 A 
ATOM      5  C7  UNL d   1      -0.096   1.575   2.314  0.00  0.00     0.002 A 
ATOM      6  C8  UNL d   1       0.650   0.946   1.315  0.00  0.00     0.002 A 
ENDROOT
BRANCH   1   7
ATOM      7  C2  UNL d   1       0.825  -0.516  -0.738  0.00  0.00     0.056 C 
BRANCH   7   8
ATOM      8  C1  UNL d   1       0.277  -0.274  -2.148  0.00  0.00     0.007 C 
ATOM      9  C   UNL d   1       1.293   0.363  -3.086  0.00  0.00     0.009 C 
ENDBRANCH   7   8
ENDBRANCH   1   7
TORSDOF 2
ENDMDL
