MODEL 1
REMARK minimizedAffinity -3.70243406
REMARK minimizedRMSD -1
REMARK  2 active torsions:
REMARK  status: ('A' for Active; 'I' for Inactive)
REMARK    1  A    between atoms: C1_2  and  C2_3 
REMARK    2  A    between atoms: C2_3  and  C3_4 
ROOT
ATOM      1  C3  UNL d   1       0.404  -0.441   0.654  0.00  0.00    -0.075 A 
ATOM      2  C4  UNL d   1       1.116  -1.639   0.490  0.00  0.00     0.002 A 
ATOM      3  C5  UNL d   1       2.319  -1.845   1.165  0.00  0.00     0.002 A 
ATOM      4  C6  UNL d   1       2.831  -0.855   2.002  0.00  0.00    -0.004 A 
ATOM      5  C7  UNL d   1       2.141   0.345   2.158  0.00  0.00     0.002 A 
ATOM      6  C8  UNL d   1       0.934   0.552   1.488  0.00  0.00     0.002 A 
ENDROOT
BRANCH   1   7
ATOM      7  C2  UNL d   1      -0.914  -0.224  -0.051  0.00  0.00     0.056 C 
BRANCH   7   8
ATOM      8  C1  UNL d   1      -2.141  -0.448   0.839  0.00  0.00     0.007 C 
ATOM      9  C   UNL d   1      -1.818  -0.414   2.327  0.00  0.00     0.009 C 
ENDBRANCH   7   8
ENDBRANCH   1   7
TORSDOF 2
ENDMDL
