MODEL 1
REMARK minimizedAffinity -4.09851122
REMARK minimizedRMSD -1
REMARK  2 active torsions:
REMARK  status: ('A' for Active; 'I' for Inactive)
REMARK    1  A    between atoms: C1_2  and  C2_3 
REMARK    2  A    between atoms: C2_3  and  C3_4 
ROOT
ATOM      1  C3  UNL d   1      -0.197  -0.117  -0.383  0.00  0.00    -0.075 A 
ATOM      2  C4  UNL d   1      -1.528   0.063   0.020  0.00  0.00     0.002 A 
ATOM      3  C5  UNL d   1      -1.821   0.661   1.247  0.00  0.00     0.002 A 
ATOM      4  C6  UNL d   1      -0.791   1.075   2.088  0.00  0.00    -0.004 A 
ATOM      5  C7  UNL d   1       0.535   0.885   1.704  0.00  0.00     0.002 A 
ATOM      6  C8  UNL d   1       0.832   0.292   0.476  0.00  0.00     0.002 A 
ENDROOT
BRANCH   1   7
ATOM      7  C2  UNL d   1       0.127  -0.736  -1.722  0.00  0.00     0.056 C 
BRANCH   7   8
ATOM      8  C1  UNL d   1       1.098   0.090  -2.572  0.00  0.00     0.007 C 
ATOM      9  C   UNL d   1       0.683   0.186  -4.034  0.00  0.00     0.009 C 
ENDBRANCH   7   8
ENDBRANCH   1   7
TORSDOF 2
ENDMDL
