MODEL 1
REMARK minimizedAffinity -6.02745914
REMARK minimizedRMSD -1
REMARK  1 active torsions:
REMARK  status: ('A' for Active; 'I' for Inactive)
REMARK    1  A    between atoms: C1_2  and  C2_3 
ROOT
ATOM      1  C2  UNL d   1       0.157   0.040   0.024  0.00  0.00    -0.081 A 
ATOM      2  C3  UNL d   1      -0.543   0.079   1.236  0.00  0.00     0.006 A 
ATOM      3  C4  UNL d   1      -1.257   1.221   1.605  0.00  0.00     0.002 A 
ATOM      4  C5  UNL d   1      -1.290   2.340   0.765  0.00  0.00    -0.080 A 
ATOM      5  C6  UNL d   1      -2.078   3.561   1.136  0.00  0.00     0.076 C 
ATOM      6  C7  UNL d   1      -0.577   2.307  -0.438  0.00  0.00     0.002 A 
ATOM      7  C8  UNL d   1       0.138   1.166  -0.807  0.00  0.00     0.006 A 
ENDROOT
BRANCH   1   8
ATOM      8  C1  UNL d   1       0.874  -1.214  -0.407  0.00  0.00     0.054 C 
ATOM      9  C   UNL d   1       0.063  -1.991  -1.434  0.00  0.00     0.018 C 
ENDBRANCH   1   8
TORSDOF 1
ENDMDL
