MODEL 1
REMARK minimizedAffinity -5.46305609
REMARK minimizedRMSD -1
REMARK  1 active torsions:
REMARK  status: ('A' for Active; 'I' for Inactive)
REMARK    1  A    between atoms: C1_2  and  C2_3 
ROOT
ATOM      1  C2  UNL d   1       0.533  -0.711  -0.427  0.00  0.00    -0.081 A 
ATOM      2  C3  UNL d   1       0.119  -0.911   0.896  0.00  0.00     0.006 A 
ATOM      3  C4  UNL d   1      -0.722   0.012   1.522  0.00  0.00     0.002 A 
ATOM      4  C5  UNL d   1      -1.168   1.146   0.834  0.00  0.00    -0.080 A 
ATOM      5  C6  UNL d   1      -2.096   2.129   1.484  0.00  0.00     0.076 C 
ATOM      6  C7  UNL d   1      -0.740   1.354  -0.482  0.00  0.00     0.002 A 
ATOM      7  C8  UNL d   1       0.101   0.432  -1.108  0.00  0.00     0.006 A 
ENDROOT
BRANCH   1   8
ATOM      8  C1  UNL d   1       1.388  -1.738  -1.125  0.00  0.00     0.054 C 
ATOM      9  C   UNL d   1       0.599  -2.478  -2.197  0.00  0.00     0.018 C 
ENDBRANCH   1   8
TORSDOF 1
ENDMDL
