MODEL 1
REMARK minimizedAffinity -3.6908772
REMARK minimizedRMSD -1
REMARK  1 active torsions:
REMARK  status: ('A' for Active; 'I' for Inactive)
REMARK    1  A    between atoms: C1_2  and  C2_3 
ROOT
ATOM      1  C2  UNL d   1       0.789  -1.266  -0.492  0.00  0.00    -0.081 A 
ATOM      2  C3  UNL d   1       0.062  -1.682   0.630  0.00  0.00     0.006 A 
ATOM      3  C4  UNL d   1      -0.644  -0.755   1.400  0.00  0.00     0.002 A 
ATOM      4  C5  UNL d   1      -0.640   0.602   1.058  0.00  0.00    -0.080 A 
ATOM      5  C6  UNL d   1      -1.418   1.603   1.859  0.00  0.00     0.076 C 
ATOM      6  C7  UNL d   1       0.101   1.020  -0.053  0.00  0.00     0.002 A 
ATOM      7  C8  UNL d   1       0.807   0.093  -0.823  0.00  0.00     0.006 A 
ENDROOT
BRANCH   1   8
ATOM      8  C1  UNL d   1       1.498  -2.272  -1.362  0.00  0.00     0.054 C 
ATOM      9  C   UNL d   1       0.599  -2.761  -2.488  0.00  0.00     0.018 C 
ENDBRANCH   1   8
TORSDOF 1
ENDMDL
