MODEL 1
REMARK minimizedAffinity -4.84339952
REMARK minimizedRMSD -1
REMARK  1 active torsions:
REMARK  status: ('A' for Active; 'I' for Inactive)
REMARK    1  A    between atoms: C1_2  and  C2_3 
ROOT
ATOM      1  C2  UNL d   1       0.338  -0.328  -0.033  0.00  0.00    -0.081 A 
ATOM      2  C3  UNL d   1       0.070   0.003   1.301  0.00  0.00     0.006 A 
ATOM      3  C4  UNL d   1      -1.011   0.826   1.623  0.00  0.00     0.002 A 
ATOM      4  C5  UNL d   1      -1.847   1.325   0.619  0.00  0.00    -0.080 A 
ATOM      5  C6  UNL d   1      -3.030   2.186   0.954  0.00  0.00     0.076 C 
ATOM      6  C7  UNL d   1      -1.570   1.009  -0.716  0.00  0.00     0.002 A 
ATOM      7  C8  UNL d   1      -0.489   0.187  -1.038  0.00  0.00     0.006 A 
ENDROOT
BRANCH   1   8
ATOM      8  C1  UNL d   1       1.464  -1.268  -0.379  0.00  0.00     0.054 C 
ATOM      9  C   UNL d   1       1.018  -2.321  -1.383  0.00  0.00     0.018 C 
ENDBRANCH   1   8
TORSDOF 1
ENDMDL
