MODEL 1
REMARK minimizedAffinity -4.52483511
REMARK minimizedRMSD -1
REMARK  1 active torsions:
REMARK  status: ('A' for Active; 'I' for Inactive)
REMARK    1  A    between atoms: C1_2  and  C2_3 
ROOT
ATOM      1  C2  UNL d   1       0.109  -0.889  -0.512  0.00  0.00    -0.081 A 
ATOM      2  C3  UNL d   1      -0.101  -1.083   0.859  0.00  0.00     0.006 A 
ATOM      3  C4  UNL d   1      -0.848  -0.163   1.598  0.00  0.00     0.002 A 
ATOM      4  C5  UNL d   1      -1.403   0.962   0.978  0.00  0.00    -0.080 A 
ATOM      5  C6  UNL d   1      -2.232   1.942   1.754  0.00  0.00     0.076 C 
ATOM      6  C7  UNL d   1      -1.177   1.165  -0.388  0.00  0.00     0.002 A 
ATOM      7  C8  UNL d   1      -0.430   0.245  -1.127  0.00  0.00     0.006 A 
ENDROOT
BRANCH   1   8
ATOM      8  C1  UNL d   1       0.859  -1.914  -1.324  0.00  0.00     0.054 C 
ATOM      9  C   UNL d   1       0.130  -2.232  -2.622  0.00  0.00     0.018 C 
ENDBRANCH   1   8
TORSDOF 1
ENDMDL
