MODEL 1
REMARK minimizedAffinity 0.331086457
REMARK minimizedRMSD -1
REMARK  1 active torsions:
REMARK  status: ('A' for Active; 'I' for Inactive)
REMARK    1  A    between atoms: C1_2  and  C2_3 
ROOT
ATOM      1  C2  UNL d   1       0.762  -0.867  -0.348  0.00  0.00    -0.081 A 
ATOM      2  C3  UNL d   1       0.284  -0.979   0.964  0.00  0.00     0.006 A 
ATOM      3  C4  UNL d   1      -0.521   0.021   1.512  0.00  0.00     0.002 A 
ATOM      4  C5  UNL d   1      -0.869   1.146   0.757  0.00  0.00    -0.080 A 
ATOM      5  C6  UNL d   1      -1.758   2.213   1.324  0.00  0.00     0.076 C 
ATOM      6  C7  UNL d   1      -0.378   1.267  -0.547  0.00  0.00     0.002 A 
ATOM      7  C8  UNL d   1       0.428   0.267  -1.096  0.00  0.00     0.006 A 
ENDROOT
BRANCH   1   8
ATOM      8  C1  UNL d   1       1.577  -1.975  -0.965  0.00  0.00     0.054 C 
ATOM      9  C   UNL d   1       0.686  -3.009  -1.638  0.00  0.00     0.018 C 
ENDBRANCH   1   8
TORSDOF 1
ENDMDL
