MODEL 1
REMARK minimizedAffinity -0.883482933
REMARK minimizedRMSD -1
REMARK  1 active torsions:
REMARK  status: ('A' for Active; 'I' for Inactive)
REMARK    1  A    between atoms: C1_2  and  C2_3 
ROOT
ATOM      1  C2  UNL d   1       0.970  -1.203  -0.894  0.00  0.00    -0.081 A 
ATOM      2  C3  UNL d   1       0.660  -1.433   0.452  0.00  0.00     0.006 A 
ATOM      3  C4  UNL d   1       0.024  -0.447   1.210  0.00  0.00     0.002 A 
ATOM      4  C5  UNL d   1      -0.320   0.780   0.634  0.00  0.00    -0.080 A 
ATOM      5  C6  UNL d   1      -1.031   1.835   1.428  0.00  0.00     0.076 C 
ATOM      6  C7  UNL d   1       0.005   1.016  -0.706  0.00  0.00     0.002 A 
ATOM      7  C8  UNL d   1       0.641   0.031  -1.465  0.00  0.00     0.006 A 
ENDROOT
BRANCH   1   8
ATOM      8  C1  UNL d   1       1.598  -2.288  -1.732  0.00  0.00     0.054 C 
ATOM      9  C   UNL d   1       0.896  -3.623  -1.524  0.00  0.00     0.018 C 
ENDBRANCH   1   8
TORSDOF 1
ENDMDL
