MODEL 1
REMARK minimizedAffinity -5.43156433
REMARK minimizedRMSD -1
REMARK  1 active torsions:
REMARK  status: ('A' for Active; 'I' for Inactive)
REMARK    1  A    between atoms: C1_2  and  C2_3 
ROOT
ATOM      1  C2  UNL d   1       0.462  -0.283  -0.131  0.00  0.00    -0.081 A 
ATOM      2  C3  UNL d   1      -0.164  -0.401   1.116  0.00  0.00     0.006 A 
ATOM      3  C4  UNL d   1      -1.023   0.602   1.574  0.00  0.00     0.002 A 
ATOM      4  C5  UNL d   1      -1.275   1.733   0.791  0.00  0.00    -0.080 A 
ATOM      5  C6  UNL d   1      -2.218   2.802   1.258  0.00  0.00     0.076 C 
ATOM      6  C7  UNL d   1      -0.636   1.858  -0.447  0.00  0.00     0.002 A 
ATOM      7  C8  UNL d   1       0.223   0.857  -0.905  0.00  0.00     0.006 A 
ENDROOT
BRANCH   1   8
ATOM      8  C1  UNL d   1       1.338  -1.392  -0.656  0.00  0.00     0.054 C 
ATOM      9  C   UNL d   1       0.699  -2.081  -1.854  0.00  0.00     0.018 C 
ENDBRANCH   1   8
TORSDOF 1
ENDMDL
