MODEL 1
REMARK minimizedAffinity -3.98753166
REMARK minimizedRMSD -1
REMARK  1 active torsions:
REMARK  status: ('A' for Active; 'I' for Inactive)
REMARK    1  A    between atoms: C1_2  and  C2_3 
ROOT
ATOM      1  C2  UNL d   1       0.418  -0.897  -0.318  0.00  0.00    -0.081 A 
ATOM      2  C3  UNL d   1      -0.118  -1.126   0.955  0.00  0.00     0.006 A 
ATOM      3  C4  UNL d   1      -0.971  -0.189   1.543  0.00  0.00     0.002 A 
ATOM      4  C5  UNL d   1      -1.310   0.987   0.866  0.00  0.00    -0.080 A 
ATOM      5  C6  UNL d   1      -2.249   1.986   1.473  0.00  0.00     0.076 C 
ATOM      6  C7  UNL d   1      -0.761   1.224  -0.399  0.00  0.00     0.002 A 
ATOM      7  C8  UNL d   1       0.093   0.288  -0.987  0.00  0.00     0.006 A 
ENDROOT
BRANCH   1   8
ATOM      8  C1  UNL d   1       1.287  -1.934  -0.982  0.00  0.00     0.054 C 
ATOM      9  C   UNL d   1       0.504  -2.733  -2.014  0.00  0.00     0.018 C 
ENDBRANCH   1   8
TORSDOF 1
ENDMDL
