MODEL 1
REMARK minimizedAffinity -5.94756985
REMARK minimizedRMSD -1
REMARK  1 active torsions:
REMARK  status: ('A' for Active; 'I' for Inactive)
REMARK    1  A    between atoms: C1_2  and  C2_3 
ROOT
ATOM      1  C2  UNL d   1      -0.760   1.762   0.068  0.00  0.00    -0.081 A 
ATOM      2  C3  UNL d   1      -1.083   1.873   1.426  0.00  0.00     0.006 A 
ATOM      3  C4  UNL d   1      -0.755   0.848   2.317  0.00  0.00     0.002 A 
ATOM      4  C5  UNL d   1      -0.093  -0.299   1.867  0.00  0.00    -0.080 A 
ATOM      5  C6  UNL d   1       0.292  -1.393   2.819  0.00  0.00     0.076 C 
ATOM      6  C7  UNL d   1       0.214  -0.417   0.507  0.00  0.00     0.002 A 
ATOM      7  C8  UNL d   1      -0.114   0.607  -0.384  0.00  0.00     0.006 A 
ENDROOT
BRANCH   1   8
ATOM      8  C1  UNL d   1      -1.055   2.893  -0.884  0.00  0.00     0.054 C 
ATOM      9  C   UNL d   1       0.209   3.366  -1.589  0.00  0.00     0.018 C 
ENDBRANCH   1   8
TORSDOF 1
ENDMDL
