MODEL 1
REMARK minimizedAffinity -5.77078485
REMARK minimizedRMSD -1
REMARK  1 active torsions:
REMARK  status: ('A' for Active; 'I' for Inactive)
REMARK    1  A    between atoms: C1_2  and  C2_3 
ROOT
ATOM      1  C2  UNL d   1       0.645   0.175  -0.139  0.00  0.00    -0.081 A 
ATOM      2  C3  UNL d   1      -0.387  -0.125   0.759  0.00  0.00     0.006 A 
ATOM      3  C4  UNL d   1      -1.303   0.859   1.140  0.00  0.00     0.002 A 
ATOM      4  C5  UNL d   1      -1.207   2.156   0.624  0.00  0.00    -0.080 A 
ATOM      5  C6  UNL d   1      -2.201   3.214   1.001  0.00  0.00     0.076 C 
ATOM      6  C7  UNL d   1      -0.165   2.460  -0.259  0.00  0.00     0.002 A 
ATOM      7  C8  UNL d   1       0.751   1.477  -0.640  0.00  0.00     0.006 A 
ENDROOT
BRANCH   1   8
ATOM      8  C1  UNL d   1       1.594  -0.900  -0.601  0.00  0.00     0.054 C 
ATOM      9  C   UNL d   1       0.929  -1.832  -1.604  0.00  0.00     0.018 C 
ENDBRANCH   1   8
TORSDOF 1
ENDMDL
