MODEL 1
REMARK minimizedAffinity -4.0900774
REMARK minimizedRMSD -1
REMARK  1 active torsions:
REMARK  status: ('A' for Active; 'I' for Inactive)
REMARK    1  A    between atoms: C1_2  and  C2_3 
ROOT
ATOM      1  C2  UNL d   1       0.381  -0.769  -0.198  0.00  0.00    -0.081 A 
ATOM      2  C3  UNL d   1      -0.267  -0.854   1.040  0.00  0.00     0.006 A 
ATOM      3  C4  UNL d   1      -1.008   0.225   1.528  0.00  0.00     0.002 A 
ATOM      4  C5  UNL d   1      -1.119   1.404   0.783  0.00  0.00    -0.080 A 
ATOM      5  C6  UNL d   1      -1.936   2.559   1.281  0.00  0.00     0.076 C 
ATOM      6  C7  UNL d   1      -0.457   1.496  -0.446  0.00  0.00     0.002 A 
ATOM      7  C8  UNL d   1       0.284   0.418  -0.934  0.00  0.00     0.006 A 
ENDROOT
BRANCH   1   8
ATOM      8  C1  UNL d   1       1.127  -1.954  -0.756  0.00  0.00     0.054 C 
ATOM      9  C   UNL d   1       0.358  -2.603  -1.898  0.00  0.00     0.018 C 
ENDBRANCH   1   8
TORSDOF 1
ENDMDL
