MODEL 1
REMARK minimizedAffinity -4.24398613
REMARK minimizedRMSD -1
REMARK  1 active torsions:
REMARK  status: ('A' for Active; 'I' for Inactive)
REMARK    1  A    between atoms: C1_2  and  C2_3 
ROOT
ATOM      1  C2  UNL d   1       0.386   0.454   0.178  0.00  0.00    -0.081 A 
ATOM      2  C3  UNL d   1       0.717   1.495  -0.698  0.00  0.00     0.006 A 
ATOM      3  C4  UNL d   1       0.110   2.747  -0.571  0.00  0.00     0.002 A 
ATOM      4  C5  UNL d   1      -0.830   2.981   0.437  0.00  0.00    -0.080 A 
ATOM      5  C6  UNL d   1      -1.467   4.329   0.603  0.00  0.00     0.076 C 
ATOM      6  C7  UNL d   1      -1.174   1.936   1.302  0.00  0.00     0.002 A 
ATOM      7  C8  UNL d   1      -0.568   0.684   1.175  0.00  0.00     0.006 A 
ENDROOT
BRANCH   1   8
ATOM      8  C1  UNL d   1       1.086  -0.878   0.084  0.00  0.00     0.054 C 
ATOM      9  C   UNL d   1       0.717  -1.608  -1.199  0.00  0.00     0.018 C 
ENDBRANCH   1   8
TORSDOF 1
ENDMDL
