MODEL 1
REMARK minimizedAffinity -5.29108667
REMARK minimizedRMSD -1
REMARK  1 active torsions:
REMARK  status: ('A' for Active; 'I' for Inactive)
REMARK    1  A    between atoms: C1_2  and  C2_3 
ROOT
ATOM      1  C2  UNL d   1       0.358  -0.639  -0.568  0.00  0.00    -0.081 A 
ATOM      2  C3  UNL d   1       0.102  -1.019   0.755  0.00  0.00     0.006 A 
ATOM      3  C4  UNL d   1      -0.620  -0.179   1.606  0.00  0.00     0.002 A 
ATOM      4  C5  UNL d   1      -1.104   1.050   1.147  0.00  0.00    -0.080 A 
ATOM      5  C6  UNL d   1      -1.906   1.948   2.042  0.00  0.00     0.076 C 
ATOM      6  C7  UNL d   1      -0.834   1.438  -0.170  0.00  0.00     0.002 A 
ATOM      7  C8  UNL d   1      -0.111   0.599  -1.021  0.00  0.00     0.006 A 
ENDROOT
BRANCH   1   8
ATOM      8  C1  UNL d   1       1.080  -1.570  -1.508  0.00  0.00     0.054 C 
ATOM      9  C   UNL d   1       0.106  -2.480  -2.242  0.00  0.00     0.018 C 
ENDBRANCH   1   8
TORSDOF 1
ENDMDL
