MODEL 1
REMARK minimizedAffinity 13.984026
REMARK minimizedRMSD -1
REMARK  0 active torsions:
REMARK  status: ('A' for Active; 'I' for Inactive)
ROOT
ATOM      1  C   UNL d   1      -5.295   4.107  -5.432  0.00  0.00    -0.002 A 
ATOM      2  C1  UNL d   1      -4.273   4.239  -4.502  0.00  0.00     0.010 A 
ATOM      3  C2  UNL d   1      -3.856   3.143  -3.744  0.00  0.00     0.041 A 
ATOM      4  C3  UNL d   1      -4.487   1.899  -3.940  0.00  0.00    -0.075 A 
ATOM      5  S   UNL d   1      -4.142   0.418  -3.127  0.00  0.00     0.015 SA
ATOM      6  C4  UNL d   1      -5.342  -0.425  -3.996  0.00  0.00     0.022 A 
ATOM      7  C5  UNL d   1      -6.000   0.388  -4.888  0.00  0.00     0.026 A 
ATOM      8  C6  UNL d   1      -5.518   1.740  -4.871  0.00  0.00    -0.082 A 
ATOM      9  C7  UNL d   1      -5.919   2.871  -5.623  0.00  0.00     0.045 A 
ENDROOT
TORSDOF 0
ENDMDL
