MODEL 1
REMARK minimizedAffinity 1.04597938
REMARK minimizedRMSD -1
REMARK  0 active torsions:
REMARK  status: ('A' for Active; 'I' for Inactive)
ROOT
ATOM      1  C   UNL d   1       0.394  -3.974   3.172  0.00  0.00    -0.002 A 
ATOM      2  C1  UNL d   1       1.349  -4.369   2.245  0.00  0.00     0.010 A 
ATOM      3  C2  UNL d   1       1.711  -3.523   1.195  0.00  0.00     0.041 A 
ATOM      4  C3  UNL d   1       1.092  -2.262   1.091  0.00  0.00    -0.075 A 
ATOM      5  S   UNL d   1       1.378  -1.060  -0.112  0.00  0.00     0.015 SA
ATOM      6  C4  UNL d   1       0.240   0.006   0.577  0.00  0.00     0.022 A 
ATOM      7  C5  UNL d   1      -0.353  -0.526   1.697  0.00  0.00     0.026 A 
ATOM      8  C6  UNL d   1       0.129  -1.842   2.012  0.00  0.00    -0.082 A 
ATOM      9  C7  UNL d   1      -0.217  -2.722   3.065  0.00  0.00     0.045 A 
ENDROOT
TORSDOF 0
ENDMDL
