MODEL 1
REMARK minimizedAffinity 1.2560488
REMARK minimizedRMSD -1
REMARK  0 active torsions:
REMARK  status: ('A' for Active; 'I' for Inactive)
ROOT
ATOM      1  C   UNL d   1       0.358  -1.054   1.267  0.00  0.00    -0.002 A 
ATOM      2  C1  UNL d   1       1.097  -0.580   0.192  0.00  0.00     0.010 A 
ATOM      3  C2  UNL d   1       2.240  -1.258  -0.238  0.00  0.00     0.041 A 
ATOM      4  C3  UNL d   1       2.630  -2.432   0.436  0.00  0.00    -0.075 A 
ATOM      5  S   UNL d   1       3.992  -3.428   0.086  0.00  0.00     0.015 SA
ATOM      6  C4  UNL d   1       3.624  -4.507   1.353  0.00  0.00     0.022 A 
ATOM      7  C5  UNL d   1       2.493  -4.131   2.038  0.00  0.00     0.026 A 
ATOM      8  C6  UNL d   1       1.901  -2.929   1.520  0.00  0.00    -0.082 A 
ATOM      9  C7  UNL d   1       0.747  -2.219   1.932  0.00  0.00     0.045 A 
ENDROOT
TORSDOF 0
ENDMDL
