MODEL 1
REMARK minimizedAffinity 11.3682985
REMARK minimizedRMSD -1
REMARK  0 active torsions:
REMARK  status: ('A' for Active; 'I' for Inactive)
ROOT
ATOM      1  C   UNL d   1      -2.449   0.742   1.507  0.00  0.00    -0.002 A 
ATOM      2  C1  UNL d   1      -1.667   0.946   0.379  0.00  0.00     0.010 A 
ATOM      3  C2  UNL d   1      -0.487   0.224   0.193  0.00  0.00     0.041 A 
ATOM      4  C3  UNL d   1      -0.104  -0.719   1.167  0.00  0.00    -0.075 A 
ATOM      5  S   UNL d   1       1.300  -1.720   1.150  0.00  0.00     0.015 SA
ATOM      6  C4  UNL d   1       0.893  -2.443   2.639  0.00  0.00     0.022 A 
ATOM      7  C5  UNL d   1      -0.281  -1.945   3.151  0.00  0.00     0.026 A 
ATOM      8  C6  UNL d   1      -0.875  -0.943   2.311  0.00  0.00    -0.082 A 
ATOM      9  C7  UNL d   1      -2.066  -0.194   2.471  0.00  0.00     0.045 A 
ENDROOT
TORSDOF 0
ENDMDL
