MODEL 1
REMARK minimizedAffinity 5.86797667
REMARK minimizedRMSD -1
REMARK  0 active torsions:
REMARK  status: ('A' for Active; 'I' for Inactive)
ROOT
ATOM      1  C   UNL d   1       2.858   0.950  -1.648  0.00  0.00    -0.002 A 
ATOM      2  C1  UNL d   1       3.548   0.062  -0.835  0.00  0.00     0.010 A 
ATOM      3  C2  UNL d   1       2.870  -0.707   0.113  0.00  0.00     0.041 A 
ATOM      4  C3  UNL d   1       1.473  -0.568   0.231  0.00  0.00    -0.075 A 
ATOM      5  S   UNL d   1       0.434  -1.407   1.321  0.00  0.00     0.015 SA
ATOM      6  C4  UNL d   1      -0.952  -0.607   0.732  0.00  0.00     0.022 A 
ATOM      7  C5  UNL d   1      -0.647   0.282  -0.271  0.00  0.00     0.026 A 
ATOM      8  C6  UNL d   1       0.756   0.319  -0.577  0.00  0.00    -0.082 A 
ATOM      9  C7  UNL d   1       1.472   1.085  -1.528  0.00  0.00     0.045 A 
ENDROOT
TORSDOF 0
ENDMDL
