MODEL 1
REMARK minimizedAffinity -1.1751188
REMARK minimizedRMSD -1
REMARK  1 active torsions:
REMARK  status: ('A' for Active; 'I' for Inactive)
REMARK    1  A    between atoms: C1_2  and  C2_3 
ROOT
ATOM      1  C2  UNL d   1      -0.005  -0.825   2.784  0.00  0.00    -0.076 A 
ATOM      2  C3  UNL d   1       0.149   0.514   2.383  0.00  0.00     0.004 A 
ATOM      3  C4  UNL d   1      -0.925   1.237   1.868  0.00  0.00    -0.003 A 
ATOM      4  C5  UNL d   1      -2.172   0.633   1.744  0.00  0.00     0.000 A 
ATOM      5  C6  UNL d   1      -2.347  -0.688   2.153  0.00  0.00     0.000 A 
ATOM      6  C7  UNL d   1      -1.279  -1.426   2.690  0.00  0.00    -0.073 A 
ATOM      7  C8  UNL d   1      -1.523  -2.850   3.109  0.00  0.00     0.078 C 
ENDROOT
BRANCH   1   8
ATOM      8  C1  UNL d   1       1.202  -1.567   3.310  0.00  0.00     0.053 C 
ATOM      9  C   UNL d   1       1.450  -1.302   4.787  0.00  0.00     0.018 C 
ENDBRANCH   1   8
TORSDOF 1
ENDMDL
