MODEL 1
REMARK minimizedAffinity -0.0224142037
REMARK minimizedRMSD -1
REMARK  1 active torsions:
REMARK  status: ('A' for Active; 'I' for Inactive)
REMARK    1  A    between atoms: C1_2  and  C2_3 
ROOT
ATOM      1  C2  UNL d   1      -1.487  -0.680   0.476  0.00  0.00    -0.076 A 
ATOM      2  C3  UNL d   1      -0.206  -1.123   0.849  0.00  0.00     0.004 A 
ATOM      3  C4  UNL d   1       0.352  -0.755   2.072  0.00  0.00    -0.003 A 
ATOM      4  C5  UNL d   1      -0.362   0.060   2.943  0.00  0.00     0.000 A 
ATOM      5  C6  UNL d   1      -1.641   0.495   2.597  0.00  0.00     0.000 A 
ATOM      6  C7  UNL d   1      -2.225   0.120   1.375  0.00  0.00    -0.073 A 
ATOM      7  C8  UNL d   1      -3.605   0.623   1.050  0.00  0.00     0.078 C 
ENDROOT
BRANCH   1   8
ATOM      8  C1  UNL d   1      -2.030  -1.088  -0.875  0.00  0.00     0.053 C 
ATOM      9  C   UNL d   1      -1.115  -2.063  -1.600  0.00  0.00     0.018 C 
ENDBRANCH   1   8
TORSDOF 1
ENDMDL
