MODEL 1
REMARK minimizedAffinity 0.515209496
REMARK minimizedRMSD -1
REMARK  1 active torsions:
REMARK  status: ('A' for Active; 'I' for Inactive)
REMARK    1  A    between atoms: C1_2  and  C2_3 
ROOT
ATOM      1  C2  UNL d   1       2.241  -1.147  -4.760  0.00  0.00    -0.076 A 
ATOM      2  C3  UNL d   1       2.928  -1.800  -3.722  0.00  0.00     0.004 A 
ATOM      3  C4  UNL d   1       2.252  -2.621  -2.820  0.00  0.00    -0.003 A 
ATOM      4  C5  UNL d   1       0.878  -2.801  -2.942  0.00  0.00     0.000 A 
ATOM      5  C6  UNL d   1       0.184  -2.174  -3.977  0.00  0.00     0.000 A 
ATOM      6  C7  UNL d   1       0.853  -1.357  -4.904  0.00  0.00    -0.073 A 
ATOM      7  C8  UNL d   1       0.054  -0.701  -5.996  0.00  0.00     0.078 C 
ENDROOT
BRANCH   1   8
ATOM      8  C1  UNL d   1       3.023  -0.248  -5.691  0.00  0.00     0.053 C 
ATOM      9  C   UNL d   1       4.409  -0.792  -6.000  0.00  0.00     0.018 C 
ENDBRANCH   1   8
TORSDOF 1
ENDMDL
