MODEL 1
REMARK minimizedAffinity 5.22273493
REMARK minimizedRMSD -1
REMARK  1 active torsions:
REMARK  status: ('A' for Active; 'I' for Inactive)
REMARK    1  A    between atoms: C1_2  and  C2_3 
ROOT
ATOM      1  C2  UNL d   1       0.425  -1.776   3.692  0.00  0.00    -0.076 A 
ATOM      2  C3  UNL d   1       0.483  -1.647   5.091  0.00  0.00     0.004 A 
ATOM      3  C4  UNL d   1       1.594  -1.082   5.714  0.00  0.00    -0.003 A 
ATOM      4  C5  UNL d   1       2.665  -0.635   4.949  0.00  0.00     0.000 A 
ATOM      5  C6  UNL d   1       2.617  -0.738   3.559  0.00  0.00     0.000 A 
ATOM      6  C7  UNL d   1       1.498  -1.291   2.914  0.00  0.00    -0.073 A 
ATOM      7  C8  UNL d   1       1.502  -1.384   1.412  0.00  0.00     0.078 C 
ENDROOT
BRANCH   1   8
ATOM      8  C1  UNL d   1      -0.794  -2.423   3.074  0.00  0.00     0.053 C 
ATOM      9  C   UNL d   1      -1.848  -1.406   2.665  0.00  0.00     0.018 C 
ENDBRANCH   1   8
TORSDOF 1
ENDMDL
