MODEL 1
REMARK minimizedAffinity 4.21838331
REMARK minimizedRMSD -1
REMARK  1 active torsions:
REMARK  status: ('A' for Active; 'I' for Inactive)
REMARK    1  A    between atoms: C1_2  and  C2_3 
ROOT
ATOM      1  C2  UNL d   1       0.299  -1.310   2.983  0.00  0.00    -0.076 A 
ATOM      2  C3  UNL d   1       0.053  -0.128   2.263  0.00  0.00     0.004 A 
ATOM      3  C4  UNL d   1      -1.192   0.114   1.686  0.00  0.00    -0.003 A 
ATOM      4  C5  UNL d   1      -2.212  -0.821   1.820  0.00  0.00     0.000 A 
ATOM      5  C6  UNL d   1      -1.991  -1.991   2.546  0.00  0.00     0.000 A 
ATOM      6  C7  UNL d   1      -0.746  -2.244   3.148  0.00  0.00    -0.073 A 
ATOM      7  C8  UNL d   1      -0.562  -3.525   3.914  0.00  0.00     0.078 C 
ENDROOT
BRANCH   1   8
ATOM      8  C1  UNL d   1       1.678  -1.531   3.564  0.00  0.00     0.053 C 
ATOM      9  C   UNL d   1       1.739  -1.225   5.052  0.00  0.00     0.018 C 
ENDBRANCH   1   8
TORSDOF 1
ENDMDL
