MODEL 1
REMARK minimizedAffinity 9.51410484
REMARK minimizedRMSD -1
REMARK  1 active torsions:
REMARK  status: ('A' for Active; 'I' for Inactive)
REMARK    1  A    between atoms: C1_2  and  C2_3 
ROOT
ATOM      1  C2  UNL d   1       0.483  -0.905  -4.906  0.00  0.00    -0.076 A 
ATOM      2  C3  UNL d   1      -0.042  -0.001  -5.846  0.00  0.00     0.004 A 
ATOM      3  C4  UNL d   1      -1.418   0.156  -6.000  0.00  0.00    -0.003 A 
ATOM      4  C5  UNL d   1      -2.293  -0.587  -5.215  0.00  0.00     0.000 A 
ATOM      5  C6  UNL d   1      -1.790  -1.475  -4.265  0.00  0.00     0.000 A 
ATOM      6  C7  UNL d   1      -0.405  -1.634  -4.086  0.00  0.00    -0.073 A 
ATOM      7  C8  UNL d   1       0.082  -2.610  -3.051  0.00  0.00     0.078 C 
ENDROOT
BRANCH   1   8
ATOM      8  C1  UNL d   1       1.984  -1.053  -4.803  0.00  0.00     0.053 C 
ATOM      9  C   UNL d   1       2.729  -0.031  -5.648  0.00  0.00     0.018 C 
ENDBRANCH   1   8
TORSDOF 1
ENDMDL
