MODEL 1
REMARK minimizedAffinity -0.102836646
REMARK minimizedRMSD -1
REMARK  1 active torsions:
REMARK  status: ('A' for Active; 'I' for Inactive)
REMARK    1  A    between atoms: C1_2  and  C2_3 
ROOT
ATOM      1  C2  UNL d   1       0.091  -1.128   2.796  0.00  0.00    -0.076 A 
ATOM      2  C3  UNL d   1      -0.912  -2.039   3.173  0.00  0.00     0.004 A 
ATOM      3  C4  UNL d   1      -2.225  -1.881   2.734  0.00  0.00    -0.003 A 
ATOM      4  C5  UNL d   1      -2.557  -0.810   1.911  0.00  0.00     0.000 A 
ATOM      5  C6  UNL d   1      -1.572   0.092   1.513  0.00  0.00     0.000 A 
ATOM      6  C7  UNL d   1      -0.239  -0.062   1.933  0.00  0.00    -0.073 A 
ATOM      7  C8  UNL d   1       0.782   0.945   1.478  0.00  0.00     0.078 C 
ENDROOT
BRANCH   1   8
ATOM      8  C1  UNL d   1       1.493  -1.335   3.324  0.00  0.00     0.053 C 
ATOM      9  C   UNL d   1       1.587  -1.116   4.826  0.00  0.00     0.018 C 
ENDBRANCH   1   8
TORSDOF 1
ENDMDL
