MODEL 1
REMARK minimizedAffinity -1.58708405
REMARK minimizedRMSD -1
REMARK  1 active torsions:
REMARK  status: ('A' for Active; 'I' for Inactive)
REMARK    1  A    between atoms: C1_2  and  C2_3 
ROOT
ATOM      1  C2  UNL d   1       0.282  -0.803   3.160  0.00  0.00    -0.076 A 
ATOM      2  C3  UNL d   1       0.110   0.429   2.506  0.00  0.00     0.004 A 
ATOM      3  C4  UNL d   1      -1.050   0.701   1.783  0.00  0.00    -0.003 A 
ATOM      4  C5  UNL d   1      -2.057  -0.255   1.702  0.00  0.00     0.000 A 
ATOM      5  C6  UNL d   1      -1.910  -1.476   2.359  0.00  0.00     0.000 A 
ATOM      6  C7  UNL d   1      -0.754  -1.760   3.107  0.00  0.00    -0.073 A 
ATOM      7  C8  UNL d   1      -0.645  -3.095   3.790  0.00  0.00     0.078 C 
ENDROOT
BRANCH   1   8
ATOM      8  C1  UNL d   1       1.573  -1.052   3.907  0.00  0.00     0.053 C 
ATOM      9  C   UNL d   1       1.405  -0.940   5.414  0.00  0.00     0.018 C 
ENDBRANCH   1   8
TORSDOF 1
ENDMDL
