MODEL 1
REMARK minimizedAffinity 1.08438718
REMARK minimizedRMSD -1
REMARK  1 active torsions:
REMARK  status: ('A' for Active; 'I' for Inactive)
REMARK    1  A    between atoms: C1_2  and  C2_3 
ROOT
ATOM      1  C2  UNL d   1       0.404   0.132   2.216  0.00  0.00    -0.076 A 
ATOM      2  C3  UNL d   1      -0.791   0.729   1.779  0.00  0.00     0.004 A 
ATOM      3  C4  UNL d   1      -1.978   0.001   1.724  0.00  0.00    -0.003 A 
ATOM      4  C5  UNL d   1      -1.990  -1.336   2.106  0.00  0.00     0.000 A 
ATOM      5  C6  UNL d   1      -0.818  -1.939   2.560  0.00  0.00     0.000 A 
ATOM      6  C7  UNL d   1       0.385  -1.215   2.636  0.00  0.00    -0.073 A 
ATOM      7  C8  UNL d   1       1.621  -1.918   3.127  0.00  0.00     0.078 C 
ENDROOT
BRANCH   1   8
ATOM      8  C1  UNL d   1       1.667   0.963   2.229  0.00  0.00     0.053 C 
ATOM      9  C   UNL d   1       1.859   1.751   0.942  0.00  0.00     0.018 C 
ENDBRANCH   1   8
TORSDOF 1
ENDMDL
