MODEL 1
REMARK minimizedAffinity -2.80115795
REMARK minimizedRMSD -1
REMARK  0 active torsions:
REMARK  status: ('A' for Active; 'I' for Inactive)
ROOT
ATOM      1  C   UNL d   1      -0.456  -1.441   1.621  0.00  0.00     0.124 A 
ATOM      2  C1  UNL d   1       0.799  -1.798   1.146  0.00  0.00     0.062 A 
ATOM      3  C2  UNL d   1       1.465  -0.976   0.241  0.00  0.00     0.162 A 
ATOM      4  C3  UNL d   1       0.878   0.211  -0.195  0.00  0.00    -0.034 A 
ATOM      5  C4  UNL d   1      -0.385   0.563   0.287  0.00  0.00     0.162 A 
ATOM      6  C5  UNL d   1      -1.046  -0.262   1.191  0.00  0.00     0.062 A 
ATOM      7  F   UNL d   1      -2.258   0.085   1.648  0.00  0.00    -0.097 F 
ATOM      8  F1  UNL d   1      -0.978   1.698  -0.111  0.00  0.00    -0.096 F 
ATOM      9  I   UNL d   1       1.870   1.443  -1.547  0.00  0.00    -0.060 I 
ATOM     10  F2  UNL d   1       2.676  -1.346  -0.201  0.00  0.00    -0.096 F 
ATOM     11  F3  UNL d   1       1.371  -2.938   1.559  0.00  0.00    -0.097 F 
ATOM     12  F4  UNL d   1      -1.094  -2.235   2.490  0.00  0.00    -0.092 F 
ENDROOT
TORSDOF 0
ENDMDL
