MODEL 1
REMARK minimizedAffinity -0.558622122
REMARK minimizedRMSD -1
REMARK  0 active torsions:
REMARK  status: ('A' for Active; 'I' for Inactive)
ROOT
ATOM      1  C   UNL d   1       0.179  -0.909   0.838  0.00  0.00     0.124 A 
ATOM      2  C1  UNL d   1       1.335  -0.182   0.592  0.00  0.00     0.062 A 
ATOM      3  C2  UNL d   1       1.378   0.732  -0.457  0.00  0.00     0.162 A 
ATOM      4  C3  UNL d   1       0.259   0.925  -1.268  0.00  0.00    -0.034 A 
ATOM      5  C4  UNL d   1      -0.900   0.190  -1.014  0.00  0.00     0.162 A 
ATOM      6  C5  UNL d   1      -0.938  -0.723   0.035  0.00  0.00     0.062 A 
ATOM      7  F   UNL d   1      -2.056  -1.424   0.271  0.00  0.00    -0.097 F 
ATOM      8  F1  UNL d   1      -1.994   0.351  -1.774  0.00  0.00    -0.096 F 
ATOM      9  I   UNL d   1       0.318   2.291  -2.837  0.00  0.00    -0.060 I 
ATOM     10  F2  UNL d   1       2.508   1.420  -0.672  0.00  0.00    -0.096 F 
ATOM     11  F3  UNL d   1       2.415  -0.361   1.366  0.00  0.00    -0.097 F 
ATOM     12  F4  UNL d   1       0.141  -1.788   1.848  0.00  0.00    -0.092 F 
ENDROOT
TORSDOF 0
ENDMDL
