MODEL 1
REMARK minimizedAffinity -4.90144873
REMARK minimizedRMSD -1
REMARK  0 active torsions:
REMARK  status: ('A' for Active; 'I' for Inactive)
ROOT
ATOM      1  C   UNL d   1       1.018   0.318  -0.345  0.00  0.00     0.124 A 
ATOM      2  C1  UNL d   1      -0.265   0.827  -0.200  0.00  0.00     0.062 A 
ATOM      3  C2  UNL d   1      -1.244   0.080   0.449  0.00  0.00     0.162 A 
ATOM      4  C3  UNL d   1      -0.944  -1.183   0.958  0.00  0.00    -0.034 A 
ATOM      5  C4  UNL d   1       0.349  -1.688   0.807  0.00  0.00     0.162 A 
ATOM      6  C5  UNL d   1       1.324  -0.938   0.158  0.00  0.00     0.062 A 
ATOM      7  F   UNL d   1       2.563  -1.431   0.018  0.00  0.00    -0.097 F 
ATOM      8  F1  UNL d   1       0.672  -2.899   1.285  0.00  0.00    -0.096 F 
ATOM      9  I   UNL d   1      -2.405  -2.303   1.929  0.00  0.00    -0.060 I 
ATOM     10  F2  UNL d   1      -2.476   0.596   0.575  0.00  0.00    -0.096 F 
ATOM     11  F3  UNL d   1      -0.563   2.040  -0.686  0.00  0.00    -0.097 F 
ATOM     12  F4  UNL d   1       1.958   1.038  -0.971  0.00  0.00    -0.092 F 
ENDROOT
TORSDOF 0
ENDMDL
