MODEL 1
REMARK minimizedAffinity -3.90880251
REMARK minimizedRMSD -1
REMARK  0 active torsions:
REMARK  status: ('A' for Active; 'I' for Inactive)
ROOT
ATOM      1  C   UNL d   1      -1.078   1.435   0.798  0.00  0.00     0.124 A 
ATOM      2  C1  UNL d   1       0.270   1.609   0.517  0.00  0.00     0.062 A 
ATOM      3  C2  UNL d   1       1.121   0.508   0.464  0.00  0.00     0.162 A 
ATOM      4  C3  UNL d   1       0.626  -0.776   0.692  0.00  0.00    -0.034 A 
ATOM      5  C4  UNL d   1      -0.731  -0.942   0.975  0.00  0.00     0.162 A 
ATOM      6  C5  UNL d   1      -1.577   0.161   1.027  0.00  0.00     0.062 A 
ATOM      7  F   UNL d   1      -2.879  -0.009   1.299  0.00  0.00    -0.097 F 
ATOM      8  F1  UNL d   1      -1.239  -2.163   1.199  0.00  0.00    -0.096 F 
ATOM      9  I   UNL d   1       1.896  -2.423   0.614  0.00  0.00    -0.060 I 
ATOM     10  F2  UNL d   1       2.419   0.705   0.191  0.00  0.00    -0.096 F 
ATOM     11  F3  UNL d   1       0.755   2.839   0.297  0.00  0.00    -0.097 F 
ATOM     12  F4  UNL d   1      -1.895   2.496   0.849  0.00  0.00    -0.092 F 
ENDROOT
TORSDOF 0
ENDMDL
