MODEL 1
REMARK minimizedAffinity 2.27807403
REMARK minimizedRMSD -1
REMARK  0 active torsions:
REMARK  status: ('A' for Active; 'I' for Inactive)
ROOT
ATOM      1  C   UNL d   1      -0.118  -2.442   2.524  0.00  0.00     0.124 A 
ATOM      2  C1  UNL d   1      -1.029  -2.185   1.509  0.00  0.00     0.062 A 
ATOM      3  C2  UNL d   1      -0.681  -1.348   0.452  0.00  0.00     0.162 A 
ATOM      4  C3  UNL d   1       0.584  -0.763   0.404  0.00  0.00    -0.034 A 
ATOM      5  C4  UNL d   1       1.495  -1.026   1.429  0.00  0.00     0.162 A 
ATOM      6  C5  UNL d   1       1.143  -1.863   2.483  0.00  0.00     0.062 A 
ATOM      7  F   UNL d   1       2.024  -2.111   3.463  0.00  0.00    -0.097 F 
ATOM      8  F1  UNL d   1       2.720  -0.480   1.414  0.00  0.00    -0.096 F 
ATOM      9  I   UNL d   1       1.107   0.488  -1.174  0.00  0.00    -0.060 I 
ATOM     10  F2  UNL d   1      -1.582  -1.117  -0.515  0.00  0.00    -0.096 F 
ATOM     11  F3  UNL d   1      -2.247  -2.742   1.547  0.00  0.00    -0.097 F 
ATOM     12  F4  UNL d   1      -0.455  -3.247   3.540  0.00  0.00    -0.092 F 
ENDROOT
TORSDOF 0
ENDMDL
