MODEL 1
REMARK minimizedAffinity 0.114346303
REMARK minimizedRMSD -1
REMARK  0 active torsions:
REMARK  status: ('A' for Active; 'I' for Inactive)
ROOT
ATOM      1  C   UNL d   1      -0.573  -2.327   1.029  0.00  0.00     0.124 A 
ATOM      2  C1  UNL d   1      -1.804  -2.038   1.600  0.00  0.00     0.062 A 
ATOM      3  C2  UNL d   1      -2.271  -0.727   1.632  0.00  0.00     0.162 A 
ATOM      4  C3  UNL d   1      -1.506   0.306   1.089  0.00  0.00    -0.034 A 
ATOM      5  C4  UNL d   1      -0.268   0.008   0.517  0.00  0.00     0.162 A 
ATOM      6  C5  UNL d   1       0.194  -1.304   0.488  0.00  0.00     0.062 A 
ATOM      7  F   UNL d   1       1.384  -1.581  -0.064  0.00  0.00    -0.097 F 
ATOM      8  F1  UNL d   1       0.493   0.977  -0.013  0.00  0.00    -0.096 F 
ATOM      9  I   UNL d   1      -2.201   2.267   1.135  0.00  0.00    -0.060 I 
ATOM     10  F2  UNL d   1      -3.465  -0.477   2.190  0.00  0.00    -0.096 F 
ATOM     11  F3  UNL d   1      -2.547  -3.024   2.124  0.00  0.00    -0.097 F 
ATOM     12  F4  UNL d   1      -0.126  -3.589   1.000  0.00  0.00    -0.092 F 
ENDROOT
TORSDOF 0
ENDMDL
