MODEL 1
REMARK minimizedAffinity 1.75995767
REMARK minimizedRMSD -1
REMARK  0 active torsions:
REMARK  status: ('A' for Active; 'I' for Inactive)
ROOT
ATOM      1  C   UNL d   1      -1.242   1.825  -0.236  0.00  0.00     0.124 A 
ATOM      2  C1  UNL d   1      -0.346   0.813  -0.553  0.00  0.00     0.062 A 
ATOM      3  C2  UNL d   1      -0.559  -0.481  -0.086  0.00  0.00     0.162 A 
ATOM      4  C3  UNL d   1      -1.673  -0.771   0.701  0.00  0.00    -0.034 A 
ATOM      5  C4  UNL d   1      -2.569   0.253   1.016  0.00  0.00     0.162 A 
ATOM      6  C5  UNL d   1      -2.352   1.544   0.547  0.00  0.00     0.062 A 
ATOM      7  F   UNL d   1      -3.218   2.521   0.854  0.00  0.00    -0.097 F 
ATOM      8  F1  UNL d   1      -3.650   0.008   1.771  0.00  0.00    -0.096 F 
ATOM      9  I   UNL d   1      -1.994  -2.704   1.401  0.00  0.00    -0.060 I 
ATOM     10  F2  UNL d   1       0.323  -1.439  -0.408  0.00  0.00    -0.096 F 
ATOM     11  F3  UNL d   1       0.728   1.082  -1.309  0.00  0.00    -0.097 F 
ATOM     12  F4  UNL d   1      -1.034   3.070  -0.686  0.00  0.00    -0.092 F 
ENDROOT
TORSDOF 0
ENDMDL
