MODEL 1
REMARK minimizedAffinity 2.48293853
REMARK minimizedRMSD -1
REMARK  0 active torsions:
REMARK  status: ('A' for Active; 'I' for Inactive)
ROOT
ATOM      1  C   UNL d   1       0.196  -2.083   1.925  0.00  0.00     0.124 A 
ATOM      2  C1  UNL d   1      -0.644  -0.978   1.945  0.00  0.00     0.062 A 
ATOM      3  C2  UNL d   1      -0.802  -0.199   0.802  0.00  0.00     0.162 A 
ATOM      4  C3  UNL d   1      -0.120  -0.523  -0.370  0.00  0.00    -0.034 A 
ATOM      5  C4  UNL d   1       0.723  -1.635  -0.382  0.00  0.00     0.162 A 
ATOM      6  C5  UNL d   1       0.878  -2.411   0.763  0.00  0.00     0.062 A 
ATOM      7  F   UNL d   1       1.690  -3.478   0.742  0.00  0.00    -0.097 F 
ATOM      8  F1  UNL d   1       1.394  -1.975  -1.492  0.00  0.00    -0.096 F 
ATOM      9  I   UNL d   1      -0.354   0.639  -2.081  0.00  0.00    -0.060 I 
ATOM     10  F2  UNL d   1      -1.620   0.863   0.850  0.00  0.00    -0.096 F 
ATOM     11  F3  UNL d   1      -1.304  -0.659   3.068  0.00  0.00    -0.097 F 
ATOM     12  F4  UNL d   1       0.347  -2.831   3.026  0.00  0.00    -0.092 F 
ENDROOT
TORSDOF 0
ENDMDL
