MODEL 1
REMARK minimizedAffinity -0.65629667
REMARK minimizedRMSD -1
REMARK  0 active torsions:
REMARK  status: ('A' for Active; 'I' for Inactive)
ROOT
ATOM      1  C   UNL d   1       1.274   2.200  -2.417  0.00  0.00     0.124 A 
ATOM      2  C1  UNL d   1       0.101   1.574  -2.815  0.00  0.00     0.062 A 
ATOM      3  C2  UNL d   1      -0.560   0.710  -1.947  0.00  0.00     0.162 A 
ATOM      4  C3  UNL d   1      -0.050   0.467  -0.672  0.00  0.00    -0.034 A 
ATOM      5  C4  UNL d   1       1.131   1.100  -0.279  0.00  0.00     0.162 A 
ATOM      6  C5  UNL d   1       1.788   1.963  -1.150  0.00  0.00     0.062 A 
ATOM      7  F   UNL d   1       2.921   2.567  -0.764  0.00  0.00    -0.097 F 
ATOM      8  F1  UNL d   1       1.649   0.889   0.940  0.00  0.00    -0.096 F 
ATOM      9  I   UNL d   1      -1.036  -0.825   0.629  0.00  0.00    -0.060 I 
ATOM     10  F2  UNL d   1      -1.692   0.118  -2.358  0.00  0.00    -0.096 F 
ATOM     11  F3  UNL d   1      -0.397   1.801  -4.039  0.00  0.00    -0.097 F 
ATOM     12  F4  UNL d   1       1.908   3.030  -3.255  0.00  0.00    -0.092 F 
ENDROOT
TORSDOF 0
ENDMDL
