MODEL 1
REMARK minimizedAffinity -6.0528264
REMARK minimizedRMSD -1
REMARK  0 active torsions:
REMARK  status: ('A' for Active; 'I' for Inactive)
ROOT
ATOM      1  C   UNL d   1      -1.372  -1.408   1.685  0.00  0.00     0.124 A 
ATOM      2  C1  UNL d   1      -1.933  -0.176   1.379  0.00  0.00     0.062 A 
ATOM      3  C2  UNL d   1      -1.334   0.650   0.432  0.00  0.00     0.162 A 
ATOM      4  C3  UNL d   1      -0.167   0.246  -0.217  0.00  0.00    -0.034 A 
ATOM      5  C4  UNL d   1       0.392  -0.995   0.096  0.00  0.00     0.162 A 
ATOM      6  C5  UNL d   1      -0.211  -1.817   1.044  0.00  0.00     0.062 A 
ATOM      7  F   UNL d   1       0.332  -3.007   1.338  0.00  0.00    -0.097 F 
ATOM      8  F1  UNL d   1       1.513  -1.414  -0.509  0.00  0.00    -0.096 F 
ATOM      9  I   UNL d   1       0.732   1.477  -1.634  0.00  0.00    -0.060 I 
ATOM     10  F2  UNL d   1      -1.897   1.835   0.156  0.00  0.00    -0.096 F 
ATOM     11  F3  UNL d   1      -3.054   0.221   1.997  0.00  0.00    -0.097 F 
ATOM     12  F4  UNL d   1      -1.950  -2.201   2.597  0.00  0.00    -0.092 F 
ENDROOT
TORSDOF 0
ENDMDL
