MODEL 1
REMARK minimizedAffinity -3.28076506
REMARK minimizedRMSD -1
REMARK  0 active torsions:
REMARK  status: ('A' for Active; 'I' for Inactive)
ROOT
ATOM      1  C   UNL d   1      -1.213  -1.419   1.669  0.00  0.00     0.124 A 
ATOM      2  C1  UNL d   1      -0.207  -1.919   0.854  0.00  0.00     0.062 A 
ATOM      3  C2  UNL d   1       0.437  -1.086  -0.056  0.00  0.00     0.162 A 
ATOM      4  C3  UNL d   1       0.078   0.258  -0.155  0.00  0.00    -0.034 A 
ATOM      5  C4  UNL d   1      -0.935   0.755   0.668  0.00  0.00     0.162 A 
ATOM      6  C5  UNL d   1      -1.576  -0.083   1.575  0.00  0.00     0.062 A 
ATOM      7  F   UNL d   1      -2.547   0.403   2.362  0.00  0.00    -0.097 F 
ATOM      8  F1  UNL d   1      -1.306   2.042   0.598  0.00  0.00    -0.096 F 
ATOM      9  I   UNL d   1       1.038   1.508  -1.514  0.00  0.00    -0.060 I 
ATOM     10  F2  UNL d   1       1.405  -1.597  -0.831  0.00  0.00    -0.096 F 
ATOM     11  F3  UNL d   1       0.145  -3.210   0.943  0.00  0.00    -0.097 F 
ATOM     12  F4  UNL d   1      -1.831  -2.223   2.543  0.00  0.00    -0.092 F 
ENDROOT
TORSDOF 0
ENDMDL
