MODEL 1
REMARK minimizedAffinity -2.40266037
REMARK minimizedRMSD -1
REMARK  0 active torsions:
REMARK  status: ('A' for Active; 'I' for Inactive)
ROOT
ATOM      1  C   UNL d   1      -1.790  -0.242   0.687  0.00  0.00     0.124 A 
ATOM      2  C1  UNL d   1      -1.527  -1.594   0.859  0.00  0.00     0.062 A 
ATOM      3  C2  UNL d   1      -0.234  -2.082   0.694  0.00  0.00     0.162 A 
ATOM      4  C3  UNL d   1       0.807  -1.218   0.356  0.00  0.00    -0.034 A 
ATOM      5  C4  UNL d   1       0.535   0.141   0.184  0.00  0.00     0.162 A 
ATOM      6  C5  UNL d   1      -0.759   0.624   0.350  0.00  0.00     0.062 A 
ATOM      7  F   UNL d   1      -1.011   1.930   0.184  0.00  0.00    -0.097 F 
ATOM      8  F1  UNL d   1       1.513   1.000  -0.141  0.00  0.00    -0.096 F 
ATOM      9  I   UNL d   1       2.742  -1.944   0.109  0.00  0.00    -0.060 I 
ATOM     10  F2  UNL d   1      -0.009  -3.393   0.866  0.00  0.00    -0.096 F 
ATOM     11  F3  UNL d   1      -2.521  -2.433   1.183  0.00  0.00    -0.097 F 
ATOM     12  F4  UNL d   1      -3.035   0.225   0.845  0.00  0.00    -0.092 F 
ENDROOT
TORSDOF 0
ENDMDL
