MODEL 1
REMARK minimizedAffinity -4.49863338
REMARK minimizedRMSD -1
REMARK  0 active torsions:
REMARK  status: ('A' for Active; 'I' for Inactive)
ROOT
ATOM      1  C   UNL d   1      -1.598  -2.334   1.560  0.00  0.00     0.124 A 
ATOM      2  C1  UNL d   1      -0.224  -2.252   1.379  0.00  0.00     0.062 A 
ATOM      3  C2  UNL d   1       0.343  -1.101   0.840  0.00  0.00     0.162 A 
ATOM      4  C3  UNL d   1      -0.463  -0.021   0.479  0.00  0.00    -0.034 A 
ATOM      5  C4  UNL d   1      -1.844  -0.111   0.664  0.00  0.00     0.162 A 
ATOM      6  C5  UNL d   1      -2.406  -1.264   1.203  0.00  0.00     0.062 A 
ATOM      7  F   UNL d   1      -3.733  -1.341   1.378  0.00  0.00    -0.097 F 
ATOM      8  F1  UNL d   1      -2.649   0.908   0.328  0.00  0.00    -0.096 F 
ATOM      9  I   UNL d   1       0.381   1.702  -0.327  0.00  0.00    -0.060 I 
ATOM     10  F2  UNL d   1       1.673  -1.049   0.675  0.00  0.00    -0.096 F 
ATOM     11  F3  UNL d   1       0.559  -3.284   1.722  0.00  0.00    -0.097 F 
ATOM     12  F4  UNL d   1      -2.141  -3.443   2.078  0.00  0.00    -0.092 F 
ENDROOT
TORSDOF 0
ENDMDL
