MODEL 1
REMARK minimizedAffinity -4.07751465
REMARK minimizedRMSD -1
REMARK  2 active torsions:
REMARK  status: ('A' for Active; 'I' for Inactive)
REMARK    1  A    between atoms: C1_2  and  C2_3 
REMARK    2  A    between atoms: C2_3  and  C3_4 
ROOT
ATOM      1  C3  UNL d   1       2.079   1.149   0.356  0.00  0.00    -0.075 A 
ATOM      2  C4  UNL d   1       2.822   1.996  -0.479  0.00  0.00     0.002 A 
ATOM      3  C5  UNL d   1       3.765   2.873   0.059  0.00  0.00     0.002 A 
ATOM      4  C6  UNL d   1       3.969   2.920   1.436  0.00  0.00    -0.004 A 
ATOM      5  C7  UNL d   1       3.225   2.095   2.277  0.00  0.00     0.002 A 
ATOM      6  C8  UNL d   1       2.285   1.214   1.741  0.00  0.00     0.002 A 
ENDROOT
BRANCH   1   7
ATOM      7  C2  UNL d   1       1.079   0.177  -0.223  0.00  0.00     0.056 C 
BRANCH   7   8
ATOM      8  C1  UNL d   1      -0.341   0.741  -0.342  0.00  0.00     0.007 C 
ATOM      9  C   UNL d   1      -1.389  -0.327  -0.629  0.00  0.00     0.009 C 
ENDBRANCH   7   8
ENDBRANCH   1   7
TORSDOF 2
ENDMDL
