MODEL 1
REMARK minimizedAffinity -1.72209752
REMARK minimizedRMSD -1
REMARK  2 active torsions:
REMARK  status: ('A' for Active; 'I' for Inactive)
REMARK    1  A    between atoms: C1_2  and  C2_3 
REMARK    2  A    between atoms: C2_3  and  C3_4 
ROOT
ATOM      1  C3  UNL d   1       1.073   0.393   0.086  0.00  0.00    -0.075 A 
ATOM      2  C4  UNL d   1       0.805  -0.692   0.934  0.00  0.00     0.002 A 
ATOM      3  C5  UNL d   1      -0.339  -1.468   0.750  0.00  0.00     0.002 A 
ATOM      4  C6  UNL d   1      -1.233  -1.166  -0.275  0.00  0.00    -0.004 A 
ATOM      5  C7  UNL d   1      -0.985  -0.080  -1.112  0.00  0.00     0.002 A 
ATOM      6  C8  UNL d   1       0.161   0.696  -0.933  0.00  0.00     0.002 A 
ENDROOT
BRANCH   1   7
ATOM      7  C2  UNL d   1       2.325   1.220   0.262  0.00  0.00     0.056 C 
BRANCH   7   8
ATOM      8  C1  UNL d   1       2.282   2.169   1.464  0.00  0.00     0.007 C 
ATOM      9  C   UNL d   1       2.802   3.565   1.146  0.00  0.00     0.009 C 
ENDBRANCH   7   8
ENDBRANCH   1   7
TORSDOF 2
ENDMDL
