MODEL 1
REMARK minimizedAffinity -3.84101462
REMARK minimizedRMSD -1
REMARK  2 active torsions:
REMARK  status: ('A' for Active; 'I' for Inactive)
REMARK    1  A    between atoms: C1_2  and  C2_3 
REMARK    2  A    between atoms: C2_3  and  C3_4 
ROOT
ATOM      1  C3  UNL d   1       0.276  -0.032  -0.402  0.00  0.00    -0.075 A 
ATOM      2  C4  UNL d   1      -0.672   0.249  -1.397  0.00  0.00     0.002 A 
ATOM      3  C5  UNL d   1      -1.940  -0.332  -1.351  0.00  0.00     0.002 A 
ATOM      4  C6  UNL d   1      -2.272  -1.206  -0.319  0.00  0.00    -0.004 A 
ATOM      5  C7  UNL d   1      -1.333  -1.505   0.665  0.00  0.00     0.002 A 
ATOM      6  C8  UNL d   1      -0.065  -0.922   0.624  0.00  0.00     0.002 A 
ENDROOT
BRANCH   1   7
ATOM      7  C2  UNL d   1       1.640   0.616  -0.430  0.00  0.00     0.056 C 
BRANCH   7   8
ATOM      8  C1  UNL d   1       1.936   1.497   0.788  0.00  0.00     0.007 C 
ATOM      9  C   UNL d   1       2.721   2.755   0.443  0.00  0.00     0.009 C 
ENDBRANCH   7   8
ENDBRANCH   1   7
TORSDOF 2
ENDMDL
