MODEL 1
REMARK minimizedAffinity -4.94351292
REMARK minimizedRMSD -1
REMARK  2 active torsions:
REMARK  status: ('A' for Active; 'I' for Inactive)
REMARK    1  A    between atoms: C1_2  and  C2_3 
REMARK    2  A    between atoms: C2_3  and  C3_4 
ROOT
ATOM      1  C3  UNL d   1       3.479   3.433  -0.456  0.00  0.00    -0.075 A 
ATOM      2  C4  UNL d   1       3.490   2.032  -0.517  0.00  0.00     0.002 A 
ATOM      3  C5  UNL d   1       2.784   1.277   0.421  0.00  0.00     0.002 A 
ATOM      4  C6  UNL d   1       2.068   1.911   1.434  0.00  0.00    -0.004 A 
ATOM      5  C7  UNL d   1       2.064   3.302   1.513  0.00  0.00     0.002 A 
ATOM      6  C8  UNL d   1       2.766   4.060   0.574  0.00  0.00     0.002 A 
ENDROOT
BRANCH   1   7
ATOM      7  C2  UNL d   1       4.217   4.257  -1.485  0.00  0.00     0.056 C 
BRANCH   7   8
ATOM      8  C1  UNL d   1       4.646   3.466  -2.725  0.00  0.00     0.007 C 
ATOM      9  C   UNL d   1       5.995   3.905  -3.280  0.00  0.00     0.009 C 
ENDBRANCH   7   8
ENDBRANCH   1   7
TORSDOF 2
ENDMDL
