MODEL 1
REMARK minimizedAffinity -3.53268409
REMARK minimizedRMSD -1
REMARK  2 active torsions:
REMARK  status: ('A' for Active; 'I' for Inactive)
REMARK    1  A    between atoms: C1_2  and  C2_3 
REMARK    2  A    between atoms: C2_3  and  C3_4 
ROOT
ATOM      1  C3  UNL d   1       0.252   0.405  -0.170  0.00  0.00    -0.075 A 
ATOM      2  C4  UNL d   1      -0.190   1.332  -1.126  0.00  0.00     0.002 A 
ATOM      3  C5  UNL d   1      -1.225   1.005  -2.003  0.00  0.00     0.002 A 
ATOM      4  C6  UNL d   1      -1.823  -0.251  -1.943  0.00  0.00    -0.004 A 
ATOM      5  C7  UNL d   1      -1.380  -1.185  -1.009  0.00  0.00     0.002 A 
ATOM      6  C8  UNL d   1      -0.348  -0.860  -0.127  0.00  0.00     0.002 A 
ENDROOT
BRANCH   1   7
ATOM      7  C2  UNL d   1       1.351   0.763   0.801  0.00  0.00     0.056 C 
BRANCH   7   8
ATOM      8  C1  UNL d   1       2.242   1.920   0.337  0.00  0.00     0.007 C 
ATOM      9  C   UNL d   1       2.592   2.894   1.455  0.00  0.00     0.009 C 
ENDBRANCH   7   8
ENDBRANCH   1   7
TORSDOF 2
ENDMDL
