MODEL 1
REMARK minimizedAffinity -2.77068472
REMARK minimizedRMSD -1
REMARK  2 active torsions:
REMARK  status: ('A' for Active; 'I' for Inactive)
REMARK    1  A    between atoms: C1_2  and  C2_3 
REMARK    2  A    between atoms: C2_3  and  C3_4 
ROOT
ATOM      1  C3  UNL d   1       0.647  -0.016  -0.036  0.00  0.00    -0.075 A 
ATOM      2  C4  UNL d   1      -0.248   0.237  -1.087  0.00  0.00     0.002 A 
ATOM      3  C5  UNL d   1      -1.447  -0.470  -1.181  0.00  0.00     0.002 A 
ATOM      4  C6  UNL d   1      -1.762  -1.443  -0.235  0.00  0.00    -0.004 A 
ATOM      5  C7  UNL d   1      -0.873  -1.713   0.803  0.00  0.00     0.002 A 
ATOM      6  C8  UNL d   1       0.325  -1.005   0.903  0.00  0.00     0.002 A 
ENDROOT
BRANCH   1   7
ATOM      7  C2  UNL d   1       1.933   0.766   0.088  0.00  0.00     0.056 C 
BRANCH   7   8
ATOM      8  C1  UNL d   1       1.936   1.784   1.234  0.00  0.00     0.007 C 
ATOM      9  C   UNL d   1       2.802   3.004   0.951  0.00  0.00     0.009 C 
ENDBRANCH   7   8
ENDBRANCH   1   7
TORSDOF 2
ENDMDL
