MODEL 1
REMARK minimizedAffinity 5.7590313
REMARK minimizedRMSD -1
REMARK  2 active torsions:
REMARK  status: ('A' for Active; 'I' for Inactive)
REMARK    1  A    between atoms: C1_2  and  C2_3 
REMARK    2  A    between atoms: C2_3  and  C3_4 
ROOT
ATOM      1  C3  UNL d   1      -2.713  -1.169  -0.962  0.00  0.00    -0.075 A 
ATOM      2  C4  UNL d   1      -2.939   0.212  -1.043  0.00  0.00     0.002 A 
ATOM      3  C5  UNL d   1      -2.274   0.984  -1.996  0.00  0.00     0.002 A 
ATOM      4  C6  UNL d   1      -1.369   0.388  -2.872  0.00  0.00    -0.004 A 
ATOM      5  C7  UNL d   1      -1.125  -0.981  -2.790  0.00  0.00     0.002 A 
ATOM      6  C8  UNL d   1      -1.792  -1.757  -1.840  0.00  0.00     0.002 A 
ENDROOT
BRANCH   1   7
ATOM      7  C2  UNL d   1      -3.451  -2.015   0.048  0.00  0.00     0.056 C 
BRANCH   7   8
ATOM      8  C1  UNL d   1      -4.917  -1.614   0.244  0.00  0.00     0.007 C 
ATOM      9  C   UNL d   1      -5.778  -2.740   0.802  0.00  0.00     0.009 C 
ENDBRANCH   7   8
ENDBRANCH   1   7
TORSDOF 2
ENDMDL
