MODEL 1
REMARK minimizedAffinity -4.37982893
REMARK minimizedRMSD -1
REMARK  2 active torsions:
REMARK  status: ('A' for Active; 'I' for Inactive)
REMARK    1  A    between atoms: C1_2  and  C2_3 
REMARK    2  A    between atoms: C2_3  and  C3_4 
ROOT
ATOM      1  C3  UNL d   1       2.269   1.080   0.739  0.00  0.00    -0.075 A 
ATOM      2  C4  UNL d   1       1.730   2.073   1.569  0.00  0.00     0.002 A 
ATOM      3  C5  UNL d   1       2.256   3.366   1.561  0.00  0.00     0.002 A 
ATOM      4  C6  UNL d   1       3.331   3.678   0.732  0.00  0.00    -0.004 A 
ATOM      5  C7  UNL d   1       3.885   2.694  -0.086  0.00  0.00     0.002 A 
ATOM      6  C8  UNL d   1       3.357   1.402  -0.082  0.00  0.00     0.002 A 
ENDROOT
BRANCH   1   7
ATOM      7  C2  UNL d   1       1.685  -0.313   0.721  0.00  0.00     0.056 C 
BRANCH   7   8
ATOM      8  C1  UNL d   1       0.208  -0.365   0.317  0.00  0.00     0.007 C 
ATOM      9  C   UNL d   1      -0.044   0.133  -1.100  0.00  0.00     0.009 C 
ENDBRANCH   7   8
ENDBRANCH   1   7
TORSDOF 2
ENDMDL
