MODEL 1
REMARK minimizedAffinity -3.35973024
REMARK minimizedRMSD -1
REMARK  2 active torsions:
REMARK  status: ('A' for Active; 'I' for Inactive)
REMARK    1  A    between atoms: C1_2  and  C2_3 
REMARK    2  A    between atoms: C2_3  and  C3_4 
ROOT
ATOM      1  C3  UNL d   1       1.230   0.895   0.192  0.00  0.00    -0.075 A 
ATOM      2  C4  UNL d   1       1.000   1.298   1.515  0.00  0.00     0.002 A 
ATOM      3  C5  UNL d   1       1.763   2.314   2.089  0.00  0.00     0.002 A 
ATOM      4  C6  UNL d   1       2.772   2.933   1.354  0.00  0.00    -0.004 A 
ATOM      5  C7  UNL d   1       3.021   2.529   0.044  0.00  0.00     0.002 A 
ATOM      6  C8  UNL d   1       2.255   1.515  -0.535  0.00  0.00     0.002 A 
ENDROOT
BRANCH   1   7
ATOM      7  C2  UNL d   1       0.388  -0.184  -0.445  0.00  0.00     0.056 C 
BRANCH   7   8
ATOM      8  C1  UNL d   1      -0.555   0.326  -1.540  0.00  0.00     0.007 C 
ATOM      9  C   UNL d   1      -1.931  -0.327  -1.500  0.00  0.00     0.009 C 
ENDBRANCH   7   8
ENDBRANCH   1   7
TORSDOF 2
ENDMDL
