MODEL 1
REMARK minimizedAffinity -3.7915802
REMARK minimizedRMSD -1
REMARK  2 active torsions:
REMARK  status: ('A' for Active; 'I' for Inactive)
REMARK    1  A    between atoms: C1_2  and  C2_3 
REMARK    2  A    between atoms: C2_3  and  C3_4 
ROOT
ATOM      1  C3  UNL d   1       2.745   2.402   0.847  0.00  0.00    -0.075 A 
ATOM      2  C4  UNL d   1       2.663   2.252   2.239  0.00  0.00     0.002 A 
ATOM      3  C5  UNL d   1       2.249   1.042   2.797  0.00  0.00     0.002 A 
ATOM      4  C6  UNL d   1       1.903  -0.027   1.974  0.00  0.00    -0.004 A 
ATOM      5  C7  UNL d   1       1.965   0.116   0.589  0.00  0.00     0.002 A 
ATOM      6  C8  UNL d   1       2.383   1.324   0.028  0.00  0.00     0.002 A 
ENDROOT
BRANCH   1   7
ATOM      7  C2  UNL d   1       3.221   3.698   0.236  0.00  0.00     0.056 C 
BRANCH   7   8
ATOM      8  C1  UNL d   1       4.099   3.518  -1.006  0.00  0.00     0.007 C 
ATOM      9  C   UNL d   1       4.453   4.833  -1.687  0.00  0.00     0.009 C 
ENDBRANCH   7   8
ENDBRANCH   1   7
TORSDOF 2
ENDMDL
