MODEL 1
REMARK minimizedAffinity -4.39569616
REMARK minimizedRMSD -1
REMARK  2 active torsions:
REMARK  status: ('A' for Active; 'I' for Inactive)
REMARK    1  A    between atoms: C1_2  and  C2_3 
REMARK    2  A    between atoms: C2_3  and  C3_4 
ROOT
ATOM      1  C3  UNL d   1      -1.056  -0.406  -0.305  0.00  0.00    -0.075 A 
ATOM      2  C4  UNL d   1      -0.678  -1.505   0.481  0.00  0.00     0.002 A 
ATOM      3  C5  UNL d   1      -1.531  -2.598   0.627  0.00  0.00     0.002 A 
ATOM      4  C6  UNL d   1      -2.775  -2.604   0.000  0.00  0.00    -0.004 A 
ATOM      5  C7  UNL d   1      -3.169  -1.511  -0.769  0.00  0.00     0.002 A 
ATOM      6  C8  UNL d   1      -2.315  -0.417  -0.921  0.00  0.00     0.002 A 
ENDROOT
BRANCH   1   7
ATOM      7  C2  UNL d   1      -0.125   0.768  -0.492  0.00  0.00     0.056 C 
BRANCH   7   8
ATOM      8  C1  UNL d   1       1.266   0.563   0.118  0.00  0.00     0.007 C 
ATOM      9  C   UNL d   1       1.591   1.563   1.220  0.00  0.00     0.009 C 
ENDBRANCH   7   8
ENDBRANCH   1   7
TORSDOF 2
ENDMDL
