MODEL 1
REMARK minimizedAffinity -3.85997772
REMARK minimizedRMSD -1
REMARK  2 active torsions:
REMARK  status: ('A' for Active; 'I' for Inactive)
REMARK    1  A    between atoms: C1_2  and  C2_3 
REMARK    2  A    between atoms: C2_3  and  C3_4 
ROOT
ATOM      1  C3  UNL d   1       1.270   0.875   0.463  0.00  0.00    -0.075 A 
ATOM      2  C4  UNL d   1       1.359   1.220   1.820  0.00  0.00     0.002 A 
ATOM      3  C5  UNL d   1       2.288   2.168   2.250  0.00  0.00     0.002 A 
ATOM      4  C6  UNL d   1       3.145   2.774   1.334  0.00  0.00    -0.004 A 
ATOM      5  C7  UNL d   1       3.077   2.426  -0.014  0.00  0.00     0.002 A 
ATOM      6  C8  UNL d   1       2.146   1.481  -0.448  0.00  0.00     0.002 A 
ENDROOT
BRANCH   1   7
ATOM      7  C2  UNL d   1       0.247  -0.128  -0.013  0.00  0.00     0.056 C 
BRANCH   7   8
ATOM      8  C1  UNL d   1      -0.589   0.351  -1.204  0.00  0.00     0.007 C 
ATOM      9  C   UNL d   1      -1.829  -0.498  -1.448  0.00  0.00     0.009 C 
ENDBRANCH   7   8
ENDBRANCH   1   7
TORSDOF 2
ENDMDL
