MODEL 1
REMARK minimizedAffinity -3.1585052
REMARK minimizedRMSD -1
REMARK  2 active torsions:
REMARK  status: ('A' for Active; 'I' for Inactive)
REMARK    1  A    between atoms: C1_2  and  C2_3 
REMARK    2  A    between atoms: C2_3  and  C3_4 
ROOT
ATOM      1  C3  UNL d   1       2.149   1.435   0.109  0.00  0.00    -0.075 A 
ATOM      2  C4  UNL d   1       2.252   1.794   1.461  0.00  0.00     0.002 A 
ATOM      3  C5  UNL d   1       2.899   2.972   1.834  0.00  0.00     0.002 A 
ATOM      4  C6  UNL d   1       3.459   3.800   0.864  0.00  0.00    -0.004 A 
ATOM      5  C7  UNL d   1       3.378   3.445  -0.481  0.00  0.00     0.002 A 
ATOM      6  C8  UNL d   1       2.727   2.268  -0.857  0.00  0.00     0.002 A 
ENDROOT
BRANCH   1   7
ATOM      7  C2  UNL d   1       1.425   0.176  -0.303  0.00  0.00     0.056 C 
BRANCH   7   8
ATOM      8  C1  UNL d   1       0.512   0.352  -1.522  0.00  0.00     0.007 C 
ATOM      9  C   UNL d   1      -0.945   0.594  -1.150  0.00  0.00     0.009 C 
ENDBRANCH   7   8
ENDBRANCH   1   7
TORSDOF 2
ENDMDL
