MODEL 1
REMARK minimizedAffinity -1.58906329
REMARK minimizedRMSD -1
REMARK  2 active torsions:
REMARK  status: ('A' for Active; 'I' for Inactive)
REMARK    1  A    between atoms: C1_2  and  C2_3 
REMARK    2  A    between atoms: C2_3  and  C3_4 
ROOT
ATOM      1  C3  UNL d   1      -0.588  -0.474  -0.033  0.00  0.00    -0.075 A 
ATOM      2  C4  UNL d   1      -0.362  -1.426   0.972  0.00  0.00     0.002 A 
ATOM      3  C5  UNL d   1      -1.242  -2.494   1.148  0.00  0.00     0.002 A 
ATOM      4  C6  UNL d   1      -2.362  -2.619   0.329  0.00  0.00    -0.004 A 
ATOM      5  C7  UNL d   1      -2.606  -1.671  -0.662  0.00  0.00     0.002 A 
ATOM      6  C8  UNL d   1      -1.725  -0.603  -0.842  0.00  0.00     0.002 A 
ENDROOT
BRANCH   1   7
ATOM      7  C2  UNL d   1       0.376   0.668  -0.247  0.00  0.00     0.056 C 
BRANCH   7   8
ATOM      8  C1  UNL d   1       1.789   0.399   0.282  0.00  0.00     0.007 C 
ATOM      9  C   UNL d   1       2.570   1.671   0.582  0.00  0.00     0.009 C 
ENDBRANCH   7   8
ENDBRANCH   1   7
TORSDOF 2
ENDMDL
