MODEL 1
REMARK minimizedAffinity -4.42905378
REMARK minimizedRMSD -1
REMARK  1 active torsions:
REMARK  status: ('A' for Active; 'I' for Inactive)
REMARK    1  A    between atoms: C1_2  and  C2_3 
ROOT
ATOM      1  C2  UNL d   1       0.278  -0.233   1.017  0.00  0.00    -0.081 A 
ATOM      2  C3  UNL d   1       0.466   0.879   0.188  0.00  0.00     0.006 A 
ATOM      3  C4  UNL d   1       0.732   0.711  -1.173  0.00  0.00     0.002 A 
ATOM      4  C5  UNL d   1       0.806  -0.570  -1.729  0.00  0.00    -0.080 A 
ATOM      5  C6  UNL d   1       1.061  -0.764  -3.194  0.00  0.00     0.076 C 
ATOM      6  C7  UNL d   1       0.636  -1.682  -0.897  0.00  0.00     0.002 A 
ATOM      7  C8  UNL d   1       0.371  -1.515   0.464  0.00  0.00     0.006 A 
ENDROOT
BRANCH   1   8
ATOM      8  C1  UNL d   1      -0.073  -0.054   2.472  0.00  0.00     0.054 C 
ATOM      9  C   UNL d   1      -1.580  -0.004   2.676  0.00  0.00     0.018 C 
ENDBRANCH   1   8
TORSDOF 1
ENDMDL
