MODEL 1
REMARK minimizedAffinity -1.93777263
REMARK minimizedRMSD -1
REMARK  1 active torsions:
REMARK  status: ('A' for Active; 'I' for Inactive)
REMARK    1  A    between atoms: C1_2  and  C2_3 
ROOT
ATOM      1  C2  UNL d   1       0.581  -0.166  -1.139  0.00  0.00    -0.081 A 
ATOM      2  C3  UNL d   1      -0.631   0.440  -0.785  0.00  0.00     0.006 A 
ATOM      3  C4  UNL d   1      -0.908   0.742   0.551  0.00  0.00     0.002 A 
ATOM      4  C5  UNL d   1       0.024   0.451   1.552  0.00  0.00    -0.080 A 
ATOM      5  C6  UNL d   1      -0.248   0.798   2.986  0.00  0.00     0.076 C 
ATOM      6  C7  UNL d   1       1.227  -0.171   1.201  0.00  0.00     0.002 A 
ATOM      7  C8  UNL d   1       1.505  -0.474  -0.134  0.00  0.00     0.006 A 
ENDROOT
BRANCH   1   8
ATOM      8  C1  UNL d   1       0.910  -0.435  -2.585  0.00  0.00     0.054 C 
ATOM      9  C   UNL d   1       0.529  -1.853  -2.985  0.00  0.00     0.018 C 
ENDBRANCH   1   8
TORSDOF 1
ENDMDL
