MODEL 1
REMARK minimizedAffinity -3.08771324
REMARK minimizedRMSD -1
REMARK  1 active torsions:
REMARK  status: ('A' for Active; 'I' for Inactive)
REMARK    1  A    between atoms: C1_2  and  C2_3 
ROOT
ATOM      1  C2  UNL d   1       0.793   0.131  -1.832  0.00  0.00    -0.081 A 
ATOM      2  C3  UNL d   1       0.623   1.309  -1.095  0.00  0.00     0.006 A 
ATOM      3  C4  UNL d   1       0.505   1.264   0.296  0.00  0.00     0.002 A 
ATOM      4  C5  UNL d   1       0.562   0.042   0.974  0.00  0.00    -0.080 A 
ATOM      5  C6  UNL d   1       0.467  -0.018   2.470  0.00  0.00     0.076 C 
ATOM      6  C7  UNL d   1       0.715  -1.137   0.237  0.00  0.00     0.002 A 
ATOM      7  C8  UNL d   1       0.833  -1.093  -1.154  0.00  0.00     0.006 A 
ENDROOT
BRANCH   1   8
ATOM      8  C1  UNL d   1       0.986   0.182  -3.326  0.00  0.00     0.054 C 
ATOM      9  C   UNL d   1       0.592  -1.134  -3.980  0.00  0.00     0.018 C 
ENDBRANCH   1   8
TORSDOF 1
ENDMDL
