MODEL 1
REMARK minimizedAffinity -0.095641695
REMARK minimizedRMSD -1
REMARK  1 active torsions:
REMARK  status: ('A' for Active; 'I' for Inactive)
REMARK    1  A    between atoms: C1_2  and  C2_3 
ROOT
ATOM      1  C2  UNL d   1      -0.368  -0.951  -1.772  0.00  0.00    -0.081 A 
ATOM      2  C3  UNL d   1      -0.066  -1.833  -2.816  0.00  0.00     0.006 A 
ATOM      3  C4  UNL d   1       1.168  -1.765  -3.467  0.00  0.00     0.002 A 
ATOM      4  C5  UNL d   1       2.124  -0.819  -3.080  0.00  0.00    -0.080 A 
ATOM      5  C6  UNL d   1       3.464  -0.755  -3.749  0.00  0.00     0.076 C 
ATOM      6  C7  UNL d   1       1.815   0.074  -2.048  0.00  0.00     0.002 A 
ATOM      7  C8  UNL d   1       0.581   0.007  -1.398  0.00  0.00     0.006 A 
ENDROOT
BRANCH   1   8
ATOM      8  C1  UNL d   1      -1.672  -1.064  -1.026  0.00  0.00     0.054 C 
ATOM      9  C   UNL d   1      -2.156   0.297  -0.546  0.00  0.00     0.018 C 
ENDBRANCH   1   8
TORSDOF 1
ENDMDL
