MODEL 1
REMARK minimizedAffinity -1.71584725
REMARK minimizedRMSD -1
REMARK  1 active torsions:
REMARK  status: ('A' for Active; 'I' for Inactive)
REMARK    1  A    between atoms: C1_2  and  C2_3 
ROOT
ATOM      1  C2  UNL d   1       0.801  -0.298  -1.484  0.00  0.00    -0.081 A 
ATOM      2  C3  UNL d   1      -0.171   0.656  -1.158  0.00  0.00     0.006 A 
ATOM      3  C4  UNL d   1      -0.493   0.911   0.177  0.00  0.00     0.002 A 
ATOM      4  C5  UNL d   1       0.156   0.223   1.208  0.00  0.00    -0.080 A 
ATOM      5  C6  UNL d   1      -0.159   0.509   2.646  0.00  0.00     0.076 C 
ATOM      6  C7  UNL d   1       1.114  -0.743   0.882  0.00  0.00     0.002 A 
ATOM      7  C8  UNL d   1       1.436  -0.999  -0.453  0.00  0.00     0.006 A 
ENDROOT
BRANCH   1   8
ATOM      8  C1  UNL d   1       1.197  -0.529  -2.920  0.00  0.00     0.054 C 
ATOM      9  C   UNL d   1       0.503  -1.756  -3.495  0.00  0.00     0.018 C 
ENDBRANCH   1   8
TORSDOF 1
ENDMDL
