MODEL 1
REMARK minimizedAffinity -3.53181148
REMARK minimizedRMSD -1
REMARK  1 active torsions:
REMARK  status: ('A' for Active; 'I' for Inactive)
REMARK    1  A    between atoms: C1_2  and  C2_3 
ROOT
ATOM      1  C2  UNL d   1       0.526  -0.033  -1.297  0.00  0.00    -0.081 A 
ATOM      2  C3  UNL d   1      -0.681   0.501  -0.829  0.00  0.00     0.006 A 
ATOM      3  C4  UNL d   1      -0.874   0.724   0.537  0.00  0.00     0.002 A 
ATOM      4  C5  UNL d   1       0.137   0.424   1.455  0.00  0.00    -0.080 A 
ATOM      5  C6  UNL d   1      -0.046   0.686   2.921  0.00  0.00     0.076 C 
ATOM      6  C7  UNL d   1       1.336  -0.127   0.990  0.00  0.00     0.002 A 
ATOM      7  C8  UNL d   1       1.530  -0.350  -0.375  0.00  0.00     0.006 A 
ENDROOT
BRANCH   1   8
ATOM      8  C1  UNL d   1       0.762  -0.214  -2.774  0.00  0.00     0.054 C 
ATOM      9  C   UNL d   1       0.357  -1.608  -3.233  0.00  0.00     0.018 C 
ENDBRANCH   1   8
TORSDOF 1
ENDMDL
