MODEL 1
REMARK minimizedAffinity -1.65011311
REMARK minimizedRMSD -1
REMARK  1 active torsions:
REMARK  status: ('A' for Active; 'I' for Inactive)
REMARK    1  A    between atoms: C1_2  and  C2_3 
ROOT
ATOM      1  C2  UNL d   1      -1.138  -0.205  -1.013  0.00  0.00    -0.081 A 
ATOM      2  C3  UNL d   1       0.218   0.141  -0.983  0.00  0.00     0.006 A 
ATOM      3  C4  UNL d   1       1.150  -0.583  -1.731  0.00  0.00     0.002 A 
ATOM      4  C5  UNL d   1       0.741  -1.659  -2.526  0.00  0.00    -0.080 A 
ATOM      5  C6  UNL d   1       1.727  -2.425  -3.357  0.00  0.00     0.076 C 
ATOM      6  C7  UNL d   1      -0.612  -2.015  -2.543  0.00  0.00     0.002 A 
ATOM      7  C8  UNL d   1      -1.544  -1.292  -1.795  0.00  0.00     0.006 A 
ENDROOT
BRANCH   1   8
ATOM      8  C1  UNL d   1      -2.155   0.614  -0.259  0.00  0.00     0.054 C 
ATOM      9  C   UNL d   1      -3.569   0.317  -0.737  0.00  0.00     0.018 C 
ENDBRANCH   1   8
TORSDOF 1
ENDMDL
