MODEL 1
REMARK minimizedAffinity -1.46340585
REMARK minimizedRMSD -1
REMARK  1 active torsions:
REMARK  status: ('A' for Active; 'I' for Inactive)
REMARK    1  A    between atoms: C1_2  and  C2_3 
ROOT
ATOM      1  C2  UNL d   1       0.826  -0.096  -1.073  0.00  0.00    -0.081 A 
ATOM      2  C3  UNL d   1       0.109  -1.275  -1.311  0.00  0.00     0.006 A 
ATOM      3  C4  UNL d   1       0.256  -1.962  -2.518  0.00  0.00     0.002 A 
ATOM      4  C5  UNL d   1       1.128  -1.487  -3.504  0.00  0.00    -0.080 A 
ATOM      5  C6  UNL d   1       1.318  -2.231  -4.792  0.00  0.00     0.076 C 
ATOM      6  C7  UNL d   1       1.831  -0.300  -3.273  0.00  0.00     0.002 A 
ATOM      7  C8  UNL d   1       1.684   0.388  -2.067  0.00  0.00     0.006 A 
ENDROOT
BRANCH   1   8
ATOM      8  C1  UNL d   1       0.719   0.612   0.253  0.00  0.00     0.054 C 
ATOM      9  C   UNL d   1       1.963   0.390   1.102  0.00  0.00     0.018 C 
ENDBRANCH   1   8
TORSDOF 1
ENDMDL
