MODEL 1
REMARK minimizedAffinity 0.231378525
REMARK minimizedRMSD -1
REMARK  1 active torsions:
REMARK  status: ('A' for Active; 'I' for Inactive)
REMARK    1  A    between atoms: C1_2  and  C2_3 
ROOT
ATOM      1  C2  UNL d   1       0.569  -1.013   0.727  0.00  0.00    -0.081 A 
ATOM      2  C3  UNL d   1       0.869   0.023   1.619  0.00  0.00     0.006 A 
ATOM      3  C4  UNL d   1      -0.052   0.406   2.596  0.00  0.00     0.002 A 
ATOM      4  C5  UNL d   1      -1.286  -0.245   2.703  0.00  0.00    -0.080 A 
ATOM      5  C6  UNL d   1      -2.272   0.136   3.767  0.00  0.00     0.076 C 
ATOM      6  C7  UNL d   1      -1.593  -1.269   1.801  0.00  0.00     0.002 A 
ATOM      7  C8  UNL d   1      -0.673  -1.652   0.823  0.00  0.00     0.006 A 
ENDROOT
BRANCH   1   8
ATOM      8  C1  UNL d   1       1.586  -1.472  -0.286  0.00  0.00     0.054 C 
ATOM      9  C   UNL d   1       0.937  -1.750  -1.635  0.00  0.00     0.018 C 
ENDBRANCH   1   8
TORSDOF 1
ENDMDL
