MODEL 1
REMARK minimizedAffinity 3.30925488
REMARK minimizedRMSD -1
REMARK  1 active torsions:
REMARK  status: ('A' for Active; 'I' for Inactive)
REMARK    1  A    between atoms: C1_2  and  C2_3 
ROOT
ATOM      1  C2  UNL d   1      -1.399   0.642   0.863  0.00  0.00    -0.081 A 
ATOM      2  C3  UNL d   1      -0.655   0.469  -0.311  0.00  0.00     0.006 A 
ATOM      3  C4  UNL d   1       0.728   0.285  -0.253  0.00  0.00     0.002 A 
ATOM      4  C5  UNL d   1       1.390   0.262   0.979  0.00  0.00    -0.080 A 
ATOM      5  C6  UNL d   1       2.870   0.034   1.058  0.00  0.00     0.076 C 
ATOM      6  C7  UNL d   1       0.649   0.451   2.151  0.00  0.00     0.002 A 
ATOM      7  C8  UNL d   1      -0.734   0.637   2.094  0.00  0.00     0.006 A 
ENDROOT
BRANCH   1   8
ATOM      8  C1  UNL d   1      -2.899   0.776   0.807  0.00  0.00     0.054 C 
ATOM      9  C   UNL d   1      -3.463   1.239   2.143  0.00  0.00     0.018 C 
ENDBRANCH   1   8
TORSDOF 1
ENDMDL
