MODEL 1
REMARK minimizedAffinity -3.70738316
REMARK minimizedRMSD -1
REMARK  1 active torsions:
REMARK  status: ('A' for Active; 'I' for Inactive)
REMARK    1  A    between atoms: C1_2  and  C2_3 
ROOT
ATOM      1  C2  UNL d   1      -1.466   0.239   1.347  0.00  0.00    -0.081 A 
ATOM      2  C3  UNL d   1      -0.440   0.403   2.287  0.00  0.00     0.006 A 
ATOM      3  C4  UNL d   1       0.868   0.657   1.869  0.00  0.00     0.002 A 
ATOM      4  C5  UNL d   1       1.172   0.759   0.507  0.00  0.00    -0.080 A 
ATOM      5  C6  UNL d   1       2.567   1.062   0.047  0.00  0.00     0.076 C 
ATOM      6  C7  UNL d   1       0.151   0.578  -0.432  0.00  0.00     0.002 A 
ATOM      7  C8  UNL d   1      -1.158   0.324  -0.015  0.00  0.00     0.006 A 
ENDROOT
BRANCH   1   8
ATOM      8  C1  UNL d   1      -2.890   0.030   1.796  0.00  0.00     0.054 C 
ATOM      9  C   UNL d   1      -3.652   1.346   1.849  0.00  0.00     0.018 C 
ENDBRANCH   1   8
TORSDOF 1
ENDMDL
