MODEL 1
REMARK minimizedAffinity -3.42019868
REMARK minimizedRMSD -1
REMARK  1 active torsions:
REMARK  status: ('A' for Active; 'I' for Inactive)
REMARK    1  A    between atoms: C1_2  and  C2_3 
ROOT
ATOM      1  C2  UNL d   1      -0.519   0.050   0.962  0.00  0.00    -0.081 A 
ATOM      2  C3  UNL d   1       0.707   0.725   0.935  0.00  0.00     0.006 A 
ATOM      3  C4  UNL d   1       1.893   0.029   0.689  0.00  0.00     0.002 A 
ATOM      4  C5  UNL d   1       1.872  -1.350   0.458  0.00  0.00    -0.080 A 
ATOM      5  C6  UNL d   1       3.135  -2.104   0.162  0.00  0.00     0.076 C 
ATOM      6  C7  UNL d   1       0.649  -2.028   0.502  0.00  0.00     0.002 A 
ATOM      7  C8  UNL d   1      -0.537  -1.333   0.749  0.00  0.00     0.006 A 
ENDROOT
BRANCH   1   8
ATOM      8  C1  UNL d   1      -1.807   0.807   1.163  0.00  0.00     0.054 C 
ATOM      9  C   UNL d   1      -2.835   0.442   0.102  0.00  0.00     0.018 C 
ENDBRANCH   1   8
TORSDOF 1
ENDMDL
