MODEL 1
REMARK minimizedAffinity 10.1772614
REMARK minimizedRMSD -1
REMARK  3 active torsions:
REMARK  status: ('A' for Active; 'I' for Inactive)
REMARK    1  A    between atoms: C3'_2  and  C2'_3 
REMARK    2  A    between atoms: C2'_3  and  C1'_4 
REMARK    3  A    between atoms: C1'_4  and  C1_5 
ROOT
ATOM      1  C1  N4B d   1       3.343   3.219  -3.259  0.00  0.00    -0.075 A 
ATOM      2  C2  N4B d   1       4.342   4.122  -2.833  0.00  0.00     0.002 A 
ATOM      3  C3  N4B d   1       5.410   4.400  -3.651  0.00  0.00     0.002 A 
ATOM      4  C4  N4B d   1       5.509   3.776  -4.885  0.00  0.00    -0.004 A 
ATOM      5  C5  N4B d   1       4.527   2.925  -5.300  0.00  0.00     0.002 A 
ATOM      6  C6  N4B d   1       3.446   2.639  -4.491  0.00  0.00     0.002 A 
ENDROOT
BRANCH   1   7
ATOM      7  C1' N4B d   1       2.201   2.818  -2.366  0.00  0.00     0.057 C 
BRANCH   7   8
ATOM      8  C2' N4B d   1       2.314   1.331  -2.046  0.00  0.00     0.009 C 
BRANCH   8   9
ATOM      9  C3' N4B d   1       3.124   1.081  -0.785  0.00  0.00     0.004 C 
ATOM     10  C4' N4B d   1       2.267   0.736   0.397  0.00  0.00     0.003 C 
ENDBRANCH   8   9
ENDBRANCH   7   8
ENDBRANCH   1   7
TORSDOF 3
ENDMDL
