MODEL 1
REMARK minimizedAffinity 5.78266382
REMARK minimizedRMSD -1
REMARK  3 active torsions:
REMARK  status: ('A' for Active; 'I' for Inactive)
REMARK    1  A    between atoms: C3'_2  and  C2'_3 
REMARK    2  A    between atoms: C2'_3  and  C1'_4 
REMARK    3  A    between atoms: C1'_4  and  C1_5 
ROOT
ATOM      1  C1  N4B d   1      -2.030  -5.994  -5.135  0.00  0.00    -0.075 A 
ATOM      2  C2  N4B d   1      -2.273  -5.954  -3.744  0.00  0.00     0.002 A 
ATOM      3  C3  N4B d   1      -3.561  -5.871  -3.274  0.00  0.00     0.002 A 
ATOM      4  C4  N4B d   1      -4.616  -5.808  -4.172  0.00  0.00    -0.004 A 
ATOM      5  C5  N4B d   1      -4.374  -5.873  -5.513  0.00  0.00     0.002 A 
ATOM      6  C6  N4B d   1      -3.085  -5.960  -6.000  0.00  0.00     0.002 A 
ENDROOT
BRANCH   1   7
ATOM      7  C1' N4B d   1      -0.635  -5.998  -5.697  0.00  0.00     0.057 C 
BRANCH   7   8
ATOM      8  C2' N4B d   1       0.266  -5.144  -4.810  0.00  0.00     0.009 C 
BRANCH   8   9
ATOM      9  C3' N4B d   1       1.516  -5.893  -4.382  0.00  0.00     0.004 C 
ATOM     10  C4' N4B d   1       2.534  -5.998  -5.479  0.00  0.00     0.003 C 
ENDBRANCH   8   9
ENDBRANCH   7   8
ENDBRANCH   1   7
TORSDOF 3
ENDMDL
