MODEL 1
REMARK minimizedAffinity 16.8112946
REMARK minimizedRMSD -1
REMARK  3 active torsions:
REMARK  status: ('A' for Active; 'I' for Inactive)
REMARK    1  A    between atoms: C3'_2  and  C2'_3 
REMARK    2  A    between atoms: C2'_3  and  C1'_4 
REMARK    3  A    between atoms: C1'_4  and  C1_5 
ROOT
ATOM      1  C1  N4B d   1      -1.957  -0.585   0.228  0.00  0.00    -0.075 A 
ATOM      2  C2  N4B d   1      -3.079   0.246   0.442  0.00  0.00     0.002 A 
ATOM      3  C3  N4B d   1      -4.117   0.243  -0.457  0.00  0.00     0.002 A 
ATOM      4  C4  N4B d   1      -4.048  -0.564  -1.582  0.00  0.00    -0.004 A 
ATOM      5  C5  N4B d   1      -2.972  -1.382  -1.769  0.00  0.00     0.002 A 
ATOM      6  C6  N4B d   1      -1.923  -1.392  -0.872  0.00  0.00     0.002 A 
ENDROOT
BRANCH   1   7
ATOM      7  C1' N4B d   1      -0.760  -0.553   1.137  0.00  0.00     0.057 C 
BRANCH   7   8
ATOM      8  C2' N4B d   1      -0.597  -1.918   1.799  0.00  0.00     0.009 C 
BRANCH   8   9
ATOM      9  C3' N4B d   1       0.448  -1.894   2.901  0.00  0.00     0.004 C 
ATOM     10  C4' N4B d   1       1.782  -1.400   2.426  0.00  0.00     0.003 C 
ENDBRANCH   8   9
ENDBRANCH   7   8
ENDBRANCH   1   7
TORSDOF 3
ENDMDL
