MODEL 1
REMARK minimizedAffinity 8.56670284
REMARK minimizedRMSD -1
REMARK  3 active torsions:
REMARK  status: ('A' for Active; 'I' for Inactive)
REMARK    1  A    between atoms: C3'_2  and  C2'_3 
REMARK    2  A    between atoms: C2'_3  and  C1'_4 
REMARK    3  A    between atoms: C1'_4  and  C1_5 
ROOT
ATOM      1  C1  N4B d   1       2.840   3.956  -3.709  0.00  0.00    -0.075 A 
ATOM      2  C2  N4B d   1       3.955   4.561  -3.089  0.00  0.00     0.002 A 
ATOM      3  C3  N4B d   1       5.115   4.752  -3.799  0.00  0.00     0.002 A 
ATOM      4  C4  N4B d   1       5.189   4.330  -5.118  0.00  0.00    -0.004 A 
ATOM      5  C5  N4B d   1       4.099   3.770  -5.717  0.00  0.00     0.002 A 
ATOM      6  C6  N4B d   1       2.926   3.576  -5.016  0.00  0.00     0.002 A 
ENDROOT
BRANCH   1   7
ATOM      7  C1' N4B d   1       1.579   3.649  -2.948  0.00  0.00     0.057 C 
BRANCH   7   8
ATOM      8  C2' N4B d   1       0.563   4.760  -3.194  0.00  0.00     0.009 C 
BRANCH   8   9
ATOM      9  C3' N4B d   1       0.754   5.927  -2.240  0.00  0.00     0.004 C 
ATOM     10  C4' N4B d   1      -0.310   5.996  -1.186  0.00  0.00     0.003 C 
ENDBRANCH   8   9
ENDBRANCH   7   8
ENDBRANCH   1   7
TORSDOF 3
ENDMDL
