MODEL 1
REMARK minimizedAffinity 16.1495705
REMARK minimizedRMSD -1
REMARK  3 active torsions:
REMARK  status: ('A' for Active; 'I' for Inactive)
REMARK    1  A    between atoms: C3'_2  and  C2'_3 
REMARK    2  A    between atoms: C2'_3  and  C1'_4 
REMARK    3  A    between atoms: C1'_4  and  C1_5 
ROOT
ATOM      1  C1  N4B d   1      -3.070   0.198   1.795  0.00  0.00    -0.075 A 
ATOM      2  C2  N4B d   1      -2.391   0.638   2.953  0.00  0.00     0.002 A 
ATOM      3  C3  N4B d   1      -1.205   0.051   3.318  0.00  0.00     0.002 A 
ATOM      4  C4  N4B d   1      -0.689  -0.986   2.555  0.00  0.00    -0.004 A 
ATOM      5  C5  N4B d   1      -1.337  -1.387   1.424  0.00  0.00     0.002 A 
ATOM      6  C6  N4B d   1      -2.528  -0.803   1.042  0.00  0.00     0.002 A 
ENDROOT
BRANCH   1   7
ATOM      7  C1' N4B d   1      -4.413   0.751   1.403  0.00  0.00     0.057 C 
BRANCH   7   8
ATOM      8  C2' N4B d   1      -4.867   0.090   0.106  0.00  0.00     0.009 C 
BRANCH   8   9
ATOM      9  C3' N4B d   1      -5.211   1.113  -0.963  0.00  0.00     0.004 C 
ATOM     10  C4' N4B d   1      -5.470   2.478  -0.399  0.00  0.00     0.003 C 
ENDBRANCH   8   9
ENDBRANCH   7   8
ENDBRANCH   1   7
TORSDOF 3
ENDMDL
