MODEL 1
REMARK minimizedAffinity 16.1532593
REMARK minimizedRMSD -1
REMARK  3 active torsions:
REMARK  status: ('A' for Active; 'I' for Inactive)
REMARK    1  A    between atoms: C3'_2  and  C2'_3 
REMARK    2  A    between atoms: C2'_3  and  C1'_4 
REMARK    3  A    between atoms: C1'_4  and  C1_5 
ROOT
ATOM      1  C1  N4B d   1       5.218   5.073  -3.018  0.00  0.00    -0.075 A 
ATOM      2  C2  N4B d   1       3.929   4.563  -2.745  0.00  0.00     0.002 A 
ATOM      3  C3  N4B d   1       3.287   3.785  -3.677  0.00  0.00     0.002 A 
ATOM      4  C4  N4B d   1       3.903   3.521  -4.891  0.00  0.00    -0.004 A 
ATOM      5  C5  N4B d   1       5.158   3.996  -5.137  0.00  0.00     0.002 A 
ATOM      6  C6  N4B d   1       5.817   4.776  -4.208  0.00  0.00     0.002 A 
ENDROOT
BRANCH   1   7
ATOM      7  C1' N4B d   1       5.924   5.999  -2.066  0.00  0.00     0.057 C 
BRANCH   7   8
ATOM      8  C2' N4B d   1       5.601   5.585  -0.633  0.00  0.00     0.009 C 
BRANCH   8   9
ATOM      9  C3' N4B d   1       5.990   4.143  -0.357  0.00  0.00     0.004 C 
ATOM     10  C4' N4B d   1       5.821   3.761   1.083  0.00  0.00     0.003 C 
ENDBRANCH   8   9
ENDBRANCH   7   8
ENDBRANCH   1   7
TORSDOF 3
ENDMDL
