MODEL 1
REMARK minimizedAffinity 9.74291134
REMARK minimizedRMSD -1
REMARK  3 active torsions:
REMARK  status: ('A' for Active; 'I' for Inactive)
REMARK    1  A    between atoms: C3'_2  and  C2'_3 
REMARK    2  A    between atoms: C2'_3  and  C1'_4 
REMARK    3  A    between atoms: C1'_4  and  C1_5 
ROOT
ATOM      1  C1  N4B d   1       3.035   4.089  -3.443  0.00  0.00    -0.075 A 
ATOM      2  C2  N4B d   1       3.949   4.855  -2.687  0.00  0.00     0.002 A 
ATOM      3  C3  N4B d   1       3.486   5.794  -1.797  0.00  0.00     0.002 A 
ATOM      4  C4  N4B d   1       2.121   5.996  -1.661  0.00  0.00    -0.004 A 
ATOM      5  C5  N4B d   1       1.245   5.234  -2.377  0.00  0.00     0.002 A 
ATOM      6  C6  N4B d   1       1.695   4.284  -3.271  0.00  0.00     0.002 A 
ENDROOT
BRANCH   1   7
ATOM      7  C1' N4B d   1       3.493   3.111  -4.490  0.00  0.00     0.057 C 
BRANCH   7   8
ATOM      8  C2' N4B d   1       4.160   3.874  -5.630  0.00  0.00     0.009 C 
BRANCH   8   9
ATOM      9  C3' N4B d   1       5.644   4.087  -5.380  0.00  0.00     0.004 C 
ATOM     10  C4' N4B d   1       6.000   5.532  -5.195  0.00  0.00     0.003 C 
ENDBRANCH   8   9
ENDBRANCH   7   8
ENDBRANCH   1   7
TORSDOF 3
ENDMDL
