MODEL 1
REMARK minimizedAffinity 9.23103046
REMARK minimizedRMSD -1
REMARK  3 active torsions:
REMARK  status: ('A' for Active; 'I' for Inactive)
REMARK    1  A    between atoms: C3'_2  and  C2'_3 
REMARK    2  A    between atoms: C2'_3  and  C1'_4 
REMARK    3  A    between atoms: C1'_4  and  C1_5 
ROOT
ATOM      1  C1  N4B d   1       4.292   1.485  -0.220  0.00  0.00    -0.075 A 
ATOM      2  C2  N4B d   1       3.295   1.864   0.707  0.00  0.00     0.002 A 
ATOM      3  C3  N4B d   1       3.507   2.933   1.543  0.00  0.00     0.002 A 
ATOM      4  C4  N4B d   1       4.708   3.623   1.484  0.00  0.00    -0.004 A 
ATOM      5  C5  N4B d   1       5.655   3.266   0.569  0.00  0.00     0.002 A 
ATOM      6  C6  N4B d   1       5.455   2.197  -0.280  0.00  0.00     0.002 A 
ENDROOT
BRANCH   1   7
ATOM      7  C1' N4B d   1       4.141   0.271  -1.095  0.00  0.00     0.057 C 
BRANCH   7   8
ATOM      8  C2' N4B d   1       3.794  -0.934  -0.226  0.00  0.00     0.009 C 
BRANCH   8   9
ATOM      9  C3' N4B d   1       4.225  -2.241  -0.868  0.00  0.00     0.004 C 
ATOM     10  C4' N4B d   1       3.588  -3.439  -0.230  0.00  0.00     0.003 C 
ENDBRANCH   8   9
ENDBRANCH   7   8
ENDBRANCH   1   7
TORSDOF 3
ENDMDL
