MODEL 1
REMARK minimizedAffinity 18.3144264
REMARK minimizedRMSD -1
REMARK  3 active torsions:
REMARK  status: ('A' for Active; 'I' for Inactive)
REMARK    1  A    between atoms: C3'_2  and  C2'_3 
REMARK    2  A    between atoms: C2'_3  and  C1'_4 
REMARK    3  A    between atoms: C1'_4  and  C1_5 
ROOT
ATOM      1  C1  N4B d   1       3.022   3.603  -3.349  0.00  0.00    -0.075 A 
ATOM      2  C2  N4B d   1       3.781   4.329  -2.405  0.00  0.00     0.002 A 
ATOM      3  C3  N4B d   1       5.028   4.796  -2.740  0.00  0.00     0.002 A 
ATOM      4  C4  N4B d   1       5.542   4.535  -4.001  0.00  0.00    -0.004 A 
ATOM      5  C5  N4B d   1       4.792   3.855  -4.915  0.00  0.00     0.002 A 
ATOM      6  C6  N4B d   1       3.536   3.383  -4.594  0.00  0.00     0.002 A 
ENDROOT
BRANCH   1   7
ATOM      7  C1' N4B d   1       1.689   2.998  -3.000  0.00  0.00     0.057 C 
BRANCH   7   8
ATOM      8  C2' N4B d   1       0.582   3.985  -3.358  0.00  0.00     0.009 C 
BRANCH   8   9
ATOM      9  C3' N4B d   1       0.034   4.694  -2.132  0.00  0.00     0.004 C 
ATOM     10  C4' N4B d   1       0.726   5.996  -1.856  0.00  0.00     0.003 C 
ENDBRANCH   8   9
ENDBRANCH   7   8
ENDBRANCH   1   7
TORSDOF 3
ENDMDL
