MODEL 1
REMARK minimizedAffinity 3.65693521
REMARK minimizedRMSD -1
REMARK  0 active torsions:
REMARK  status: ('A' for Active; 'I' for Inactive)
ROOT
ATOM      1  C   UNL d   1       0.303  -1.139   2.870  0.00  0.00     0.172 C 
ATOM      2  N   UNL d   1       1.214  -1.762   1.939  0.00  0.00    -0.070 N 
ATOM      3  C1  UNL d   1       1.530  -1.288   0.693  0.00  0.00    -0.004 A 
ATOM      4  C2  UNL d   1       2.429  -2.164   0.124  0.00  0.00    -0.047 A 
ATOM      5  C3  UNL d   1       2.661  -3.200   1.060  0.00  0.00    -0.047 A 
ATOM      6  C4  UNL d   1       1.896  -2.926   2.174  0.00  0.00    -0.004 A 
ENDROOT
TORSDOF 0
ENDMDL
