MODEL 1
REMARK minimizedAffinity 1.92188334
REMARK minimizedRMSD -1
REMARK  0 active torsions:
REMARK  status: ('A' for Active; 'I' for Inactive)
ROOT
ATOM      1  C   UNL d   1       4.870  -4.818   2.681  0.00  0.00     0.172 C 
ATOM      2  N   UNL d   1       5.118  -4.068   3.890  0.00  0.00    -0.070 N 
ATOM      3  C1  UNL d   1       5.999  -3.027   4.017  0.00  0.00    -0.004 A 
ATOM      4  C2  UNL d   1       5.942  -2.583   5.320  0.00  0.00    -0.047 A 
ATOM      5  C3  UNL d   1       4.994  -3.385   6.000  0.00  0.00    -0.047 A 
ATOM      6  C4  UNL d   1       4.500  -4.296   5.091  0.00  0.00    -0.004 A 
ENDROOT
TORSDOF 0
ENDMDL
