MODEL 1
REMARK minimizedAffinity -0.134427696
REMARK minimizedRMSD -1
REMARK  0 active torsions:
REMARK  status: ('A' for Active; 'I' for Inactive)
ROOT
ATOM      1  C   UNL d   1       5.981  -1.482   0.236  0.00  0.00     0.172 C 
ATOM      2  N   UNL d   1       4.725  -0.951  -0.241  0.00  0.00    -0.070 N 
ATOM      3  C1  UNL d   1       4.555   0.252  -0.873  0.00  0.00    -0.004 A 
ATOM      4  C2  UNL d   1       3.215   0.389  -1.167  0.00  0.00    -0.047 A 
ATOM      5  C3  UNL d   1       2.557  -0.771  -0.694  0.00  0.00    -0.047 A 
ATOM      6  C4  UNL d   1       3.516  -1.584  -0.125  0.00  0.00    -0.004 A 
ENDROOT
TORSDOF 0
ENDMDL
