MODEL 1
REMARK minimizedAffinity -1.20749712
REMARK minimizedRMSD -1
REMARK  0 active torsions:
REMARK  status: ('A' for Active; 'I' for Inactive)
ROOT
ATOM      1  C   UNL d   1       3.506  -4.363   0.823  0.00  0.00     0.172 C 
ATOM      2  N   UNL d   1       2.609  -3.271   1.119  0.00  0.00    -0.070 N 
ATOM      3  C1  UNL d   1       1.875  -3.129   2.266  0.00  0.00    -0.004 A 
ATOM      4  C2  UNL d   1       1.151  -1.961   2.163  0.00  0.00    -0.047 A 
ATOM      5  C3  UNL d   1       1.460  -1.381   0.909  0.00  0.00    -0.047 A 
ATOM      6  C4  UNL d   1       2.365  -2.213   0.284  0.00  0.00    -0.004 A 
ENDROOT
TORSDOF 0
ENDMDL
