MODEL 1
REMARK minimizedAffinity 1.75559163
REMARK minimizedRMSD -1
REMARK  0 active torsions:
REMARK  status: ('A' for Active; 'I' for Inactive)
ROOT
ATOM      1  C   UNL d   1       2.614  -2.390   0.023  0.00  0.00     0.172 C 
ATOM      2  N   UNL d   1       2.681  -1.067  -0.553  0.00  0.00    -0.070 N 
ATOM      3  C1  UNL d   1       3.624  -0.117  -0.263  0.00  0.00    -0.004 A 
ATOM      4  C2  UNL d   1       3.342   1.001  -1.017  0.00  0.00    -0.047 A 
ATOM      5  C3  UNL d   1       2.189   0.715  -1.785  0.00  0.00    -0.047 A 
ATOM      6  C4  UNL d   1       1.800  -0.572  -1.478  0.00  0.00    -0.004 A 
ENDROOT
TORSDOF 0
ENDMDL
