MODEL 1
REMARK minimizedAffinity -2.24496531
REMARK minimizedRMSD -1
REMARK  0 active torsions:
REMARK  status: ('A' for Active; 'I' for Inactive)
ROOT
ATOM      1  C   UNL d   1       2.986  -0.626  -0.915  0.00  0.00     0.172 C 
ATOM      2  N   UNL d   1       2.897  -1.866  -0.181  0.00  0.00    -0.070 N 
ATOM      3  C1  UNL d   1       1.954  -2.167   0.765  0.00  0.00    -0.004 A 
ATOM      4  C2  UNL d   1       2.212  -3.440   1.227  0.00  0.00    -0.047 A 
ATOM      5  C3  UNL d   1       3.350  -3.919   0.535  0.00  0.00    -0.047 A 
ATOM      6  C4  UNL d   1       3.753  -2.925  -0.330  0.00  0.00    -0.004 A 
ENDROOT
TORSDOF 0
ENDMDL
