MODEL 1
REMARK minimizedAffinity 7.43866873
REMARK minimizedRMSD -1
REMARK  0 active torsions:
REMARK  status: ('A' for Active; 'I' for Inactive)
ROOT
ATOM      1  C   UNL d   1       4.492   5.964   5.992  0.00  0.00     0.172 C 
ATOM      2  N   UNL d   1       3.237   5.486   5.461  0.00  0.00    -0.070 N 
ATOM      3  C1  UNL d   1       2.473   4.484   5.998  0.00  0.00    -0.004 A 
ATOM      4  C2  UNL d   1       1.360   4.329   5.201  0.00  0.00    -0.047 A 
ATOM      5  C3  UNL d   1       1.458   5.270   4.148  0.00  0.00    -0.047 A 
ATOM      6  C4  UNL d   1       2.630   5.972   4.333  0.00  0.00    -0.004 A 
ENDROOT
TORSDOF 0
ENDMDL
