MODEL 1
REMARK minimizedAffinity -1.70334125
REMARK minimizedRMSD -1
REMARK  0 active torsions:
REMARK  status: ('A' for Active; 'I' for Inactive)
ROOT
ATOM      1  C   UNL d   1      -0.047   5.720   5.357  0.00  0.00     0.172 C 
ATOM      2  N   UNL d   1       1.289   5.833   4.822  0.00  0.00    -0.070 N 
ATOM      3  C1  UNL d   1       1.614   5.895   3.493  0.00  0.00    -0.004 A 
ATOM      4  C2  UNL d   1       2.985   6.000   3.398  0.00  0.00    -0.047 A 
ATOM      5  C3  UNL d   1       3.502   6.000   4.716  0.00  0.00    -0.047 A 
ATOM      6  C4  UNL d   1       2.430   5.896   5.577  0.00  0.00    -0.004 A 
ENDROOT
TORSDOF 0
ENDMDL
