MODEL 1
REMARK minimizedAffinity -1.27108705
REMARK minimizedRMSD -1
REMARK  0 active torsions:
REMARK  status: ('A' for Active; 'I' for Inactive)
ROOT
ATOM      1  C   UNL d   1       0.922   5.967   5.075  0.00  0.00     0.172 C 
ATOM      2  N   UNL d   1       2.099   5.980   4.238  0.00  0.00    -0.070 N 
ATOM      3  C1  UNL d   1       3.394   5.989   4.681  0.00  0.00    -0.004 A 
ATOM      4  C2  UNL d   1       4.218   6.000   3.577  0.00  0.00    -0.047 A 
ATOM      5  C3  UNL d   1       3.390   5.999   2.430  0.00  0.00    -0.047 A 
ATOM      6  C4  UNL d   1       2.082   5.987   2.868  0.00  0.00    -0.004 A 
ENDROOT
TORSDOF 0
ENDMDL
