MODEL 1
REMARK minimizedAffinity 0.664364815
REMARK minimizedRMSD -1
REMARK  0 active torsions:
REMARK  status: ('A' for Active; 'I' for Inactive)
ROOT
ATOM      1  C   UNL d   1       0.101  -0.438  -0.297  0.00  0.00     0.172 C 
ATOM      2  N   UNL d   1       1.453  -0.049  -0.619  0.00  0.00    -0.070 N 
ATOM      3  C1  UNL d   1       1.812   0.947  -1.487  0.00  0.00    -0.004 A 
ATOM      4  C2  UNL d   1       3.189   1.005  -1.517  0.00  0.00    -0.047 A 
ATOM      5  C3  UNL d   1       3.674   0.008  -0.638  0.00  0.00    -0.047 A 
ATOM      6  C4  UNL d   1       2.579  -0.629  -0.095  0.00  0.00    -0.004 A 
ENDROOT
TORSDOF 0
ENDMDL
