MODEL 1
REMARK minimizedAffinity -0.13608785
REMARK minimizedRMSD -1
REMARK  0 active torsions:
REMARK  status: ('A' for Active; 'I' for Inactive)
ROOT
ATOM      1  N1  IND d   1      -2.788  -5.996  -3.249  0.00  0.00    -0.196 N 
ATOM      2  C2  IND d   1      -2.469  -5.992  -1.920  0.00  0.00     0.054 A 
ATOM      3  C3  IND d   1      -1.126  -6.000  -1.759  0.00  0.00    -0.031 A 
ATOM      4  C4  IND d   1       0.735  -5.918  -3.536  0.00  0.00     0.051 A 
ATOM      5  C5  IND d   1       0.936  -5.948  -4.887  0.00  0.00    -0.031 A 
ATOM      6  C6  IND d   1      -0.116  -5.994  -5.780  0.00  0.00     0.015 A 
ATOM      7  C7  IND d   1      -1.413  -6.000  -5.352  0.00  0.00    -0.016 A 
ATOM      8  C8  IND d   1      -1.621  -5.977  -3.981  0.00  0.00    -0.047 A 
ATOM      9  C9  IND d   1      -0.557  -5.973  -3.069  0.00  0.00    -0.096 A 
ATOM     10  HN1 IND d   1      -3.584  -6.009  -3.574  0.00  0.00     0.298 HD
ENDROOT
TORSDOF 0
ENDMDL
