MODEL 1
REMARK minimizedAffinity 3.96245694
REMARK minimizedRMSD -1
REMARK  0 active torsions:
REMARK  status: ('A' for Active; 'I' for Inactive)
ROOT
ATOM      1  N1  IND d   1      -3.734  -2.109  -0.349  0.00  0.00    -0.196 N 
ATOM      2  C2  IND d   1      -3.271  -1.621   0.841  0.00  0.00     0.054 A 
ATOM      3  C3  IND d   1      -3.728  -0.365   1.044  0.00  0.00    -0.031 A 
ATOM      4  C4  IND d   1      -5.330   1.045  -0.397  0.00  0.00     0.051 A 
ATOM      5  C5  IND d   1      -5.990   1.040  -1.593  0.00  0.00    -0.031 A 
ATOM      6  C6  IND d   1      -5.932  -0.038  -2.453  0.00  0.00     0.015 A 
ATOM      7  C7  IND d   1      -5.219  -1.160  -2.141  0.00  0.00    -0.016 A 
ATOM      8  C8  IND d   1      -4.542  -1.156  -0.930  0.00  0.00    -0.047 A 
ATOM      9  C9  IND d   1      -4.562  -0.048  -0.073  0.00  0.00    -0.096 A 
ATOM     10  HN1 IND d   1      -3.551  -2.881  -0.680  0.00  0.00     0.298 HD
ENDROOT
TORSDOF 0
ENDMDL
