MODEL 1
REMARK minimizedAffinity 5.95625687
REMARK minimizedRMSD -1
REMARK  0 active torsions:
REMARK  status: ('A' for Active; 'I' for Inactive)
ROOT
ATOM      1  N1  IND d   1       2.804  -0.741   3.050  0.00  0.00    -0.196 N 
ATOM      2  C2  IND d   1       1.768  -1.247   3.784  0.00  0.00     0.054 A 
ATOM      3  C3  IND d   1       0.643  -1.300   3.036  0.00  0.00    -0.031 A 
ATOM      4  C4  IND d   1       0.299  -0.704   0.556  0.00  0.00     0.051 A 
ATOM      5  C5  IND d   1       0.944  -0.166  -0.522  0.00  0.00    -0.031 A 
ATOM      6  C6  IND d   1       2.270   0.213  -0.464  0.00  0.00     0.015 A 
ATOM      7  C7  IND d   1       3.006   0.057   0.676  0.00  0.00    -0.016 A 
ATOM      8  C8  IND d   1       2.352  -0.483   1.775  0.00  0.00    -0.047 A 
ATOM      9  C9  IND d   1       0.996  -0.830   1.734  0.00  0.00    -0.096 A 
ATOM     10  HN1 IND d   1       3.604  -0.607   3.337  0.00  0.00     0.298 HD
ENDROOT
TORSDOF 0
ENDMDL
