MODEL 1
REMARK minimizedAffinity 10.2017546
REMARK minimizedRMSD -1
REMARK  0 active torsions:
REMARK  status: ('A' for Active; 'I' for Inactive)
ROOT
ATOM      1  N1  IND d   1       2.288  -0.920   3.042  0.00  0.00    -0.196 N 
ATOM      2  C2  IND d   1       1.297  -1.739   3.507  0.00  0.00     0.054 A 
ATOM      3  C3  IND d   1       0.332  -1.888   2.572  0.00  0.00    -0.031 A 
ATOM      4  C4  IND d   1       0.224  -0.962   0.172  0.00  0.00     0.051 A 
ATOM      5  C5  IND d   1       0.880  -0.132  -0.693  0.00  0.00    -0.031 A 
ATOM      6  C6  IND d   1       2.064   0.488  -0.351  0.00  0.00     0.015 A 
ATOM      7  C7  IND d   1       2.645   0.292   0.870  0.00  0.00    -0.016 A 
ATOM      8  C8  IND d   1       1.978  -0.545   1.753  0.00  0.00    -0.047 A 
ATOM      9  C9  IND d   1       0.754  -1.144   1.428  0.00  0.00    -0.096 A 
ATOM     10  HN1 IND d   1       2.987  -0.680   3.481  0.00  0.00     0.298 HD
ENDROOT
TORSDOF 0
ENDMDL
