MODEL 1
REMARK minimizedAffinity 5.97581196
REMARK minimizedRMSD -1
REMARK  0 active torsions:
REMARK  status: ('A' for Active; 'I' for Inactive)
ROOT
ATOM      1  N1  IND d   1       1.454   0.843   1.169  0.00  0.00    -0.196 N 
ATOM      2  C2  IND d   1       0.648   0.755   0.069  0.00  0.00     0.054 A 
ATOM      3  C3  IND d   1       0.219  -0.517  -0.099  0.00  0.00    -0.031 A 
ATOM      4  C4  IND d   1       0.635  -2.590   1.369  0.00  0.00     0.051 A 
ATOM      5  C5  IND d   1       1.340  -3.012   2.461  0.00  0.00    -0.031 A 
ATOM      6  C6  IND d   1       2.132  -2.153   3.195  0.00  0.00     0.015 A 
ATOM      7  C7  IND d   1       2.241  -0.831   2.869  0.00  0.00    -0.016 A 
ATOM      8  C8  IND d   1       1.533  -0.400   1.756  0.00  0.00    -0.047 A 
ATOM      9  C9  IND d   1       0.761  -1.276   0.983  0.00  0.00    -0.096 A 
ATOM     10  HN1 IND d   1       1.847   1.556   1.447  0.00  0.00     0.298 HD
ENDROOT
TORSDOF 0
ENDMDL
