MODEL 1
REMARK minimizedAffinity 3.97665358
REMARK minimizedRMSD -1
REMARK  0 active torsions:
REMARK  status: ('A' for Active; 'I' for Inactive)
ROOT
ATOM      1  N1  IND d   1       0.443  -1.044   2.466  0.00  0.00    -0.196 N 
ATOM      2  C2  IND d   1       1.345  -1.555   3.358  0.00  0.00     0.054 A 
ATOM      3  C3  IND d   1       2.607  -1.334   2.929  0.00  0.00    -0.031 A 
ATOM      4  C4  IND d   1       3.428  -0.064   0.845  0.00  0.00     0.051 A 
ATOM      5  C5  IND d   1       2.977   0.551  -0.289  0.00  0.00    -0.031 A 
ATOM      6  C6  IND d   1       1.631   0.670  -0.567  0.00  0.00     0.015 A 
ATOM      7  C7  IND d   1       0.681   0.187   0.289  0.00  0.00    -0.016 A 
ATOM      8  C8  IND d   1       1.136  -0.444   1.438  0.00  0.00    -0.047 A 
ATOM      9  C9  IND d   1       2.502  -0.606   1.704  0.00  0.00    -0.096 A 
ATOM     10  HN1 IND d   1      -0.413  -1.089   2.536  0.00  0.00     0.298 HD
ENDROOT
TORSDOF 0
ENDMDL
