MODEL 1
REMARK minimizedAffinity 4.88436317
REMARK minimizedRMSD -1
REMARK  0 active torsions:
REMARK  status: ('A' for Active; 'I' for Inactive)
ROOT
ATOM      1  N1  IND d   1      -0.066   0.823   0.759  0.00  0.00    -0.196 N 
ATOM      2  C2  IND d   1      -1.390   0.863   0.419  0.00  0.00     0.054 A 
ATOM      3  C3  IND d   1      -1.878  -0.390   0.281  0.00  0.00    -0.031 A 
ATOM      4  C4  IND d   1      -0.710  -2.652   0.662  0.00  0.00     0.051 A 
ATOM      5  C5  IND d   1       0.509  -3.201   0.946  0.00  0.00    -0.031 A 
ATOM      6  C6  IND d   1       1.620  -2.420   1.190  0.00  0.00     0.015 A 
ATOM      7  C7  IND d   1       1.551  -1.056   1.170  0.00  0.00    -0.016 A 
ATOM      8  C8  IND d   1       0.317  -0.496   0.875  0.00  0.00    -0.047 A 
ATOM      9  C9  IND d   1      -0.805  -1.283   0.585  0.00  0.00    -0.096 A 
ATOM     10  HN1 IND d   1       0.442   1.506   0.879  0.00  0.00     0.298 HD
ENDROOT
TORSDOF 0
ENDMDL
