MODEL 1
REMARK minimizedAffinity -2.26675868
REMARK minimizedRMSD -1
REMARK  0 active torsions:
REMARK  status: ('A' for Active; 'I' for Inactive)
ROOT
ATOM      1  N1  IND d   1       1.754  -5.923  -3.820  0.00  0.00    -0.196 N 
ATOM      2  C2  IND d   1       1.850  -5.940  -5.184  0.00  0.00     0.054 A 
ATOM      3  C3  IND d   1       0.620  -5.998  -5.741  0.00  0.00    -0.031 A 
ATOM      4  C4  IND d   1      -1.692  -5.970  -4.609  0.00  0.00     0.051 A 
ATOM      5  C5  IND d   1      -2.290  -5.998  -3.380  0.00  0.00    -0.031 A 
ATOM      6  C6  IND d   1      -1.555  -5.998  -2.212  0.00  0.00     0.015 A 
ATOM      7  C7  IND d   1      -0.190  -5.961  -2.228  0.00  0.00    -0.016 A 
ATOM      8  C8  IND d   1       0.421  -5.940  -3.474  0.00  0.00    -0.047 A 
ATOM      9  C9  IND d   1      -0.318  -5.982  -4.664  0.00  0.00    -0.096 A 
ATOM     10  HN1 IND d   1       2.416  -5.905  -3.271  0.00  0.00     0.298 HD
ENDROOT
TORSDOF 0
ENDMDL
