MODEL 1
REMARK minimizedAffinity -1.35950494
REMARK minimizedRMSD -1
REMARK  0 active torsions:
REMARK  status: ('A' for Active; 'I' for Inactive)
ROOT
ATOM      1  N1  IND d   1      -1.121  -5.999  -5.922  0.00  0.00    -0.196 N 
ATOM      2  C2  IND d   1       0.244  -5.997  -5.999  0.00  0.00     0.054 A 
ATOM      3  C3  IND d   1       0.785  -5.960  -4.761  0.00  0.00    -0.031 A 
ATOM      4  C4  IND d   1      -0.379  -5.999  -2.465  0.00  0.00     0.051 A 
ATOM      5  C5  IND d   1      -1.616  -5.963  -1.884  0.00  0.00    -0.031 A 
ATOM      6  C6  IND d   1      -2.774  -5.940  -2.634  0.00  0.00     0.015 A 
ATOM      7  C7  IND d   1      -2.739  -5.963  -3.999  0.00  0.00    -0.016 A 
ATOM      8  C8  IND d   1      -1.485  -5.992  -4.593  0.00  0.00    -0.047 A 
ATOM      9  C9  IND d   1      -0.305  -5.973  -3.838  0.00  0.00    -0.096 A 
ATOM     10  HN1 IND d   1      -1.662  -6.004  -6.591  0.00  0.00     0.298 HD
ENDROOT
TORSDOF 0
ENDMDL
