MODEL 1
REMARK minimizedAffinity 5.95395422
REMARK minimizedRMSD -1
REMARK  0 active torsions:
REMARK  status: ('A' for Active; 'I' for Inactive)
ROOT
ATOM      1  N1  IND d   1      -2.159  -5.889  -2.688  0.00  0.00    -0.196 N 
ATOM      2  C2  IND d   1      -2.961  -5.979  -3.792  0.00  0.00     0.054 A 
ATOM      3  C3  IND d   1      -2.211  -5.999  -4.917  0.00  0.00    -0.031 A 
ATOM      4  C4  IND d   1       0.350  -5.998  -5.177  0.00  0.00     0.051 A 
ATOM      5  C5  IND d   1       1.506  -5.888  -4.456  0.00  0.00    -0.031 A 
ATOM      6  C6  IND d   1       1.499  -5.774  -3.081  0.00  0.00     0.015 A 
ATOM      7  C7  IND d   1       0.331  -5.776  -2.372  0.00  0.00    -0.016 A 
ATOM      8  C8  IND d   1      -0.845  -5.880  -3.101  0.00  0.00    -0.047 A 
ATOM      9  C9  IND d   1      -0.846  -5.954  -4.500  0.00  0.00    -0.096 A 
ATOM     10  HN1 IND d   1      -2.430  -5.845  -1.874  0.00  0.00     0.298 HD
ENDROOT
TORSDOF 0
ENDMDL
