MODEL 1
REMARK minimizedAffinity -1.24930203
REMARK minimizedRMSD -1
REMARK  0 active torsions:
REMARK  status: ('A' for Active; 'I' for Inactive)
ROOT
ATOM      1  N1  IND d   1      -2.981  -5.993  -4.338  0.00  0.00    -0.196 N 
ATOM      2  C2  IND d   1      -3.305  -5.990  -3.009  0.00  0.00     0.054 A 
ATOM      3  C3  IND d   1      -2.185  -6.000  -2.252  0.00  0.00    -0.031 A 
ATOM      4  C4  IND d   1       0.282  -5.918  -2.980  0.00  0.00     0.051 A 
ATOM      5  C5  IND d   1       1.080  -5.946  -4.090  0.00  0.00    -0.031 A 
ATOM      6  C6  IND d   1       0.553  -5.990  -5.365  0.00  0.00     0.015 A 
ATOM      7  C7  IND d   1      -0.796  -5.995  -5.578  0.00  0.00    -0.016 A 
ATOM      8  C8  IND d   1      -1.608  -5.973  -4.454  0.00  0.00    -0.047 A 
ATOM      9  C9  IND d   1      -1.080  -5.972  -3.156  0.00  0.00    -0.096 A 
ATOM     10  HN1 IND d   1      -3.540  -6.005  -4.990  0.00  0.00     0.298 HD
ENDROOT
TORSDOF 0
ENDMDL
