MODEL 1
REMARK minimizedAffinity -0.448904425
REMARK minimizedRMSD -1
REMARK  0 active torsions:
REMARK  status: ('A' for Active; 'I' for Inactive)
ROOT
ATOM      1  N1  IND d   1       1.155  -5.937  -4.712  0.00  0.00    -0.196 N 
ATOM      2  C2  IND d   1       0.670  -5.950  -5.990  0.00  0.00     0.054 A 
ATOM      3  C3  IND d   1      -0.681  -6.000  -5.981  0.00  0.00    -0.031 A 
ATOM      4  C4  IND d   1      -2.305  -5.963  -3.983  0.00  0.00     0.051 A 
ATOM      5  C5  IND d   1      -2.333  -5.990  -2.617  0.00  0.00    -0.031 A 
ATOM      6  C6  IND d   1      -1.176  -5.999  -1.864  0.00  0.00     0.015 A 
ATOM      7  C7  IND d   1       0.057  -5.968  -2.452  0.00  0.00    -0.016 A 
ATOM      8  C8  IND d   1       0.089  -5.948  -3.839  0.00  0.00    -0.047 A 
ATOM      9  C9  IND d   1      -1.081  -5.982  -4.609  0.00  0.00    -0.096 A 
ATOM     10  HN1 IND d   1       1.985  -5.924  -4.491  0.00  0.00     0.298 HD
ENDROOT
TORSDOF 0
ENDMDL
