MODEL 1
REMARK minimizedAffinity 3.8233819
REMARK minimizedRMSD -1
REMARK  0 active torsions:
REMARK  status: ('A' for Active; 'I' for Inactive)
ROOT
ATOM      1  N1  IND d   1       2.467  -5.924  -5.236  0.00  0.00    -0.196 N 
ATOM      2  C2  IND d   1       3.058  -5.909  -4.004  0.00  0.00     0.054 A 
ATOM      3  C3  IND d   1       2.118  -5.896  -3.032  0.00  0.00    -0.031 A 
ATOM      4  C4  IND d   1      -0.446  -6.000  -3.234  0.00  0.00     0.051 A 
ATOM      5  C5  IND d   1      -1.455  -5.989  -4.156  0.00  0.00    -0.031 A 
ATOM      6  C6  IND d   1      -1.204  -5.958  -5.512  0.00  0.00     0.015 A 
ATOM      7  C7  IND d   1       0.073  -5.948  -6.000  0.00  0.00    -0.016 A 
ATOM      8  C8  IND d   1       1.100  -5.952  -5.067  0.00  0.00    -0.047 A 
ATOM      9  C9  IND d   1       0.850  -5.940  -3.688  0.00  0.00    -0.096 A 
ATOM     10  HN1 IND d   1       2.879  -5.917  -5.991  0.00  0.00     0.298 HD
ENDROOT
TORSDOF 0
ENDMDL
