MODEL 1
REMARK minimizedAffinity 2.2890954
REMARK minimizedRMSD -1
REMARK  0 active torsions:
REMARK  status: ('A' for Active; 'I' for Inactive)
ROOT
ATOM      1  N1  IND d   1       1.038  -5.968  -5.990  0.00  0.00    -0.196 N 
ATOM      2  C2  IND d   1       2.013  -5.949  -5.032  0.00  0.00     0.054 A 
ATOM      3  C3  IND d   1       1.461  -5.917  -3.799  0.00  0.00    -0.031 A 
ATOM      4  C4  IND d   1      -1.020  -5.996  -3.116  0.00  0.00     0.051 A 
ATOM      5  C5  IND d   1      -2.283  -5.982  -3.639  0.00  0.00    -0.031 A 
ATOM      6  C6  IND d   1      -2.507  -5.965  -5.000  0.00  0.00     0.015 A 
ATOM      7  C7  IND d   1      -1.473  -5.974  -5.893  0.00  0.00    -0.016 A 
ATOM      8  C8  IND d   1      -0.190  -5.980  -5.365  0.00  0.00    -0.047 A 
ATOM      9  C9  IND d   1       0.045  -5.954  -3.984  0.00  0.00    -0.096 A 
ATOM     10  HN1 IND d   1       1.169  -5.973  -6.840  0.00  0.00     0.298 HD
ENDROOT
TORSDOF 0
ENDMDL
