MODEL 1
REMARK minimizedAffinity 3.45564938
REMARK minimizedRMSD -1
REMARK  0 active torsions:
REMARK  status: ('A' for Active; 'I' for Inactive)
ROOT
ATOM      1  N1  IND d   1      -0.059  -5.932  -2.573  0.00  0.00    -0.196 N 
ATOM      2  C2  IND d   1       0.255  -5.948  -3.904  0.00  0.00     0.054 A 
ATOM      3  C3  IND d   1      -0.870  -5.996  -4.652  0.00  0.00    -0.031 A 
ATOM      4  C4  IND d   1      -3.334  -5.952  -3.905  0.00  0.00     0.051 A 
ATOM      5  C5  IND d   1      -4.121  -5.976  -2.788  0.00  0.00    -0.031 A 
ATOM      6  C6  IND d   1      -3.584  -5.984  -1.517  0.00  0.00     0.015 A 
ATOM      7  C7  IND d   1      -2.234  -5.957  -1.314  0.00  0.00    -0.016 A 
ATOM      8  C8  IND d   1      -1.431  -5.940  -2.446  0.00  0.00    -0.047 A 
ATOM      9  C9  IND d   1      -1.969  -5.974  -3.739  0.00  0.00    -0.096 A 
ATOM     10  HN1 IND d   1       0.506  -5.920  -1.925  0.00  0.00     0.298 HD
ENDROOT
TORSDOF 0
ENDMDL
