MODEL 1
REMARK minimizedAffinity 4.56633902
REMARK minimizedRMSD -1
REMARK  0 active torsions:
REMARK  status: ('A' for Active; 'I' for Inactive)
ROOT
ATOM      1  N1  IND d   1       0.012  -5.850  -4.591  0.00  0.00    -0.196 N 
ATOM      2  C2  IND d   1      -0.621  -5.901  -5.802  0.00  0.00     0.054 A 
ATOM      3  C3  IND d   1      -1.959  -5.997  -5.629  0.00  0.00    -0.031 A 
ATOM      4  C4  IND d   1      -3.332  -5.984  -3.451  0.00  0.00     0.051 A 
ATOM      5  C5  IND d   1      -3.195  -5.990  -2.092  0.00  0.00    -0.031 A 
ATOM      6  C6  IND d   1      -1.957  -5.946  -1.483  0.00  0.00     0.015 A 
ATOM      7  C7  IND d   1      -0.805  -5.883  -2.215  0.00  0.00    -0.016 A 
ATOM      8  C8  IND d   1      -0.940  -5.884  -3.597  0.00  0.00    -0.047 A 
ATOM      9  C9  IND d   1      -2.192  -5.971  -4.220  0.00  0.00    -0.096 A 
ATOM     10  HN1 IND d   1       0.862  -5.805  -4.472  0.00  0.00     0.298 HD
ENDROOT
TORSDOF 0
ENDMDL
