MODEL 1
REMARK minimizedAffinity 0.614144504
REMARK minimizedRMSD -1
REMARK  0 active torsions:
REMARK  status: ('A' for Active; 'I' for Inactive)
ROOT
ATOM      1  N1  IND d   1       0.708  -5.808  -4.575  0.00  0.00    -0.196 N 
ATOM      2  C2  IND d   1       0.334  -5.796  -5.890  0.00  0.00     0.054 A 
ATOM      3  C3  IND d   1      -1.011  -5.874  -5.998  0.00  0.00    -0.031 A 
ATOM      4  C4  IND d   1      -2.800  -5.928  -4.147  0.00  0.00     0.051 A 
ATOM      5  C5  IND d   1      -2.943  -5.994  -2.790  0.00  0.00    -0.031 A 
ATOM      6  C6  IND d   1      -1.856  -5.999  -1.941  0.00  0.00     0.015 A 
ATOM      7  C7  IND d   1      -0.578  -5.927  -2.419  0.00  0.00    -0.016 A 
ATOM      8  C8  IND d   1      -0.428  -5.866  -3.798  0.00  0.00    -0.047 A 
ATOM      9  C9  IND d   1      -1.527  -5.904  -4.666  0.00  0.00    -0.096 A 
ATOM     10  HN1 IND d   1       1.516  -5.784  -4.283  0.00  0.00     0.298 HD
ENDROOT
TORSDOF 0
ENDMDL
