MODEL 1
REMARK minimizedAffinity 9.09182072
REMARK minimizedRMSD -1
REMARK  1 active torsions:
REMARK  status: ('A' for Active; 'I' for Inactive)
REMARK    1  A    between atoms: C1_2  and  C2_3 
ROOT
ATOM      1  C2  UNL d   1      -2.380   2.511   0.742  0.00  0.00    -0.073 A 
ATOM      2  C3  UNL d   1      -2.627   3.888   0.794  0.00  0.00    -0.002 A 
ATOM      3  C4  UNL d   1      -3.787   4.418   0.228  0.00  0.00     0.004 A 
ATOM      4  C5  UNL d   1      -4.715   3.578  -0.388  0.00  0.00    -0.004 A 
ATOM      5  C6  UNL d   1      -4.492   2.199  -0.439  0.00  0.00    -0.075 A 
ATOM      6  C7  UNL d   1      -5.479   1.282  -1.101  0.00  0.00     0.076 C 
ATOM      7  C8  UNL d   1      -3.323   1.674   0.128  0.00  0.00     0.001 A 
ENDROOT
BRANCH   1   8
ATOM      8  C1  UNL d   1      -1.132   1.933   1.357  0.00  0.00     0.053 C 
ATOM      9  C   UNL d   1      -1.310   1.639   2.838  0.00  0.00     0.018 C 
ENDBRANCH   1   8
TORSDOF 1
ENDMDL
