MODEL 1
REMARK minimizedAffinity 2.03757596
REMARK minimizedRMSD -1
REMARK  1 active torsions:
REMARK  status: ('A' for Active; 'I' for Inactive)
REMARK    1  A    between atoms: C1_2  and  C2_3 
ROOT
ATOM      1  C2  UNL d   1       1.264   0.952   0.828  0.00  0.00    -0.073 A 
ATOM      2  C3  UNL d   1       1.398   0.657   2.190  0.00  0.00    -0.002 A 
ATOM      3  C4  UNL d   1       0.292   0.726   3.038  0.00  0.00     0.004 A 
ATOM      4  C5  UNL d   1      -0.958   1.082   2.534  0.00  0.00    -0.004 A 
ATOM      5  C6  UNL d   1      -1.115   1.369   1.174  0.00  0.00    -0.075 A 
ATOM      6  C7  UNL d   1      -2.453   1.756   0.616  0.00  0.00     0.076 C 
ATOM      7  C8  UNL d   1       0.001   1.300   0.329  0.00  0.00     0.001 A 
ENDROOT
BRANCH   1   8
ATOM      8  C1  UNL d   1       2.454   0.872  -0.093  0.00  0.00     0.053 C 
ATOM      9  C   UNL d   1       2.816  -0.564  -0.434  0.00  0.00     0.018 C 
ENDBRANCH   1   8
TORSDOF 1
ENDMDL
