MODEL 1
REMARK minimizedAffinity 2.59178066
REMARK minimizedRMSD -1
REMARK  1 active torsions:
REMARK  status: ('A' for Active; 'I' for Inactive)
REMARK    1  A    between atoms: C1_2  and  C2_3 
ROOT
ATOM      1  C2  UNL d   1       1.775  -0.651   1.871  0.00  0.00    -0.073 A 
ATOM      2  C3  UNL d   1       2.127  -1.820   1.187  0.00  0.00    -0.002 A 
ATOM      3  C4  UNL d   1       2.996  -1.764   0.097  0.00  0.00     0.004 A 
ATOM      4  C5  UNL d   1       3.528  -0.543  -0.316  0.00  0.00    -0.004 A 
ATOM      5  C6  UNL d   1       3.198   0.635   0.362  0.00  0.00    -0.075 A 
ATOM      6  C7  UNL d   1       3.759   1.958  -0.070  0.00  0.00     0.076 C 
ATOM      7  C8  UNL d   1       2.322   0.572   1.454  0.00  0.00     0.001 A 
ENDROOT
BRANCH   1   8
ATOM      8  C1  UNL d   1       0.842  -0.707   3.053  0.00  0.00     0.053 C 
ATOM      9  C   UNL d   1       0.478   0.681   3.557  0.00  0.00     0.018 C 
ENDBRANCH   1   8
TORSDOF 1
ENDMDL
