MODEL 1
REMARK minimizedAffinity 3.84789658
REMARK minimizedRMSD -1
REMARK  1 active torsions:
REMARK  status: ('A' for Active; 'I' for Inactive)
REMARK    1  A    between atoms: C1_2  and  C2_3 
ROOT
ATOM      1  C2  UNL d   1       2.231  -2.132  -0.541  0.00  0.00    -0.073 A 
ATOM      2  C3  UNL d   1       2.823  -2.735  -1.657  0.00  0.00    -0.002 A 
ATOM      3  C4  UNL d   1       3.898  -2.122  -2.301  0.00  0.00     0.004 A 
ATOM      4  C5  UNL d   1       4.397  -0.907  -1.834  0.00  0.00    -0.004 A 
ATOM      5  C6  UNL d   1       3.827  -0.294  -0.713  0.00  0.00    -0.075 A 
ATOM      6  C7  UNL d   1       4.350   1.015  -0.199  0.00  0.00     0.076 C 
ATOM      7  C8  UNL d   1       2.745  -0.914  -0.073  0.00  0.00     0.001 A 
ENDROOT
BRANCH   1   8
ATOM      8  C1  UNL d   1       1.073  -2.792   0.162  0.00  0.00     0.053 C 
ATOM      9  C   UNL d   1      -0.036  -3.177  -0.804  0.00  0.00     0.018 C 
ENDBRANCH   1   8
TORSDOF 1
ENDMDL
