MODEL 1
REMARK minimizedAffinity 7.25280905
REMARK minimizedRMSD -1
REMARK  1 active torsions:
REMARK  status: ('A' for Active; 'I' for Inactive)
REMARK    1  A    between atoms: C1_2  and  C2_3 
ROOT
ATOM      1  C2  UNL d   1       2.301  -0.802   0.693  0.00  0.00    -0.073 A 
ATOM      2  C3  UNL d   1       3.266   0.198   0.523  0.00  0.00    -0.002 A 
ATOM      3  C4  UNL d   1       4.244   0.072  -0.464  0.00  0.00     0.004 A 
ATOM      4  C5  UNL d   1       4.264  -1.048  -1.294  0.00  0.00    -0.004 A 
ATOM      5  C6  UNL d   1       3.301  -2.052  -1.148  0.00  0.00    -0.075 A 
ATOM      6  C7  UNL d   1       3.309  -3.264  -2.032  0.00  0.00     0.076 C 
ATOM      7  C8  UNL d   1       2.323  -1.920  -0.153  0.00  0.00     0.001 A 
ENDROOT
BRANCH   1   8
ATOM      8  C1  UNL d   1       1.238  -0.667   1.753  0.00  0.00     0.053 C 
ATOM      9  C   UNL d   1       1.544   0.459   2.728  0.00  0.00     0.018 C 
ENDBRANCH   1   8
TORSDOF 1
ENDMDL
