MODEL 1
REMARK minimizedAffinity -2.07684827
REMARK minimizedRMSD -1
REMARK  0 active torsions:
REMARK  status: ('A' for Active; 'I' for Inactive)
ROOT
ATOM      1  C   UNL d   1      -0.391  -0.676  -0.935  0.00  0.00     0.172 C 
ATOM      2  N   UNL d   1      -1.437  -1.076  -1.848  0.00  0.00    -0.070 N 
ATOM      3  C1  UNL d   1      -1.765  -0.439  -3.015  0.00  0.00    -0.004 A 
ATOM      4  C2  UNL d   1      -2.809  -1.127  -3.592  0.00  0.00    -0.047 A 
ATOM      5  C3  UNL d   1      -3.121  -2.216  -2.743  0.00  0.00    -0.047 A 
ATOM      6  C4  UNL d   1      -2.256  -2.160  -1.670  0.00  0.00    -0.004 A 
ENDROOT
TORSDOF 0
ENDMDL
