MODEL 1
REMARK minimizedAffinity -3.76394701
REMARK minimizedRMSD -1
REMARK  0 active torsions:
REMARK  status: ('A' for Active; 'I' for Inactive)
ROOT
ATOM      1  C   UNL d   1      -0.138  -0.022   0.383  0.00  0.00     0.172 C 
ATOM      2  N   UNL d   1       1.115   0.644   0.647  0.00  0.00    -0.070 N 
ATOM      3  C1  UNL d   1       2.323   0.322   0.088  0.00  0.00    -0.004 A 
ATOM      4  C2  UNL d   1       3.267   1.190   0.594  0.00  0.00    -0.047 A 
ATOM      5  C3  UNL d   1       2.603   2.063   1.488  0.00  0.00    -0.047 A 
ATOM      6  C4  UNL d   1       1.272   1.703   1.502  0.00  0.00    -0.004 A 
ENDROOT
TORSDOF 0
ENDMDL
