MODEL 1
REMARK minimizedAffinity -3.98690438
REMARK minimizedRMSD -1
REMARK  0 active torsions:
REMARK  status: ('A' for Active; 'I' for Inactive)
ROOT
ATOM      1  C   UNL d   1      -0.155   0.505   0.328  0.00  0.00     0.172 C 
ATOM      2  N   UNL d   1       1.013   1.340   0.481  0.00  0.00    -0.070 N 
ATOM      3  C1  UNL d   1       1.107   2.441   1.290  0.00  0.00    -0.004 A 
ATOM      4  C2  UNL d   1       2.378   2.957   1.156  0.00  0.00    -0.047 A 
ATOM      5  C3  UNL d   1       3.072   2.138   0.233  0.00  0.00    -0.047 A 
ATOM      6  C4  UNL d   1       2.204   1.145  -0.168  0.00  0.00    -0.004 A 
ENDROOT
TORSDOF 0
ENDMDL
