MODEL 1
REMARK minimizedAffinity -2.66215968
REMARK minimizedRMSD -1
REMARK  0 active torsions:
REMARK  status: ('A' for Active; 'I' for Inactive)
ROOT
ATOM      1  C   UNL d   1      -0.198  -1.518  -0.703  0.00  0.00     0.172 C 
ATOM      2  N   UNL d   1      -0.277  -0.248  -0.022  0.00  0.00    -0.070 N 
ATOM      3  C1  UNL d   1      -0.287   0.982  -0.624  0.00  0.00    -0.004 A 
ATOM      4  C2  UNL d   1      -0.372   1.936   0.366  0.00  0.00    -0.047 A 
ATOM      5  C3  UNL d   1      -0.413   1.257   1.607  0.00  0.00    -0.047 A 
ATOM      6  C4  UNL d   1      -0.353  -0.094   1.337  0.00  0.00    -0.004 A 
ENDROOT
TORSDOF 0
ENDMDL
