MODEL 1
REMARK minimizedAffinity -3.62320876
REMARK minimizedRMSD -1
REMARK  0 active torsions:
REMARK  status: ('A' for Active; 'I' for Inactive)
ROOT
ATOM      1  C   UNL d   1      -0.370  -1.107  -0.619  0.00  0.00     0.172 C 
ATOM      2  N   UNL d   1       0.017   0.015   0.203  0.00  0.00    -0.070 N 
ATOM      3  C1  UNL d   1       1.072   0.854  -0.037  0.00  0.00    -0.004 A 
ATOM      4  C2  UNL d   1       1.104   1.791   0.974  0.00  0.00    -0.047 A 
ATOM      5  C3  UNL d   1       0.032   1.504   1.852  0.00  0.00    -0.047 A 
ATOM      6  C4  UNL d   1      -0.624   0.399   1.351  0.00  0.00    -0.004 A 
ENDROOT
TORSDOF 0
ENDMDL
