MODEL 1
REMARK minimizedAffinity -3.53192711
REMARK minimizedRMSD -1
REMARK  0 active torsions:
REMARK  status: ('A' for Active; 'I' for Inactive)
ROOT
ATOM      1  C   UNL d   1      -0.469   0.992   0.555  0.00  0.00     0.172 C 
ATOM      2  N   UNL d   1       0.789   1.594   0.931  0.00  0.00    -0.070 N 
ATOM      3  C1  UNL d   1       2.024   1.208   0.484  0.00  0.00    -0.004 A 
ATOM      4  C2  UNL d   1       2.962   2.028   1.074  0.00  0.00    -0.047 A 
ATOM      5  C3  UNL d   1       2.266   2.937   1.905  0.00  0.00    -0.047 A 
ATOM      6  C4  UNL d   1       0.922   2.646   1.798  0.00  0.00    -0.004 A 
ENDROOT
TORSDOF 0
ENDMDL
