MODEL 1
REMARK minimizedAffinity -3.12565613
REMARK minimizedRMSD -1
REMARK  0 active torsions:
REMARK  status: ('A' for Active; 'I' for Inactive)
ROOT
ATOM      1  C   UNL d   1       0.013   0.194  -0.142  0.00  0.00     0.172 C 
ATOM      2  N   UNL d   1       0.904   1.090   0.557  0.00  0.00    -0.070 N 
ATOM      3  C1  UNL d   1       0.644   1.697   1.757  0.00  0.00    -0.004 A 
ATOM      4  C2  UNL d   1       1.739   2.468   2.084  0.00  0.00    -0.047 A 
ATOM      5  C3  UNL d   1       2.688   2.319   1.045  0.00  0.00    -0.047 A 
ATOM      6  C4  UNL d   1       2.145   1.461   0.113  0.00  0.00    -0.004 A 
ENDROOT
TORSDOF 0
ENDMDL
