MODEL 1
REMARK minimizedAffinity -1.11456585
REMARK minimizedRMSD -1
REMARK  0 active torsions:
REMARK  status: ('A' for Active; 'I' for Inactive)
ROOT
ATOM      1  C   UNL d   1      -0.092   1.709   1.478  0.00  0.00     0.172 C 
ATOM      2  N   UNL d   1      -0.353   0.522   0.699  0.00  0.00    -0.070 N 
ATOM      3  C1  UNL d   1      -0.354  -0.762   1.177  0.00  0.00    -0.004 A 
ATOM      4  C2  UNL d   1      -0.646  -1.603   0.125  0.00  0.00    -0.047 A 
ATOM      5  C3  UNL d   1      -0.827  -0.797  -1.024  0.00  0.00    -0.047 A 
ATOM      6  C4  UNL d   1      -0.640   0.514  -0.640  0.00  0.00    -0.004 A 
ENDROOT
TORSDOF 0
ENDMDL
