MODEL 1
REMARK minimizedAffinity -1.682338
REMARK minimizedRMSD -1
REMARK  0 active torsions:
REMARK  status: ('A' for Active; 'I' for Inactive)
ROOT
ATOM      1  C   UNL d   1      -0.036  -0.752  -0.278  0.00  0.00     0.172 C 
ATOM      2  N   UNL d   1      -0.905  -1.102  -1.377  0.00  0.00    -0.070 N 
ATOM      3  C1  UNL d   1      -2.115  -1.734  -1.268  0.00  0.00    -0.004 A 
ATOM      4  C2  UNL d   1      -2.628  -1.886  -2.538  0.00  0.00    -0.047 A 
ATOM      5  C3  UNL d   1      -1.694  -1.328  -3.442  0.00  0.00    -0.047 A 
ATOM      6  C4  UNL d   1      -0.636  -0.850  -2.696  0.00  0.00    -0.004 A 
ENDROOT
TORSDOF 0
ENDMDL
