MODEL 1
REMARK minimizedAffinity 0.654430568
REMARK minimizedRMSD -1
REMARK  0 active torsions:
REMARK  status: ('A' for Active; 'I' for Inactive)
ROOT
ATOM      1  C   UNL d   1      -2.591  -0.466  -1.897  0.00  0.00     0.172 C 
ATOM      2  N   UNL d   1      -1.722  -0.265  -0.761  0.00  0.00    -0.070 N 
ATOM      3  C1  UNL d   1      -0.811  -1.168  -0.283  0.00  0.00    -0.004 A 
ATOM      4  C2  UNL d   1      -0.184  -0.599   0.805  0.00  0.00    -0.047 A 
ATOM      5  C3  UNL d   1      -0.739   0.690   0.988  0.00  0.00    -0.047 A 
ATOM      6  C4  UNL d   1      -1.689   0.871   0.005  0.00  0.00    -0.004 A 
ENDROOT
TORSDOF 0
ENDMDL
