MODEL 1
REMARK minimizedAffinity 0.974944115
REMARK minimizedRMSD -1
REMARK  0 active torsions:
REMARK  status: ('A' for Active; 'I' for Inactive)
ROOT
ATOM      1  C   UNL d   1       1.701  -0.702  -0.442  0.00  0.00     0.172 C 
ATOM      2  N   UNL d   1       0.482  -0.286   0.211  0.00  0.00    -0.070 N 
ATOM      3  C1  UNL d   1       0.298  -0.178   1.564  0.00  0.00    -0.004 A 
ATOM      4  C2  UNL d   1      -0.995   0.246   1.781  0.00  0.00    -0.047 A 
ATOM      5  C3  UNL d   1      -1.610   0.397   0.516  0.00  0.00    -0.047 A 
ATOM      6  C4  UNL d   1      -0.673   0.061  -0.439  0.00  0.00    -0.004 A 
ENDROOT
TORSDOF 0
ENDMDL
