MODEL 1
REMARK minimizedAffinity -2.75746012
REMARK minimizedRMSD -1
REMARK  0 active torsions:
REMARK  status: ('A' for Active; 'I' for Inactive)
ROOT
ATOM      1  C   UNL d   1      -0.050  -0.959  -0.536  0.00  0.00     0.172 C 
ATOM      2  N   UNL d   1       0.374   0.288   0.056  0.00  0.00    -0.070 N 
ATOM      3  C1  UNL d   1       1.465   1.023  -0.326  0.00  0.00    -0.004 A 
ATOM      4  C2  UNL d   1       1.526   2.139   0.480  0.00  0.00    -0.047 A 
ATOM      5  C3  UNL d   1       0.434   2.073   1.378  0.00  0.00    -0.047 A 
ATOM      6  C4  UNL d   1      -0.262   0.917   1.093  0.00  0.00    -0.004 A 
ENDROOT
TORSDOF 0
ENDMDL
