MODEL 1
REMARK minimizedAffinity -4.26743507
REMARK minimizedRMSD -1
REMARK  0 active torsions:
REMARK  status: ('A' for Active; 'I' for Inactive)
ROOT
ATOM      1  C   UNL d   1      -0.744  -0.001   0.964  0.00  0.00     0.172 C 
ATOM      2  N   UNL d   1       0.418   0.828   0.748  0.00  0.00    -0.070 N 
ATOM      3  C1  UNL d   1       0.711   1.983   1.423  0.00  0.00    -0.004 A 
ATOM      4  C2  UNL d   1       1.900   2.472   0.927  0.00  0.00    -0.047 A 
ATOM      5  C3  UNL d   1       2.336   1.580  -0.082  0.00  0.00    -0.047 A 
ATOM      6  C4  UNL d   1       1.400   0.572  -0.172  0.00  0.00    -0.004 A 
ENDROOT
TORSDOF 0
ENDMDL
