MODEL 1
REMARK minimizedAffinity -2.0539341
REMARK minimizedRMSD -1
REMARK  0 active torsions:
REMARK  status: ('A' for Active; 'I' for Inactive)
ROOT
ATOM      1  C   UNL d   1       0.128   1.151   2.272  0.00  0.00     0.172 C 
ATOM      2  N   UNL d   1       0.358   0.520   0.993  0.00  0.00    -0.070 N 
ATOM      3  C1  UNL d   1       1.500  -0.137   0.621  0.00  0.00    -0.004 A 
ATOM      4  C2  UNL d   1       1.324  -0.593  -0.668  0.00  0.00    -0.047 A 
ATOM      5  C3  UNL d   1       0.031  -0.196  -1.084  0.00  0.00    -0.047 A 
ATOM      6  C4  UNL d   1      -0.545   0.491  -0.037  0.00  0.00    -0.004 A 
ENDROOT
TORSDOF 0
ENDMDL
