MODEL 1
REMARK minimizedAffinity -3.43951511
REMARK minimizedRMSD -1
REMARK  0 active torsions:
REMARK  status: ('A' for Active; 'I' for Inactive)
ROOT
ATOM      1  C   UNL d   1       2.799   0.320  -0.456  0.00  0.00     0.172 C 
ATOM      2  N   UNL d   1       1.566   0.866   0.060  0.00  0.00    -0.070 N 
ATOM      3  C1  UNL d   1       1.461   1.927   0.919  0.00  0.00    -0.004 A 
ATOM      4  C2  UNL d   1       0.122   2.135   1.171  0.00  0.00    -0.047 A 
ATOM      5  C3  UNL d   1      -0.602   1.165   0.438  0.00  0.00    -0.047 A 
ATOM      6  C4  UNL d   1       0.316   0.392  -0.240  0.00  0.00    -0.004 A 
ENDROOT
TORSDOF 0
ENDMDL
