MODEL 1
REMARK minimizedAffinity -1.89418888
REMARK minimizedRMSD -1
REMARK  0 active torsions:
REMARK  status: ('A' for Active; 'I' for Inactive)
ROOT
ATOM      1  C   UNL d   1      -1.216  -1.720   2.787  0.00  0.00     0.172 C 
ATOM      2  N   UNL d   1      -0.649  -0.990   1.678  0.00  0.00    -0.070 N 
ATOM      3  C1  UNL d   1      -0.225  -1.536   0.496  0.00  0.00    -0.004 A 
ATOM      4  C2  UNL d   1       0.248  -0.513  -0.297  0.00  0.00    -0.047 A 
ATOM      5  C3  UNL d   1       0.103   0.690   0.435  0.00  0.00    -0.047 A 
ATOM      6  C4  UNL d   1      -0.455   0.366   1.653  0.00  0.00    -0.004 A 
ENDROOT
TORSDOF 0
ENDMDL
