MODEL 1
REMARK minimizedAffinity -2.14910221
REMARK minimizedRMSD -1
REMARK  0 active torsions:
REMARK  status: ('A' for Active; 'I' for Inactive)
ROOT
ATOM      1  C   UNL d   1      -2.603  -1.629  -2.749  0.00  0.00     0.172 C 
ATOM      2  N   UNL d   1      -1.641  -1.264  -1.736  0.00  0.00    -0.070 N 
ATOM      3  C1  UNL d   1      -1.372   0.010  -1.313  0.00  0.00    -0.004 A 
ATOM      4  C2  UNL d   1      -0.400  -0.065  -0.339  0.00  0.00    -0.047 A 
ATOM      5  C3  UNL d   1      -0.072  -1.431  -0.173  0.00  0.00    -0.047 A 
ATOM      6  C4  UNL d   1      -0.855  -2.151  -1.049  0.00  0.00    -0.004 A 
ENDROOT
TORSDOF 0
ENDMDL
