MODEL 1
REMARK minimizedAffinity -2.5105629
REMARK minimizedRMSD -1
REMARK  2 active torsions:
REMARK  status: ('A' for Active; 'I' for Inactive)
REMARK    1  A    between atoms: C2'_3  and  C1'_4 
REMARK    2  A    between atoms: C1'_4  and  C1_5 
ROOT
ATOM      1  C1  I4B d   1      -0.016  -1.373  -0.887  0.00  0.00    -0.075 A 
ATOM      2  C2  I4B d   1       0.586  -2.550  -0.516  0.00  0.00     0.003 A 
ATOM      3  C3  I4B d   1       0.079  -3.788  -0.981  0.00  0.00     0.002 A 
ATOM      4  C4  I4B d   1      -1.053  -3.805  -1.770  0.00  0.00    -0.004 A 
ATOM      5  C5  I4B d   1      -1.648  -2.610  -2.164  0.00  0.00     0.002 A 
ATOM      6  C6  I4B d   1      -1.119  -1.386  -1.731  0.00  0.00     0.003 A 
ENDROOT
BRANCH   1   7
ATOM      7  C1' I4B d   1       0.526  -0.086  -0.351  0.00  0.00     0.060 C 
BRANCH   7   8
ATOM      8  C2' I4B d   1       0.925  -0.314   1.093  0.00  0.00    -0.013 C 
ATOM      9  C4' I4B d   1       1.455   0.950   1.718  0.00  0.00     0.013 C 
ATOM     10  C3' I4B d   1      -0.278  -0.820   1.832  0.00  0.00     0.013 C 
ENDBRANCH   7   8
ENDBRANCH   1   7
TORSDOF 2
ENDMDL
