MODEL 1
REMARK minimizedAffinity -3.11817551
REMARK minimizedRMSD -1
REMARK  2 active torsions:
REMARK  status: ('A' for Active; 'I' for Inactive)
REMARK    1  A    between atoms: C2'_3  and  C1'_4 
REMARK    2  A    between atoms: C1'_4  and  C1_5 
ROOT
ATOM      1  C1  I4B d   1       0.451  -2.047  -1.325  0.00  0.00    -0.075 A 
ATOM      2  C2  I4B d   1       1.035  -3.082  -0.639  0.00  0.00     0.003 A 
ATOM      3  C3  I4B d   1       0.595  -4.412  -0.845  0.00  0.00     0.002 A 
ATOM      4  C4  I4B d   1      -0.459  -4.654  -1.702  0.00  0.00    -0.004 A 
ATOM      5  C5  I4B d   1      -1.035  -3.606  -2.414  0.00  0.00     0.002 A 
ATOM      6  C6  I4B d   1      -0.569  -2.295  -2.234  0.00  0.00     0.003 A 
ENDROOT
BRANCH   1   7
ATOM      7  C1' I4B d   1       0.918  -0.651  -1.059  0.00  0.00     0.060 C 
BRANCH   7   8
ATOM      8  C2' I4B d   1      -0.161   0.060  -0.268  0.00  0.00    -0.013 C 
ATOM      9  C4' I4B d   1       0.202   0.153   1.190  0.00  0.00     0.013 C 
ATOM     10  C3' I4B d   1      -0.352   1.422  -0.866  0.00  0.00     0.013 C 
ENDBRANCH   7   8
ENDBRANCH   1   7
TORSDOF 2
ENDMDL
