MODEL 1
REMARK minimizedAffinity -1.16138661
REMARK minimizedRMSD -1
REMARK  2 active torsions:
REMARK  status: ('A' for Active; 'I' for Inactive)
REMARK    1  A    between atoms: C2'_3  and  C1'_4 
REMARK    2  A    between atoms: C1'_4  and  C1_5 
ROOT
ATOM      1  C1  I4B d   1       0.508  -0.533  -1.054  0.00  0.00    -0.075 A 
ATOM      2  C2  I4B d   1       0.108   0.275  -2.089  0.00  0.00     0.003 A 
ATOM      3  C3  I4B d   1      -0.491   1.530  -1.823  0.00  0.00     0.002 A 
ATOM      4  C4  I4B d   1      -0.717   1.913  -0.517  0.00  0.00    -0.004 A 
ATOM      5  C5  I4B d   1      -0.290   1.102   0.532  0.00  0.00     0.002 A 
ATOM      6  C6  I4B d   1       0.337  -0.123   0.262  0.00  0.00     0.003 A 
ENDROOT
BRANCH   1   7
ATOM      7  C1' I4B d   1       1.107  -1.866  -1.370  0.00  0.00     0.060 C 
BRANCH   7   8
ATOM      8  C2' I4B d   1       0.060  -2.926  -1.095  0.00  0.00    -0.013 C 
ATOM      9  C4' I4B d   1      -0.789  -3.183  -2.312  0.00  0.00     0.013 C 
ATOM     10  C3' I4B d   1       0.768  -4.173  -0.656  0.00  0.00     0.013 C 
ENDBRANCH   7   8
ENDBRANCH   1   7
TORSDOF 2
ENDMDL
