MODEL 1
REMARK minimizedAffinity -2.8728416
REMARK minimizedRMSD -1
REMARK  2 active torsions:
REMARK  status: ('A' for Active; 'I' for Inactive)
REMARK    1  A    between atoms: C2'_3  and  C1'_4 
REMARK    2  A    between atoms: C1'_4  and  C1_5 
ROOT
ATOM      1  C1  I4B d   1       0.018  -2.685  -1.055  0.00  0.00    -0.075 A 
ATOM      2  C2  I4B d   1      -1.086  -2.399  -1.819  0.00  0.00     0.003 A 
ATOM      3  C3  I4B d   1      -1.952  -3.437  -2.238  0.00  0.00     0.002 A 
ATOM      4  C4  I4B d   1      -1.652  -4.745  -1.915  0.00  0.00    -0.004 A 
ATOM      5  C5  I4B d   1      -0.545  -5.031  -1.121  0.00  0.00     0.002 A 
ATOM      6  C6  I4B d   1       0.288  -3.994  -0.678  0.00  0.00     0.003 A 
ENDROOT
BRANCH   1   7
ATOM      7  C1' I4B d   1       0.929  -1.568  -0.658  0.00  0.00     0.060 C 
BRANCH   7   8
ATOM      8  C2' I4B d   1       0.071  -0.391  -0.240  0.00  0.00    -0.013 C 
ATOM      9  C4' I4B d   1       0.460   0.110   1.125  0.00  0.00     0.013 C 
ATOM     10  C3' I4B d   1       0.224   0.683  -1.275  0.00  0.00     0.013 C 
ENDBRANCH   7   8
ENDBRANCH   1   7
TORSDOF 2
ENDMDL
