MODEL 1
REMARK minimizedAffinity -3.89789128
REMARK minimizedRMSD -1
REMARK  2 active torsions:
REMARK  status: ('A' for Active; 'I' for Inactive)
REMARK    1  A    between atoms: C2'_3  and  C1'_4 
REMARK    2  A    between atoms: C1'_4  and  C1_5 
ROOT
ATOM      1  C1  I4B d   1      -0.341   0.450   0.660  0.00  0.00    -0.075 A 
ATOM      2  C2  I4B d   1       0.473   1.085   1.564  0.00  0.00     0.003 A 
ATOM      3  C3  I4B d   1       0.170   2.399   1.995  0.00  0.00     0.002 A 
ATOM      4  C4  I4B d   1      -0.920   3.055   1.461  0.00  0.00    -0.004 A 
ATOM      5  C5  I4B d   1      -1.757   2.402   0.562  0.00  0.00     0.002 A 
ATOM      6  C6  I4B d   1      -1.473   1.086   0.168  0.00  0.00     0.003 A 
ENDROOT
BRANCH   1   7
ATOM      7  C1' I4B d   1       0.026  -0.926   0.202  0.00  0.00     0.060 C 
BRANCH   7   8
ATOM      8  C2' I4B d   1       0.010  -0.933  -1.313  0.00  0.00    -0.013 C 
ATOM      9  C4' I4B d   1       1.116  -0.078  -1.874  0.00  0.00     0.013 C 
ATOM     10  C3' I4B d   1       0.141  -2.355  -1.771  0.00  0.00     0.013 C 
ENDBRANCH   7   8
ENDBRANCH   1   7
TORSDOF 2
ENDMDL
