MODEL 1
REMARK minimizedAffinity -5.60993242
REMARK minimizedRMSD -1
REMARK  2 active torsions:
REMARK  status: ('A' for Active; 'I' for Inactive)
REMARK    1  A    between atoms: C2'_3  and  C1'_4 
REMARK    2  A    between atoms: C1'_4  and  C1_5 
ROOT
ATOM      1  C1  I4B d   1      -0.570   0.737   0.704  0.00  0.00    -0.075 A 
ATOM      2  C2  I4B d   1      -1.053   1.461  -0.357  0.00  0.00     0.003 A 
ATOM      3  C3  I4B d   1      -0.967   2.875  -0.353  0.00  0.00     0.002 A 
ATOM      4  C4  I4B d   1      -0.440   3.520   0.747  0.00  0.00    -0.004 A 
ATOM      5  C5  I4B d   1       0.070   2.783   1.811  0.00  0.00     0.002 A 
ATOM      6  C6  I4B d   1       0.017   1.382   1.785  0.00  0.00     0.003 A 
ENDROOT
BRANCH   1   7
ATOM      7  C1' I4B d   1      -0.706  -0.753   0.681  0.00  0.00     0.060 C 
BRANCH   7   8
ATOM      8  C2' I4B d   1      -0.513  -1.218  -0.748  0.00  0.00    -0.013 C 
ATOM      9  C4' I4B d   1       0.941  -1.475  -1.046  0.00  0.00     0.013 C 
ATOM     10  C3' I4B d   1      -1.334  -2.457  -0.947  0.00  0.00     0.013 C 
ENDBRANCH   7   8
ENDBRANCH   1   7
TORSDOF 2
ENDMDL
