MODEL 1
REMARK minimizedAffinity -4.72460842
REMARK minimizedRMSD -1
REMARK  2 active torsions:
REMARK  status: ('A' for Active; 'I' for Inactive)
REMARK    1  A    between atoms: C2'_3  and  C1'_4 
REMARK    2  A    between atoms: C1'_4  and  C1_5 
ROOT
ATOM      1  C1  I4B d   1      -0.809   0.880   0.413  0.00  0.00    -0.075 A 
ATOM      2  C2  I4B d   1      -0.648   1.585  -0.753  0.00  0.00     0.003 A 
ATOM      3  C3  I4B d   1      -0.908   2.976  -0.787  0.00  0.00     0.002 A 
ATOM      4  C4  I4B d   1      -1.373   3.608   0.348  0.00  0.00    -0.004 A 
ATOM      5  C5  I4B d   1      -1.514   2.897   1.536  0.00  0.00     0.002 A 
ATOM      6  C6  I4B d   1      -1.218   1.526   1.572  0.00  0.00     0.003 A 
ENDROOT
BRANCH   1   7
ATOM      7  C1' I4B d   1      -0.557  -0.595   0.405  0.00  0.00     0.060 C 
BRANCH   7   8
ATOM      8  C2' I4B d   1       0.275  -0.919  -0.818  0.00  0.00    -0.013 C 
ATOM      9  C4' I4B d   1       1.746  -0.913  -0.495  0.00  0.00     0.013 C 
ATOM     10  C3' I4B d   1      -0.160  -2.259  -1.333  0.00  0.00     0.013 C 
ENDBRANCH   7   8
ENDBRANCH   1   7
TORSDOF 2
ENDMDL
