MODEL 1
REMARK minimizedAffinity -3.94822145
REMARK minimizedRMSD -1
REMARK  2 active torsions:
REMARK  status: ('A' for Active; 'I' for Inactive)
REMARK    1  A    between atoms: C2'_3  and  C1'_4 
REMARK    2  A    between atoms: C1'_4  and  C1_5 
ROOT
ATOM      1  C1  I4B d   1      -0.489   0.714   0.963  0.00  0.00    -0.075 A 
ATOM      2  C2  I4B d   1      -0.614   0.665  -0.403  0.00  0.00     0.003 A 
ATOM      3  C3  I4B d   1       0.333  -0.044  -1.181  0.00  0.00     0.002 A 
ATOM      4  C4  I4B d   1       1.410  -0.643  -0.559  0.00  0.00    -0.004 A 
ATOM      5  C5  I4B d   1       1.522  -0.612   0.828  0.00  0.00     0.002 A 
ATOM      6  C6  I4B d   1       0.560   0.060   1.595  0.00  0.00     0.003 A 
ENDROOT
BRANCH   1   7
ATOM      7  C1' I4B d   1      -1.490   1.500   1.750  0.00  0.00     0.060 C 
BRANCH   7   8
ATOM      8  C2' I4B d   1      -0.860   2.831   2.108  0.00  0.00    -0.013 C 
ATOM      9  C4' I4B d   1       0.585   2.663   2.497  0.00  0.00     0.013 C 
ATOM     10  C3' I4B d   1      -1.000   3.743   0.926  0.00  0.00     0.013 C 
ENDBRANCH   7   8
ENDBRANCH   1   7
TORSDOF 2
ENDMDL
