MODEL 1
REMARK minimizedAffinity 12.5933018
REMARK minimizedRMSD -1
REMARK  0 active torsions:
REMARK  status: ('A' for Active; 'I' for Inactive)
ROOT
ATOM      1  C   UNL d   1       1.159   1.108   0.483  0.00  0.00     0.077 C 
ATOM      2  C1  UNL d   1       1.723   0.669  -0.836  0.00  0.00    -0.074 A 
ATOM      3  C2  UNL d   1       1.064   0.966  -2.034  0.00  0.00    -0.005 A 
ATOM      4  C3  UNL d   1       1.606   0.559  -3.253  0.00  0.00     0.006 A 
ATOM      5  C4  UNL d   1       2.809  -0.146  -3.287  0.00  0.00    -0.005 A 
ATOM      6  C5  UNL d   1       3.482  -0.451  -2.100  0.00  0.00    -0.074 A 
ATOM      7  C6  UNL d   1       4.781  -1.201  -2.119  0.00  0.00     0.077 C 
ATOM      8  C7  UNL d   1       2.935  -0.033  -0.879  0.00  0.00    -0.001 A 
ENDROOT
TORSDOF 0
ENDMDL
