MODEL 1
REMARK minimizedAffinity 7.67208099
REMARK minimizedRMSD -1
REMARK  0 active torsions:
REMARK  status: ('A' for Active; 'I' for Inactive)
ROOT
ATOM      1  C   UNL d   1       2.548   0.291  -2.478  0.00  0.00     0.077 C 
ATOM      2  C1  UNL d   1       2.251   0.836  -1.113  0.00  0.00    -0.074 A 
ATOM      3  C2  UNL d   1       1.185   0.340  -0.357  0.00  0.00    -0.005 A 
ATOM      4  C3  UNL d   1       0.927   0.851   0.915  0.00  0.00     0.006 A 
ATOM      5  C4  UNL d   1       1.730   1.862   1.443  0.00  0.00    -0.005 A 
ATOM      6  C5  UNL d   1       2.802   2.371   0.701  0.00  0.00    -0.074 A 
ATOM      7  C6  UNL d   1       3.681   3.451   1.257  0.00  0.00     0.077 C 
ATOM      8  C7  UNL d   1       3.059   1.847  -0.573  0.00  0.00    -0.001 A 
ENDROOT
TORSDOF 0
ENDMDL
