MODEL 1
REMARK minimizedAffinity 11.5208435
REMARK minimizedRMSD -1
REMARK  0 active torsions:
REMARK  status: ('A' for Active; 'I' for Inactive)
ROOT
ATOM      1  C   UNL d   1       3.825   3.098   2.730  0.00  0.00     0.077 C 
ATOM      2  C1  UNL d   1       2.754   2.475   1.885  0.00  0.00    -0.074 A 
ATOM      3  C2  UNL d   1       3.080   1.707   0.762  0.00  0.00    -0.005 A 
ATOM      4  C3  UNL d   1       2.074   1.126  -0.009  0.00  0.00     0.006 A 
ATOM      5  C4  UNL d   1       0.733   1.305   0.335  0.00  0.00    -0.005 A 
ATOM      6  C5  UNL d   1       0.388   2.068   1.455  0.00  0.00    -0.074 A 
ATOM      7  C6  UNL d   1      -1.047   2.263   1.845  0.00  0.00     0.077 C 
ATOM      8  C7  UNL d   1       1.406   2.643   2.229  0.00  0.00    -0.001 A 
ENDROOT
TORSDOF 0
ENDMDL
