MODEL 1
REMARK minimizedAffinity 5.13518667
REMARK minimizedRMSD -1
REMARK  0 active torsions:
REMARK  status: ('A' for Active; 'I' for Inactive)
ROOT
ATOM      1  C   UNL d   1       2.623   0.370  -3.286  0.00  0.00     0.077 C 
ATOM      2  C1  UNL d   1       2.188  -0.029  -1.907  0.00  0.00    -0.074 A 
ATOM      3  C2  UNL d   1       1.982  -1.373  -1.579  0.00  0.00    -0.005 A 
ATOM      4  C3  UNL d   1       1.587  -1.729  -0.289  0.00  0.00     0.006 A 
ATOM      5  C4  UNL d   1       1.392  -0.747   0.682  0.00  0.00    -0.005 A 
ATOM      6  C5  UNL d   1       1.594   0.602   0.372  0.00  0.00    -0.074 A 
ATOM      7  C6  UNL d   1       1.399   1.669   1.408  0.00  0.00     0.077 C 
ATOM      8  C7  UNL d   1       1.998   0.951  -0.923  0.00  0.00    -0.001 A 
ENDROOT
TORSDOF 0
ENDMDL
