MODEL 1
REMARK minimizedAffinity 8.69931316
REMARK minimizedRMSD -1
REMARK  0 active torsions:
REMARK  status: ('A' for Active; 'I' for Inactive)
ROOT
ATOM      1  C   UNL d   1       3.747   2.439   2.978  0.00  0.00     0.077 C 
ATOM      2  C1  UNL d   1       2.520   1.951   2.266  0.00  0.00    -0.074 A 
ATOM      3  C2  UNL d   1       1.245   2.367   2.663  0.00  0.00    -0.005 A 
ATOM      4  C3  UNL d   1       0.114   1.912   1.985  0.00  0.00     0.006 A 
ATOM      5  C4  UNL d   1       0.246   1.038   0.905  0.00  0.00    -0.005 A 
ATOM      6  C5  UNL d   1       1.513   0.612   0.493  0.00  0.00    -0.074 A 
ATOM      7  C6  UNL d   1       1.673  -0.319  -0.672  0.00  0.00     0.077 C 
ATOM      8  C7  UNL d   1       2.645   1.079   1.175  0.00  0.00    -0.001 A 
ENDROOT
TORSDOF 0
ENDMDL
