MODEL 1
REMARK minimizedAffinity 7.10074949
REMARK minimizedRMSD -1
REMARK  0 active torsions:
REMARK  status: ('A' for Active; 'I' for Inactive)
ROOT
ATOM      1  C   UNL d   1       2.679   0.086  -2.717  0.00  0.00     0.077 C 
ATOM      2  C1  UNL d   1       3.177   0.892  -1.554  0.00  0.00    -0.074 A 
ATOM      3  C2  UNL d   1       4.344   1.655  -1.655  0.00  0.00    -0.005 A 
ATOM      4  C3  UNL d   1       4.789   2.408  -0.568  0.00  0.00     0.006 A 
ATOM      5  C4  UNL d   1       4.072   2.404   0.629  0.00  0.00    -0.005 A 
ATOM      6  C5  UNL d   1       2.902   1.648   0.749  0.00  0.00    -0.074 A 
ATOM      7  C6  UNL d   1       2.115   1.641   2.025  0.00  0.00     0.077 C 
ATOM      8  C7  UNL d   1       2.458   0.900  -0.350  0.00  0.00    -0.001 A 
ENDROOT
TORSDOF 0
ENDMDL
