MODEL 1
REMARK minimizedAffinity 8.08917141
REMARK minimizedRMSD -1
REMARK  0 active torsions:
REMARK  status: ('A' for Active; 'I' for Inactive)
ROOT
ATOM      1  C   UNL d   1       3.283   0.164  -2.194  0.00  0.00     0.077 C 
ATOM      2  C1  UNL d   1       2.676   0.525  -0.871  0.00  0.00    -0.074 A 
ATOM      3  C2  UNL d   1       1.485  -0.069  -0.441  0.00  0.00    -0.005 A 
ATOM      4  C3  UNL d   1       0.937   0.269   0.796  0.00  0.00     0.006 A 
ATOM      5  C4  UNL d   1       1.573   1.203   1.615  0.00  0.00    -0.005 A 
ATOM      6  C5  UNL d   1       2.765   1.807   1.202  0.00  0.00    -0.074 A 
ATOM      7  C6  UNL d   1       3.467   2.805   2.074  0.00  0.00     0.077 C 
ATOM      8  C7  UNL d   1       3.313   1.456  -0.039  0.00  0.00    -0.001 A 
ENDROOT
TORSDOF 0
ENDMDL
