MODEL 1
REMARK minimizedAffinity 10.875268
REMARK minimizedRMSD -1
REMARK  0 active torsions:
REMARK  status: ('A' for Active; 'I' for Inactive)
ROOT
ATOM      1  C   UNL d   1       1.536   2.866  -4.137  0.00  0.00     0.077 C 
ATOM      2  C1  UNL d   1       1.601   1.565  -3.394  0.00  0.00    -0.074 A 
ATOM      3  C2  UNL d   1       0.437   0.936  -2.942  0.00  0.00    -0.005 A 
ATOM      4  C3  UNL d   1       0.513  -0.279  -2.261  0.00  0.00     0.006 A 
ATOM      5  C4  UNL d   1       1.752  -0.876  -2.025  0.00  0.00    -0.005 A 
ATOM      6  C5  UNL d   1       2.927  -0.261  -2.469  0.00  0.00    -0.074 A 
ATOM      7  C6  UNL d   1       4.266  -0.894  -2.232  0.00  0.00     0.077 C 
ATOM      8  C7  UNL d   1       2.842   0.956  -3.159  0.00  0.00    -0.001 A 
ENDROOT
TORSDOF 0
ENDMDL
