MODEL 1
REMARK minimizedAffinity 11.534481
REMARK minimizedRMSD -1
REMARK  0 active torsions:
REMARK  status: ('A' for Active; 'I' for Inactive)
ROOT
ATOM      1  C   UNL d   1       2.384   0.322  -1.686  0.00  0.00     0.077 C 
ATOM      2  C1  UNL d   1       1.889   0.853  -0.373  0.00  0.00    -0.074 A 
ATOM      3  C2  UNL d   1       2.783   1.210   0.641  0.00  0.00    -0.005 A 
ATOM      4  C3  UNL d   1       2.309   1.711   1.853  0.00  0.00     0.006 A 
ATOM      5  C4  UNL d   1       0.937   1.860   2.063  0.00  0.00    -0.005 A 
ATOM      6  C5  UNL d   1       0.028   1.509   1.060  0.00  0.00    -0.074 A 
ATOM      7  C6  UNL d   1      -1.449   1.672   1.266  0.00  0.00     0.077 C 
ATOM      8  C7  UNL d   1       0.513   1.013  -0.157  0.00  0.00    -0.001 A 
ENDROOT
TORSDOF 0
ENDMDL
