MODEL 1
REMARK minimizedAffinity -0.268706113
REMARK minimizedRMSD -1
REMARK  0 active torsions:
REMARK  status: ('A' for Active; 'I' for Inactive)
ROOT
ATOM      1  C   UNL d   1       3.857   3.482   2.997  0.00  0.00     0.077 C 
ATOM      2  C1  UNL d   1       2.723   2.717   2.383  0.00  0.00    -0.074 A 
ATOM      3  C2  UNL d   1       1.423   2.834   2.885  0.00  0.00    -0.005 A 
ATOM      4  C3  UNL d   1       0.376   2.123   2.298  0.00  0.00     0.006 A 
ATOM      5  C4  UNL d   1       0.618   1.290   1.205  0.00  0.00    -0.005 A 
ATOM      6  C5  UNL d   1       1.911   1.162   0.689  0.00  0.00    -0.074 A 
ATOM      7  C6  UNL d   1       2.187   0.278  -0.491  0.00  0.00     0.077 C 
ATOM      8  C7  UNL d   1       2.957   1.884   1.280  0.00  0.00    -0.001 A 
ENDROOT
TORSDOF 0
ENDMDL
