MODEL 1
REMARK minimizedAffinity 9.5375433
REMARK minimizedRMSD -1
REMARK  0 active torsions:
REMARK  status: ('A' for Active; 'I' for Inactive)
ROOT
ATOM      1  C   UNL d   1       2.714  -0.120  -1.625  0.00  0.00     0.077 C 
ATOM      2  C1  UNL d   1       2.315   0.566  -0.352  0.00  0.00    -0.074 A 
ATOM      3  C2  UNL d   1       3.278   0.985   0.571  0.00  0.00    -0.005 A 
ATOM      4  C3  UNL d   1       2.892   1.630   1.746  0.00  0.00     0.006 A 
ATOM      5  C4  UNL d   1       1.542   1.862   2.010  0.00  0.00    -0.005 A 
ATOM      6  C5  UNL d   1       0.564   1.452   1.098  0.00  0.00    -0.074 A 
ATOM      7  C6  UNL d   1      -0.891   1.703   1.360  0.00  0.00     0.077 C 
ATOM      8  C7  UNL d   1       0.960   0.810  -0.084  0.00  0.00    -0.001 A 
ENDROOT
TORSDOF 0
ENDMDL
