MODEL 1
REMARK minimizedAffinity 6.65530491
REMARK minimizedRMSD -1
REMARK  0 active torsions:
REMARK  status: ('A' for Active; 'I' for Inactive)
ROOT
ATOM      1  C   UNL d   1       1.485   1.374   0.393  0.00  0.00     0.077 C 
ATOM      2  C1  UNL d   1       1.721   0.994  -1.038  0.00  0.00    -0.074 A 
ATOM      3  C2  UNL d   1       2.624  -0.021  -1.372  0.00  0.00    -0.005 A 
ATOM      4  C3  UNL d   1       2.827  -0.370  -2.707  0.00  0.00     0.006 A 
ATOM      5  C4  UNL d   1       2.130   0.290  -3.720  0.00  0.00    -0.005 A 
ATOM      6  C5  UNL d   1       1.222   1.306  -3.405  0.00  0.00    -0.074 A 
ATOM      7  C6  UNL d   1       0.457   2.019  -4.480  0.00  0.00     0.077 C 
ATOM      8  C7  UNL d   1       1.019   1.647  -2.061  0.00  0.00    -0.001 A 
ENDROOT
TORSDOF 0
ENDMDL
