MODEL 1
REMARK minimizedAffinity 10.0672998
REMARK minimizedRMSD -1
REMARK  0 active torsions:
REMARK  status: ('A' for Active; 'I' for Inactive)
ROOT
ATOM      1  C   UNL d   1       1.502   1.011   0.882  0.00  0.00     0.077 C 
ATOM      2  C1  UNL d   1       1.989   0.527  -0.452  0.00  0.00    -0.074 A 
ATOM      3  C2  UNL d   1       3.057  -0.372  -0.544  0.00  0.00    -0.005 A 
ATOM      4  C3  UNL d   1       3.493  -0.821  -1.790  0.00  0.00     0.006 A 
ATOM      5  C4  UNL d   1       2.868  -0.375  -2.955  0.00  0.00    -0.005 A 
ATOM      6  C5  UNL d   1       1.798   0.523  -2.883  0.00  0.00    -0.074 A 
ATOM      7  C6  UNL d   1       1.109   1.004  -4.125  0.00  0.00     0.077 C 
ATOM      8  C7  UNL d   1       1.361   0.964  -1.626  0.00  0.00    -0.001 A 
ENDROOT
TORSDOF 0
ENDMDL
