MODEL 1
REMARK minimizedAffinity 6.58107328
REMARK minimizedRMSD -1
REMARK  0 active torsions:
REMARK  status: ('A' for Active; 'I' for Inactive)
ROOT
ATOM      1  C   UNL d   1       2.909  -0.344  -2.928  0.00  0.00     0.077 C 
ATOM      2  C1  UNL d   1       2.532  -0.425  -1.478  0.00  0.00    -0.074 A 
ATOM      3  C2  UNL d   1       2.826  -1.563  -0.721  0.00  0.00    -0.005 A 
ATOM      4  C3  UNL d   1       2.478  -1.620   0.628  0.00  0.00     0.006 A 
ATOM      5  C4  UNL d   1       1.832  -0.541   1.233  0.00  0.00    -0.005 A 
ATOM      6  C5  UNL d   1       1.530   0.606   0.492  0.00  0.00    -0.074 A 
ATOM      7  C6  UNL d   1       0.846   1.779   1.129  0.00  0.00     0.077 C 
ATOM      8  C7  UNL d   1       1.890   0.658  -0.862  0.00  0.00    -0.001 A 
ENDROOT
TORSDOF 0
ENDMDL
