MODEL 1
REMARK minimizedAffinity 3.69623852
REMARK minimizedRMSD -1
REMARK  0 active torsions:
REMARK  status: ('A' for Active; 'I' for Inactive)
ROOT
ATOM      1  C   UNL d   1       3.134   0.224  -2.763  0.00  0.00     0.077 C 
ATOM      2  C1  UNL d   1       2.839   0.414  -1.304  0.00  0.00    -0.074 A 
ATOM      3  C2  UNL d   1       2.123  -0.549  -0.585  0.00  0.00    -0.005 A 
ATOM      4  C3  UNL d   1       1.864  -0.363   0.773  0.00  0.00     0.006 A 
ATOM      5  C4  UNL d   1       2.318   0.785   1.424  0.00  0.00    -0.005 A 
ATOM      6  C5  UNL d   1       3.035   1.758   0.721  0.00  0.00    -0.074 A 
ATOM      7  C6  UNL d   1       3.538   2.993   1.407  0.00  0.00     0.077 C 
ATOM      8  C7  UNL d   1       3.298   1.561  -0.642  0.00  0.00    -0.001 A 
ENDROOT
TORSDOF 0
ENDMDL
