MODEL 1
REMARK minimizedAffinity 6.4475913
REMARK minimizedRMSD -1
REMARK  0 active torsions:
REMARK  status: ('A' for Active; 'I' for Inactive)
ROOT
ATOM      1  C   UNL d   1      -6.000   4.880   0.544  0.00  0.00     0.077 C 
ATOM      2  C1  UNL d   1      -5.311   3.562   0.739  0.00  0.00    -0.074 A 
ATOM      3  C2  UNL d   1      -5.994   2.358   0.545  0.00  0.00    -0.005 A 
ATOM      4  C3  UNL d   1      -5.337   1.140   0.721  0.00  0.00     0.006 A 
ATOM      5  C4  UNL d   1      -3.992   1.115   1.093  0.00  0.00    -0.005 A 
ATOM      6  C5  UNL d   1      -3.292   2.309   1.290  0.00  0.00    -0.074 A 
ATOM      7  C6  UNL d   1      -1.844   2.300   1.679  0.00  0.00     0.077 C 
ATOM      8  C7  UNL d   1      -3.957   3.529   1.104  0.00  0.00    -0.001 A 
ENDROOT
TORSDOF 0
ENDMDL
