MODEL 1
REMARK minimizedAffinity 5.38500977
REMARK minimizedRMSD -1
REMARK  0 active torsions:
REMARK  status: ('A' for Active; 'I' for Inactive)
ROOT
ATOM      1  C   UNL d   1       2.773   0.163  -2.943  0.00  0.00     0.077 C 
ATOM      2  C1  UNL d   1       2.203  -0.055  -1.573  0.00  0.00    -0.074 A 
ATOM      3  C2  UNL d   1       2.112  -1.341  -1.029  0.00  0.00    -0.005 A 
ATOM      4  C3  UNL d   1       1.589  -1.527   0.250  0.00  0.00     0.006 A 
ATOM      5  C4  UNL d   1       1.152  -0.433   0.997  0.00  0.00    -0.005 A 
ATOM      6  C5  UNL d   1       1.237   0.860   0.471  0.00  0.00    -0.074 A 
ATOM      7  C6  UNL d   1       0.781   2.048   1.264  0.00  0.00     0.077 C 
ATOM      8  C7  UNL d   1       1.770   1.040  -0.813  0.00  0.00    -0.001 A 
ENDROOT
TORSDOF 0
ENDMDL
