MODEL 1
REMARK minimizedAffinity 8.38562489
REMARK minimizedRMSD -1
REMARK  0 active torsions:
REMARK  status: ('A' for Active; 'I' for Inactive)
ROOT
ATOM      1  C   UNL d   1      -3.487  -0.158  -1.518  0.00  0.00     0.078 C 
ATOM      2  C1  UNL d   1      -3.654   0.931  -2.535  0.00  0.00    -0.077 A 
ATOM      3  C2  UNL d   1      -4.696   0.892  -3.469  0.00  0.00    -0.001 A 
ATOM      4  C3  UNL d   1      -4.834   1.908  -4.416  0.00  0.00     0.003 A 
ATOM      5  C4  UNL d   1      -3.931   2.970  -4.439  0.00  0.00    -0.005 A 
ATOM      6  C5  UNL d   1      -2.889   3.016  -3.515  0.00  0.00     0.003 A 
ATOM      7  C6  UNL d   1      -2.750   2.001  -2.567  0.00  0.00    -0.001 A 
ENDROOT
TORSDOF 0
ENDMDL
