MODEL 1
REMARK minimizedAffinity 1.35549986
REMARK minimizedRMSD -1
REMARK  0 active torsions:
REMARK  status: ('A' for Active; 'I' for Inactive)
ROOT
ATOM      1  C   UNL d   1       2.618  -6.000  -0.010  0.00  0.00     0.078 C 
ATOM      2  C1  UNL d   1       2.476  -4.549   0.343  0.00  0.00    -0.077 A 
ATOM      3  C2  UNL d   1       3.471  -3.882   1.067  0.00  0.00    -0.001 A 
ATOM      4  C3  UNL d   1       3.322  -2.534   1.396  0.00  0.00     0.003 A 
ATOM      5  C4  UNL d   1       2.177  -1.841   1.006  0.00  0.00    -0.005 A 
ATOM      6  C5  UNL d   1       1.180  -2.497   0.287  0.00  0.00     0.003 A 
ATOM      7  C6  UNL d   1       1.328  -3.845  -0.043  0.00  0.00    -0.001 A 
ENDROOT
TORSDOF 0
ENDMDL
