MODEL 1
REMARK minimizedAffinity 4.22109413
REMARK minimizedRMSD -1
REMARK  0 active torsions:
REMARK  status: ('A' for Active; 'I' for Inactive)
ROOT
ATOM      1  C   UNL d   1       2.360  -3.067  -0.708  0.00  0.00     0.078 C 
ATOM      2  C1  UNL d   1       1.751  -2.338   0.452  0.00  0.00    -0.077 A 
ATOM      3  C2  UNL d   1       2.533  -1.937   1.542  0.00  0.00    -0.001 A 
ATOM      4  C3  UNL d   1       1.951  -1.267   2.620  0.00  0.00     0.003 A 
ATOM      5  C4  UNL d   1       0.584  -0.995   2.619  0.00  0.00    -0.005 A 
ATOM      6  C5  UNL d   1      -0.202  -1.392   1.539  0.00  0.00     0.003 A 
ATOM      7  C6  UNL d   1       0.378  -2.061   0.461  0.00  0.00    -0.001 A 
ENDROOT
TORSDOF 0
ENDMDL
