MODEL 1
REMARK minimizedAffinity 9.6629467
REMARK minimizedRMSD -1
REMARK  0 active torsions:
REMARK  status: ('A' for Active; 'I' for Inactive)
ROOT
ATOM      1  C   UNL d   1       2.768  -4.642   0.705  0.00  0.00     0.078 C 
ATOM      2  C1  UNL d   1       2.385  -3.195   0.616  0.00  0.00    -0.077 A 
ATOM      3  C2  UNL d   1       3.286  -2.240   0.128  0.00  0.00    -0.001 A 
ATOM      4  C3  UNL d   1       2.919  -0.895   0.060  0.00  0.00     0.003 A 
ATOM      5  C4  UNL d   1       1.653  -0.492   0.479  0.00  0.00    -0.005 A 
ATOM      6  C5  UNL d   1       0.751  -1.435   0.968  0.00  0.00     0.003 A 
ATOM      7  C6  UNL d   1       1.116  -2.781   1.037  0.00  0.00    -0.001 A 
ENDROOT
TORSDOF 0
ENDMDL
