MODEL 1
REMARK minimizedAffinity -5.38217926
REMARK minimizedRMSD -1
REMARK  1 active torsions:
REMARK  status: ('A' for Active; 'I' for Inactive)
REMARK    1  A    between atoms: C3_4  and  O_7 
ROOT
ATOM      1  C   UNL d   1       3.439  -0.579   0.607  0.00  0.00    -0.033 A 
ATOM      2  C1  UNL d   1       2.423  -1.511   0.388  0.00  0.00     0.039 A 
ATOM      3  C2  UNL d   1       1.104  -1.083   0.226  0.00  0.00    -0.080 A 
ATOM      4  C3  UNL d   1       0.815   0.277   0.284  0.00  0.00     0.150 A 
ATOM      5  C4  UNL d   1       1.823   1.212   0.498  0.00  0.00    -0.007 A 
ATOM      6  C5  UNL d   1       3.139   0.783   0.661  0.00  0.00     0.039 A 
ENDROOT
BRANCH   4   7
ATOM      7  O   UNL d   1      -0.458   0.742   0.136  0.00  0.00    -0.526 OA
ATOM      8  H5  UNL d   1      -1.052  -0.019   0.023  0.00  0.00     0.418 HD
ENDBRANCH   4   7
TORSDOF 1
ENDMDL
