MODEL 1
REMARK minimizedAffinity -2.89428377
REMARK minimizedRMSD -1
REMARK  1 active torsions:
REMARK  status: ('A' for Active; 'I' for Inactive)
REMARK    1  A    between atoms: C3_4  and  O_7 
ROOT
ATOM      1  C   UNL d   1      -0.058  -1.498  -0.293  0.00  0.00    -0.033 A 
ATOM      2  C1  UNL d   1       1.254  -1.094  -0.040  0.00  0.00     0.039 A 
ATOM      3  C2  UNL d   1       1.571   0.265   0.005  0.00  0.00    -0.080 A 
ATOM      4  C3  UNL d   1       0.568   1.208  -0.203  0.00  0.00     0.150 A 
ATOM      5  C4  UNL d   1      -0.742   0.812  -0.452  0.00  0.00    -0.007 A 
ATOM      6  C5  UNL d   1      -1.056  -0.545  -0.498  0.00  0.00     0.039 A 
ENDROOT
BRANCH   4   7
ATOM      7  O   UNL d   1       0.831   2.546  -0.173  0.00  0.00    -0.526 OA
ATOM      8  H5  UNL d   1       1.782   2.670  -0.019  0.00  0.00     0.418 HD
ENDBRANCH   4   7
TORSDOF 1
ENDMDL
