MODEL 1
REMARK minimizedAffinity -5.16390038
REMARK minimizedRMSD -1
REMARK  1 active torsions:
REMARK  status: ('A' for Active; 'I' for Inactive)
REMARK    1  A    between atoms: C3_4  and  O_7 
ROOT
ATOM      1  C   UNL d   1       1.153   1.234   0.426  0.00  0.00    -0.033 A 
ATOM      2  C1  UNL d   1       2.545   1.344   0.447  0.00  0.00     0.039 A 
ATOM      3  C2  UNL d   1       3.337   0.195   0.492  0.00  0.00    -0.080 A 
ATOM      4  C3  UNL d   1       2.726  -1.056   0.515  0.00  0.00     0.150 A 
ATOM      5  C4  UNL d   1       1.340  -1.173   0.490  0.00  0.00    -0.007 A 
ATOM      6  C5  UNL d   1       0.551  -0.024   0.446  0.00  0.00     0.039 A 
ENDROOT
BRANCH   4   7
ATOM      7  O   UNL d   1       3.457  -2.205   0.563  0.00  0.00    -0.526 OA
ATOM      8  H5  UNL d   1       4.399  -1.969   0.605  0.00  0.00     0.418 HD
ENDBRANCH   4   7
TORSDOF 1
ENDMDL
