MODEL 1
REMARK minimizedAffinity -3.70308924
REMARK minimizedRMSD -1
REMARK  1 active torsions:
REMARK  status: ('A' for Active; 'I' for Inactive)
REMARK    1  A    between atoms: C3_4  and  O_7 
ROOT
ATOM      1  C   UNL d   1      -0.262   0.257  -0.248  0.00  0.00    -0.033 A 
ATOM      2  C1  UNL d   1       0.610   0.897   0.635  0.00  0.00     0.039 A 
ATOM      3  C2  UNL d   1       1.695   0.202   1.174  0.00  0.00    -0.080 A 
ATOM      4  C3  UNL d   1       1.897  -1.129   0.821  0.00  0.00     0.150 A 
ATOM      5  C4  UNL d   1       1.035  -1.772  -0.061  0.00  0.00    -0.007 A 
ATOM      6  C5  UNL d   1      -0.049  -1.077  -0.597  0.00  0.00     0.039 A 
ENDROOT
BRANCH   4   7
ATOM      7  O   UNL d   1       2.940  -1.849   1.324  0.00  0.00    -0.526 OA
ATOM      8  H5  UNL d   1       3.434  -1.285   1.942  0.00  0.00     0.418 HD
ENDBRANCH   4   7
TORSDOF 1
ENDMDL
