MODEL 1
REMARK minimizedAffinity -3.21833754
REMARK minimizedRMSD -1
REMARK  1 active torsions:
REMARK  status: ('A' for Active; 'I' for Inactive)
REMARK    1  A    between atoms: C3_4  and  O_7 
ROOT
ATOM      1  C   UNL d   1       0.441  -0.456   1.824  0.00  0.00    -0.033 A 
ATOM      2  C1  UNL d   1      -0.058  -0.562   0.524  0.00  0.00     0.039 A 
ATOM      3  C2  UNL d   1       0.767  -1.014  -0.508  0.00  0.00    -0.080 A 
ATOM      4  C3  UNL d   1       2.086  -1.357  -0.227  0.00  0.00     0.150 A 
ATOM      5  C4  UNL d   1       2.589  -1.258   1.066  0.00  0.00    -0.007 A 
ATOM      6  C5  UNL d   1       1.764  -0.805   2.095  0.00  0.00     0.039 A 
ENDROOT
BRANCH   4   7
ATOM      7  O   UNL d   1       2.930  -1.799  -1.202  0.00  0.00    -0.526 OA
ATOM      8  H5  UNL d   1       2.454  -1.789  -2.049  0.00  0.00     0.418 HD
ENDBRANCH   4   7
TORSDOF 1
ENDMDL
