MODEL 1
REMARK minimizedAffinity -3.88784242
REMARK minimizedRMSD -1
REMARK  1 active torsions:
REMARK  status: ('A' for Active; 'I' for Inactive)
REMARK    1  A    between atoms: C3_4  and  O_7 
ROOT
ATOM      1  C   UNL d   1       1.183   1.438   0.519  0.00  0.00    -0.033 A 
ATOM      2  C1  UNL d   1       0.632   0.155   0.497  0.00  0.00     0.039 A 
ATOM      3  C2  UNL d   1       1.463  -0.965   0.548  0.00  0.00    -0.080 A 
ATOM      4  C3  UNL d   1       2.843  -0.790   0.621  0.00  0.00     0.150 A 
ATOM      5  C4  UNL d   1       3.398   0.485   0.647  0.00  0.00    -0.007 A 
ATOM      6  C5  UNL d   1       2.566   1.603   0.595  0.00  0.00     0.039 A 
ENDROOT
BRANCH   4   7
ATOM      7  O   UNL d   1       3.695  -1.853   0.668  0.00  0.00    -0.526 OA
ATOM      8  H5  UNL d   1       3.171  -2.670   0.613  0.00  0.00     0.418 HD
ENDBRANCH   4   7
TORSDOF 1
ENDMDL
