MODEL 1
REMARK minimizedAffinity -5.54285288
REMARK minimizedRMSD -1
REMARK  1 active torsions:
REMARK  status: ('A' for Active; 'I' for Inactive)
REMARK    1  A    between atoms: C3_4  and  O_7 
ROOT
ATOM      1  C   UNL d   1       2.639   0.748   0.474  0.00  0.00    -0.033 A 
ATOM      2  C1  UNL d   1       2.941  -0.606   0.310  0.00  0.00     0.039 A 
ATOM      3  C2  UNL d   1       2.019  -1.459  -0.299  0.00  0.00    -0.080 A 
ATOM      4  C3  UNL d   1       0.802  -0.948  -0.740  0.00  0.00     0.150 A 
ATOM      5  C4  UNL d   1       0.496   0.400  -0.584  0.00  0.00    -0.007 A 
ATOM      6  C5  UNL d   1       1.418   1.251   0.026  0.00  0.00     0.039 A 
ENDROOT
BRANCH   4   7
ATOM      7  O   UNL d   1      -0.131  -1.743  -1.336  0.00  0.00    -0.526 OA
ATOM      8  H5  UNL d   1       0.205  -2.655  -1.350  0.00  0.00     0.418 HD
ENDBRANCH   4   7
TORSDOF 1
ENDMDL
