MODEL 1
REMARK minimizedAffinity -2.51767182
REMARK minimizedRMSD -1
REMARK  1 active torsions:
REMARK  status: ('A' for Active; 'I' for Inactive)
REMARK    1  A    between atoms: C3_4  and  O_7 
ROOT
ATOM      1  C   UNL d   1      -0.461   1.490  -0.548  0.00  0.00    -0.033 A 
ATOM      2  C1  UNL d   1      -0.632   0.120  -0.338  0.00  0.00     0.039 A 
ATOM      3  C2  UNL d   1       0.356  -0.616   0.319  0.00  0.00    -0.080 A 
ATOM      4  C3  UNL d   1       1.508   0.030   0.761  0.00  0.00     0.150 A 
ATOM      5  C4  UNL d   1       1.682   1.395   0.559  0.00  0.00    -0.007 A 
ATOM      6  C5  UNL d   1       0.695   2.128  -0.098  0.00  0.00     0.039 A 
ENDROOT
BRANCH   4   7
ATOM      7  O   UNL d   1       2.502  -0.647   1.404  0.00  0.00    -0.526 OA
ATOM      8  H5  UNL d   1       2.256  -1.586   1.447  0.00  0.00     0.418 HD
ENDBRANCH   4   7
TORSDOF 1
ENDMDL
