MODEL 1
REMARK minimizedAffinity -4.16080618
REMARK minimizedRMSD -1
REMARK  1 active torsions:
REMARK  status: ('A' for Active; 'I' for Inactive)
REMARK    1  A    between atoms: C3_4  and  O_7 
ROOT
ATOM      1  C   UNL d   1      -0.272   0.330  -0.077  0.00  0.00    -0.033 A 
ATOM      2  C1  UNL d   1       0.737   0.986   0.630  0.00  0.00     0.039 A 
ATOM      3  C2  UNL d   1       1.850   0.275   1.083  0.00  0.00    -0.080 A 
ATOM      4  C3  UNL d   1       1.942  -1.089   0.822  0.00  0.00     0.150 A 
ATOM      5  C4  UNL d   1       0.942  -1.748   0.115  0.00  0.00    -0.007 A 
ATOM      6  C5  UNL d   1      -0.169  -1.037  -0.336  0.00  0.00     0.039 A 
ENDROOT
BRANCH   4   7
ATOM      7  O   UNL d   1       3.006  -1.826   1.248  0.00  0.00    -0.526 OA
ATOM      8  H5  UNL d   1       3.604  -1.244   1.748  0.00  0.00     0.418 HD
ENDBRANCH   4   7
TORSDOF 1
ENDMDL
