MODEL 1
REMARK minimizedAffinity -3.94474864
REMARK minimizedRMSD -1
REMARK  1 active torsions:
REMARK  status: ('A' for Active; 'I' for Inactive)
REMARK    1  A    between atoms: C3_4  and  O_7 
ROOT
ATOM      1  C   UNL d   1       1.605  -1.844   0.008  0.00  0.00    -0.033 A 
ATOM      2  C1  UNL d   1       1.974  -0.641   0.612  0.00  0.00     0.039 A 
ATOM      3  C2  UNL d   1       1.113   0.457   0.568  0.00  0.00    -0.080 A 
ATOM      4  C3  UNL d   1      -0.113   0.339  -0.082  0.00  0.00     0.150 A 
ATOM      5  C4  UNL d   1      -0.488  -0.858  -0.683  0.00  0.00    -0.007 A 
ATOM      6  C5  UNL d   1       0.373  -1.954  -0.638  0.00  0.00     0.039 A 
ENDROOT
BRANCH   4   7
ATOM      7  O   UNL d   1      -0.985   1.384  -0.155  0.00  0.00    -0.526 OA
ATOM      8  H5  UNL d   1      -0.579   2.154   0.279  0.00  0.00     0.418 HD
ENDBRANCH   4   7
TORSDOF 1
ENDMDL
