MODEL 1
REMARK minimizedAffinity 13.3534431
REMARK minimizedRMSD -1
REMARK  1 active torsions:
REMARK  status: ('A' for Active; 'I' for Inactive)
REMARK    1  A    between atoms: C1_2  and  C2_3 
ROOT
ATOM      1  C2  UNL d   1      -0.632   2.279   0.919  0.00  0.00    -0.081 A 
ATOM      2  C3  UNL d   1       0.700   2.008   0.584  0.00  0.00     0.006 A 
ATOM      3  C4  UNL d   1       1.292   2.624  -0.521  0.00  0.00     0.002 A 
ATOM      4  C5  UNL d   1       0.565   3.526  -1.305  0.00  0.00    -0.080 A 
ATOM      5  C6  UNL d   1       1.197   4.216  -2.477  0.00  0.00     0.076 C 
ATOM      6  C7  UNL d   1      -0.772   3.783  -0.981  0.00  0.00     0.002 A 
ATOM      7  C8  UNL d   1      -1.364   3.167   0.124  0.00  0.00     0.006 A 
ENDROOT
BRANCH   1   8
ATOM      8  C1  UNL d   1      -1.253   1.666   2.148  0.00  0.00     0.054 C 
ATOM      9  C   UNL d   1      -0.190   1.183   3.123  0.00  0.00     0.018 C 
ENDBRANCH   1   8
TORSDOF 1
ENDMDL
