MODEL 1
REMARK minimizedAffinity 11.3880987
REMARK minimizedRMSD -1
REMARK  1 active torsions:
REMARK  status: ('A' for Active; 'I' for Inactive)
REMARK    1  A    between atoms: C1_2  and  C2_3 
ROOT
ATOM      1  C2  UNL d   1       1.875  -2.692   5.357  0.00  0.00    -0.081 A 
ATOM      2  C3  UNL d   1       2.267  -2.133   4.135  0.00  0.00     0.006 A 
ATOM      3  C4  UNL d   1       1.542  -1.081   3.572  0.00  0.00     0.002 A 
ATOM      4  C5  UNL d   1       0.417  -0.565   4.224  0.00  0.00    -0.080 A 
ATOM      5  C6  UNL d   1      -0.354   0.584   3.645  0.00  0.00     0.076 C 
ATOM      6  C7  UNL d   1       0.014  -1.136   5.437  0.00  0.00     0.002 A 
ATOM      7  C8  UNL d   1       0.739  -2.188   6.000  0.00  0.00     0.006 A 
ENDROOT
BRANCH   1   8
ATOM      8  C1  UNL d   1       2.692  -3.784   5.999  0.00  0.00     0.054 C 
ATOM      9  C   UNL d   1       4.174  -3.437   6.000  0.00  0.00     0.018 C 
ENDBRANCH   1   8
TORSDOF 1
ENDMDL
