MODEL 1
REMARK minimizedAffinity 24.5098972
REMARK minimizedRMSD -1
REMARK  1 active torsions:
REMARK  status: ('A' for Active; 'I' for Inactive)
REMARK    1  A    between atoms: C1_2  and  C2_3 
ROOT
ATOM      1  C2  UNL d   1      -0.685   1.974   0.967  0.00  0.00    -0.081 A 
ATOM      2  C3  UNL d   1       0.654   1.631   0.743  0.00  0.00     0.006 A 
ATOM      3  C4  UNL d   1       1.361   2.195  -0.321  0.00  0.00     0.002 A 
ATOM      4  C5  UNL d   1       0.745   3.118  -1.173  0.00  0.00    -0.080 A 
ATOM      5  C6  UNL d   1       1.502   3.755  -2.300  0.00  0.00     0.076 C 
ATOM      6  C7  UNL d   1      -0.598   3.448  -0.960  0.00  0.00     0.002 A 
ATOM      7  C8  UNL d   1      -1.306   2.883   0.103  0.00  0.00     0.006 A 
ENDROOT
BRANCH   1   8
ATOM      8  C1  UNL d   1      -1.431   1.416   2.152  0.00  0.00     0.054 C 
ATOM      9  C   UNL d   1      -0.474   0.889   3.211  0.00  0.00     0.018 C 
ENDBRANCH   1   8
TORSDOF 1
ENDMDL
