MODEL 1
REMARK minimizedAffinity 11.8454313
REMARK minimizedRMSD -1
REMARK  1 active torsions:
REMARK  status: ('A' for Active; 'I' for Inactive)
REMARK    1  A    between atoms: C1_2  and  C2_3 
ROOT
ATOM      1  C2  UNL d   1       5.287  -3.646  -0.104  0.00  0.00    -0.081 A 
ATOM      2  C3  UNL d   1       5.972  -2.431   0.013  0.00  0.00     0.006 A 
ATOM      3  C4  UNL d   1       5.325  -1.298   0.513  0.00  0.00     0.002 A 
ATOM      4  C5  UNL d   1       3.985  -1.364   0.911  0.00  0.00    -0.080 A 
ATOM      5  C6  UNL d   1       3.288  -0.163   1.478  0.00  0.00     0.076 C 
ATOM      6  C7  UNL d   1       3.296  -2.574   0.778  0.00  0.00     0.002 A 
ATOM      7  C8  UNL d   1       3.942  -3.706   0.278  0.00  0.00     0.006 A 
ENDROOT
BRANCH   1   8
ATOM      8  C1  UNL d   1       6.000  -4.885  -0.582  0.00  0.00     0.054 C 
ATOM      9  C   UNL d   1       5.998  -5.971   0.485  0.00  0.00     0.018 C 
ENDBRANCH   1   8
TORSDOF 1
ENDMDL
