MODEL 1
REMARK minimizedAffinity 15.2705212
REMARK minimizedRMSD -1
REMARK  1 active torsions:
REMARK  status: ('A' for Active; 'I' for Inactive)
REMARK    1  A    between atoms: C1_2  and  C2_3 
ROOT
ATOM      1  C2  UNL d   1       1.940  -3.913  -1.014  0.00  0.00    -0.081 A 
ATOM      2  C3  UNL d   1       2.950  -3.167  -0.394  0.00  0.00     0.006 A 
ATOM      3  C4  UNL d   1       4.260  -3.650  -0.347  0.00  0.00     0.002 A 
ATOM      4  C5  UNL d   1       4.583  -4.882  -0.925  0.00  0.00    -0.080 A 
ATOM      5  C6  UNL d   1       5.992  -5.398  -0.907  0.00  0.00     0.076 C 
ATOM      6  C7  UNL d   1       3.571  -5.636  -1.529  0.00  0.00     0.002 A 
ATOM      7  C8  UNL d   1       2.261  -5.154  -1.576  0.00  0.00     0.006 A 
ENDROOT
BRANCH   1   8
ATOM      8  C1  UNL d   1       0.540  -3.366  -1.124  0.00  0.00     0.054 C 
ATOM      9  C   UNL d   1      -0.081  -3.700  -2.473  0.00  0.00     0.018 C 
ENDBRANCH   1   8
TORSDOF 1
ENDMDL
