MODEL 1
REMARK minimizedAffinity 12.4706573
REMARK minimizedRMSD -1
REMARK  1 active torsions:
REMARK  status: ('A' for Active; 'I' for Inactive)
REMARK    1  A    between atoms: C1_2  and  C2_3 
ROOT
ATOM      1  C2  UNL d   1       1.261   3.466  -1.472  0.00  0.00    -0.081 A 
ATOM      2  C3  UNL d   1       1.624   2.226  -0.932  0.00  0.00     0.006 A 
ATOM      3  C4  UNL d   1       0.687   1.451  -0.245  0.00  0.00     0.002 A 
ATOM      4  C5  UNL d   1      -0.630   1.899  -0.094  0.00  0.00    -0.080 A 
ATOM      5  C6  UNL d   1      -1.654   1.063   0.615  0.00  0.00     0.076 C 
ATOM      6  C7  UNL d   1      -0.988   3.146  -0.617  0.00  0.00     0.002 A 
ATOM      7  C8  UNL d   1      -0.051   3.921  -1.304  0.00  0.00     0.006 A 
ENDROOT
BRANCH   1   8
ATOM      8  C1  UNL d   1       2.253   4.275  -2.269  0.00  0.00     0.054 C 
ATOM      9  C   UNL d   1       1.557   5.104  -3.339  0.00  0.00     0.018 C 
ENDBRANCH   1   8
TORSDOF 1
ENDMDL
