MODEL 1
REMARK minimizedAffinity -2.99132228
REMARK minimizedRMSD -1
REMARK  1 active torsions:
REMARK  status: ('A' for Active; 'I' for Inactive)
REMARK    1  A    between atoms: C1_2  and  C2_3 
ROOT
ATOM      1  C2  UNL d   1       0.973   0.268   0.146  0.00  0.00    -0.081 A 
ATOM      2  C3  UNL d   1       0.333  -0.816  -0.467  0.00  0.00     0.006 A 
ATOM      3  C4  UNL d   1      -1.050  -0.805  -0.660  0.00  0.00     0.002 A 
ATOM      4  C5  UNL d   1      -1.816   0.292  -0.252  0.00  0.00    -0.080 A 
ATOM      5  C6  UNL d   1      -3.297   0.329  -0.481  0.00  0.00     0.076 C 
ATOM      6  C7  UNL d   1      -1.179   1.368   0.376  0.00  0.00     0.002 A 
ATOM      7  C8  UNL d   1       0.204   1.357   0.571  0.00  0.00     0.006 A 
ENDROOT
BRANCH   1   8
ATOM      8  C1  UNL d   1       2.472   0.288   0.298  0.00  0.00     0.054 C 
ATOM      9  C   UNL d   1       2.993   1.708   0.464  0.00  0.00     0.018 C 
ENDBRANCH   1   8
TORSDOF 1
ENDMDL
