MODEL 1
REMARK minimizedAffinity -1.08093965
REMARK minimizedRMSD -1
REMARK  1 active torsions:
REMARK  status: ('A' for Active; 'I' for Inactive)
REMARK    1  A    between atoms: C1_2  and  C2_3 
ROOT
ATOM      1  C2  UNL d   1      -1.691   0.146   0.016  0.00  0.00    -0.081 A 
ATOM      2  C3  UNL d   1      -0.944  -0.635  -0.874  0.00  0.00     0.006 A 
ATOM      3  C4  UNL d   1       0.409  -0.886  -0.632  0.00  0.00     0.002 A 
ATOM      4  C5  UNL d   1       1.034  -0.367   0.506  0.00  0.00    -0.080 A 
ATOM      5  C6  UNL d   1       2.478  -0.654   0.793  0.00  0.00     0.076 C 
ATOM      6  C7  UNL d   1       0.293   0.428   1.386  0.00  0.00     0.002 A 
ATOM      7  C8  UNL d   1      -1.060   0.680   1.145  0.00  0.00     0.006 A 
ENDROOT
BRANCH   1   8
ATOM      8  C1  UNL d   1      -3.166   0.365  -0.208  0.00  0.00     0.054 C 
ATOM      9  C   UNL d   1      -3.886   0.664   1.100  0.00  0.00     0.018 C 
ENDBRANCH   1   8
TORSDOF 1
ENDMDL
