MODEL 1
REMARK minimizedAffinity 3.80301952
REMARK minimizedRMSD -1
REMARK  0 active torsions:
REMARK  status: ('A' for Active; 'I' for Inactive)
ROOT
ATOM      1  C   UNL d   1      -1.473   1.304  -1.755  0.00  0.00     0.078 C 
ATOM      2  C1  UNL d   1      -0.692   2.415  -1.119  0.00  0.00    -0.077 A 
ATOM      3  C2  UNL d   1      -0.345   2.370   0.236  0.00  0.00    -0.001 A 
ATOM      4  C3  UNL d   1       0.374   3.416   0.817  0.00  0.00     0.003 A 
ATOM      5  C4  UNL d   1       0.751   4.516   0.049  0.00  0.00    -0.005 A 
ATOM      6  C5  UNL d   1       0.409   4.571  -1.300  0.00  0.00     0.003 A 
ATOM      7  C6  UNL d   1      -0.310   3.526  -1.883  0.00  0.00    -0.001 A 
ENDROOT
TORSDOF 0
ENDMDL
