MODEL 1
REMARK minimizedAffinity -4.61689091
REMARK minimizedRMSD -1
REMARK  0 active torsions:
REMARK  status: ('A' for Active; 'I' for Inactive)
ROOT
ATOM      1  C   UNL d   1       0.352  -1.858  -3.708  0.00  0.00     0.078 C 
ATOM      2  C1  UNL d   1       1.015  -2.391  -2.473  0.00  0.00    -0.077 A 
ATOM      3  C2  UNL d   1       2.238  -1.873  -2.030  0.00  0.00    -0.001 A 
ATOM      4  C3  UNL d   1       2.848  -2.386  -0.885  0.00  0.00     0.003 A 
ATOM      5  C4  UNL d   1       2.244  -3.421  -0.173  0.00  0.00    -0.005 A 
ATOM      6  C5  UNL d   1       1.028  -3.944  -0.608  0.00  0.00     0.003 A 
ATOM      7  C6  UNL d   1       0.416  -3.433  -1.753  0.00  0.00    -0.001 A 
ENDROOT
TORSDOF 0
ENDMDL
