MODEL 1
REMARK minimizedAffinity 3.37997818
REMARK minimizedRMSD -1
REMARK  0 active torsions:
REMARK  status: ('A' for Active; 'I' for Inactive)
ROOT
ATOM      1  C   UNL d   1       0.021   3.412  -0.231  0.00  0.00     0.078 C 
ATOM      2  C1  UNL d   1       0.351   3.022   1.179  0.00  0.00    -0.077 A 
ATOM      3  C2  UNL d   1       1.662   3.105   1.662  0.00  0.00    -0.001 A 
ATOM      4  C3  UNL d   1       1.957   2.729   2.974  0.00  0.00     0.003 A 
ATOM      5  C4  UNL d   1       0.945   2.265   3.812  0.00  0.00    -0.005 A 
ATOM      6  C5  UNL d   1      -0.362   2.177   3.340  0.00  0.00     0.003 A 
ATOM      7  C6  UNL d   1      -0.659   2.552   2.029  0.00  0.00    -0.001 A 
ENDROOT
TORSDOF 0
ENDMDL
