MODEL 1
REMARK minimizedAffinity 5.18942976
REMARK minimizedRMSD -1
REMARK  0 active torsions:
REMARK  status: ('A' for Active; 'I' for Inactive)
ROOT
ATOM      1  C   UNL d   1       3.011  -2.086   0.382  0.00  0.00     0.078 C 
ATOM      2  C1  UNL d   1       3.861  -2.269  -0.840  0.00  0.00    -0.077 A 
ATOM      3  C2  UNL d   1       3.332  -2.075  -2.122  0.00  0.00    -0.001 A 
ATOM      4  C3  UNL d   1       4.132  -2.259  -3.251  0.00  0.00     0.003 A 
ATOM      5  C4  UNL d   1       5.466  -2.639  -3.109  0.00  0.00    -0.005 A 
ATOM      6  C5  UNL d   1       6.000  -2.837  -1.838  0.00  0.00     0.003 A 
ATOM      7  C6  UNL d   1       5.201  -2.653  -0.708  0.00  0.00    -0.001 A 
ENDROOT
TORSDOF 0
ENDMDL
