MODEL 1
REMARK minimizedAffinity 4.73253345
REMARK minimizedRMSD -1
REMARK  0 active torsions:
REMARK  status: ('A' for Active; 'I' for Inactive)
ROOT
ATOM      1  C   UNL d   1      -0.462   3.682  -1.348  0.00  0.00     0.078 C 
ATOM      2  C1  UNL d   1      -1.195   2.375  -1.307  0.00  0.00    -0.077 A 
ATOM      3  C2  UNL d   1      -2.441   2.227  -1.929  0.00  0.00    -0.001 A 
ATOM      4  C3  UNL d   1      -3.116   1.006  -1.875  0.00  0.00     0.003 A 
ATOM      5  C4  UNL d   1      -2.555  -0.075  -1.199  0.00  0.00    -0.005 A 
ATOM      6  C5  UNL d   1      -1.316   0.063  -0.575  0.00  0.00     0.003 A 
ATOM      7  C6  UNL d   1      -0.639   1.283  -0.628  0.00  0.00    -0.001 A 
ENDROOT
TORSDOF 0
ENDMDL
