MODEL 1
REMARK minimizedAffinity 4.61064053
REMARK minimizedRMSD -1
REMARK  0 active torsions:
REMARK  status: ('A' for Active; 'I' for Inactive)
ROOT
ATOM      1  C   UNL d   1       1.606  -5.250  -0.750  0.00  0.00     0.078 C 
ATOM      2  C1  UNL d   1       2.619  -4.264  -1.250  0.00  0.00    -0.077 A 
ATOM      3  C2  UNL d   1       3.001  -3.165  -0.472  0.00  0.00    -0.001 A 
ATOM      4  C3  UNL d   1       3.938  -2.250  -0.954  0.00  0.00     0.003 A 
ATOM      5  C4  UNL d   1       4.500  -2.424  -2.217  0.00  0.00    -0.005 A 
ATOM      6  C5  UNL d   1       4.125  -3.514  -3.000  0.00  0.00     0.003 A 
ATOM      7  C6  UNL d   1       3.188  -4.430  -2.519  0.00  0.00    -0.001 A 
ENDROOT
TORSDOF 0
ENDMDL
