MODEL 1
REMARK minimizedAffinity 0.71418649
REMARK minimizedRMSD -1
REMARK  1 active torsions:
REMARK  status: ('A' for Active; 'I' for Inactive)
REMARK    1  A    between atoms: C1_2  and  C2_3 
ROOT
ATOM      1  C2  UNL d   1      -0.428  -0.814   1.708  0.00  0.00    -0.077 A 
ATOM      2  C3  UNL d   1      -1.501  -1.289   0.941  0.00  0.00     0.002 A 
ATOM      3  C4  UNL d   1      -2.476  -2.105   1.519  0.00  0.00     0.002 A 
ATOM      4  C5  UNL d   1      -2.390  -2.449   2.866  0.00  0.00    -0.004 A 
ATOM      5  C6  UNL d   1      -1.325  -1.983   3.637  0.00  0.00     0.002 A 
ATOM      6  C7  UNL d   1      -0.349  -1.169   3.060  0.00  0.00     0.002 A 
ENDROOT
BRANCH   1   7
ATOM      7  C1  UNL d   1       0.598   0.105   1.098  0.00  0.00     0.055 C 
ATOM      8  C   UNL d   1       0.178   0.559  -0.292  0.00  0.00     0.019 C 
ENDBRANCH   1   7
TORSDOF 1
ENDMDL
