MODEL 1
REMARK minimizedAffinity -3.83936548
REMARK minimizedRMSD -1
REMARK  1 active torsions:
REMARK  status: ('A' for Active; 'I' for Inactive)
REMARK    1  A    between atoms: C1_2  and  C2_3 
ROOT
ATOM      1  C2  UNL d   1      -4.005  -3.448  -5.345  0.00  0.00    -0.077 A 
ATOM      2  C3  UNL d   1      -4.855  -4.438  -4.831  0.00  0.00     0.002 A 
ATOM      3  C4  UNL d   1      -4.359  -5.708  -4.531  0.00  0.00     0.002 A 
ATOM      4  C5  UNL d   1      -3.013  -5.999  -4.738  0.00  0.00    -0.004 A 
ATOM      5  C6  UNL d   1      -2.160  -5.023  -5.250  0.00  0.00     0.002 A 
ATOM      6  C7  UNL d   1      -2.653  -3.753  -5.551  0.00  0.00     0.002 A 
ENDROOT
BRANCH   1   7
ATOM      7  C1  UNL d   1      -4.526  -2.062  -5.622  0.00  0.00     0.055 C 
ATOM      8  C   UNL d   1      -6.000  -2.091  -6.000  0.00  0.00     0.019 C 
ENDBRANCH   1   7
TORSDOF 1
ENDMDL
