MODEL 1
REMARK minimizedAffinity -3.76813841
REMARK minimizedRMSD -1
REMARK  1 active torsions:
REMARK  status: ('A' for Active; 'I' for Inactive)
REMARK    1  A    between atoms: C1_2  and  C2_3 
ROOT
ATOM      1  C2  UNL d   1      -3.757  -4.128  -5.273  0.00  0.00    -0.077 A 
ATOM      2  C3  UNL d   1      -3.853  -4.209  -3.876  0.00  0.00     0.002 A 
ATOM      3  C4  UNL d   1      -4.939  -3.640  -3.208  0.00  0.00     0.002 A 
ATOM      4  C5  UNL d   1      -5.939  -2.990  -3.928  0.00  0.00    -0.004 A 
ATOM      5  C6  UNL d   1      -5.852  -2.903  -5.317  0.00  0.00     0.002 A 
ATOM      6  C7  UNL d   1      -4.767  -3.470  -5.987  0.00  0.00     0.002 A 
ENDROOT
BRANCH   1   7
ATOM      7  C1  UNL d   1      -2.612  -4.784  -5.999  0.00  0.00     0.055 C 
ATOM      8  C   UNL d   1      -2.099  -6.000  -5.241  0.00  0.00     0.019 C 
ENDBRANCH   1   7
TORSDOF 1
ENDMDL
