MODEL 1
REMARK minimizedAffinity -0.936390936
REMARK minimizedRMSD -1
REMARK  1 active torsions:
REMARK  status: ('A' for Active; 'I' for Inactive)
REMARK    1  A    between atoms: C1_2  and  C2_3 
ROOT
ATOM      1  C2  UNL d   1      -4.000  -3.330  -5.066  0.00  0.00    -0.077 A 
ATOM      2  C3  UNL d   1      -4.505  -4.297  -4.185  0.00  0.00     0.002 A 
ATOM      3  C4  UNL d   1      -4.014  -5.604  -4.214  0.00  0.00     0.002 A 
ATOM      4  C5  UNL d   1      -3.013  -5.954  -5.118  0.00  0.00    -0.004 A 
ATOM      5  C6  UNL d   1      -2.506  -5.000  -5.999  0.00  0.00     0.002 A 
ATOM      6  C7  UNL d   1      -2.996  -3.694  -5.973  0.00  0.00     0.002 A 
ENDROOT
BRANCH   1   7
ATOM      7  C1  UNL d   1      -4.493  -1.908  -5.003  0.00  0.00     0.055 C 
ATOM      8  C   UNL d   1      -5.982  -1.824  -5.305  0.00  0.00     0.019 C 
ENDBRANCH   1   7
TORSDOF 1
ENDMDL
