MODEL 1
REMARK minimizedAffinity -3.83455849
REMARK minimizedRMSD -1
REMARK  1 active torsions:
REMARK  status: ('A' for Active; 'I' for Inactive)
REMARK    1  A    between atoms: C1_2  and  C2_3 
ROOT
ATOM      1  C2  UNL d   1      -4.792  -3.823  -4.974  0.00  0.00    -0.077 A 
ATOM      2  C3  UNL d   1      -3.612  -3.379  -5.588  0.00  0.00     0.002 A 
ATOM      3  C4  UNL d   1      -2.509  -4.229  -5.694  0.00  0.00     0.002 A 
ATOM      4  C5  UNL d   1      -2.577  -5.527  -5.194  0.00  0.00    -0.004 A 
ATOM      5  C6  UNL d   1      -3.745  -5.978  -4.581  0.00  0.00     0.002 A 
ATOM      6  C7  UNL d   1      -4.848  -5.130  -4.472  0.00  0.00     0.002 A 
ENDROOT
BRANCH   1   7
ATOM      7  C1  UNL d   1      -6.000  -2.925  -4.902  0.00  0.00     0.055 C 
ATOM      8  C   UNL d   1      -5.601  -1.457  -4.940  0.00  0.00     0.019 C 
ENDBRANCH   1   7
TORSDOF 1
ENDMDL
