MODEL 1
REMARK minimizedAffinity -3.78532076
REMARK minimizedRMSD -1
REMARK  1 active torsions:
REMARK  status: ('A' for Active; 'I' for Inactive)
REMARK    1  A    between atoms: C1_2  and  C2_3 
ROOT
ATOM      1  C2  UNL d   1      -4.007  -4.977  -4.960  0.00  0.00    -0.077 A 
ATOM      2  C3  UNL d   1      -5.002  -4.691  -5.905  0.00  0.00     0.002 A 
ATOM      3  C4  UNL d   1      -5.995  -3.751  -5.622  0.00  0.00     0.002 A 
ATOM      4  C5  UNL d   1      -6.000  -3.087  -4.397  0.00  0.00    -0.004 A 
ATOM      5  C6  UNL d   1      -5.016  -3.366  -3.450  0.00  0.00     0.002 A 
ATOM      6  C7  UNL d   1      -4.023  -4.306  -3.730  0.00  0.00     0.002 A 
ENDROOT
BRANCH   1   7
ATOM      7  C1  UNL d   1      -2.906  -5.954  -5.282  0.00  0.00     0.055 C 
ATOM      8  C   UNL d   1      -1.720  -5.257  -5.932  0.00  0.00     0.019 C 
ENDBRANCH   1   7
TORSDOF 1
ENDMDL
