MODEL 1
REMARK minimizedAffinity -3.44603825
REMARK minimizedRMSD -1
REMARK  1 active torsions:
REMARK  status: ('A' for Active; 'I' for Inactive)
REMARK    1  A    between atoms: C1_2  and  C2_3 
ROOT
ATOM      1  C2  UNL d   1      -4.396  -3.679  -4.603  0.00  0.00    -0.077 A 
ATOM      2  C3  UNL d   1      -3.012  -3.689  -4.826  0.00  0.00     0.002 A 
ATOM      3  C4  UNL d   1      -2.379  -4.847  -5.284  0.00  0.00     0.002 A 
ATOM      4  C5  UNL d   1      -3.123  -6.000  -5.526  0.00  0.00    -0.004 A 
ATOM      5  C6  UNL d   1      -4.499  -6.000  -5.305  0.00  0.00     0.002 A 
ATOM      6  C7  UNL d   1      -5.133  -4.844  -4.847  0.00  0.00     0.002 A 
ENDROOT
BRANCH   1   7
ATOM      7  C1  UNL d   1      -5.087  -2.417  -4.157  0.00  0.00     0.055 C 
ATOM      8  C   UNL d   1      -5.999  -1.871  -5.245  0.00  0.00     0.019 C 
ENDBRANCH   1   7
TORSDOF 1
ENDMDL
