MODEL 1
REMARK minimizedAffinity -3.91521239
REMARK minimizedRMSD -1
REMARK  1 active torsions:
REMARK  status: ('A' for Active; 'I' for Inactive)
REMARK    1  A    between atoms: C1_2  and  C2_3 
ROOT
ATOM      1  C2  UNL d   1      -5.132  -4.070  -4.509  0.00  0.00    -0.077 A 
ATOM      2  C3  UNL d   1      -3.742  -4.053  -4.332  0.00  0.00     0.002 A 
ATOM      3  C4  UNL d   1      -2.935  -4.988  -4.983  0.00  0.00     0.002 A 
ATOM      4  C5  UNL d   1      -3.509  -5.944  -5.818  0.00  0.00    -0.004 A 
ATOM      5  C6  UNL d   1      -4.891  -5.971  -5.999  0.00  0.00     0.002 A 
ATOM      6  C7  UNL d   1      -5.699  -5.037  -5.349  0.00  0.00     0.002 A 
ENDROOT
BRANCH   1   7
ATOM      7  C1  UNL d   1      -5.999  -3.031  -3.847  0.00  0.00     0.055 C 
ATOM      8  C   UNL d   1      -5.997  -1.727  -4.631  0.00  0.00     0.019 C 
ENDBRANCH   1   7
TORSDOF 1
ENDMDL
