MODEL 1
REMARK minimizedAffinity -3.71100855
REMARK minimizedRMSD -1
REMARK  1 active torsions:
REMARK  status: ('A' for Active; 'I' for Inactive)
REMARK    1  A    between atoms: C1_2  and  C2_3 
ROOT
ATOM      1  C2  UNL d   1      -4.189  -4.148  -5.155  0.00  0.00    -0.077 A 
ATOM      2  C3  UNL d   1      -4.038  -3.039  -6.000  0.00  0.00     0.002 A 
ATOM      3  C4  UNL d   1      -4.862  -1.922  -5.853  0.00  0.00     0.002 A 
ATOM      4  C5  UNL d   1      -5.840  -1.901  -4.861  0.00  0.00    -0.004 A 
ATOM      5  C6  UNL d   1      -6.000  -3.000  -4.017  0.00  0.00     0.002 A 
ATOM      6  C7  UNL d   1      -5.178  -4.118  -4.163  0.00  0.00     0.002 A 
ENDROOT
BRANCH   1   7
ATOM      7  C1  UNL d   1      -3.269  -5.334  -5.280  0.00  0.00     0.055 C 
ATOM      8  C   UNL d   1      -1.884  -4.912  -5.749  0.00  0.00     0.019 C 
ENDBRANCH   1   7
TORSDOF 1
ENDMDL
