MODEL 1
REMARK minimizedAffinity -3.60727453
REMARK minimizedRMSD -1
REMARK  1 active torsions:
REMARK  status: ('A' for Active; 'I' for Inactive)
REMARK    1  A    between atoms: C1_2  and  C2_3 
ROOT
ATOM      1  C2  UNL d   1      -5.287  -3.646  -4.542  0.00  0.00    -0.077 A 
ATOM      2  C3  UNL d   1      -5.986  -4.518  -5.388  0.00  0.00     0.002 A 
ATOM      3  C4  UNL d   1      -5.334  -5.602  -5.979  0.00  0.00     0.002 A 
ATOM      4  C5  UNL d   1      -3.982  -5.827  -5.726  0.00  0.00    -0.004 A 
ATOM      5  C6  UNL d   1      -3.278  -4.964  -4.888  0.00  0.00     0.002 A 
ATOM      6  C7  UNL d   1      -3.927  -3.879  -4.298  0.00  0.00     0.002 A 
ENDROOT
BRANCH   1   7
ATOM      7  C1  UNL d   1      -6.000  -2.504  -3.865  0.00  0.00     0.055 C 
ATOM      8  C   UNL d   1      -6.000  -1.257  -4.737  0.00  0.00     0.019 C 
ENDBRANCH   1   7
TORSDOF 1
ENDMDL
