MODEL 1
REMARK minimizedAffinity -3.75175786
REMARK minimizedRMSD -1
REMARK  1 active torsions:
REMARK  status: ('A' for Active; 'I' for Inactive)
REMARK    1  A    between atoms: C1_2  and  C2_3 
ROOT
ATOM      1  C2  UNL d   1      -5.096  -2.943  -5.093  0.00  0.00    -0.077 A 
ATOM      2  C3  UNL d   1      -5.437  -4.219  -4.624  0.00  0.00     0.002 A 
ATOM      3  C4  UNL d   1      -4.585  -5.303  -4.842  0.00  0.00     0.002 A 
ATOM      4  C5  UNL d   1      -3.385  -5.121  -5.527  0.00  0.00    -0.004 A 
ATOM      5  C6  UNL d   1      -3.038  -3.856  -5.999  0.00  0.00     0.002 A 
ATOM      6  C7  UNL d   1      -3.889  -2.772  -5.782  0.00  0.00     0.002 A 
ENDROOT
BRANCH   1   7
ATOM      7  C1  UNL d   1      -5.990  -1.763  -4.815  0.00  0.00     0.055 C 
ATOM      8  C   UNL d   1      -5.988  -0.781  -5.978  0.00  0.00     0.019 C 
ENDBRANCH   1   7
TORSDOF 1
ENDMDL
