MODEL 1
REMARK minimizedAffinity -3.42909765
REMARK minimizedRMSD -1
REMARK  1 active torsions:
REMARK  status: ('A' for Active; 'I' for Inactive)
REMARK    1  A    between atoms: C1_2  and  C2_3 
ROOT
ATOM      1  C2  UNL d   1      -4.662  -4.029  -4.978  0.00  0.00    -0.077 A 
ATOM      2  C3  UNL d   1      -3.594  -3.246  -5.438  0.00  0.00     0.002 A 
ATOM      3  C4  UNL d   1      -2.368  -3.836  -5.750  0.00  0.00     0.002 A 
ATOM      4  C5  UNL d   1      -2.199  -5.212  -5.609  0.00  0.00    -0.004 A 
ATOM      5  C6  UNL d   1      -3.254  -6.000  -5.150  0.00  0.00     0.002 A 
ATOM      6  C7  UNL d   1      -4.480  -5.411  -4.837  0.00  0.00     0.002 A 
ENDROOT
BRANCH   1   7
ATOM      7  C1  UNL d   1      -6.000  -3.401  -4.688  0.00  0.00     0.055 C 
ATOM      8  C   UNL d   1      -5.952  -1.890  -4.862  0.00  0.00     0.019 C 
ENDBRANCH   1   7
TORSDOF 1
ENDMDL
