MODEL 1
REMARK minimizedAffinity -3.75480556
REMARK minimizedRMSD -1
REMARK  1 active torsions:
REMARK  status: ('A' for Active; 'I' for Inactive)
REMARK    1  A    between atoms: C1_2  and  C2_3 
ROOT
ATOM      1  C2  UNL d   1      -3.816  -4.330  -4.771  0.00  0.00    -0.077 A 
ATOM      2  C3  UNL d   1      -4.388  -3.889  -3.569  0.00  0.00     0.002 A 
ATOM      3  C4  UNL d   1      -5.473  -3.011  -3.585  0.00  0.00     0.002 A 
ATOM      4  C5  UNL d   1      -5.997  -2.569  -4.797  0.00  0.00    -0.004 A 
ATOM      5  C6  UNL d   1      -5.434  -2.999  -5.998  0.00  0.00     0.002 A 
ATOM      6  C7  UNL d   1      -4.348  -3.877  -5.985  0.00  0.00     0.002 A 
ENDROOT
BRANCH   1   7
ATOM      7  C1  UNL d   1      -2.677  -5.316  -4.758  0.00  0.00     0.055 C 
ATOM      8  C   UNL d   1      -1.385  -4.676  -5.244  0.00  0.00     0.019 C 
ENDBRANCH   1   7
TORSDOF 1
ENDMDL
