MODEL 1
REMARK minimizedAffinity -4.53112268
REMARK minimizedRMSD -1
REMARK  1 active torsions:
REMARK  status: ('A' for Active; 'I' for Inactive)
REMARK    1  A    between atoms: C1_2  and  C2_3 
ROOT
ATOM      1  C2  UNL d   1      -3.098  -4.011  -4.890  0.00  0.00    -0.077 A 
ATOM      2  C3  UNL d   1      -3.880  -4.746  -3.988  0.00  0.00     0.002 A 
ATOM      3  C4  UNL d   1      -5.158  -4.305  -3.637  0.00  0.00     0.002 A 
ATOM      4  C5  UNL d   1      -5.665  -3.129  -4.187  0.00  0.00    -0.004 A 
ATOM      5  C6  UNL d   1      -4.895  -2.390  -5.083  0.00  0.00     0.002 A 
ATOM      6  C7  UNL d   1      -3.617  -2.829  -5.433  0.00  0.00     0.002 A 
ENDROOT
BRANCH   1   7
ATOM      7  C1  UNL d   1      -1.740  -4.511  -5.307  0.00  0.00     0.055 C 
ATOM      8  C   UNL d   1      -1.835  -5.871  -5.983  0.00  0.00     0.019 C 
ENDBRANCH   1   7
TORSDOF 1
ENDMDL
