MODEL 1
REMARK minimizedAffinity -3.17064834
REMARK minimizedRMSD -1
REMARK  1 active torsions:
REMARK  status: ('A' for Active; 'I' for Inactive)
REMARK    1  A    between atoms: C1_2  and  C2_3 
ROOT
ATOM      1  C2  UNL d   1      -4.076  -4.841  -5.508  0.00  0.00    -0.077 A 
ATOM      2  C3  UNL d   1      -4.110  -3.521  -5.976  0.00  0.00     0.002 A 
ATOM      3  C4  UNL d   1      -5.070  -2.626  -5.499  0.00  0.00     0.002 A 
ATOM      4  C5  UNL d   1      -6.000  -3.042  -4.549  0.00  0.00    -0.004 A 
ATOM      5  C6  UNL d   1      -5.976  -4.354  -4.078  0.00  0.00     0.002 A 
ATOM      6  C7  UNL d   1      -5.017  -5.250  -4.555  0.00  0.00     0.002 A 
ENDROOT
BRANCH   1   7
ATOM      7  C1  UNL d   1      -3.010  -5.793  -5.985  0.00  0.00     0.055 C 
ATOM      8  C   UNL d   1      -1.641  -5.129  -6.000  0.00  0.00     0.019 C 
ENDBRANCH   1   7
TORSDOF 1
ENDMDL
