MODEL 1
REMARK minimizedAffinity -4.59642458
REMARK minimizedRMSD -1
REMARK  0 active torsions:
REMARK  status: ('A' for Active; 'I' for Inactive)
ROOT
ATOM      1  C4' PXY d   1      -1.442  -0.491  -0.967  0.00  0.00     0.077 C 
ATOM      2  C1' PXY d   1       2.987   2.190   1.605  0.00  0.00     0.077 C 
ATOM      3  C1  PXY d   1       1.817   1.493   0.938  0.00  0.00    -0.082 A 
ATOM      4  C2  PXY d   1       2.015   0.355   0.293  0.00  0.00     0.003 A 
ATOM      5  C3  PXY d   1       0.975  -0.272  -0.343  0.00  0.00     0.003 A 
ATOM      6  C4  PXY d   1      -0.292   0.243  -0.271  0.00  0.00    -0.082 A 
ATOM      7  C5  PXY d   1      -0.504   1.398   0.395  0.00  0.00     0.003 A 
ATOM      8  C6  PXY d   1       0.573   2.040   0.998  0.00  0.00     0.003 A 
ENDROOT
TORSDOF 0
ENDMDL
