MODEL 1
REMARK minimizedAffinity -5.41844797
REMARK minimizedRMSD -1
REMARK  0 active torsions:
REMARK  status: ('A' for Active; 'I' for Inactive)
ROOT
ATOM      1  C4' PXY d   1      -1.081   1.029  -2.324  0.00  0.00     0.077 C 
ATOM      2  C1' PXY d   1      -1.395  -2.758   2.033  0.00  0.00     0.077 C 
ATOM      3  C1  PXY d   1      -1.303  -1.759   0.897  0.00  0.00    -0.082 A 
ATOM      4  C2  PXY d   1      -2.333  -1.600   0.080  0.00  0.00     0.003 A 
ATOM      5  C3  PXY d   1      -2.255  -0.723  -0.971  0.00  0.00     0.003 A 
ATOM      6  C4  PXY d   1      -1.132   0.037  -1.158  0.00  0.00    -0.082 A 
ATOM      7  C5  PXY d   1      -0.082  -0.111  -0.323  0.00  0.00     0.003 A 
ATOM      8  C6  PXY d   1      -0.165  -1.036   0.714  0.00  0.00     0.003 A 
ENDROOT
TORSDOF 0
ENDMDL
