MODEL 1
REMARK minimizedAffinity -5.45120382
REMARK minimizedRMSD -1
REMARK  0 active torsions:
REMARK  status: ('A' for Active; 'I' for Inactive)
ROOT
ATOM      1  C4' PXY d   1       1.945   0.491   0.026  0.00  0.00     0.077 C 
ATOM      2  C1' PXY d   1      -3.522  -1.375   0.237  0.00  0.00     0.077 C 
ATOM      3  C1  PXY d   1      -2.089  -0.884   0.168  0.00  0.00    -0.082 A 
ATOM      4  C2  PXY d   1      -1.231  -1.236   1.113  0.00  0.00     0.003 A 
ATOM      5  C3  PXY d   1       0.060  -0.775   1.084  0.00  0.00     0.003 A 
ATOM      6  C4  PXY d   1       0.491   0.011   0.049  0.00  0.00    -0.082 A 
ATOM      7  C5  PXY d   1      -0.375   0.365  -0.924  0.00  0.00     0.003 A 
ATOM      8  C6  PXY d   1      -1.692  -0.079  -0.854  0.00  0.00     0.003 A 
ENDROOT
TORSDOF 0
ENDMDL
