MODEL 1
REMARK minimizedAffinity -4.71049118
REMARK minimizedRMSD -1
REMARK  0 active torsions:
REMARK  status: ('A' for Active; 'I' for Inactive)
ROOT
ATOM      1  C4' PXY d   1       1.405   0.409   0.307  0.00  0.00     0.077 C 
ATOM      2  C1' PXY d   1      -3.729  -2.233   0.030  0.00  0.00     0.077 C 
ATOM      3  C1  PXY d   1      -2.382  -1.544   0.115  0.00  0.00    -0.082 A 
ATOM      4  C2  PXY d   1      -2.109  -0.537  -0.699  0.00  0.00     0.003 A 
ATOM      5  C3  PXY d   1      -0.884   0.076  -0.658  0.00  0.00     0.003 A 
ATOM      6  C4  PXY d   1       0.054  -0.310   0.263  0.00  0.00    -0.082 A 
ATOM      7  C5  PXY d   1      -0.221  -1.329   1.104  0.00  0.00     0.003 A 
ATOM      8  C6  PXY d   1      -1.455  -1.966   1.018  0.00  0.00     0.003 A 
ENDROOT
TORSDOF 0
ENDMDL
