MODEL 1
REMARK minimizedAffinity -4.83871126
REMARK minimizedRMSD -1
REMARK  0 active torsions:
REMARK  status: ('A' for Active; 'I' for Inactive)
ROOT
ATOM      1  C4' PXY d   1      -2.694  -1.395  -1.418  0.00  0.00     0.077 C 
ATOM      2  C1' PXY d   1       1.840   1.409   0.818  0.00  0.00     0.077 C 
ATOM      3  C1  PXY d   1       0.650   0.667   0.243  0.00  0.00    -0.082 A 
ATOM      4  C2  PXY d   1       0.528   0.541  -1.069  0.00  0.00     0.003 A 
ATOM      5  C3  PXY d   1      -0.558  -0.099  -1.607  0.00  0.00     0.003 A 
ATOM      6  C4  PXY d   1      -1.504  -0.662  -0.792  0.00  0.00    -0.082 A 
ATOM      7  C5  PXY d   1      -1.382  -0.548   0.547  0.00  0.00     0.003 A 
ATOM      8  C6  PXY d   1      -0.292   0.142   1.072  0.00  0.00     0.003 A 
ENDROOT
TORSDOF 0
ENDMDL
