MODEL 1
REMARK minimizedAffinity -4.25762987
REMARK minimizedRMSD -1
REMARK  0 active torsions:
REMARK  status: ('A' for Active; 'I' for Inactive)
ROOT
ATOM      1  C4' PXY d   1      -3.608  -0.589   0.061  0.00  0.00     0.077 C 
ATOM      2  C1' PXY d   1       2.095   0.260  -0.347  0.00  0.00     0.077 C 
ATOM      3  C1  PXY d   1       0.598   0.045  -0.250  0.00  0.00    -0.082 A 
ATOM      4  C2  PXY d   1       0.058  -0.288   0.911  0.00  0.00     0.003 A 
ATOM      5  C3  PXY d   1      -1.290  -0.517   1.009  0.00  0.00     0.003 A 
ATOM      6  C4  PXY d   1      -2.102  -0.353  -0.081  0.00  0.00    -0.082 A 
ATOM      7  C5  PXY d   1      -1.560  -0.003  -1.267  0.00  0.00     0.003 A 
ATOM      8  C6  PXY d   1      -0.184   0.185  -1.355  0.00  0.00     0.003 A 
ENDROOT
TORSDOF 0
ENDMDL
