MODEL 1
REMARK minimizedAffinity -3.20238543
REMARK minimizedRMSD -1
REMARK  0 active torsions:
REMARK  status: ('A' for Active; 'I' for Inactive)
ROOT
ATOM      1  C4' PXY d   1       2.137   0.915   0.720  0.00  0.00     0.077 C 
ATOM      2  C1' PXY d   1      -3.150  -1.010  -0.606  0.00  0.00     0.077 C 
ATOM      3  C1  PXY d   1      -1.766  -0.507  -0.245  0.00  0.00    -0.082 A 
ATOM      4  C2  PXY d   1      -1.139   0.324  -1.062  0.00  0.00     0.003 A 
ATOM      5  C3  PXY d   1       0.126   0.763  -0.767  0.00  0.00     0.003 A 
ATOM      6  C4  PXY d   1       0.734   0.389   0.402  0.00  0.00    -0.082 A 
ATOM      7  C5  PXY d   1       0.096  -0.450   1.245  0.00  0.00     0.003 A 
ATOM      8  C6  PXY d   1      -1.171  -0.917   0.907  0.00  0.00     0.003 A 
ENDROOT
TORSDOF 0
ENDMDL
