MODEL 1
REMARK minimizedAffinity 1.68572509
REMARK minimizedRMSD -1
REMARK  0 active torsions:
REMARK  status: ('A' for Active; 'I' for Inactive)
ROOT
ATOM      1  C4' PXY d   1       0.716   0.712  -4.521  0.00  0.00     0.077 C 
ATOM      2  C1' PXY d   1      -0.705  -0.767   0.883  0.00  0.00     0.077 C 
ATOM      3  C1  PXY d   1      -0.345  -0.381  -0.538  0.00  0.00    -0.082 A 
ATOM      4  C2  PXY d   1       0.910  -0.480  -0.944  0.00  0.00     0.003 A 
ATOM      5  C3  PXY d   1       1.259  -0.105  -2.216  0.00  0.00     0.003 A 
ATOM      6  C4  PXY d   1       0.304   0.325  -3.098  0.00  0.00    -0.082 A 
ATOM      7  C5  PXY d   1      -0.980   0.419  -2.695  0.00  0.00     0.003 A 
ATOM      8  C6  PXY d   1      -1.307   0.073  -1.387  0.00  0.00     0.003 A 
ENDROOT
TORSDOF 0
ENDMDL
