MODEL 1
REMARK minimizedAffinity 2.37798023
REMARK minimizedRMSD -1
REMARK  0 active torsions:
REMARK  status: ('A' for Active; 'I' for Inactive)
ROOT
ATOM      1  C4' PXY d   1      -3.312  -3.523   5.078  0.00  0.00     0.077 C 
ATOM      2  C1' PXY d   1      -3.060   2.248   4.869  0.00  0.00     0.077 C 
ATOM      3  C1  PXY d   1      -3.125   0.734   4.911  0.00  0.00    -0.082 A 
ATOM      4  C2  PXY d   1      -3.716   0.133   5.930  0.00  0.00     0.003 A 
ATOM      5  C3  PXY d   1      -3.756  -1.236   6.000  0.00  0.00     0.003 A 
ATOM      6  C4  PXY d   1      -3.231  -1.996   4.989  0.00  0.00    -0.082 A 
ATOM      7  C5  PXY d   1      -2.635  -1.390   3.941  0.00  0.00     0.003 A 
ATOM      8  C6  PXY d   1      -2.570  -0.000   3.909  0.00  0.00     0.003 A 
ENDROOT
TORSDOF 0
ENDMDL
