MODEL 1
REMARK minimizedAffinity -1.73224318
REMARK minimizedRMSD -1
REMARK  0 active torsions:
REMARK  status: ('A' for Active; 'I' for Inactive)
ROOT
ATOM      1  C4' PXY d   1       0.745  -0.068  -0.948  0.00  0.00     0.077 C 
ATOM      2  C1' PXY d   1       3.576   4.191   1.746  0.00  0.00     0.077 C 
ATOM      3  C1  PXY d   1       2.844   3.066   1.042  0.00  0.00    -0.082 A 
ATOM      4  C2  PXY d   1       1.905   3.351   0.154  0.00  0.00     0.003 A 
ATOM      5  C3  PXY d   1       1.210   2.346  -0.468  0.00  0.00     0.003 A 
ATOM      6  C4  PXY d   1       1.517   1.035  -0.220  0.00  0.00    -0.082 A 
ATOM      7  C5  PXY d   1       2.482   0.736   0.676  0.00  0.00     0.003 A 
ATOM      8  C6  PXY d   1       3.146   1.771   1.328  0.00  0.00     0.003 A 
ENDROOT
TORSDOF 0
ENDMDL
