MODEL 1
REMARK minimizedAffinity -4.53029966
REMARK minimizedRMSD -1
REMARK  0 active torsions:
REMARK  status: ('A' for Active; 'I' for Inactive)
ROOT
ATOM      1  C4' PXY d   1       2.263   0.704  -0.079  0.00  0.00     0.077 C 
ATOM      2  C1' PXY d   1      -2.309  -2.766   0.606  0.00  0.00     0.077 C 
ATOM      3  C1  PXY d   1      -1.115  -1.853   0.415  0.00  0.00    -0.082 A 
ATOM      4  C2  PXY d   1      -0.003  -2.079   1.095  0.00  0.00     0.003 A 
ATOM      5  C3  PXY d   1       1.076  -1.244   0.958  0.00  0.00     0.003 A 
ATOM      6  C4  PXY d   1       1.035  -0.198   0.076  0.00  0.00    -0.082 A 
ATOM      7  C5  PXY d   1      -0.092   0.033  -0.630  0.00  0.00     0.003 A 
ATOM      8  C6  PXY d   1      -1.191  -0.801  -0.446  0.00  0.00     0.003 A 
ENDROOT
TORSDOF 0
ENDMDL
