MODEL 1
REMARK minimizedAffinity -4.1427412
REMARK minimizedRMSD -1
REMARK  0 active torsions:
REMARK  status: ('A' for Active; 'I' for Inactive)
ROOT
ATOM      1  C4' PXY d   1      -1.545   0.802  -2.362  0.00  0.00     0.077 C 
ATOM      2  C1' PXY d   1      -0.757  -3.048   1.877  0.00  0.00     0.077 C 
ATOM      3  C1  PXY d   1      -0.955  -2.031   0.771  0.00  0.00    -0.082 A 
ATOM      4  C2  PXY d   1      -2.098  -2.002   0.105  0.00  0.00     0.003 A 
ATOM      5  C3  PXY d   1      -2.282  -1.110  -0.919  0.00  0.00     0.003 A 
ATOM      6  C4  PXY d   1      -1.305  -0.202  -1.231  0.00  0.00    -0.082 A 
ATOM      7  C5  PXY d   1      -0.140  -0.218  -0.550  0.00  0.00     0.003 A 
ATOM      8  C6  PXY d   1       0.042  -1.159   0.460  0.00  0.00     0.003 A 
ENDROOT
TORSDOF 0
ENDMDL
