MODEL 1
REMARK minimizedAffinity -3.34818816
REMARK minimizedRMSD -1
REMARK  0 active torsions:
REMARK  status: ('A' for Active; 'I' for Inactive)
ROOT
ATOM      1  C4' PXY d   1       2.277   0.821  -0.034  0.00  0.00     0.077 C 
ATOM      2  C1' PXY d   1      -3.331  -0.541  -0.364  0.00  0.00     0.077 C 
ATOM      3  C1  PXY d   1      -1.859  -0.185  -0.290  0.00  0.00    -0.082 A 
ATOM      4  C2  PXY d   1      -1.199  -0.365   0.842  0.00  0.00     0.003 A 
ATOM      5  C3  PXY d   1       0.124  -0.018   0.936  0.00  0.00     0.003 A 
ATOM      6  C4  PXY d   1       0.792   0.467  -0.157  0.00  0.00    -0.082 A 
ATOM      7  C5  PXY d   1       0.128   0.643  -1.319  0.00  0.00     0.003 A 
ATOM      8  C6  PXY d   1      -1.225   0.324  -1.381  0.00  0.00     0.003 A 
ENDROOT
TORSDOF 0
ENDMDL
