MODEL 1
REMARK minimizedAffinity -5.05115843
REMARK minimizedRMSD -1
REMARK  0 active torsions:
REMARK  status: ('A' for Active; 'I' for Inactive)
ROOT
ATOM      1  C4' PXY d   1       1.850   0.676  -0.050  0.00  0.00     0.077 C 
ATOM      2  C1' PXY d   1      -3.218  -2.095   0.187  0.00  0.00     0.077 C 
ATOM      3  C1  PXY d   1      -1.889  -1.369   0.112  0.00  0.00    -0.082 A 
ATOM      4  C2  PXY d   1      -1.077  -1.381   1.157  0.00  0.00     0.003 A 
ATOM      5  C3  PXY d   1       0.114  -0.703   1.117  0.00  0.00     0.003 A 
ATOM      6  C4  PXY d   1       0.502  -0.051  -0.022  0.00  0.00    -0.082 A 
ATOM      7  C5  PXY d   1      -0.315  -0.043  -1.096  0.00  0.00     0.003 A 
ATOM      8  C6  PXY d   1      -1.539  -0.702  -1.021  0.00  0.00     0.003 A 
ENDROOT
TORSDOF 0
ENDMDL
