MODEL 1
REMARK minimizedAffinity -6.02979279
REMARK minimizedRMSD -1
REMARK  0 active torsions:
REMARK  status: ('A' for Active; 'I' for Inactive)
ROOT
ATOM      1  C4' PXY d   1      -3.582  -1.490  -0.170  0.00  0.00     0.077 C 
ATOM      2  C1' PXY d   1       1.921   0.198   0.369  0.00  0.00     0.077 C 
ATOM      3  C1  PXY d   1       0.481  -0.256   0.233  0.00  0.00    -0.082 A 
ATOM      4  C2  PXY d   1      -0.299   0.306  -0.676  0.00  0.00     0.003 A 
ATOM      5  C3  PXY d   1      -1.613  -0.070  -0.792  0.00  0.00     0.003 A 
ATOM      6  C4  PXY d   1      -2.119  -1.069  -0.004  0.00  0.00    -0.082 A 
ATOM      7  C5  PXY d   1      -1.327  -1.655   0.919  0.00  0.00     0.003 A 
ATOM      8  C6  PXY d   1      -0.007  -1.230   1.048  0.00  0.00     0.003 A 
ENDROOT
TORSDOF 0
ENDMDL
