MODEL 1
REMARK minimizedAffinity 0.0794148967
REMARK minimizedRMSD -1
REMARK  0 active torsions:
REMARK  status: ('A' for Active; 'I' for Inactive)
ROOT
ATOM      1  C4' PXY d   1       2.676   1.552   0.127  0.00  0.00     0.077 C 
ATOM      2  C1' PXY d   1      -2.532  -0.692  -0.997  0.00  0.00     0.077 C 
ATOM      3  C1  PXY d   1      -1.169  -0.104  -0.690  0.00  0.00    -0.082 A 
ATOM      4  C2  PXY d   1      -0.548   0.623  -1.605  0.00  0.00     0.003 A 
ATOM      5  C3  PXY d   1       0.699   1.135  -1.355  0.00  0.00     0.003 A 
ATOM      6  C4  PXY d   1       1.294   0.946  -0.136  0.00  0.00    -0.082 A 
ATOM      7  C5  PXY d   1       0.662   0.215   0.806  0.00  0.00     0.003 A 
ATOM      8  C6  PXY d   1      -0.585  -0.331   0.518  0.00  0.00     0.003 A 
ENDROOT
TORSDOF 0
ENDMDL
