MODEL 1
REMARK minimizedAffinity -3.24765921
REMARK minimizedRMSD -1
REMARK  0 active torsions:
REMARK  status: ('A' for Active; 'I' for Inactive)
ROOT
ATOM      1  C4' PXY d   1      -3.370  -0.765   0.045  0.00  0.00     0.077 C 
ATOM      2  C1' PXY d   1       2.207   0.646  -0.518  0.00  0.00     0.077 C 
ATOM      3  C1  PXY d   1       0.742   0.282  -0.381  0.00  0.00    -0.082 A 
ATOM      4  C2  PXY d   1       0.249  -0.009   0.812  0.00  0.00     0.003 A 
ATOM      5  C3  PXY d   1      -1.067  -0.371   0.949  0.00  0.00     0.003 A 
ATOM      6  C4  PXY d   1      -1.899  -0.384  -0.139  0.00  0.00    -0.082 A 
ATOM      7  C5  PXY d   1      -1.405  -0.078  -1.358  0.00  0.00     0.003 A 
ATOM      8  C6  PXY d   1      -0.058   0.247  -1.482  0.00  0.00     0.003 A 
ENDROOT
TORSDOF 0
ENDMDL
