MODEL 1
REMARK minimizedAffinity -5.7971468
REMARK minimizedRMSD -1
REMARK  0 active torsions:
REMARK  status: ('A' for Active; 'I' for Inactive)
ROOT
ATOM      1  C4' PXY d   1       1.965   0.804  -0.036  0.00  0.00     0.077 C 
ATOM      2  C1' PXY d   1      -3.486  -1.116   0.082  0.00  0.00     0.077 C 
ATOM      3  C1  PXY d   1      -2.056  -0.613   0.064  0.00  0.00    -0.082 A 
ATOM      4  C2  PXY d   1      -1.629   0.107  -0.961  0.00  0.00     0.003 A 
ATOM      5  C3  PXY d   1      -0.329   0.542  -1.008  0.00  0.00     0.003 A 
ATOM      6  C4  PXY d   1       0.526   0.284   0.029  0.00  0.00    -0.082 A 
ATOM      7  C5  PXY d   1       0.095  -0.441   1.083  0.00  0.00     0.003 A 
ATOM      8  C6  PXY d   1      -1.216  -0.909   1.093  0.00  0.00     0.003 A 
ENDROOT
TORSDOF 0
ENDMDL
