MODEL 1
REMARK minimizedAffinity -4.24705029
REMARK minimizedRMSD -1
REMARK  0 active torsions:
REMARK  status: ('A' for Active; 'I' for Inactive)
ROOT
ATOM      1  C4' PXY d   1       2.226   0.978   0.286  0.00  0.00     0.077 C 
ATOM      2  C1' PXY d   1      -3.227  -0.886  -0.172  0.00  0.00     0.077 C 
ATOM      3  C1  PXY d   1      -1.796  -0.398  -0.065  0.00  0.00    -0.082 A 
ATOM      4  C2  PXY d   1      -1.117  -0.602   1.052  0.00  0.00     0.003 A 
ATOM      5  C3  PXY d   1       0.168  -0.139   1.178  0.00  0.00     0.003 A 
ATOM      6  C4  PXY d   1       0.782   0.493   0.130  0.00  0.00    -0.082 A 
ATOM      7  C5  PXY d   1       0.099   0.696  -1.017  0.00  0.00     0.003 A 
ATOM      8  C6  PXY d   1      -1.218   0.255  -1.110  0.00  0.00     0.003 A 
ENDROOT
TORSDOF 0
ENDMDL
