MODEL 1
REMARK minimizedAffinity -1.18522346
REMARK minimizedRMSD -1
REMARK  1 active torsions:
REMARK  status: ('A' for Active; 'I' for Inactive)
REMARK    1  A    between atoms: C1_2  and  C2_3 
ROOT
ATOM      1  C2  UNL d   1       0.187   0.200  -0.974  0.00  0.00    -0.077 A 
ATOM      2  C3  UNL d   1       1.296  -0.389  -1.599  0.00  0.00     0.002 A 
ATOM      3  C4  UNL d   1       2.213  -1.133  -0.855  0.00  0.00     0.002 A 
ATOM      4  C5  UNL d   1       2.030  -1.298   0.516  0.00  0.00    -0.004 A 
ATOM      5  C6  UNL d   1       0.932  -0.715   1.147  0.00  0.00     0.002 A 
ATOM      6  C7  UNL d   1       0.015   0.030   0.405  0.00  0.00     0.002 A 
ENDROOT
BRANCH   1   7
ATOM      7  C1  UNL d   1      -0.830   0.961  -1.783  0.00  0.00     0.055 C 
ATOM      8  C   UNL d   1      -0.269   2.290  -2.268  0.00  0.00     0.019 C 
ENDBRANCH   1   7
TORSDOF 1
ENDMDL
