MODEL 1
REMARK minimizedAffinity -0.261457115
REMARK minimizedRMSD -1
REMARK  1 active torsions:
REMARK  status: ('A' for Active; 'I' for Inactive)
REMARK    1  A    between atoms: C1_2  and  C2_3 
ROOT
ATOM      1  C2  UNL d   1      -0.847   1.003  -0.745  0.00  0.00    -0.077 A 
ATOM      2  C3  UNL d   1      -0.730   1.951  -1.772  0.00  0.00     0.002 A 
ATOM      3  C4  UNL d   1      -1.681   2.007  -2.792  0.00  0.00     0.002 A 
ATOM      4  C5  UNL d   1      -2.758   1.122  -2.793  0.00  0.00    -0.004 A 
ATOM      5  C6  UNL d   1      -2.881   0.175  -1.778  0.00  0.00     0.002 A 
ATOM      6  C7  UNL d   1      -1.931   0.116  -0.758  0.00  0.00     0.002 A 
ENDROOT
BRANCH   1   7
ATOM      7  C1  UNL d   1       0.151   0.973   0.383  0.00  0.00     0.055 C 
ATOM      8  C   UNL d   1       1.580   1.006  -0.141  0.00  0.00     0.019 C 
ENDBRANCH   1   7
TORSDOF 1
ENDMDL
