MODEL 1
REMARK minimizedAffinity -2.69865894
REMARK minimizedRMSD -1
REMARK  1 active torsions:
REMARK  status: ('A' for Active; 'I' for Inactive)
REMARK    1  A    between atoms: C1_2  and  C2_3 
ROOT
ATOM      1  C2  UNL d   1      -1.603   1.754  -0.213  0.00  0.00    -0.077 A 
ATOM      2  C3  UNL d   1      -2.221   1.151  -1.317  0.00  0.00     0.002 A 
ATOM      3  C4  UNL d   1      -2.244   1.798  -2.554  0.00  0.00     0.002 A 
ATOM      4  C5  UNL d   1      -1.646   3.048  -2.700  0.00  0.00    -0.004 A 
ATOM      5  C6  UNL d   1      -1.030   3.657  -1.607  0.00  0.00     0.002 A 
ATOM      6  C7  UNL d   1      -1.008   3.012  -0.369  0.00  0.00     0.002 A 
ENDROOT
BRANCH   1   7
ATOM      7  C1  UNL d   1      -1.535   1.036   1.110  0.00  0.00     0.055 C 
ATOM      8  C   UNL d   1      -0.569  -0.138   1.054  0.00  0.00     0.019 C 
ENDBRANCH   1   7
TORSDOF 1
ENDMDL
