MODEL 1
REMARK minimizedAffinity -5.17019796
REMARK minimizedRMSD -1
REMARK  1 active torsions:
REMARK  status: ('A' for Active; 'I' for Inactive)
REMARK    1  A    between atoms: C1_2  and  C2_3 
ROOT
ATOM      1  C2  UNL d   1       0.071  -1.026   0.412  0.00  0.00    -0.077 A 
ATOM      2  C3  UNL d   1       0.848  -0.196  -0.408  0.00  0.00     0.002 A 
ATOM      3  C4  UNL d   1       0.581   1.172  -0.484  0.00  0.00     0.002 A 
ATOM      4  C5  UNL d   1      -0.460   1.722   0.261  0.00  0.00    -0.004 A 
ATOM      5  C6  UNL d   1      -1.240   0.905   1.078  0.00  0.00     0.002 A 
ATOM      6  C7  UNL d   1      -0.975  -0.463   1.153  0.00  0.00     0.002 A 
ENDROOT
BRANCH   1   7
ATOM      7  C1  UNL d   1       0.389  -2.494   0.532  0.00  0.00     0.055 C 
ATOM      8  C   UNL d   1       1.401  -2.752   1.639  0.00  0.00     0.019 C 
ENDBRANCH   1   7
TORSDOF 1
ENDMDL
