MODEL 1
REMARK minimizedAffinity 3.94821191
REMARK minimizedRMSD -1
REMARK  1 active torsions:
REMARK  status: ('A' for Active; 'I' for Inactive)
REMARK    1  A    between atoms: C1_2  and  C2_3 
ROOT
ATOM      1  C2  UNL d   1      -1.852   2.563  -1.707  0.00  0.00    -0.077 A 
ATOM      2  C3  UNL d   1      -2.654   1.530  -2.215  0.00  0.00     0.002 A 
ATOM      3  C4  UNL d   1      -3.217   0.586  -1.354  0.00  0.00     0.002 A 
ATOM      4  C5  UNL d   1      -2.989   0.667   0.018  0.00  0.00    -0.004 A 
ATOM      5  C6  UNL d   1      -2.192   1.689   0.532  0.00  0.00     0.002 A 
ATOM      6  C7  UNL d   1      -1.627   2.633  -0.326  0.00  0.00     0.002 A 
ENDROOT
BRANCH   1   7
ATOM      7  C1  UNL d   1      -1.284   3.611  -2.628  0.00  0.00     0.055 C 
ATOM      8  C   UNL d   1       0.201   3.387  -2.871  0.00  0.00     0.019 C 
ENDBRANCH   1   7
TORSDOF 1
ENDMDL
