MODEL 1
REMARK minimizedAffinity 0.011438353
REMARK minimizedRMSD -1
REMARK  1 active torsions:
REMARK  status: ('A' for Active; 'I' for Inactive)
REMARK    1  A    between atoms: C1_2  and  C2_3 
ROOT
ATOM      1  C2  UNL d   1       2.508  -0.779  -0.028  0.00  0.00    -0.077 A 
ATOM      2  C3  UNL d   1       2.263   0.579  -0.279  0.00  0.00     0.002 A 
ATOM      3  C4  UNL d   1       2.783   1.191  -1.421  0.00  0.00     0.002 A 
ATOM      4  C5  UNL d   1       3.547   0.453  -2.323  0.00  0.00    -0.004 A 
ATOM      5  C6  UNL d   1       3.798  -0.897  -2.081  0.00  0.00     0.002 A 
ATOM      6  C7  UNL d   1       3.280  -1.510  -0.939  0.00  0.00     0.002 A 
ENDROOT
BRANCH   1   7
ATOM      7  C1  UNL d   1       1.907  -1.453   1.178  0.00  0.00     0.055 C 
ATOM      8  C   UNL d   1       1.497  -2.884   0.865  0.00  0.00     0.019 C 
ENDBRANCH   1   7
TORSDOF 1
ENDMDL
