MODEL 1
REMARK minimizedAffinity 7.51380491
REMARK minimizedRMSD -1
REMARK  1 active torsions:
REMARK  status: ('A' for Active; 'I' for Inactive)
REMARK    1  A    between atoms: C1_2  and  C2_3 
ROOT
ATOM      1  C2  UNL d   1      -3.434   1.244  -2.346  0.00  0.00    -0.077 A 
ATOM      2  C3  UNL d   1      -3.843   1.818  -1.134  0.00  0.00     0.002 A 
ATOM      3  C4  UNL d   1      -4.025   1.022  -0.001  0.00  0.00     0.002 A 
ATOM      4  C5  UNL d   1      -3.796  -0.351  -0.068  0.00  0.00    -0.004 A 
ATOM      5  C6  UNL d   1      -3.391  -0.931  -1.269  0.00  0.00     0.002 A 
ATOM      6  C7  UNL d   1      -3.210  -0.138  -2.403  0.00  0.00     0.002 A 
ENDROOT
BRANCH   1   7
ATOM      7  C1  UNL d   1      -3.190   2.107  -3.556  0.00  0.00     0.055 C 
ATOM      8  C   UNL d   1      -1.833   2.792  -3.482  0.00  0.00     0.019 C 
ENDBRANCH   1   7
TORSDOF 1
ENDMDL
