MODEL 1
REMARK minimizedAffinity 0.608402252
REMARK minimizedRMSD -1
REMARK  1 active torsions:
REMARK  status: ('A' for Active; 'I' for Inactive)
REMARK    1  A    between atoms: C1_2  and  C2_3 
ROOT
ATOM      1  C2  UNL d   1       0.211   0.252   0.805  0.00  0.00    -0.077 A 
ATOM      2  C3  UNL d   1       1.172   0.765  -0.078  0.00  0.00     0.002 A 
ATOM      3  C4  UNL d   1       2.264  -0.015  -0.464  0.00  0.00     0.002 A 
ATOM      4  C5  UNL d   1       2.404  -1.312   0.025  0.00  0.00    -0.004 A 
ATOM      5  C6  UNL d   1       1.455  -1.830   0.905  0.00  0.00     0.002 A 
ATOM      6  C7  UNL d   1       0.363  -1.052   1.293  0.00  0.00     0.002 A 
ENDROOT
BRANCH   1   7
ATOM      7  C1  UNL d   1      -0.993   1.073   1.184  0.00  0.00     0.055 C 
ATOM      8  C   UNL d   1      -2.123   0.194   1.701  0.00  0.00     0.019 C 
ENDBRANCH   1   7
TORSDOF 1
ENDMDL
