MODEL 1
REMARK minimizedAffinity 3.70040703
REMARK minimizedRMSD -1
REMARK  1 active torsions:
REMARK  status: ('A' for Active; 'I' for Inactive)
REMARK    1  A    between atoms: C1_2  and  C2_3 
ROOT
ATOM      1  C2  UNL d   1      -1.218  -1.622   1.090  0.00  0.00    -0.077 A 
ATOM      2  C3  UNL d   1      -1.527  -0.288   0.789  0.00  0.00     0.002 A 
ATOM      3  C4  UNL d   1      -2.188   0.033  -0.398  0.00  0.00     0.002 A 
ATOM      4  C5  UNL d   1      -2.550  -0.973  -1.290  0.00  0.00    -0.004 A 
ATOM      5  C6  UNL d   1      -2.245  -2.303  -1.001  0.00  0.00     0.002 A 
ATOM      6  C7  UNL d   1      -1.583  -2.626   0.184  0.00  0.00     0.002 A 
ENDROOT
BRANCH   1   7
ATOM      7  C1  UNL d   1      -0.548  -1.975   2.392  0.00  0.00     0.055 C 
ATOM      8  C   UNL d   1      -1.144  -1.191   3.552  0.00  0.00     0.019 C 
ENDBRANCH   1   7
TORSDOF 1
ENDMDL
