MODEL 1
REMARK minimizedAffinity 3.34005094
REMARK minimizedRMSD -1
REMARK  1 active torsions:
REMARK  status: ('A' for Active; 'I' for Inactive)
REMARK    1  A    between atoms: C1_2  and  C2_3 
ROOT
ATOM      1  C2  UNL d   1      -3.079   0.205  -1.067  0.00  0.00    -0.077 A 
ATOM      2  C3  UNL d   1      -2.790  -1.167  -1.086  0.00  0.00     0.002 A 
ATOM      3  C4  UNL d   1      -2.308  -1.803   0.059  0.00  0.00     0.002 A 
ATOM      4  C5  UNL d   1      -2.114  -1.077   1.232  0.00  0.00    -0.004 A 
ATOM      5  C6  UNL d   1      -2.396   0.288   1.261  0.00  0.00     0.002 A 
ATOM      6  C7  UNL d   1      -2.877   0.926   0.116  0.00  0.00     0.002 A 
ENDROOT
BRANCH   1   7
ATOM      7  C1  UNL d   1      -3.645   0.883  -2.287  0.00  0.00     0.055 C 
ATOM      8  C   UNL d   1      -2.830   2.111  -2.667  0.00  0.00     0.019 C 
ENDBRANCH   1   7
TORSDOF 1
ENDMDL
