MODEL 1
REMARK minimizedAffinity 4.65704823
REMARK minimizedRMSD -1
REMARK  1 active torsions:
REMARK  status: ('A' for Active; 'I' for Inactive)
REMARK    1  A    between atoms: C1_2  and  C2_3 
ROOT
ATOM      1  C2  UNL d   1      -2.982   1.390  -0.767  0.00  0.00    -0.077 A 
ATOM      2  C3  UNL d   1      -1.806   2.063  -1.128  0.00  0.00     0.002 A 
ATOM      3  C4  UNL d   1      -1.602   2.468  -2.449  0.00  0.00     0.002 A 
ATOM      4  C5  UNL d   1      -2.570   2.208  -3.417  0.00  0.00    -0.004 A 
ATOM      5  C6  UNL d   1      -3.741   1.538  -3.068  0.00  0.00     0.002 A 
ATOM      6  C7  UNL d   1      -3.947   1.131  -1.749  0.00  0.00     0.002 A 
ENDROOT
BRANCH   1   7
ATOM      7  C1  UNL d   1      -3.226   0.996   0.666  0.00  0.00     0.055 C 
ATOM      8  C   UNL d   1      -1.942   1.047   1.481  0.00  0.00     0.019 C 
ENDBRANCH   1   7
TORSDOF 1
ENDMDL
