MODEL 1
REMARK minimizedAffinity -2.64052391
REMARK minimizedRMSD -1
REMARK  0 active torsions:
REMARK  status: ('A' for Active; 'I' for Inactive)
ROOT
ATOM      1  O1  BZF d   1      -0.393  -1.068  -0.733  0.00  0.00    -0.204 OA
ATOM      2  C2  BZF d   1       0.732  -0.266  -0.691  0.00  0.00     0.174 A 
ATOM      3  C3  BZF d   1       0.540   0.784   0.133  0.00  0.00    -0.012 A 
ATOM      4  C3A BZF d   1      -0.753   0.580   0.709  0.00  0.00    -0.107 A 
ATOM      5  C4  BZF d   1      -1.497   1.277   1.617  0.00  0.00     0.055 A 
ATOM      6  C5  BZF d   1      -2.752   0.848   1.912  0.00  0.00    -0.016 A 
ATOM      7  C6  BZF d   1      -3.296  -0.270   1.314  0.00  0.00     0.022 A 
ATOM      8  C7  BZF d   1      -2.595  -0.997   0.411  0.00  0.00     0.029 A 
ATOM      9  C7A BZF d   1      -1.314  -0.585   0.136  0.00  0.00     0.058 A 
ENDROOT
TORSDOF 0
ENDMDL
