MODEL 1
REMARK minimizedAffinity -4.27396488
REMARK minimizedRMSD -1
REMARK  0 active torsions:
REMARK  status: ('A' for Active; 'I' for Inactive)
ROOT
ATOM      1  O1  BZF d   1      -0.253  -0.918   0.140  0.00  0.00    -0.204 OA
ATOM      2  C2  BZF d   1      -0.306   0.119   1.052  0.00  0.00     0.174 A 
ATOM      3  C3  BZF d   1       0.436   1.164   0.632  0.00  0.00    -0.012 A 
ATOM      4  C3A BZF d   1       0.912   0.790  -0.665  0.00  0.00    -0.107 A 
ATOM      5  C4  BZF d   1       1.688   1.418  -1.597  0.00  0.00     0.055 A 
ATOM      6  C5  BZF d   1       2.030   0.750  -2.730  0.00  0.00    -0.016 A 
ATOM      7  C6  BZF d   1       1.618  -0.547  -2.961  0.00  0.00     0.022 A 
ATOM      8  C7  BZF d   1       0.843  -1.209  -2.067  0.00  0.00     0.029 A 
ATOM      9  C7A BZF d   1       0.469  -0.525  -0.937  0.00  0.00     0.058 A 
ENDROOT
TORSDOF 0
ENDMDL
