MODEL 1
REMARK minimizedAffinity -3.7375586
REMARK minimizedRMSD -1
REMARK  0 active torsions:
REMARK  status: ('A' for Active; 'I' for Inactive)
ROOT
ATOM      1  O1  BZF d   1       1.284   0.897   1.215  0.00  0.00    -0.204 OA
ATOM      2  C2  BZF d   1       0.404   0.049   1.860  0.00  0.00     0.174 A 
ATOM      3  C3  BZF d   1      -0.259  -0.719   0.971  0.00  0.00    -0.012 A 
ATOM      4  C3A BZF d   1       0.303  -0.391  -0.303  0.00  0.00    -0.107 A 
ATOM      5  C4  BZF d   1       0.071  -0.834  -1.573  0.00  0.00     0.055 A 
ATOM      6  C5  BZF d   1       0.740  -0.258  -2.606  0.00  0.00    -0.016 A 
ATOM      7  C6  BZF d   1       1.643   0.766  -2.406  0.00  0.00     0.022 A 
ATOM      8  C7  BZF d   1       1.911   1.235  -1.163  0.00  0.00     0.029 A 
ATOM      9  C7A BZF d   1       1.261   0.632  -0.114  0.00  0.00     0.058 A 
ENDROOT
TORSDOF 0
ENDMDL
