MODEL 1
REMARK minimizedAffinity -2.65602636
REMARK minimizedRMSD -1
REMARK  0 active torsions:
REMARK  status: ('A' for Active; 'I' for Inactive)
ROOT
ATOM      1  O1  BZF d   1       2.311   0.715  -2.268  0.00  0.00    -0.204 OA
ATOM      2  C2  BZF d   1       2.547  -0.315  -3.159  0.00  0.00     0.174 A 
ATOM      3  C3  BZF d   1       2.068  -1.481  -2.680  0.00  0.00    -0.012 A 
ATOM      4  C3A BZF d   1       1.415  -1.144  -1.452  0.00  0.00    -0.107 A 
ATOM      5  C4  BZF d   1       0.733  -1.873  -0.520  0.00  0.00     0.055 A 
ATOM      6  C5  BZF d   1       0.283  -1.254   0.603  0.00  0.00    -0.016 A 
ATOM      7  C6  BZF d   1       0.502   0.090   0.829  0.00  0.00     0.022 A 
ATOM      8  C7  BZF d   1       1.170   0.855  -0.068  0.00  0.00     0.029 A 
ATOM      9  C7A BZF d   1       1.597   0.239  -1.220  0.00  0.00     0.058 A 
ENDROOT
TORSDOF 0
ENDMDL
