MODEL 1
REMARK minimizedAffinity -6.09210062
REMARK minimizedRMSD -1
REMARK  0 active torsions:
REMARK  status: ('A' for Active; 'I' for Inactive)
ROOT
ATOM      1  O1  BZF d   1       0.750  -2.033   0.738  0.00  0.00    -0.204 OA
ATOM      2  C2  BZF d   1       0.481  -0.956   1.560  0.00  0.00     0.174 A 
ATOM      3  C3  BZF d   1       0.750   0.206   0.930  0.00  0.00    -0.012 A 
ATOM      4  C3A BZF d   1       1.128  -0.166  -0.399  0.00  0.00    -0.107 A 
ATOM      5  C4  BZF d   1       1.496   0.547  -1.504  0.00  0.00     0.055 A 
ATOM      6  C5  BZF d   1       1.875  -0.122  -2.625  0.00  0.00    -0.016 A 
ATOM      7  C6  BZF d   1       1.903  -1.500  -2.674  0.00  0.00     0.022 A 
ATOM      8  C7  BZF d   1       1.542  -2.250  -1.604  0.00  0.00     0.029 A 
ATOM      9  C7A BZF d   1       1.127  -1.577  -0.481  0.00  0.00     0.058 A 
ENDROOT
TORSDOF 0
ENDMDL
