MODEL 1
REMARK minimizedAffinity -3.51258421
REMARK minimizedRMSD -1
REMARK  0 active torsions:
REMARK  status: ('A' for Active; 'I' for Inactive)
ROOT
ATOM      1  O1  BZF d   1       0.183   0.546   1.134  0.00  0.00    -0.204 OA
ATOM      2  C2  BZF d   1      -0.747  -0.465   1.281  0.00  0.00     0.174 A 
ATOM      3  C3  BZF d   1      -0.846  -1.192   0.150  0.00  0.00    -0.012 A 
ATOM      4  C3A BZF d   1       0.146  -0.656  -0.731  0.00  0.00    -0.107 A 
ATOM      5  C4  BZF d   1       0.544  -0.969  -1.999  0.00  0.00     0.055 A 
ATOM      6  C5  BZF d   1       1.492  -0.204  -2.602  0.00  0.00    -0.016 A 
ATOM      7  C6  BZF d   1       2.058   0.883  -1.969  0.00  0.00     0.022 A 
ATOM      8  C7  BZF d   1       1.699   1.230  -0.709  0.00  0.00     0.029 A 
ATOM      9  C7A BZF d   1       0.765   0.439  -0.084  0.00  0.00     0.058 A 
ENDROOT
TORSDOF 0
ENDMDL
