MODEL 1
REMARK minimizedAffinity -2.82145667
REMARK minimizedRMSD -1
REMARK  0 active torsions:
REMARK  status: ('A' for Active; 'I' for Inactive)
ROOT
ATOM      1  O1  BZF d   1      -2.909   0.264   1.537  0.00  0.00    -0.204 OA
ATOM      2  C2  BZF d   1      -3.696   1.064   0.731  0.00  0.00     0.174 A 
ATOM      3  C3  BZF d   1      -3.059   1.357  -0.421  0.00  0.00    -0.012 A 
ATOM      4  C3A BZF d   1      -1.832   0.623  -0.369  0.00  0.00    -0.107 A 
ATOM      5  C4  BZF d   1      -0.780   0.492  -1.230  0.00  0.00     0.055 A 
ATOM      6  C5  BZF d   1       0.298  -0.242  -0.848  0.00  0.00    -0.016 A 
ATOM      7  C6  BZF d   1       0.360  -0.853   0.388  0.00  0.00     0.022 A 
ATOM      8  C7  BZF d   1      -0.662  -0.756   1.273  0.00  0.00     0.029 A 
ATOM      9  C7A BZF d   1      -1.766  -0.042   0.877  0.00  0.00     0.058 A 
ENDROOT
TORSDOF 0
ENDMDL
