MODEL 1
REMARK minimizedAffinity -3.54794312
REMARK minimizedRMSD -1
REMARK  0 active torsions:
REMARK  status: ('A' for Active; 'I' for Inactive)
ROOT
ATOM      1  O1  BZF d   1      -1.189   1.516  -0.480  0.00  0.00    -0.204 OA
ATOM      2  C2  BZF d   1      -1.656   1.472   0.819  0.00  0.00     0.174 A 
ATOM      3  C3  BZF d   1      -1.450   0.255   1.362  0.00  0.00    -0.012 A 
ATOM      4  C3A BZF d   1      -0.730  -0.482   0.369  0.00  0.00    -0.107 A 
ATOM      5  C4  BZF d   1      -0.224  -1.749   0.324  0.00  0.00     0.055 A 
ATOM      6  C5  BZF d   1       0.362  -2.187  -0.822  0.00  0.00    -0.016 A 
ATOM      7  C6  BZF d   1       0.453  -1.386  -1.942  0.00  0.00     0.022 A 
ATOM      8  C7  BZF d   1      -0.030  -0.120  -1.944  0.00  0.00     0.029 A 
ATOM      9  C7A BZF d   1      -0.593   0.336  -0.777  0.00  0.00     0.058 A 
ENDROOT
TORSDOF 0
ENDMDL
