MODEL 1
REMARK minimizedAffinity -0.38721627
REMARK minimizedRMSD -1
REMARK  0 active torsions:
REMARK  status: ('A' for Active; 'I' for Inactive)
ROOT
ATOM      1  O1  BZF d   1      -1.308  -0.658  -0.246  0.00  0.00    -0.204 OA
ATOM      2  C2  BZF d   1       0.007  -0.343   0.037  0.00  0.00     0.174 A 
ATOM      3  C3  BZF d   1       0.078   0.565   1.033  0.00  0.00    -0.012 A 
ATOM      4  C3A BZF d   1      -1.274   0.764   1.456  0.00  0.00    -0.107 A 
ATOM      5  C4  BZF d   1      -1.851   1.538   2.423  0.00  0.00     0.055 A 
ATOM      6  C5  BZF d   1      -3.205   1.560   2.531  0.00  0.00    -0.016 A 
ATOM      7  C6  BZF d   1      -4.013   0.826   1.687  0.00  0.00     0.022 A 
ATOM      8  C7  BZF d   1      -3.487   0.040   0.716  0.00  0.00     0.029 A 
ATOM      9  C7A BZF d   1      -2.117  -0.010   0.626  0.00  0.00     0.058 A 
ENDROOT
TORSDOF 0
ENDMDL
