MODEL 1
REMARK minimizedAffinity -4.41783047
REMARK minimizedRMSD -1
REMARK  0 active torsions:
REMARK  status: ('A' for Active; 'I' for Inactive)
ROOT
ATOM      1  O1  BZF d   1      -3.767   3.721   3.148  0.00  0.00    -0.204 OA
ATOM      2  C2  BZF d   1      -2.568   4.121   3.708  0.00  0.00     0.174 A 
ATOM      3  C3  BZF d   1      -1.646   3.142   3.613  0.00  0.00    -0.012 A 
ATOM      4  C3A BZF d   1      -2.281   2.097   2.871  0.00  0.00    -0.107 A 
ATOM      5  C4  BZF d   1      -1.870   0.868   2.439  0.00  0.00     0.055 A 
ATOM      6  C5  BZF d   1      -2.758   0.061   1.801  0.00  0.00    -0.016 A 
ATOM      7  C6  BZF d   1      -4.064   0.448   1.583  0.00  0.00     0.022 A 
ATOM      8  C7  BZF d   1      -4.517   1.659   1.989  0.00  0.00     0.029 A 
ATOM      9  C7A BZF d   1      -3.613   2.490   2.604  0.00  0.00     0.058 A 
ENDROOT
TORSDOF 0
ENDMDL
