MODEL 1
REMARK minimizedAffinity -4.73832607
REMARK minimizedRMSD -1
REMARK  0 active torsions:
REMARK  status: ('A' for Active; 'I' for Inactive)
ROOT
ATOM      1  O1  BZF d   1      -0.618  -0.717   0.588  0.00  0.00    -0.204 OA
ATOM      2  C2  BZF d   1      -0.465   0.522   1.179  0.00  0.00     0.174 A 
ATOM      3  C3  BZF d   1       0.419   1.274   0.491  0.00  0.00    -0.012 A 
ATOM      4  C3A BZF d   1       0.775   0.487  -0.650  0.00  0.00    -0.107 A 
ATOM      5  C4  BZF d   1       1.604   0.698  -1.714  0.00  0.00     0.055 A 
ATOM      6  C5  BZF d   1       1.786  -0.302  -2.617  0.00  0.00    -0.016 A 
ATOM      7  C6  BZF d   1       1.161  -1.524  -2.484  0.00  0.00     0.022 A 
ATOM      8  C7  BZF d   1       0.326  -1.778  -1.447  0.00  0.00     0.029 A 
ATOM      9  C7A BZF d   1       0.114  -0.759  -0.551  0.00  0.00     0.058 A 
ENDROOT
TORSDOF 0
ENDMDL
