MODEL 1
REMARK minimizedAffinity -2.77011871
REMARK minimizedRMSD -1
REMARK  0 active torsions:
REMARK  status: ('A' for Active; 'I' for Inactive)
ROOT
ATOM      1  O1  BZF d   1      -4.456   3.366   3.497  0.00  0.00    -0.204 OA
ATOM      2  C2  BZF d   1      -3.480   3.921   4.302  0.00  0.00     0.174 A 
ATOM      3  C3  BZF d   1      -2.366   3.160   4.296  0.00  0.00    -0.012 A 
ATOM      4  C3A BZF d   1      -2.632   2.110   3.361  0.00  0.00    -0.107 A 
ATOM      5  C4  BZF d   1      -1.903   1.048   2.909  0.00  0.00     0.055 A 
ATOM      6  C5  BZF d   1      -2.480   0.168   2.050  0.00  0.00    -0.016 A 
ATOM      7  C6  BZF d   1      -3.785   0.315   1.628  0.00  0.00     0.022 A 
ATOM      8  C7  BZF d   1      -4.547   1.355   2.045  0.00  0.00     0.029 A 
ATOM      9  C7A BZF d   1      -3.956   2.265   2.887  0.00  0.00     0.058 A 
ENDROOT
TORSDOF 0
ENDMDL
