MODEL 1
REMARK minimizedAffinity -2.55075264
REMARK minimizedRMSD -1
REMARK  0 active torsions:
REMARK  status: ('A' for Active; 'I' for Inactive)
ROOT
ATOM      1  O1  BZF d   1      -3.852   3.272   2.558  0.00  0.00    -0.204 OA
ATOM      2  C2  BZF d   1      -2.858   3.803   3.358  0.00  0.00     0.174 A 
ATOM      3  C3  BZF d   1      -1.818   2.950   3.458  0.00  0.00    -0.012 A 
ATOM      4  C3A BZF d   1      -2.145   1.855   2.597  0.00  0.00    -0.107 A 
ATOM      5  C4  BZF d   1      -1.498   0.700   2.260  0.00  0.00     0.055 A 
ATOM      6  C5  BZF d   1      -2.123  -0.194   1.449  0.00  0.00    -0.016 A 
ATOM      7  C6  BZF d   1      -3.394   0.032   0.963  0.00  0.00     0.022 A 
ATOM      8  C7  BZF d   1      -4.073   1.165   1.265  0.00  0.00     0.029 A 
ATOM      9  C7A BZF d   1      -3.431   2.085   2.058  0.00  0.00     0.058 A 
ENDROOT
TORSDOF 0
ENDMDL
