MODEL 1
REMARK minimizedAffinity -0.82418251
REMARK minimizedRMSD -1
REMARK  0 active torsions:
REMARK  status: ('A' for Active; 'I' for Inactive)
ROOT
ATOM      1  O1  BZF d   1      -0.861  -0.966   0.723  0.00  0.00    -0.204 OA
ATOM      2  C2  BZF d   1      -1.278   0.107   1.486  0.00  0.00     0.174 A 
ATOM      3  C3  BZF d   1      -0.546   1.205   1.208  0.00  0.00    -0.012 A 
ATOM      4  C3A BZF d   1       0.326   0.816   0.142  0.00  0.00    -0.107 A 
ATOM      5  C4  BZF d   1       1.281   1.476  -0.577  0.00  0.00     0.055 A 
ATOM      6  C5  BZF d   1       2.005   0.788  -1.500  0.00  0.00    -0.016 A 
ATOM      7  C6  BZF d   1       1.803  -0.558  -1.725  0.00  0.00     0.022 A 
ATOM      8  C7  BZF d   1       0.864  -1.253  -1.039  0.00  0.00     0.029 A 
ATOM      9  C7A BZF d   1       0.108  -0.554  -0.129  0.00  0.00     0.058 A 
ENDROOT
TORSDOF 0
ENDMDL
