MODEL 1
REMARK minimizedAffinity -5.0321703
REMARK minimizedRMSD -1
REMARK  0 active torsions:
REMARK  status: ('A' for Active; 'I' for Inactive)
ROOT
ATOM      1  O1  BZF d   1      -1.730  -0.231  -0.293  0.00  0.00    -0.204 OA
ATOM      2  C2  BZF d   1      -1.648  -0.085   1.078  0.00  0.00     0.174 A 
ATOM      3  C3  BZF d   1      -0.397   0.254   1.449  0.00  0.00    -0.012 A 
ATOM      4  C3A BZF d   1       0.328   0.415   0.226  0.00  0.00    -0.107 A 
ATOM      5  C4  BZF d   1       1.617   0.762  -0.062  0.00  0.00     0.055 A 
ATOM      6  C5  BZF d   1       2.028   0.756  -1.357  0.00  0.00    -0.016 A 
ATOM      7  C6  BZF d   1       1.181   0.403  -2.387  0.00  0.00     0.022 A 
ATOM      8  C7  BZF d   1      -0.108   0.056  -2.150  0.00  0.00     0.029 A 
ATOM      9  C7A BZF d   1      -0.536   0.093  -0.846  0.00  0.00     0.058 A 
ENDROOT
TORSDOF 0
ENDMDL
