MODEL 1
REMARK minimizedAffinity 0.969108284
REMARK minimizedRMSD -1
REMARK  0 active torsions:
REMARK  status: ('A' for Active; 'I' for Inactive)
ROOT
ATOM      1  O1  BZF d   1      -1.907  -0.195   0.949  0.00  0.00    -0.204 OA
ATOM      2  C2  BZF d   1      -2.502   1.039   0.767  0.00  0.00     0.174 A 
ATOM      3  C3  BZF d   1      -1.664   1.886   0.136  0.00  0.00    -0.012 A 
ATOM      4  C3A BZF d   1      -0.504   1.107  -0.174  0.00  0.00    -0.107 A 
ATOM      5  C4  BZF d   1       0.670   1.385  -0.812  0.00  0.00     0.055 A 
ATOM      6  C5  BZF d   1       1.627   0.422  -0.884  0.00  0.00    -0.016 A 
ATOM      7  C6  BZF d   1       1.445  -0.826  -0.325  0.00  0.00     0.022 A 
ATOM      8  C7  BZF d   1       0.294  -1.150   0.314  0.00  0.00     0.029 A 
ATOM      9  C7A BZF d   1      -0.687  -0.190   0.360  0.00  0.00     0.058 A 
ENDROOT
TORSDOF 0
ENDMDL
