MODEL 1
REMARK minimizedAffinity -3.49821758
REMARK minimizedRMSD -1
REMARK  0 active torsions:
REMARK  status: ('A' for Active; 'I' for Inactive)
ROOT
ATOM      1  O1  BZF d   1       0.146  -1.337   0.056  0.00  0.00    -0.204 OA
ATOM      2  C2  BZF d   1      -0.331  -0.662   1.163  0.00  0.00     0.174 A 
ATOM      3  C3  BZF d   1       0.024   0.639   1.119  0.00  0.00    -0.012 A 
ATOM      4  C3A BZF d   1       0.691   0.805  -0.136  0.00  0.00    -0.107 A 
ATOM      5  C4  BZF d   1       1.261   1.876  -0.762  0.00  0.00     0.055 A 
ATOM      6  C5  BZF d   1       1.894   1.688  -1.949  0.00  0.00    -0.016 A 
ATOM      7  C6  BZF d   1       1.982   0.442  -2.536  0.00  0.00     0.022 A 
ATOM      8  C7  BZF d   1       1.428  -0.650  -1.955  0.00  0.00     0.029 A 
ATOM      9  C7A BZF d   1       0.758  -0.457  -0.772  0.00  0.00     0.058 A 
ENDROOT
TORSDOF 0
ENDMDL
