MODEL 1
REMARK minimizedAffinity -4.81483936
REMARK minimizedRMSD -1
REMARK  0 active torsions:
REMARK  status: ('A' for Active; 'I' for Inactive)
ROOT
ATOM      1  O1  BZF d   1       2.370   0.958  -1.675  0.00  0.00    -0.204 OA
ATOM      2  C2  BZF d   1       2.120   0.389  -2.908  0.00  0.00     0.174 A 
ATOM      3  C3  BZF d   1       1.157  -0.551  -2.815  0.00  0.00    -0.012 A 
ATOM      4  C3A BZF d   1       0.718  -0.506  -1.454  0.00  0.00    -0.107 A 
ATOM      5  C4  BZF d   1      -0.232  -1.191  -0.751  0.00  0.00     0.055 A 
ATOM      6  C5  BZF d   1      -0.362  -0.959   0.582  0.00  0.00    -0.016 A 
ATOM      7  C6  BZF d   1       0.443  -0.055   1.243  0.00  0.00     0.022 A 
ATOM      8  C7  BZF d   1       1.395   0.653   0.587  0.00  0.00     0.029 A 
ATOM      9  C7A BZF d   1       1.507   0.445  -0.766  0.00  0.00     0.058 A 
ENDROOT
TORSDOF 0
ENDMDL
