MODEL 1
REMARK minimizedAffinity -3.31604862
REMARK minimizedRMSD -1
REMARK  0 active torsions:
REMARK  status: ('A' for Active; 'I' for Inactive)
ROOT
ATOM      1  C2' OXE d   1       1.588  -0.726   3.056  0.00  0.00     0.078 C 
ATOM      2  C1' OXE d   1       1.706  -1.679   0.418  0.00  0.00     0.078 C 
ATOM      3  C1  OXE d   1       0.512  -0.847   0.813  0.00  0.00    -0.078 A 
ATOM      4  C2  OXE d   1       0.439  -0.423   2.118  0.00  0.00    -0.078 A 
ATOM      5  C3  OXE d   1      -0.614   0.393   2.520  0.00  0.00     0.003 A 
ATOM      6  C4  OXE d   1      -1.677   0.660   1.649  0.00  0.00    -0.002 A 
ATOM      7  C5  OXE d   1      -1.642   0.205   0.326  0.00  0.00    -0.002 A 
ATOM      8  C6  OXE d   1      -0.537  -0.512  -0.119  0.00  0.00     0.003 A 
ENDROOT
TORSDOF 0
ENDMDL
