MODEL 1
REMARK minimizedAffinity -3.51889849
REMARK minimizedRMSD -1
REMARK  0 active torsions:
REMARK  status: ('A' for Active; 'I' for Inactive)
ROOT
ATOM      1  C2' OXE d   1       0.787   0.343  -3.125  0.00  0.00     0.078 C 
ATOM      2  C1' OXE d   1       1.269  -1.557  -1.115  0.00  0.00     0.078 C 
ATOM      3  C1  OXE d   1       0.227  -0.500  -0.848  0.00  0.00    -0.078 A 
ATOM      4  C2  OXE d   1       0.031   0.454  -1.818  0.00  0.00    -0.078 A 
ATOM      5  C3  OXE d   1      -0.956   1.420  -1.646  0.00  0.00     0.003 A 
ATOM      6  C4  OXE d   1      -1.644   1.521  -0.431  0.00  0.00    -0.002 A 
ATOM      7  C5  OXE d   1      -1.432   0.584   0.586  0.00  0.00    -0.002 A 
ATOM      8  C6  OXE d   1      -0.532  -0.456   0.377  0.00  0.00     0.003 A 
ENDROOT
TORSDOF 0
ENDMDL
