MODEL 1
REMARK minimizedAffinity -3.26648736
REMARK minimizedRMSD -1
REMARK  0 active torsions:
REMARK  status: ('A' for Active; 'I' for Inactive)
ROOT
ATOM      1  C2' OXE d   1       0.865   0.523  -2.953  0.00  0.00     0.078 C 
ATOM      2  C1' OXE d   1       0.562  -1.997  -1.755  0.00  0.00     0.078 C 
ATOM      3  C1  OXE d   1      -0.142  -0.826  -1.117  0.00  0.00    -0.078 A 
ATOM      4  C2  OXE d   1       0.050   0.411  -1.683  0.00  0.00    -0.078 A 
ATOM      5  C3  OXE d   1      -0.621   1.517  -1.167  0.00  0.00     0.003 A 
ATOM      6  C4  OXE d   1      -1.366   1.406   0.014  0.00  0.00    -0.002 A 
ATOM      7  C5  OXE d   1      -1.541   0.162   0.629  0.00  0.00    -0.002 A 
ATOM      8  C6  OXE d   1      -0.973  -0.969   0.053  0.00  0.00     0.003 A 
ENDROOT
TORSDOF 0
ENDMDL
