MODEL 1
REMARK minimizedAffinity 1.86323178
REMARK minimizedRMSD -1
REMARK  0 active torsions:
REMARK  status: ('A' for Active; 'I' for Inactive)
ROOT
ATOM      1  C2' OXE d   1       0.742  -0.039  -2.896  0.00  0.00     0.078 C 
ATOM      2  C1' OXE d   1       1.467  -1.340  -0.517  0.00  0.00     0.078 C 
ATOM      3  C1  OXE d   1       0.217  -0.495  -0.504  0.00  0.00    -0.078 A 
ATOM      4  C2  OXE d   1      -0.104   0.176  -1.660  0.00  0.00    -0.078 A 
ATOM      5  C3  OXE d   1      -1.276   0.925  -1.719  0.00  0.00     0.003 A 
ATOM      6  C4  OXE d   1      -2.047   1.127  -0.568  0.00  0.00    -0.002 A 
ATOM      7  C5  OXE d   1      -1.715   0.485   0.630  0.00  0.00    -0.002 A 
ATOM      8  C6  OXE d   1      -0.613  -0.361   0.668  0.00  0.00     0.003 A 
ENDROOT
TORSDOF 0
ENDMDL
