MODEL 1
REMARK minimizedAffinity -3.17414308
REMARK minimizedRMSD -1
REMARK  0 active torsions:
REMARK  status: ('A' for Active; 'I' for Inactive)
ROOT
ATOM      1  C2' OXE d   1       0.153  -0.117  -0.753  0.00  0.00     0.078 C 
ATOM      2  C1' OXE d   1      -2.105   0.681   0.711  0.00  0.00     0.078 C 
ATOM      3  C1  OXE d   1      -0.876   0.268   1.483  0.00  0.00    -0.078 A 
ATOM      4  C2  OXE d   1       0.208  -0.165   0.759  0.00  0.00    -0.078 A 
ATOM      5  C3  OXE d   1       1.386  -0.505   1.419  0.00  0.00     0.003 A 
ATOM      6  C4  OXE d   1       1.425  -0.557   2.817  0.00  0.00    -0.002 A 
ATOM      7  C5  OXE d   1       0.318  -0.158   3.574  0.00  0.00    -0.002 A 
ATOM      8  C6  OXE d   1      -0.823   0.297   2.923  0.00  0.00     0.003 A 
ENDROOT
TORSDOF 0
ENDMDL
