MODEL 1
REMARK minimizedAffinity -2.35776711
REMARK minimizedRMSD -1
REMARK  0 active torsions:
REMARK  status: ('A' for Active; 'I' for Inactive)
ROOT
ATOM      1  C2' OXE d   1       0.978  -0.668   4.086  0.00  0.00     0.078 C 
ATOM      2  C1' OXE d   1       2.221  -1.252   1.638  0.00  0.00     0.078 C 
ATOM      3  C1  OXE d   1       0.810  -0.721   1.602  0.00  0.00    -0.078 A 
ATOM      4  C2  OXE d   1       0.193  -0.482   2.806  0.00  0.00    -0.078 A 
ATOM      5  C3  OXE d   1      -1.089   0.061   2.828  0.00  0.00     0.003 A 
ATOM      6  C4  OXE d   1      -1.812   0.220   1.640  0.00  0.00    -0.002 A 
ATOM      7  C5  OXE d   1      -1.216  -0.055   0.404  0.00  0.00    -0.002 A 
ATOM      8  C6  OXE d   1       0.106  -0.485   0.366  0.00  0.00     0.003 A 
ENDROOT
TORSDOF 0
ENDMDL
