MODEL 1
REMARK minimizedAffinity -3.78374267
REMARK minimizedRMSD -1
REMARK  0 active torsions:
REMARK  status: ('A' for Active; 'I' for Inactive)
ROOT
ATOM      1  C2' OXE d   1       1.192   0.686  -2.109  0.00  0.00     0.078 C 
ATOM      2  C1' OXE d   1       0.791  -1.649  -0.603  0.00  0.00     0.078 C 
ATOM      3  C1  OXE d   1      -0.110  -0.471  -0.328  0.00  0.00    -0.078 A 
ATOM      4  C2  OXE d   1       0.124   0.683  -1.037  0.00  0.00    -0.078 A 
ATOM      5  C3  OXE d   1      -0.713   1.782  -0.862  0.00  0.00     0.003 A 
ATOM      6  C4  OXE d   1      -1.692   1.774   0.139  0.00  0.00    -0.002 A 
ATOM      7  C5  OXE d   1      -1.921   0.623   0.899  0.00  0.00    -0.002 A 
ATOM      8  C6  OXE d   1      -1.168  -0.520   0.650  0.00  0.00     0.003 A 
ENDROOT
TORSDOF 0
ENDMDL
