MODEL 1
REMARK minimizedAffinity -0.0874101222
REMARK minimizedRMSD -1
REMARK  0 active torsions:
REMARK  status: ('A' for Active; 'I' for Inactive)
ROOT
ATOM      1  C2' OXE d   1      -0.876  -0.429  -0.533  0.00  0.00     0.078 C 
ATOM      2  C1' OXE d   1       1.814   0.345  -0.327  0.00  0.00     0.078 C 
ATOM      3  C1  OXE d   1       1.238   0.165  -1.709  0.00  0.00    -0.078 A 
ATOM      4  C2  OXE d   1      -0.066  -0.259  -1.800  0.00  0.00    -0.078 A 
ATOM      5  C3  OXE d   1      -0.664  -0.387  -3.050  0.00  0.00     0.003 A 
ATOM      6  C4  OXE d   1       0.095  -0.237  -4.217  0.00  0.00    -0.002 A 
ATOM      7  C5  OXE d   1       1.436   0.156  -4.147  0.00  0.00    -0.002 A 
ATOM      8  C6  OXE d   1       2.009   0.402  -2.904  0.00  0.00     0.003 A 
ENDROOT
TORSDOF 0
ENDMDL
