MODEL 1
REMARK minimizedAffinity -0.970657945
REMARK minimizedRMSD -1
REMARK  0 active torsions:
REMARK  status: ('A' for Active; 'I' for Inactive)
ROOT
ATOM      1  C2' OXE d   1       0.756  -0.947  -0.545  0.00  0.00     0.078 C 
ATOM      2  C1' OXE d   1       2.134  -1.062   1.898  0.00  0.00     0.078 C 
ATOM      3  C1  OXE d   1       0.685  -0.643   1.926  0.00  0.00    -0.078 A 
ATOM      4  C2  OXE d   1       0.032  -0.544   0.721  0.00  0.00    -0.078 A 
ATOM      5  C3  OXE d   1      -1.320  -0.215   0.695  0.00  0.00     0.003 A 
ATOM      6  C4  OXE d   1      -1.980   0.166   1.869  0.00  0.00    -0.002 A 
ATOM      7  C5  OXE d   1      -1.322   0.111   3.103  0.00  0.00    -0.002 A 
ATOM      8  C6  OXE d   1      -0.005  -0.331   3.154  0.00  0.00     0.003 A 
ENDROOT
TORSDOF 0
ENDMDL
