MODEL 1
REMARK minimizedAffinity -4.71642351
REMARK minimizedRMSD -1
REMARK  0 active torsions:
REMARK  status: ('A' for Active; 'I' for Inactive)
ROOT
ATOM      1  C2' OXE d   1       1.859  -1.323   0.952  0.00  0.00     0.078 C 
ATOM      2  C1' OXE d   1       1.014  -0.817   3.581  0.00  0.00     0.078 C 
ATOM      3  C1  OXE d   1       0.136  -0.334   2.454  0.00  0.00    -0.078 A 
ATOM      4  C2  OXE d   1       0.580  -0.545   1.171  0.00  0.00    -0.078 A 
ATOM      5  C3  OXE d   1      -0.218  -0.168   0.095  0.00  0.00     0.003 A 
ATOM      6  C4  OXE d   1      -1.395   0.561   0.306  0.00  0.00    -0.002 A 
ATOM      7  C5  OXE d   1      -1.845   0.821   1.604  0.00  0.00    -0.002 A 
ATOM      8  C6  OXE d   1      -1.115   0.345   2.687  0.00  0.00     0.003 A 
ENDROOT
TORSDOF 0
ENDMDL
