MODEL 1
REMARK minimizedAffinity -5.42900133
REMARK minimizedRMSD -1
REMARK  0 active torsions:
REMARK  status: ('A' for Active; 'I' for Inactive)
ROOT
ATOM      1  C   UNL d   1       0.526  -0.610  -0.790  0.00  0.00     0.078 C 
ATOM      2  C1  UNL d   1      -0.271   0.507  -0.185  0.00  0.00    -0.077 A 
ATOM      3  C2  UNL d   1      -0.294   1.778  -0.772  0.00  0.00    -0.001 A 
ATOM      4  C3  UNL d   1      -1.033   2.811  -0.192  0.00  0.00     0.003 A 
ATOM      5  C4  UNL d   1      -1.753   2.584   0.979  0.00  0.00    -0.005 A 
ATOM      6  C5  UNL d   1      -1.735   1.323   1.572  0.00  0.00     0.003 A 
ATOM      7  C6  UNL d   1      -0.997   0.289   0.994  0.00  0.00    -0.001 A 
ENDROOT
TORSDOF 0
ENDMDL
