MODEL 1
REMARK minimizedAffinity -4.62520885
REMARK minimizedRMSD -1
REMARK  0 active torsions:
REMARK  status: ('A' for Active; 'I' for Inactive)
ROOT
ATOM      1  C   UNL d   1       0.683  -0.923  -0.796  0.00  0.00     0.078 C 
ATOM      2  C1  UNL d   1      -0.053   0.063   0.060  0.00  0.00    -0.077 A 
ATOM      3  C2  UNL d   1      -0.584   1.238  -0.486  0.00  0.00    -0.001 A 
ATOM      4  C3  UNL d   1      -1.259   2.151   0.325  0.00  0.00     0.003 A 
ATOM      5  C4  UNL d   1      -1.408   1.900   1.687  0.00  0.00    -0.005 A 
ATOM      6  C5  UNL d   1      -0.882   0.735   2.241  0.00  0.00     0.003 A 
ATOM      7  C6  UNL d   1      -0.207  -0.180   1.431  0.00  0.00    -0.001 A 
ENDROOT
TORSDOF 0
ENDMDL
