MODEL 1
REMARK minimizedAffinity -5.02474642
REMARK minimizedRMSD -1
REMARK  0 active torsions:
REMARK  status: ('A' for Active; 'I' for Inactive)
ROOT
ATOM      1  C   UNL d   1      -0.129  -0.905   1.970  0.00  0.00     0.078 C 
ATOM      2  C1  UNL d   1      -0.470   0.382   1.281  0.00  0.00    -0.077 A 
ATOM      3  C2  UNL d   1       0.064   0.690   0.023  0.00  0.00    -0.001 A 
ATOM      4  C3  UNL d   1      -0.254   1.896  -0.603  0.00  0.00     0.003 A 
ATOM      5  C4  UNL d   1      -1.106   2.805   0.021  0.00  0.00    -0.005 A 
ATOM      6  C5  UNL d   1      -1.640   2.509   1.274  0.00  0.00     0.003 A 
ATOM      7  C6  UNL d   1      -1.323   1.303   1.901  0.00  0.00    -0.001 A 
ENDROOT
TORSDOF 0
ENDMDL
