MODEL 1
REMARK minimizedAffinity -5.51138163
REMARK minimizedRMSD -1
REMARK  0 active torsions:
REMARK  status: ('A' for Active; 'I' for Inactive)
ROOT
ATOM      1  C   UNL d   1       0.748  -0.129   0.605  0.00  0.00     0.078 C 
ATOM      2  C1  UNL d   1      -0.458   0.739   0.810  0.00  0.00    -0.077 A 
ATOM      3  C2  UNL d   1      -0.378   2.130   0.667  0.00  0.00    -0.001 A 
ATOM      4  C3  UNL d   1      -1.506   2.926   0.871  0.00  0.00     0.003 A 
ATOM      5  C4  UNL d   1      -2.722   2.341   1.219  0.00  0.00    -0.005 A 
ATOM      6  C5  UNL d   1      -2.811   0.958   1.365  0.00  0.00     0.003 A 
ATOM      7  C6  UNL d   1      -1.684   0.160   1.162  0.00  0.00    -0.001 A 
ENDROOT
TORSDOF 0
ENDMDL
