MODEL 1
REMARK minimizedAffinity -4.73854065
REMARK minimizedRMSD -1
REMARK  0 active torsions:
REMARK  status: ('A' for Active; 'I' for Inactive)
ROOT
ATOM      1  C   UNL d   1       0.238   3.294  -0.682  0.00  0.00     0.078 C 
ATOM      2  C1  UNL d   1      -0.099   2.087   0.142  0.00  0.00    -0.077 A 
ATOM      3  C2  UNL d   1      -0.904   2.195   1.283  0.00  0.00    -0.001 A 
ATOM      4  C3  UNL d   1      -1.202   1.064   2.046  0.00  0.00     0.003 A 
ATOM      5  C4  UNL d   1      -0.699  -0.181   1.677  0.00  0.00    -0.005 A 
ATOM      6  C5  UNL d   1       0.104  -0.298   0.544  0.00  0.00     0.003 A 
ATOM      7  C6  UNL d   1       0.403   0.831  -0.220  0.00  0.00    -0.001 A 
ENDROOT
TORSDOF 0
ENDMDL
