MODEL 1
REMARK minimizedAffinity -5.81216431
REMARK minimizedRMSD -1
REMARK  0 active torsions:
REMARK  status: ('A' for Active; 'I' for Inactive)
ROOT
ATOM      1  C   UNL d   1       0.474  -0.020  -0.906  0.00  0.00     0.078 C 
ATOM      2  C1  UNL d   1      -0.244   1.032  -0.113  0.00  0.00    -0.077 A 
ATOM      3  C2  UNL d   1      -0.442   2.317  -0.633  0.00  0.00    -0.001 A 
ATOM      4  C3  UNL d   1      -1.103   3.288   0.120  0.00  0.00     0.003 A 
ATOM      5  C4  UNL d   1      -1.570   2.986   1.397  0.00  0.00    -0.005 A 
ATOM      6  C5  UNL d   1      -1.376   1.710   1.924  0.00  0.00     0.003 A 
ATOM      7  C6  UNL d   1      -0.715   0.737   1.172  0.00  0.00    -0.001 A 
ENDROOT
TORSDOF 0
ENDMDL
