MODEL 1
REMARK minimizedAffinity -4.51623058
REMARK minimizedRMSD -1
REMARK  0 active torsions:
REMARK  status: ('A' for Active; 'I' for Inactive)
ROOT
ATOM      1  C   UNL d   1      -0.947   3.643   0.162  0.00  0.00     0.078 C 
ATOM      2  C1  UNL d   1      -0.971   2.215   0.620  0.00  0.00    -0.077 A 
ATOM      3  C2  UNL d   1      -1.686   1.836   1.762  0.00  0.00    -0.001 A 
ATOM      4  C3  UNL d   1      -1.692   0.505   2.182  0.00  0.00     0.003 A 
ATOM      5  C4  UNL d   1      -0.983  -0.457   1.467  0.00  0.00    -0.005 A 
ATOM      6  C5  UNL d   1      -0.266  -0.090   0.330  0.00  0.00     0.003 A 
ATOM      7  C6  UNL d   1      -0.259   1.241  -0.092  0.00  0.00    -0.001 A 
ENDROOT
TORSDOF 0
ENDMDL
