MODEL 1
REMARK minimizedAffinity -5.02805042
REMARK minimizedRMSD -1
REMARK  0 active torsions:
REMARK  status: ('A' for Active; 'I' for Inactive)
ROOT
ATOM      1  C   UNL d   1       0.487  -0.423  -0.055  0.00  0.00     0.078 C 
ATOM      2  C1  UNL d   1      -0.426   0.706   0.320  0.00  0.00    -0.077 A 
ATOM      3  C2  UNL d   1      -0.423   1.906  -0.402  0.00  0.00    -0.001 A 
ATOM      4  C3  UNL d   1      -1.272   2.952  -0.036  0.00  0.00     0.003 A 
ATOM      5  C4  UNL d   1      -2.130   2.809   1.053  0.00  0.00    -0.005 A 
ATOM      6  C5  UNL d   1      -2.138   1.619   1.779  0.00  0.00     0.003 A 
ATOM      7  C6  UNL d   1      -1.290   0.572   1.414  0.00  0.00    -0.001 A 
ENDROOT
TORSDOF 0
ENDMDL
