MODEL 1
REMARK minimizedAffinity -5.4249649
REMARK minimizedRMSD -1
REMARK  0 active torsions:
REMARK  status: ('A' for Active; 'I' for Inactive)
ROOT
ATOM      1  C   UNL d   1      -0.365  -0.433   1.121  0.00  0.00     0.078 C 
ATOM      2  C1  UNL d   1      -0.784   0.975   0.818  0.00  0.00    -0.077 A 
ATOM      3  C2  UNL d   1      -0.553   1.541  -0.442  0.00  0.00    -0.001 A 
ATOM      4  C3  UNL d   1      -0.939   2.855  -0.707  0.00  0.00     0.003 A 
ATOM      5  C4  UNL d   1      -1.558   3.616   0.283  0.00  0.00    -0.005 A 
ATOM      6  C5  UNL d   1      -1.789   3.063   1.541  0.00  0.00     0.003 A 
ATOM      7  C6  UNL d   1      -1.403   1.748   1.807  0.00  0.00    -0.001 A 
ENDROOT
TORSDOF 0
ENDMDL
