MODEL 1
REMARK minimizedAffinity -5.67102051
REMARK minimizedRMSD -1
REMARK  0 active torsions:
REMARK  status: ('A' for Active; 'I' for Inactive)
ROOT
ATOM      1  C   UNL d   1      -0.345  -0.815   1.691  0.00  0.00     0.078 C 
ATOM      2  C1  UNL d   1      -0.692   0.509   1.080  0.00  0.00    -0.077 A 
ATOM      3  C2  UNL d   1      -0.219   0.864  -0.189  0.00  0.00    -0.001 A 
ATOM      4  C3  UNL d   1      -0.542   2.105  -0.741  0.00  0.00     0.003 A 
ATOM      5  C4  UNL d   1      -1.339   3.000  -0.031  0.00  0.00    -0.005 A 
ATOM      6  C5  UNL d   1      -1.813   2.657   1.233  0.00  0.00     0.003 A 
ATOM      7  C6  UNL d   1      -1.491   1.417   1.787  0.00  0.00    -0.001 A 
ENDROOT
TORSDOF 0
ENDMDL
