MODEL 1
REMARK minimizedAffinity -5.15345192
REMARK minimizedRMSD -1
REMARK  0 active torsions:
REMARK  status: ('A' for Active; 'I' for Inactive)
ROOT
ATOM      1  C   UNL d   1       0.610  -0.382  -0.370  0.00  0.00     0.078 C 
ATOM      2  C1  UNL d   1      -0.255   0.752   0.094  0.00  0.00    -0.077 A 
ATOM      3  C2  UNL d   1      -0.148   2.023  -0.482  0.00  0.00    -0.001 A 
ATOM      4  C3  UNL d   1      -0.953   3.072  -0.033  0.00  0.00     0.003 A 
ATOM      5  C4  UNL d   1      -1.869   2.859   0.995  0.00  0.00    -0.005 A 
ATOM      6  C5  UNL d   1      -1.981   1.598   1.577  0.00  0.00     0.003 A 
ATOM      7  C6  UNL d   1      -1.177   0.548   1.129  0.00  0.00    -0.001 A 
ENDROOT
TORSDOF 0
ENDMDL
