MODEL 1
REMARK minimizedAffinity -5.48517036
REMARK minimizedRMSD -1
REMARK  0 active torsions:
REMARK  status: ('A' for Active; 'I' for Inactive)
ROOT
ATOM      1  C   UNL d   1      -1.063   3.431  -0.443  0.00  0.00     0.078 C 
ATOM      2  C1  UNL d   1      -0.894   2.131   0.284  0.00  0.00    -0.077 A 
ATOM      3  C2  UNL d   1      -1.340   1.977   1.602  0.00  0.00    -0.001 A 
ATOM      4  C3  UNL d   1      -1.166   0.764   2.270  0.00  0.00     0.003 A 
ATOM      5  C4  UNL d   1      -0.545  -0.305   1.627  0.00  0.00    -0.005 A 
ATOM      6  C5  UNL d   1      -0.096  -0.162   0.316  0.00  0.00     0.003 A 
ATOM      7  C6  UNL d   1      -0.268   1.051  -0.353  0.00  0.00    -0.001 A 
ENDROOT
TORSDOF 0
ENDMDL
