MODEL 1
REMARK minimizedAffinity -5.52792788
REMARK minimizedRMSD -1
REMARK  0 active torsions:
REMARK  status: ('A' for Active; 'I' for Inactive)
ROOT
ATOM      1  C   UNL d   1      -0.386  -0.584   0.353  0.00  0.00     0.078 C 
ATOM      2  C1  UNL d   1      -0.439   0.913   0.431  0.00  0.00    -0.077 A 
ATOM      3  C2  UNL d   1       0.273   1.708  -0.475  0.00  0.00    -0.001 A 
ATOM      4  C3  UNL d   1       0.222   3.100  -0.384  0.00  0.00     0.003 A 
ATOM      5  C4  UNL d   1      -0.539   3.709   0.611  0.00  0.00    -0.005 A 
ATOM      6  C5  UNL d   1      -1.249   2.926   1.519  0.00  0.00     0.003 A 
ATOM      7  C6  UNL d   1      -1.200   1.534   1.430  0.00  0.00    -0.001 A 
ENDROOT
TORSDOF 0
ENDMDL
