MODEL 1
REMARK minimizedAffinity -5.16287899
REMARK minimizedRMSD -1
REMARK  0 active torsions:
REMARK  status: ('A' for Active; 'I' for Inactive)
ROOT
ATOM      1  C   UNL d   1       0.011   3.766  -1.771  0.00  0.00     0.078 C 
ATOM      2  C1  UNL d   1      -0.610   2.900  -0.715  0.00  0.00    -0.077 A 
ATOM      3  C2  UNL d   1      -1.274   3.463   0.381  0.00  0.00    -0.001 A 
ATOM      4  C3  UNL d   1      -1.838   2.645   1.361  0.00  0.00     0.003 A 
ATOM      5  C4  UNL d   1      -1.744   1.259   1.255  0.00  0.00    -0.005 A 
ATOM      6  C5  UNL d   1      -1.084   0.689   0.168  0.00  0.00     0.003 A 
ATOM      7  C6  UNL d   1      -0.518   1.506  -0.813  0.00  0.00    -0.001 A 
ENDROOT
TORSDOF 0
ENDMDL
