MODEL 1
REMARK minimizedAffinity -4.59402847
REMARK minimizedRMSD -1
REMARK  0 active torsions:
REMARK  status: ('A' for Active; 'I' for Inactive)
ROOT
ATOM      1  C   UNL d   1      -1.000   3.258  -0.313  0.00  0.00     0.078 C 
ATOM      2  C1  UNL d   1      -1.042   1.916   0.355  0.00  0.00    -0.077 A 
ATOM      3  C2  UNL d   1      -1.742   1.729   1.553  0.00  0.00    -0.001 A 
ATOM      4  C3  UNL d   1      -1.764   0.476   2.169  0.00  0.00     0.003 A 
ATOM      5  C4  UNL d   1      -1.087  -0.598   1.595  0.00  0.00    -0.005 A 
ATOM      6  C5  UNL d   1      -0.386  -0.421   0.404  0.00  0.00     0.003 A 
ATOM      7  C6  UNL d   1      -0.362   0.831  -0.213  0.00  0.00    -0.001 A 
ENDROOT
TORSDOF 0
ENDMDL
