MODEL 1
REMARK minimizedAffinity -5.00229502
REMARK minimizedRMSD -1
REMARK  0 active torsions:
REMARK  status: ('A' for Active; 'I' for Inactive)
ROOT
ATOM      1  C   UNL d   1       0.571  -0.617  -0.125  0.00  0.00     0.078 C 
ATOM      2  C1  UNL d   1      -0.082   0.693   0.199  0.00  0.00    -0.077 A 
ATOM      3  C2  UNL d   1       0.214   1.848  -0.536  0.00  0.00    -0.001 A 
ATOM      4  C3  UNL d   1      -0.394   3.063  -0.217  0.00  0.00     0.003 A 
ATOM      5  C4  UNL d   1      -1.300   3.136   0.839  0.00  0.00    -0.005 A 
ATOM      6  C5  UNL d   1      -1.600   1.993   1.577  0.00  0.00     0.003 A 
ATOM      7  C6  UNL d   1      -0.993   0.776   1.260  0.00  0.00    -0.001 A 
ENDROOT
TORSDOF 0
ENDMDL
