MODEL 1
REMARK minimizedAffinity 17.1874924
REMARK minimizedRMSD -1
REMARK  0 active torsions:
REMARK  status: ('A' for Active; 'I' for Inactive)
ROOT
ATOM      1  C   UNL d   1      -2.559   0.770   1.736  0.00  0.00     0.077 C 
ATOM      2  C1  UNL d   1      -1.294  -0.023   1.879  0.00  0.00    -0.074 A 
ATOM      3  C2  UNL d   1      -1.125  -1.235   1.203  0.00  0.00    -0.005 A 
ATOM      4  C3  UNL d   1       0.061  -1.957   1.339  0.00  0.00     0.006 A 
ATOM      5  C4  UNL d   1       1.088  -1.474   2.150  0.00  0.00    -0.005 A 
ATOM      6  C5  UNL d   1       0.938  -0.263   2.833  0.00  0.00    -0.074 A 
ATOM      7  C6  UNL d   1       2.037   0.276   3.701  0.00  0.00     0.077 C 
ATOM      8  C7  UNL d   1      -0.254   0.460   2.686  0.00  0.00    -0.001 A 
ENDROOT
TORSDOF 0
ENDMDL
