MODEL 1
REMARK minimizedAffinity 10.2979279
REMARK minimizedRMSD -1
REMARK  0 active torsions:
REMARK  status: ('A' for Active; 'I' for Inactive)
ROOT
ATOM      1  C   UNL d   1       0.506  -0.230  -4.161  0.00  0.00     0.077 C 
ATOM      2  C1  UNL d   1      -0.258  -1.490  -3.884  0.00  0.00    -0.074 A 
ATOM      3  C2  UNL d   1      -0.417  -1.962  -2.577  0.00  0.00    -0.005 A 
ATOM      4  C3  UNL d   1      -1.138  -3.130  -2.333  0.00  0.00     0.006 A 
ATOM      5  C4  UNL d   1      -1.707  -3.838  -3.392  0.00  0.00    -0.005 A 
ATOM      6  C5  UNL d   1      -1.560  -3.382  -4.706  0.00  0.00    -0.074 A 
ATOM      7  C6  UNL d   1      -2.174  -4.125  -5.855  0.00  0.00     0.077 C 
ATOM      8  C7  UNL d   1      -0.840  -2.203  -4.942  0.00  0.00    -0.001 A 
ENDROOT
TORSDOF 0
ENDMDL
