MODEL 1
REMARK minimizedAffinity 18.3391075
REMARK minimizedRMSD -1
REMARK  0 active torsions:
REMARK  status: ('A' for Active; 'I' for Inactive)
ROOT
ATOM      1  C   UNL d   1      -0.991  -2.667  -1.644  0.00  0.00     0.077 C 
ATOM      2  C1  UNL d   1      -0.670  -1.908  -2.896  0.00  0.00    -0.074 A 
ATOM      3  C2  UNL d   1      -1.428  -2.085  -4.058  0.00  0.00    -0.005 A 
ATOM      4  C3  UNL d   1      -1.123  -1.364  -5.213  0.00  0.00     0.006 A 
ATOM      5  C4  UNL d   1      -0.060  -0.461  -5.218  0.00  0.00    -0.005 A 
ATOM      6  C5  UNL d   1       0.709  -0.270  -4.065  0.00  0.00    -0.074 A 
ATOM      7  C6  UNL d   1       1.849   0.704  -4.050  0.00  0.00     0.077 C 
ATOM      8  C7  UNL d   1       0.392  -0.993  -2.907  0.00  0.00    -0.001 A 
ENDROOT
TORSDOF 0
ENDMDL
