MODEL 1
REMARK minimizedAffinity 6.77598906
REMARK minimizedRMSD -1
REMARK  0 active torsions:
REMARK  status: ('A' for Active; 'I' for Inactive)
ROOT
ATOM      1  C   UNL d   1      -2.092  -4.582  -6.000  0.00  0.00     0.077 C 
ATOM      2  C1  UNL d   1      -1.645  -3.713  -4.862  0.00  0.00    -0.074 A 
ATOM      3  C2  UNL d   1      -2.001  -4.016  -3.544  0.00  0.00    -0.005 A 
ATOM      4  C3  UNL d   1      -1.570  -3.204  -2.495  0.00  0.00     0.006 A 
ATOM      5  C4  UNL d   1      -0.780  -2.082  -2.753  0.00  0.00    -0.005 A 
ATOM      6  C5  UNL d   1      -0.415  -1.764  -4.065  0.00  0.00    -0.074 A 
ATOM      7  C6  UNL d   1       0.441  -0.568  -4.359  0.00  0.00     0.077 C 
ATOM      8  C7  UNL d   1      -0.846  -2.589  -5.113  0.00  0.00    -0.001 A 
ENDROOT
TORSDOF 0
ENDMDL
