MODEL 1
REMARK minimizedAffinity 13.1254435
REMARK minimizedRMSD -1
REMARK  0 active torsions:
REMARK  status: ('A' for Active; 'I' for Inactive)
ROOT
ATOM      1  C   UNL d   1       3.575  -2.280  -4.124  0.00  0.00     0.077 C 
ATOM      2  C1  UNL d   1       2.200  -1.875  -4.565  0.00  0.00    -0.074 A 
ATOM      3  C2  UNL d   1       1.792  -0.539  -4.511  0.00  0.00    -0.005 A 
ATOM      4  C3  UNL d   1       0.514  -0.175  -4.934  0.00  0.00     0.006 A 
ATOM      5  C4  UNL d   1      -0.369  -1.144  -5.414  0.00  0.00    -0.005 A 
ATOM      6  C5  UNL d   1       0.021  -2.485  -5.477  0.00  0.00    -0.074 A 
ATOM      7  C6  UNL d   1      -0.911  -3.537  -6.000  0.00  0.00     0.077 C 
ATOM      8  C7  UNL d   1       1.310  -2.841  -5.057  0.00  0.00    -0.001 A 
ENDROOT
TORSDOF 0
ENDMDL
