MODEL 1
REMARK minimizedAffinity 15.9898539
REMARK minimizedRMSD -1
REMARK  0 active torsions:
REMARK  status: ('A' for Active; 'I' for Inactive)
ROOT
ATOM      1  C   UNL d   1      -0.731  -4.846   5.994  0.00  0.00     0.077 C 
ATOM      2  C1  UNL d   1       0.393  -4.051   5.398  0.00  0.00    -0.074 A 
ATOM      3  C2  UNL d   1       1.655  -4.026   6.000  0.00  0.00    -0.005 A 
ATOM      4  C3  UNL d   1       2.692  -3.290   5.428  0.00  0.00     0.006 A 
ATOM      5  C4  UNL d   1       2.479  -2.572   4.251  0.00  0.00    -0.005 A 
ATOM      6  C5  UNL d   1       1.224  -2.586   3.634  0.00  0.00    -0.074 A 
ATOM      7  C6  UNL d   1       0.981  -1.828   2.362  0.00  0.00     0.077 C 
ATOM      8  C7  UNL d   1       0.189  -3.334   4.210  0.00  0.00    -0.001 A 
ENDROOT
TORSDOF 0
ENDMDL
