MODEL 1
REMARK minimizedAffinity 3.5383594
REMARK minimizedRMSD -1
REMARK  0 active torsions:
REMARK  status: ('A' for Active; 'I' for Inactive)
ROOT
ATOM      1  C   UNL d   1       0.276  -0.541  -4.397  0.00  0.00     0.077 C 
ATOM      2  C1  UNL d   1      -0.412  -1.838  -4.090  0.00  0.00    -0.074 A 
ATOM      3  C2  UNL d   1      -0.513  -2.305  -2.776  0.00  0.00    -0.005 A 
ATOM      4  C3  UNL d   1      -1.164  -3.508  -2.505  0.00  0.00     0.006 A 
ATOM      5  C4  UNL d   1      -1.720  -4.256  -3.544  0.00  0.00    -0.005 A 
ATOM      6  C5  UNL d   1      -1.629  -3.805  -4.865  0.00  0.00    -0.074 A 
ATOM      7  C6  UNL d   1      -2.229  -4.591  -5.992  0.00  0.00     0.077 C 
ATOM      8  C7  UNL d   1      -0.979  -2.591  -5.128  0.00  0.00    -0.001 A 
ENDROOT
TORSDOF 0
ENDMDL
