MODEL 1
REMARK minimizedAffinity 10.5994473
REMARK minimizedRMSD -1
REMARK  0 active torsions:
REMARK  status: ('A' for Active; 'I' for Inactive)
ROOT
ATOM      1  C   UNL d   1      -2.012  -4.534  -6.000  0.00  0.00     0.077 C 
ATOM      2  C1  UNL d   1      -1.627  -3.718  -4.802  0.00  0.00    -0.074 A 
ATOM      3  C2  UNL d   1      -2.014  -4.104  -3.515  0.00  0.00    -0.005 A 
ATOM      4  C3  UNL d   1      -1.640  -3.340  -2.409  0.00  0.00     0.006 A 
ATOM      5  C4  UNL d   1      -0.876  -2.185  -2.580  0.00  0.00    -0.005 A 
ATOM      6  C5  UNL d   1      -0.478  -1.784  -3.859  0.00  0.00    -0.074 A 
ATOM      7  C6  UNL d   1       0.351  -0.551  -4.059  0.00  0.00     0.077 C 
ATOM      8  C7  UNL d   1      -0.852  -2.561  -4.964  0.00  0.00    -0.001 A 
ENDROOT
TORSDOF 0
ENDMDL
