MODEL 1
REMARK minimizedAffinity 5.54087687
REMARK minimizedRMSD -1
REMARK  0 active torsions:
REMARK  status: ('A' for Active; 'I' for Inactive)
ROOT
ATOM      1  C   UNL d   1       2.097  -2.944   4.653  0.00  0.00     0.077 C 
ATOM      2  C1  UNL d   1       1.554  -1.627   4.186  0.00  0.00    -0.074 A 
ATOM      3  C2  UNL d   1       1.241  -1.415   2.840  0.00  0.00    -0.005 A 
ATOM      4  C3  UNL d   1       0.728  -0.187   2.422  0.00  0.00     0.006 A 
ATOM      5  C4  UNL d   1       0.522   0.839   3.344  0.00  0.00    -0.005 A 
ATOM      6  C5  UNL d   1       0.828   0.645   4.695  0.00  0.00    -0.074 A 
ATOM      7  C6  UNL d   1       0.604   1.735   5.702  0.00  0.00     0.077 C 
ATOM      8  C7  UNL d   1       1.337  -0.593   5.108  0.00  0.00    -0.001 A 
ENDROOT
TORSDOF 0
ENDMDL
