MODEL 1
REMARK minimizedAffinity 0.504761219
REMARK minimizedRMSD -1
REMARK  1 active torsions:
REMARK  status: ('A' for Active; 'I' for Inactive)
REMARK    1  A    between atoms: C3_4  and  O_7 
ROOT
ATOM      1  C   UNL d   1       1.074   5.156   4.128  0.00  0.00    -0.033 A 
ATOM      2  C1  UNL d   1       2.189   4.858   3.342  0.00  0.00     0.039 A 
ATOM      3  C2  UNL d   1       3.473   5.132   3.816  0.00  0.00    -0.080 A 
ATOM      4  C3  UNL d   1       3.629   5.703   5.076  0.00  0.00     0.150 A 
ATOM      5  C4  UNL d   1       2.523   6.000   5.866  0.00  0.00    -0.007 A 
ATOM      6  C5  UNL d   1       1.241   5.726   5.390  0.00  0.00     0.039 A 
ENDROOT
BRANCH   4   7
ATOM      7  O   UNL d   1       4.862   5.994   5.579  0.00  0.00    -0.526 OA
ATOM      8  H5  UNL d   1       5.529   5.762   4.911  0.00  0.00     0.418 HD
ENDBRANCH   4   7
TORSDOF 1
ENDMDL
