MODEL 1
REMARK minimizedAffinity -3.92374921
REMARK minimizedRMSD -1
REMARK  1 active torsions:
REMARK  status: ('A' for Active; 'I' for Inactive)
REMARK    1  A    between atoms: C3_4  and  O_7 
ROOT
ATOM      1  C   UNL d   1       2.932   2.896  -6.000  0.00  0.00    -0.033 A 
ATOM      2  C1  UNL d   1       2.477   4.211  -5.893  0.00  0.00     0.039 A 
ATOM      3  C2  UNL d   1       3.390   5.262  -5.783  0.00  0.00    -0.080 A 
ATOM      4  C3  UNL d   1       4.754   4.984  -5.781  0.00  0.00     0.150 A 
ATOM      5  C4  UNL d   1       5.215   3.676  -5.891  0.00  0.00    -0.007 A 
ATOM      6  C5  UNL d   1       4.302   2.628  -6.000  0.00  0.00     0.039 A 
ENDROOT
BRANCH   4   7
ATOM      7  O   UNL d   1       5.683   5.975  -5.671  0.00  0.00    -0.526 OA
ATOM      8  H5  UNL d   1       5.219   6.823  -5.574  0.00  0.00     0.418 HD
ENDBRANCH   4   7
TORSDOF 1
ENDMDL
