MODEL 1
REMARK minimizedAffinity -1.00923383
REMARK minimizedRMSD -1
REMARK  1 active torsions:
REMARK  status: ('A' for Active; 'I' for Inactive)
REMARK    1  A    between atoms: C3_4  and  O_7 
ROOT
ATOM      1  C   UNL d   1       0.337   5.954   4.626  0.00  0.00    -0.033 A 
ATOM      2  C1  UNL d   1       1.702   5.998   4.915  0.00  0.00     0.039 A 
ATOM      3  C2  UNL d   1       2.554   5.006   4.426  0.00  0.00    -0.080 A 
ATOM      4  C3  UNL d   1       2.029   3.976   3.649  0.00  0.00     0.150 A 
ATOM      5  C4  UNL d   1       0.670   3.928   3.354  0.00  0.00    -0.007 A 
ATOM      6  C5  UNL d   1      -0.179   4.919   3.845  0.00  0.00     0.039 A 
ENDROOT
BRANCH   4   7
ATOM      7  O   UNL d   1       2.820   2.983   3.154  0.00  0.00    -0.526 OA
ATOM      8  H5  UNL d   1       3.729   3.131   3.462  0.00  0.00     0.418 HD
ENDBRANCH   4   7
TORSDOF 1
ENDMDL
