MODEL 1
REMARK minimizedAffinity -1.74536681
REMARK minimizedRMSD -1
REMARK  1 active torsions:
REMARK  status: ('A' for Active; 'I' for Inactive)
REMARK    1  A    between atoms: C3_4  and  O_7 
ROOT
ATOM      1  C   UNL d   1       0.340   4.875   3.752  0.00  0.00    -0.033 A 
ATOM      2  C1  UNL d   1       1.207   3.797   3.566  0.00  0.00     0.039 A 
ATOM      3  C2  UNL d   1       2.484   3.819   4.132  0.00  0.00    -0.080 A 
ATOM      4  C3  UNL d   1       2.879   4.924   4.882  0.00  0.00     0.150 A 
ATOM      5  C4  UNL d   1       2.019   6.000   5.074  0.00  0.00    -0.007 A 
ATOM      6  C5  UNL d   1       0.745   5.976   4.507  0.00  0.00     0.039 A 
ENDROOT
BRANCH   4   7
ATOM      7  O   UNL d   1       4.116   4.993   5.450  0.00  0.00    -0.526 OA
ATOM      8  H5  UNL d   1       4.611   4.192   5.209  0.00  0.00     0.418 HD
ENDBRANCH   4   7
TORSDOF 1
ENDMDL
