MODEL 1
REMARK minimizedAffinity -2.45101666
REMARK minimizedRMSD -1
REMARK  1 active torsions:
REMARK  status: ('A' for Active; 'I' for Inactive)
REMARK    1  A    between atoms: C3_4  and  O_7 
ROOT
ATOM      1  C   UNL d   1       2.830   4.532   4.838  0.00  0.00    -0.033 A 
ATOM      2  C1  UNL d   1       2.331   4.037   3.631  0.00  0.00     0.039 A 
ATOM      3  C2  UNL d   1       1.125   4.521   3.121  0.00  0.00    -0.080 A 
ATOM      4  C3  UNL d   1       0.429   5.500   3.826  0.00  0.00     0.150 A 
ATOM      5  C4  UNL d   1       0.922   6.000   5.026  0.00  0.00    -0.007 A 
ATOM      6  C5  UNL d   1       2.127   5.514   5.534  0.00  0.00     0.039 A 
ENDROOT
BRANCH   4   7
ATOM      7  O   UNL d   1      -0.754   6.000   3.371  0.00  0.00    -0.526 OA
ATOM      8  H5  UNL d   1      -0.986   5.540   2.546  0.00  0.00     0.418 HD
ENDBRANCH   4   7
TORSDOF 1
ENDMDL
