MODEL 1
REMARK minimizedAffinity -0.00596800353
REMARK minimizedRMSD -1
REMARK  1 active torsions:
REMARK  status: ('A' for Active; 'I' for Inactive)
REMARK    1  A    between atoms: C3_4  and  O_7 
ROOT
ATOM      1  C   UNL d   1       1.498   5.999   6.000  0.00  0.00    -0.033 A 
ATOM      2  C1  UNL d   1       2.888   5.863   6.000  0.00  0.00     0.039 A 
ATOM      3  C2  UNL d   1       3.513   5.070   5.035  0.00  0.00    -0.080 A 
ATOM      4  C3  UNL d   1       2.738   4.421   4.078  0.00  0.00     0.150 A 
ATOM      5  C4  UNL d   1       1.354   4.556   4.069  0.00  0.00    -0.007 A 
ATOM      6  C5  UNL d   1       0.731   5.347   5.034  0.00  0.00     0.039 A 
ENDROOT
BRANCH   4   7
ATOM      7  O   UNL d   1       3.303   3.633   3.119  0.00  0.00    -0.526 OA
ATOM      8  H5  UNL d   1       4.263   3.610   3.266  0.00  0.00     0.418 HD
ENDBRANCH   4   7
TORSDOF 1
ENDMDL
