MODEL 1
REMARK minimizedAffinity -2.07472754
REMARK minimizedRMSD -1
REMARK  1 active torsions:
REMARK  status: ('A' for Active; 'I' for Inactive)
REMARK    1  A    between atoms: C3_4  and  O_7 
ROOT
ATOM      1  C   UNL d   1       1.465   6.000   5.543  0.00  0.00    -0.033 A 
ATOM      2  C1  UNL d   1       0.772   5.483   4.446  0.00  0.00     0.039 A 
ATOM      3  C2  UNL d   1       1.323   4.440   3.699  0.00  0.00    -0.080 A 
ATOM      4  C3  UNL d   1       2.564   3.922   4.060  0.00  0.00     0.150 A 
ATOM      5  C4  UNL d   1       3.257   4.429   5.153  0.00  0.00    -0.007 A 
ATOM      6  C5  UNL d   1       2.707   5.472   5.898  0.00  0.00     0.039 A 
ENDROOT
BRANCH   4   7
ATOM      7  O   UNL d   1       3.143   2.907   3.358  0.00  0.00    -0.526 OA
ATOM      8  H5  UNL d   1       2.563   2.678   2.613  0.00  0.00     0.418 HD
ENDBRANCH   4   7
TORSDOF 1
ENDMDL
