MODEL 1
REMARK minimizedAffinity -1.94112778
REMARK minimizedRMSD -1
REMARK  1 active torsions:
REMARK  status: ('A' for Active; 'I' for Inactive)
REMARK    1  A    between atoms: C3_4  and  O_7 
ROOT
ATOM      1  C   UNL d   1       3.702   1.683  -5.976  0.00  0.00    -0.033 A 
ATOM      2  C1  UNL d   1       2.306   1.683  -5.972  0.00  0.00     0.039 A 
ATOM      3  C2  UNL d   1       1.606   2.891  -5.979  0.00  0.00    -0.080 A 
ATOM      4  C3  UNL d   1       2.313   4.090  -5.991  0.00  0.00     0.150 A 
ATOM      5  C4  UNL d   1       3.704   4.097  -5.999  0.00  0.00    -0.007 A 
ATOM      6  C5  UNL d   1       4.401   2.890  -5.991  0.00  0.00     0.039 A 
ENDROOT
BRANCH   4   7
ATOM      7  O   UNL d   1       1.674   5.294  -5.994  0.00  0.00    -0.526 OA
ATOM      8  H5  UNL d   1       0.716   5.134  -5.958  0.00  0.00     0.418 HD
ENDBRANCH   4   7
TORSDOF 1
ENDMDL
