MODEL 1
REMARK minimizedAffinity 9.41853237
REMARK minimizedRMSD -1
REMARK  0 active torsions:
REMARK  status: ('A' for Active; 'I' for Inactive)
ROOT
ATOM      1  C2' OXE d   1      -2.236   3.083  -3.388  0.00  0.00     0.078 C 
ATOM      2  C1' OXE d   1      -0.386   1.009  -3.785  0.00  0.00     0.078 C 
ATOM      3  C1  OXE d   1      -0.137   2.319  -4.491  0.00  0.00    -0.078 A 
ATOM      4  C2  OXE d   1      -1.072   3.313  -4.328  0.00  0.00    -0.078 A 
ATOM      5  C3  OXE d   1      -0.862   4.558  -4.912  0.00  0.00     0.003 A 
ATOM      6  C4  OXE d   1       0.212   4.759  -5.788  0.00  0.00    -0.002 A 
ATOM      7  C5  OXE d   1       1.154   3.747  -5.999  0.00  0.00    -0.002 A 
ATOM      8  C6  OXE d   1       1.018   2.538  -5.326  0.00  0.00     0.003 A 
ENDROOT
TORSDOF 0
ENDMDL
