MODEL 1
REMARK minimizedAffinity 1.80933928
REMARK minimizedRMSD -1
REMARK  0 active torsions:
REMARK  status: ('A' for Active; 'I' for Inactive)
ROOT
ATOM      1  C2' OXE d   1      -4.533   2.339  -2.622  0.00  0.00     0.078 C 
ATOM      2  C1' OXE d   1      -2.936   0.062  -3.002  0.00  0.00     0.078 C 
ATOM      3  C1  OXE d   1      -2.435   1.373  -3.554  0.00  0.00    -0.078 A 
ATOM      4  C2  OXE d   1      -3.244   2.473  -3.404  0.00  0.00    -0.078 A 
ATOM      5  C3  OXE d   1      -2.805   3.717  -3.847  0.00  0.00     0.003 A 
ATOM      6  C4  OXE d   1      -1.616   3.831  -4.578  0.00  0.00    -0.002 A 
ATOM      7  C5  OXE d   1      -0.796   2.715  -4.777  0.00  0.00    -0.002 A 
ATOM      8  C6  OXE d   1      -1.169   1.490  -4.235  0.00  0.00     0.003 A 
ENDROOT
TORSDOF 0
ENDMDL
