MODEL 1
REMARK minimizedAffinity 1.76166248
REMARK minimizedRMSD -1
REMARK  0 active torsions:
REMARK  status: ('A' for Active; 'I' for Inactive)
ROOT
ATOM      1  C2' OXE d   1      -0.786   0.166  -3.790  0.00  0.00     0.078 C 
ATOM      2  C1' OXE d   1      -2.057   2.599  -4.376  0.00  0.00     0.078 C 
ATOM      3  C1  OXE d   1      -0.643   2.408  -4.865  0.00  0.00    -0.078 A 
ATOM      4  C2  OXE d   1      -0.013   1.233  -4.534  0.00  0.00    -0.078 A 
ATOM      5  C3  OXE d   1       1.272   0.983  -5.006  0.00  0.00     0.003 A 
ATOM      6  C4  OXE d   1       1.984   1.979  -5.685  0.00  0.00    -0.002 A 
ATOM      7  C5  OXE d   1       1.374   3.199  -5.999  0.00  0.00    -0.002 A 
ATOM      8  C6  OXE d   1       0.050   3.412  -5.634  0.00  0.00     0.003 A 
ENDROOT
TORSDOF 0
ENDMDL
