MODEL 1
REMARK minimizedAffinity 13.9577818
REMARK minimizedRMSD -1
REMARK  0 active torsions:
REMARK  status: ('A' for Active; 'I' for Inactive)
ROOT
ATOM      1  C2' OXE d   1       3.993   3.287   2.525  0.00  0.00     0.078 C 
ATOM      2  C1' OXE d   1       6.000   5.164   1.949  0.00  0.00     0.078 C 
ATOM      3  C1  OXE d   1       5.451   5.129   3.354  0.00  0.00    -0.078 A 
ATOM      4  C2  OXE d   1       4.436   4.240   3.615  0.00  0.00    -0.078 A 
ATOM      5  C3  OXE d   1       3.932   4.129   4.907  0.00  0.00     0.003 A 
ATOM      6  C4  OXE d   1       4.340   5.021   5.906  0.00  0.00    -0.002 A 
ATOM      7  C5  OXE d   1       5.344   5.961   5.651  0.00  0.00    -0.002 A 
ATOM      8  C6  OXE d   1       5.939   6.000   4.395  0.00  0.00     0.003 A 
ENDROOT
TORSDOF 0
ENDMDL
