MODEL 1
REMARK minimizedAffinity 12.054389
REMARK minimizedRMSD -1
REMARK  0 active torsions:
REMARK  status: ('A' for Active; 'I' for Inactive)
ROOT
ATOM      1  C2' OXE d   1      -1.687  -3.116  -0.043  0.00  0.00     0.078 C 
ATOM      2  C1' OXE d   1      -0.900  -3.394   2.637  0.00  0.00     0.078 C 
ATOM      3  C1  OXE d   1       0.176  -3.138   1.611  0.00  0.00    -0.078 A 
ATOM      4  C2  OXE d   1      -0.213  -3.050   0.296  0.00  0.00    -0.078 A 
ATOM      5  C3  OXE d   1       0.731  -2.760  -0.684  0.00  0.00     0.003 A 
ATOM      6  C4  OXE d   1       2.093  -2.710  -0.364  0.00  0.00    -0.002 A 
ATOM      7  C5  OXE d   1       2.515  -2.837   0.964  0.00  0.00    -0.002 A 
ATOM      8  C6  OXE d   1       1.567  -3.009   1.967  0.00  0.00     0.003 A 
ENDROOT
TORSDOF 0
ENDMDL
