MODEL 1
REMARK minimizedAffinity 4.88048697
REMARK minimizedRMSD -1
REMARK  0 active torsions:
REMARK  status: ('A' for Active; 'I' for Inactive)
ROOT
ATOM      1  C2' OXE d   1      -3.883   3.034  -2.769  0.00  0.00     0.078 C 
ATOM      2  C1' OXE d   1      -2.142   0.832  -2.815  0.00  0.00     0.078 C 
ATOM      3  C1  OXE d   1      -1.721   2.077  -3.555  0.00  0.00    -0.078 A 
ATOM      4  C2  OXE d   1      -2.601   3.133  -3.566  0.00  0.00    -0.078 A 
ATOM      5  C3  OXE d   1      -2.238   4.325  -4.187  0.00  0.00     0.003 A 
ATOM      6  C4  OXE d   1      -1.055   4.406  -4.931  0.00  0.00    -0.002 A 
ATOM      7  C5  OXE d   1      -0.163   3.328  -4.966  0.00  0.00    -0.002 A 
ATOM      8  C6  OXE d   1      -0.461   2.174  -4.249  0.00  0.00     0.003 A 
ENDROOT
TORSDOF 0
ENDMDL
