MODEL 1
REMARK minimizedAffinity -1.56487072
REMARK minimizedRMSD -1
REMARK  0 active torsions:
REMARK  status: ('A' for Active; 'I' for Inactive)
ROOT
ATOM      1  C2' OXE d   1      -1.455   4.419  -6.000  0.00  0.00     0.078 C 
ATOM      2  C1' OXE d   1      -0.210   2.385  -4.520  0.00  0.00     0.078 C 
ATOM      3  C1  OXE d   1      -1.623   2.760  -4.149  0.00  0.00    -0.078 A 
ATOM      4  C2  OXE d   1      -2.208   3.789  -4.849  0.00  0.00    -0.078 A 
ATOM      5  C3  OXE d   1      -3.529   4.138  -4.584  0.00  0.00     0.003 A 
ATOM      6  C4  OXE d   1      -4.215   3.557  -3.511  0.00  0.00    -0.002 A 
ATOM      7  C5  OXE d   1      -3.624   2.535  -2.761  0.00  0.00    -0.002 A 
ATOM      8  C6  OXE d   1      -2.347   2.096  -3.093  0.00  0.00     0.003 A 
ENDROOT
TORSDOF 0
ENDMDL
