MODEL 1
REMARK minimizedAffinity 10.526639
REMARK minimizedRMSD -1
REMARK  0 active torsions:
REMARK  status: ('A' for Active; 'I' for Inactive)
ROOT
ATOM      1  C2' OXE d   1       1.740  -2.714   0.135  0.00  0.00     0.078 C 
ATOM      2  C1' OXE d   1       3.831  -0.877  -0.236  0.00  0.00     0.078 C 
ATOM      3  C1  OXE d   1       4.197  -2.313   0.048  0.00  0.00    -0.078 A 
ATOM      4  C2  OXE d   1       3.168  -3.195   0.275  0.00  0.00    -0.078 A 
ATOM      5  C3  OXE d   1       3.449  -4.542   0.487  0.00  0.00     0.003 A 
ATOM      6  C4  OXE d   1       4.773  -4.976   0.625  0.00  0.00    -0.002 A 
ATOM      7  C5  OXE d   1       5.836  -4.086   0.438  0.00  0.00    -0.002 A 
ATOM      8  C6  OXE d   1       5.566  -2.763   0.107  0.00  0.00     0.003 A 
ENDROOT
TORSDOF 0
ENDMDL
