MODEL 1
REMARK minimizedAffinity 7.75138617
REMARK minimizedRMSD -1
REMARK  0 active torsions:
REMARK  status: ('A' for Active; 'I' for Inactive)
ROOT
ATOM      1  C2' OXE d   1      -0.573   1.146  -4.501  0.00  0.00     0.078 C 
ATOM      2  C1' OXE d   1      -2.742   2.653  -3.551  0.00  0.00     0.078 C 
ATOM      3  C1  OXE d   1      -1.727   3.352  -4.422  0.00  0.00    -0.078 A 
ATOM      4  C2  OXE d   1      -0.645   2.618  -4.844  0.00  0.00    -0.078 A 
ATOM      5  C3  OXE d   1       0.292   3.199  -5.694  0.00  0.00     0.003 A 
ATOM      6  C4  OXE d   1       0.224   4.563  -5.998  0.00  0.00    -0.002 A 
ATOM      7  C5  OXE d   1      -0.850   5.338  -5.547  0.00  0.00    -0.002 A 
ATOM      8  C6  OXE d   1      -1.854   4.739  -4.795  0.00  0.00     0.003 A 
ENDROOT
TORSDOF 0
ENDMDL
