MODEL 1
REMARK minimizedAffinity 4.83695269
REMARK minimizedRMSD -1
REMARK  0 active torsions:
REMARK  status: ('A' for Active; 'I' for Inactive)
ROOT
ATOM      1  C2' OXE d   1      -2.781   3.364  -2.984  0.00  0.00     0.078 C 
ATOM      2  C1' OXE d   1      -2.469   5.551  -4.716  0.00  0.00     0.078 C 
ATOM      3  C1  OXE d   1      -1.543   4.374  -4.895  0.00  0.00    -0.078 A 
ATOM      4  C2  OXE d   1      -1.672   3.328  -4.013  0.00  0.00    -0.078 A 
ATOM      5  C3  OXE d   1      -0.880   2.194  -4.168  0.00  0.00     0.003 A 
ATOM      6  C4  OXE d   1       0.150   2.173  -5.116  0.00  0.00    -0.002 A 
ATOM      7  C5  OXE d   1       0.325   3.245  -5.998  0.00  0.00    -0.002 A 
ATOM      8  C6  OXE d   1      -0.539   4.332  -5.929  0.00  0.00     0.003 A 
ENDROOT
TORSDOF 0
ENDMDL
