MODEL 1
REMARK minimizedAffinity -0.605252564
REMARK minimizedRMSD -1
REMARK  1 active torsions:
REMARK  status: ('A' for Active; 'I' for Inactive)
REMARK    1  A    between atoms: C3_4  and  O_7 
ROOT
ATOM      1  C   UNL d   1      -5.625   4.810   0.369  0.00  0.00    -0.033 A 
ATOM      2  C1  UNL d   1      -5.906   3.623   1.048  0.00  0.00     0.039 A 
ATOM      3  C2  UNL d   1      -6.000   3.618   2.441  0.00  0.00    -0.080 A 
ATOM      4  C3  UNL d   1      -5.812   4.806   3.142  0.00  0.00     0.150 A 
ATOM      5  C4  UNL d   1      -5.535   5.993   2.472  0.00  0.00    -0.007 A 
ATOM      6  C5  UNL d   1      -5.441   5.995   1.081  0.00  0.00     0.039 A 
ENDROOT
BRANCH   4   7
ATOM      7  O   UNL d   1      -5.888   4.850   4.503  0.00  0.00    -0.526 OA
ATOM      8  H5  UNL d   1      -6.057   3.951   4.831  0.00  0.00     0.418 HD
ENDBRANCH   4   7
TORSDOF 1
ENDMDL
