MODEL 1
REMARK minimizedAffinity -1.91423047
REMARK minimizedRMSD -1
REMARK  1 active torsions:
REMARK  status: ('A' for Active; 'I' for Inactive)
REMARK    1  A    between atoms: C3_4  and  O_7 
ROOT
ATOM      1  C   UNL d   1      -1.252  -0.002   1.498  0.00  0.00    -0.033 A 
ATOM      2  C1  UNL d   1      -0.182   0.043   0.602  0.00  0.00     0.039 A 
ATOM      3  C2  UNL d   1      -0.327  -0.471  -0.688  0.00  0.00    -0.080 A 
ATOM      4  C3  UNL d   1      -1.546  -1.025  -1.070  0.00  0.00     0.150 A 
ATOM      5  C4  UNL d   1      -2.618  -1.069  -0.184  0.00  0.00    -0.007 A 
ATOM      6  C5  UNL d   1      -2.470  -0.556   1.104  0.00  0.00     0.039 A 
ENDROOT
BRANCH   4   7
ATOM      7  O   UNL d   1      -1.734  -1.543  -2.316  0.00  0.00    -0.526 OA
ATOM      8  H5  UNL d   1      -0.900  -1.470  -2.809  0.00  0.00     0.418 HD
ENDBRANCH   4   7
TORSDOF 1
ENDMDL
