MODEL 1
REMARK minimizedAffinity -1.98121834
REMARK minimizedRMSD -1
REMARK  1 active torsions:
REMARK  status: ('A' for Active; 'I' for Inactive)
REMARK    1  A    between atoms: C3_4  and  O_7 
ROOT
ATOM      1  C   UNL d   1      -5.813   4.566   1.130  0.00  0.00    -0.033 A 
ATOM      2  C1  UNL d   1      -6.000   5.618   2.028  0.00  0.00     0.039 A 
ATOM      3  C2  UNL d   1      -5.633   5.469   3.367  0.00  0.00    -0.080 A 
ATOM      4  C3  UNL d   1      -5.080   4.264   3.794  0.00  0.00     0.150 A 
ATOM      5  C4  UNL d   1      -4.888   3.213   2.903  0.00  0.00    -0.007 A 
ATOM      6  C5  UNL d   1      -5.256   3.364   1.567  0.00  0.00     0.039 A 
ENDROOT
BRANCH   4   7
ATOM      7  O   UNL d   1      -4.711   4.070   5.091  0.00  0.00    -0.526 OA
ATOM      8  H5  UNL d   1      -4.929   4.871   5.597  0.00  0.00     0.418 HD
ENDBRANCH   4   7
TORSDOF 1
ENDMDL
