MODEL 1
REMARK minimizedAffinity -2.5134747
REMARK minimizedRMSD -1
REMARK  1 active torsions:
REMARK  status: ('A' for Active; 'I' for Inactive)
REMARK    1  A    between atoms: C3_4  and  O_7 
ROOT
ATOM      1  C   UNL d   1      -5.846   3.876   4.235  0.00  0.00    -0.033 A 
ATOM      2  C1  UNL d   1      -5.999   3.197   3.025  0.00  0.00     0.039 A 
ATOM      3  C2  UNL d   1      -5.942   3.897   1.818  0.00  0.00    -0.080 A 
ATOM      4  C3  UNL d   1      -5.731   5.273   1.835  0.00  0.00     0.150 A 
ATOM      5  C4  UNL d   1      -5.574   5.955   3.037  0.00  0.00    -0.007 A 
ATOM      6  C5  UNL d   1      -5.632   5.255   4.241  0.00  0.00     0.039 A 
ENDROOT
BRANCH   4   7
ATOM      7  O   UNL d   1      -5.672   5.999   0.683  0.00  0.00    -0.526 OA
ATOM      8  H5  UNL d   1      -5.826   5.400  -0.067  0.00  0.00     0.418 HD
ENDBRANCH   4   7
TORSDOF 1
ENDMDL
