MODEL 1
REMARK minimizedAffinity -2.69774604
REMARK minimizedRMSD -1
REMARK  1 active torsions:
REMARK  status: ('A' for Active; 'I' for Inactive)
REMARK    1  A    between atoms: C3_4  and  O_7 
ROOT
ATOM      1  C   UNL d   1      -4.881   4.951   1.260  0.00  0.00    -0.033 A 
ATOM      2  C1  UNL d   1      -4.510   3.860   2.049  0.00  0.00     0.039 A 
ATOM      3  C2  UNL d   1      -4.880   3.811   3.394  0.00  0.00    -0.080 A 
ATOM      4  C3  UNL d   1      -5.620   4.857   3.938  0.00  0.00     0.150 A 
ATOM      5  C4  UNL d   1      -5.996   5.945   3.158  0.00  0.00    -0.007 A 
ATOM      6  C5  UNL d   1      -5.625   5.993   1.815  0.00  0.00     0.039 A 
ENDROOT
BRANCH   4   7
ATOM      7  O   UNL d   1      -6.000   4.855   5.247  0.00  0.00    -0.526 OA
ATOM      8  H5  UNL d   1      -5.645   4.056   5.670  0.00  0.00     0.418 HD
ENDBRANCH   4   7
TORSDOF 1
ENDMDL
