MODEL 1
REMARK minimizedAffinity -1.03989398
REMARK minimizedRMSD -1
REMARK  1 active torsions:
REMARK  status: ('A' for Active; 'I' for Inactive)
REMARK    1  A    between atoms: C3_4  and  O_7 
ROOT
ATOM      1  C   UNL d   1      -5.643   4.815   1.799  0.00  0.00    -0.033 A 
ATOM      2  C1  UNL d   1      -5.425   5.996   2.512  0.00  0.00     0.039 A 
ATOM      3  C2  UNL d   1      -5.476   5.990   3.908  0.00  0.00    -0.080 A 
ATOM      4  C3  UNL d   1      -5.743   4.799   4.577  0.00  0.00     0.150 A 
ATOM      5  C4  UNL d   1      -5.957   3.618   3.873  0.00  0.00    -0.007 A 
ATOM      6  C5  UNL d   1      -5.907   3.626   2.479  0.00  0.00     0.039 A 
ENDROOT
BRANCH   4   7
ATOM      7  O   UNL d   1      -5.807   4.744   5.937  0.00  0.00    -0.526 OA
ATOM      8  H5  UNL d   1      -5.667   5.640   6.288  0.00  0.00     0.418 HD
ENDBRANCH   4   7
TORSDOF 1
ENDMDL
