MODEL 1
REMARK minimizedAffinity -3.39550066
REMARK minimizedRMSD -1
REMARK  1 active torsions:
REMARK  status: ('A' for Active; 'I' for Inactive)
REMARK    1  A    between atoms: C3_4  and  O_7 
ROOT
ATOM      1  C   UNL d   1      -5.066   3.597   5.263  0.00  0.00    -0.033 A 
ATOM      2  C1  UNL d   1      -5.998   3.372   4.249  0.00  0.00     0.039 A 
ATOM      3  C2  UNL d   1      -5.994   4.171   3.104  0.00  0.00    -0.080 A 
ATOM      4  C3  UNL d   1      -5.053   5.190   2.986  0.00  0.00     0.150 A 
ATOM      5  C4  UNL d   1      -4.119   5.418   3.991  0.00  0.00    -0.007 A 
ATOM      6  C5  UNL d   1      -4.125   4.620   5.134  0.00  0.00     0.039 A 
ENDROOT
BRANCH   4   7
ATOM      7  O   UNL d   1      -5.013   5.999   1.889  0.00  0.00    -0.526 OA
ATOM      8  H5  UNL d   1      -5.735   5.744   1.292  0.00  0.00     0.418 HD
ENDBRANCH   4   7
TORSDOF 1
ENDMDL
