MODEL 1
REMARK minimizedAffinity -1.07832515
REMARK minimizedRMSD -1
REMARK  1 active torsions:
REMARK  status: ('A' for Active; 'I' for Inactive)
REMARK    1  A    between atoms: C3_4  and  O_7 
ROOT
ATOM      1  C   UNL d   1      -4.730   6.000   3.951  0.00  0.00    -0.033 A 
ATOM      2  C1  UNL d   1      -5.672   5.856   2.931  0.00  0.00     0.039 A 
ATOM      3  C2  UNL d   1      -5.996   4.585   2.452  0.00  0.00    -0.080 A 
ATOM      4  C3  UNL d   1      -5.373   3.468   3.001  0.00  0.00     0.150 A 
ATOM      5  C4  UNL d   1      -4.436   3.604   4.020  0.00  0.00    -0.007 A 
ATOM      6  C5  UNL d   1      -4.113   4.874   4.496  0.00  0.00     0.039 A 
ENDROOT
BRANCH   4   7
ATOM      7  O   UNL d   1      -5.653   2.208   2.563  0.00  0.00    -0.526 OA
ATOM      8  H5  UNL d   1      -6.296   2.270   1.837  0.00  0.00     0.418 HD
ENDBRANCH   4   7
TORSDOF 1
ENDMDL
