MODEL 1
REMARK minimizedAffinity -3.93251991
REMARK minimizedRMSD -1
REMARK  1 active torsions:
REMARK  status: ('A' for Active; 'I' for Inactive)
REMARK    1  A    between atoms: C3_4  and  O_7 
ROOT
ATOM      1  C   UNL d   1      -5.669   3.879   4.626  0.00  0.00    -0.033 A 
ATOM      2  C1  UNL d   1      -5.633   5.275   4.656  0.00  0.00     0.039 A 
ATOM      3  C2  UNL d   1      -5.299   5.991   3.505  0.00  0.00    -0.080 A 
ATOM      4  C3  UNL d   1      -5.005   5.301   2.332  0.00  0.00     0.150 A 
ATOM      5  C4  UNL d   1      -5.042   3.911   2.294  0.00  0.00    -0.007 A 
ATOM      6  C5  UNL d   1      -5.375   3.198   3.444  0.00  0.00     0.039 A 
ENDROOT
BRANCH   4   7
ATOM      7  O   UNL d   1      -4.668   5.957   1.185  0.00  0.00    -0.526 OA
ATOM      8  H5  UNL d   1      -4.655   6.911   1.369  0.00  0.00     0.418 HD
ENDBRANCH   4   7
TORSDOF 1
ENDMDL
