MODEL 1
REMARK minimizedAffinity -4.05324268
REMARK minimizedRMSD -1
REMARK  1 active torsions:
REMARK  status: ('A' for Active; 'I' for Inactive)
REMARK    1  A    between atoms: C3_4  and  O_7 
ROOT
ATOM      1  C   UNL d   1      -2.479  -0.970  -0.463  0.00  0.00    -0.033 A 
ATOM      2  C1  UNL d   1      -2.591  -1.513   0.818  0.00  0.00     0.039 A 
ATOM      3  C2  UNL d   1      -1.444  -1.777   1.569  0.00  0.00    -0.080 A 
ATOM      4  C3  UNL d   1      -0.193  -1.494   1.029  0.00  0.00     0.150 A 
ATOM      5  C4  UNL d   1      -0.074  -0.949  -0.245  0.00  0.00    -0.007 A 
ATOM      6  C5  UNL d   1      -1.220  -0.687  -0.994  0.00  0.00     0.039 A 
ENDROOT
BRANCH   4   7
ATOM      7  O   UNL d   1       0.955  -1.739   1.722  0.00  0.00    -0.526 OA
ATOM      8  H5  UNL d   1       0.720  -2.142   2.575  0.00  0.00     0.418 HD
ENDBRANCH   4   7
TORSDOF 1
ENDMDL
