MODEL 1
REMARK minimizedAffinity -1.84389818
REMARK minimizedRMSD -1
REMARK  1 active torsions:
REMARK  status: ('A' for Active; 'I' for Inactive)
REMARK    1  A    between atoms: C3_4  and  O_7 
ROOT
ATOM      1  C   UNL d   1      -5.464   4.925   4.072  0.00  0.00    -0.033 A 
ATOM      2  C1  UNL d   1      -4.875   3.856   3.395  0.00  0.00     0.039 A 
ATOM      3  C2  UNL d   1      -4.822   3.854   2.000  0.00  0.00    -0.080 A 
ATOM      4  C3  UNL d   1      -5.360   4.927   1.295  0.00  0.00     0.150 A 
ATOM      5  C4  UNL d   1      -5.946   5.998   1.963  0.00  0.00    -0.007 A 
ATOM      6  C5  UNL d   1      -5.998   5.997   3.356  0.00  0.00     0.039 A 
ENDROOT
BRANCH   4   7
ATOM      7  O   UNL d   1      -5.337   4.969  -0.068  0.00  0.00    -0.526 OA
ATOM      8  H5  UNL d   1      -4.928   4.149  -0.393  0.00  0.00     0.418 HD
ENDBRANCH   4   7
TORSDOF 1
ENDMDL
