MODEL 1
REMARK minimizedAffinity -3.45427465
REMARK minimizedRMSD -1
REMARK  1 active torsions:
REMARK  status: ('A' for Active; 'I' for Inactive)
REMARK    1  A    between atoms: C3_4  and  O_7 
ROOT
ATOM      1  C   UNL d   1      -5.754   4.096   5.141  0.00  0.00    -0.033 A 
ATOM      2  C1  UNL d   1      -5.739   5.432   4.737  0.00  0.00     0.039 A 
ATOM      3  C2  UNL d   1      -5.721   5.752   3.378  0.00  0.00    -0.080 A 
ATOM      4  C3  UNL d   1      -5.719   4.728   2.435  0.00  0.00     0.150 A 
ATOM      5  C4  UNL d   1      -5.739   3.395   2.830  0.00  0.00    -0.007 A 
ATOM      6  C5  UNL d   1      -5.756   3.077   4.188  0.00  0.00     0.039 A 
ENDROOT
BRANCH   4   7
ATOM      7  O   UNL d   1      -5.697   4.991   1.097  0.00  0.00    -0.526 OA
ATOM      8  H5  UNL d   1      -5.656   5.954   0.974  0.00  0.00     0.418 HD
ENDBRANCH   4   7
TORSDOF 1
ENDMDL
