MODEL 1
REMARK minimizedAffinity -1.33967161
REMARK minimizedRMSD -1
REMARK  0 active torsions:
REMARK  status: ('A' for Active; 'I' for Inactive)
ROOT
ATOM      1  C   UNL d   1       3.047  -0.893  -1.417  0.00  0.00    -0.002 A 
ATOM      2  C1  UNL d   1       3.158   0.325  -0.760  0.00  0.00     0.010 A 
ATOM      3  C2  UNL d   1       2.060   0.877  -0.097  0.00  0.00     0.041 A 
ATOM      4  C3  UNL d   1       0.838   0.177  -0.103  0.00  0.00    -0.075 A 
ATOM      5  S   UNL d   1      -0.640   0.659   0.643  0.00  0.00     0.015 SA
ATOM      6  C4  UNL d   1      -1.453  -0.741   0.108  0.00  0.00     0.022 A 
ATOM      7  C5  UNL d   1      -0.632  -1.566  -0.623  0.00  0.00     0.026 A 
ATOM      8  C6  UNL d   1       0.702  -1.052  -0.756  0.00  0.00    -0.082 A 
ATOM      9  C7  UNL d   1       1.833  -1.584  -1.420  0.00  0.00     0.045 A 
ENDROOT
TORSDOF 0
ENDMDL
