MODEL 1
REMARK minimizedAffinity -1.46156394
REMARK minimizedRMSD -1
REMARK  0 active torsions:
REMARK  status: ('A' for Active; 'I' for Inactive)
ROOT
ATOM      1  C   UNL d   1       3.034  -1.085  -1.691  0.00  0.00    -0.002 A 
ATOM      2  C1  UNL d   1       3.288   0.147  -1.105  0.00  0.00     0.010 A 
ATOM      3  C2  UNL d   1       2.316   0.777  -0.325  0.00  0.00     0.041 A 
ATOM      4  C3  UNL d   1       1.073   0.140  -0.141  0.00  0.00    -0.075 A 
ATOM      5  S   UNL d   1      -0.267   0.722   0.775  0.00  0.00     0.015 SA
ATOM      6  C4  UNL d   1      -1.208  -0.652   0.411  0.00  0.00     0.022 A 
ATOM      7  C5  UNL d   1      -0.532  -1.543  -0.388  0.00  0.00     0.026 A 
ATOM      8  C6  UNL d   1       0.794  -1.101  -0.719  0.00  0.00    -0.082 A 
ATOM      9  C7  UNL d   1       1.800  -1.714  -1.505  0.00  0.00     0.045 A 
ENDROOT
TORSDOF 0
ENDMDL
