MODEL 1
REMARK minimizedAffinity -3.61766195
REMARK minimizedRMSD -1
REMARK  0 active torsions:
REMARK  status: ('A' for Active; 'I' for Inactive)
ROOT
ATOM      1  C   UNL d   1       3.025  -0.402  -1.885  0.00  0.00    -0.002 A 
ATOM      2  C1  UNL d   1       2.398  -1.476  -1.269  0.00  0.00     0.010 A 
ATOM      3  C2  UNL d   1       1.091  -1.356  -0.790  0.00  0.00     0.041 A 
ATOM      4  C3  UNL d   1       0.419  -0.128  -0.945  0.00  0.00    -0.075 A 
ATOM      5  S   UNL d   1      -1.185   0.250  -0.438  0.00  0.00     0.015 SA
ATOM      6  C4  UNL d   1      -1.076   1.845  -1.028  0.00  0.00     0.022 A 
ATOM      7  C5  UNL d   1       0.148   2.100  -1.601  0.00  0.00     0.026 A 
ATOM      8  C6  UNL d   1       1.029   0.967  -1.563  0.00  0.00    -0.082 A 
ATOM      9  C7  UNL d   1       2.355   0.814  -2.036  0.00  0.00     0.045 A 
ENDROOT
TORSDOF 0
ENDMDL
