MODEL 1
REMARK minimizedAffinity -1.78464556
REMARK minimizedRMSD -1
REMARK  0 active torsions:
REMARK  status: ('A' for Active; 'I' for Inactive)
ROOT
ATOM      1  C   UNL d   1       2.870  -1.091  -1.266  0.00  0.00    -0.002 A 
ATOM      2  C1  UNL d   1       3.114  -0.025  -0.412  0.00  0.00     0.010 A 
ATOM      3  C2  UNL d   1       2.069   0.572   0.295  0.00  0.00     0.041 A 
ATOM      4  C3  UNL d   1       0.762   0.074   0.128  0.00  0.00    -0.075 A 
ATOM      5  S   UNL d   1      -0.674   0.648   0.892  0.00  0.00     0.015 SA
ATOM      6  C4  UNL d   1      -1.645  -0.509   0.102  0.00  0.00     0.022 A 
ATOM      7  C5  UNL d   1      -0.908  -1.321  -0.727  0.00  0.00     0.026 A 
ATOM      8  C6  UNL d   1       0.491  -0.999  -0.726  0.00  0.00    -0.082 A 
ATOM      9  C7  UNL d   1       1.572  -1.582  -1.429  0.00  0.00     0.045 A 
ENDROOT
TORSDOF 0
ENDMDL
