MODEL 1
REMARK minimizedAffinity -4.08343792
REMARK minimizedRMSD -1
REMARK  0 active torsions:
REMARK  status: ('A' for Active; 'I' for Inactive)
ROOT
ATOM      1  C   UNL d   1       2.927  -0.304  -1.743  0.00  0.00    -0.002 A 
ATOM      2  C1  UNL d   1       2.692   1.051  -1.924  0.00  0.00     0.010 A 
ATOM      3  C2  UNL d   1       1.487   1.624  -1.513  0.00  0.00     0.041 A 
ATOM      4  C3  UNL d   1       0.513   0.805  -0.910  0.00  0.00    -0.075 A 
ATOM      5  S   UNL d   1      -1.036   1.287  -0.327  0.00  0.00     0.015 SA
ATOM      6  C4  UNL d   1      -1.422  -0.294   0.177  0.00  0.00     0.022 A 
ATOM      7  C5  UNL d   1      -0.405  -1.182  -0.085  0.00  0.00     0.026 A 
ATOM      8  C6  UNL d   1       0.727  -0.563  -0.716  0.00  0.00    -0.082 A 
ATOM      9  C7  UNL d   1       1.959  -1.114  -1.144  0.00  0.00     0.045 A 
ENDROOT
TORSDOF 0
ENDMDL
