MODEL 1
REMARK minimizedAffinity -2.4620347
REMARK minimizedRMSD -1
REMARK  0 active torsions:
REMARK  status: ('A' for Active; 'I' for Inactive)
ROOT
ATOM      1  C   UNL d   1      -2.610   0.884   2.730  0.00  0.00    -0.002 A 
ATOM      2  C1  UNL d   1      -1.758   1.979   2.691  0.00  0.00     0.010 A 
ATOM      3  C2  UNL d   1      -0.677   2.006   1.807  0.00  0.00     0.041 A 
ATOM      4  C3  UNL d   1      -0.466   0.905   0.954  0.00  0.00    -0.075 A 
ATOM      5  S   UNL d   1       0.792   0.718  -0.210  0.00  0.00     0.015 SA
ATOM      6  C4  UNL d   1       0.227  -0.819  -0.683  0.00  0.00     0.022 A 
ATOM      7  C5  UNL d   1      -0.892  -1.196   0.020  0.00  0.00     0.026 A 
ATOM      8  C6  UNL d   1      -1.311  -0.208   0.975  0.00  0.00    -0.082 A 
ATOM      9  C7  UNL d   1      -2.397  -0.206   1.883  0.00  0.00     0.045 A 
ENDROOT
TORSDOF 0
ENDMDL
