MODEL 1
REMARK minimizedAffinity -4.8883791
REMARK minimizedRMSD -1
REMARK  0 active torsions:
REMARK  status: ('A' for Active; 'I' for Inactive)
ROOT
ATOM      1  C   UNL d   1       1.918  -1.099  -1.413  0.00  0.00    -0.002 A 
ATOM      2  C1  UNL d   1       2.344   0.219  -1.326  0.00  0.00     0.010 A 
ATOM      3  C2  UNL d   1       1.661   1.135  -0.522  0.00  0.00     0.041 A 
ATOM      4  C3  UNL d   1       0.534   0.698   0.201  0.00  0.00    -0.075 A 
ATOM      5  S   UNL d   1      -0.457   1.642   1.250  0.00  0.00     0.015 SA
ATOM      6  C4  UNL d   1      -1.468   0.318   1.608  0.00  0.00     0.022 A 
ATOM      7  C5  UNL d   1      -1.074  -0.824   0.952  0.00  0.00     0.026 A 
ATOM      8  C6  UNL d   1       0.087  -0.624   0.131  0.00  0.00    -0.082 A 
ATOM      9  C7  UNL d   1       0.800  -1.528  -0.694  0.00  0.00     0.045 A 
ENDROOT
TORSDOF 0
ENDMDL
