MODEL 1
REMARK minimizedAffinity 1.40101182
REMARK minimizedRMSD -1
REMARK  0 active torsions:
REMARK  status: ('A' for Active; 'I' for Inactive)
ROOT
ATOM      1  C   UNL d   1      -2.319   0.546   4.002  0.00  0.00    -0.002 A 
ATOM      2  C1  UNL d   1      -1.713   1.776   3.790  0.00  0.00     0.010 A 
ATOM      3  C2  UNL d   1      -1.131   2.078   2.557  0.00  0.00     0.041 A 
ATOM      4  C3  UNL d   1      -1.171   1.113   1.531  0.00  0.00    -0.075 A 
ATOM      5  S   UNL d   1      -0.524   1.262  -0.061  0.00  0.00     0.015 SA
ATOM      6  C4  UNL d   1      -1.039  -0.303  -0.497  0.00  0.00     0.022 A 
ATOM      7  C5  UNL d   1      -1.689  -0.938   0.535  0.00  0.00     0.026 A 
ATOM      8  C6  UNL d   1      -1.777  -0.132   1.720  0.00  0.00    -0.082 A 
ATOM      9  C7  UNL d   1      -2.357  -0.407   2.982  0.00  0.00     0.045 A 
ENDROOT
TORSDOF 0
ENDMDL
