MODEL 1
REMARK minimizedAffinity 0.19607681
REMARK minimizedRMSD -1
REMARK  0 active torsions:
REMARK  status: ('A' for Active; 'I' for Inactive)
ROOT
ATOM      1  C   UNL d   1      -0.632  -0.792  -0.223  0.00  0.00    -0.002 A 
ATOM      2  C1  UNL d   1       0.186   0.324  -0.119  0.00  0.00     0.010 A 
ATOM      3  C2  UNL d   1      -0.083   1.316   0.825  0.00  0.00     0.041 A 
ATOM      4  C3  UNL d   1      -1.198   1.166   1.673  0.00  0.00    -0.075 A 
ATOM      5  S   UNL d   1      -1.722   2.253   2.905  0.00  0.00     0.015 SA
ATOM      6  C4  UNL d   1      -3.043   1.261   3.323  0.00  0.00     0.022 A 
ATOM      7  C5  UNL d   1      -3.099   0.124   2.551  0.00  0.00     0.026 A 
ATOM      8  C6  UNL d   1      -2.037   0.051   1.588  0.00  0.00    -0.082 A 
ATOM      9  C7  UNL d   1      -1.738  -0.938   0.619  0.00  0.00     0.045 A 
ENDROOT
TORSDOF 0
ENDMDL
