MODEL 1
REMARK minimizedAffinity 18.6794453
REMARK minimizedRMSD -1
REMARK  0 active torsions:
REMARK  status: ('A' for Active; 'I' for Inactive)
ROOT
ATOM      1  C   UNL d   1       3.675   4.016  -3.720  0.00  0.00     0.124 A 
ATOM      2  C1  UNL d   1       3.974   3.222  -4.819  0.00  0.00     0.062 A 
ATOM      3  C2  UNL d   1       3.527   1.905  -4.873  0.00  0.00     0.162 A 
ATOM      4  C3  UNL d   1       2.775   1.374  -3.825  0.00  0.00    -0.034 A 
ATOM      5  C4  UNL d   1       2.479   2.178  -2.723  0.00  0.00     0.162 A 
ATOM      6  C5  UNL d   1       2.928   3.494  -2.674  0.00  0.00     0.062 A 
ATOM      7  F   UNL d   1       2.638   4.260  -1.612  0.00  0.00    -0.097 F 
ATOM      8  F1  UNL d   1       1.758   1.699  -1.699  0.00  0.00    -0.096 F 
ATOM      9  I   UNL d   1       2.105  -0.595  -3.902  0.00  0.00    -0.060 I 
ATOM     10  F2  UNL d   1       3.831   1.161  -5.946  0.00  0.00    -0.096 F 
ATOM     11  F3  UNL d   1       4.697   3.724  -5.830  0.00  0.00    -0.097 F 
ATOM     12  F4  UNL d   1       4.107   5.283  -3.671  0.00  0.00    -0.092 F 
ENDROOT
TORSDOF 0
ENDMDL
