MODEL 1
REMARK minimizedAffinity 18.8121452
REMARK minimizedRMSD -1
REMARK  0 active torsions:
REMARK  status: ('A' for Active; 'I' for Inactive)
ROOT
ATOM      1  C   UNL d   1      -0.786   3.055   3.090  0.00  0.00     0.124 A 
ATOM      2  C1  UNL d   1      -0.617   1.688   2.917  0.00  0.00     0.062 A 
ATOM      3  C2  UNL d   1      -1.670   0.906   2.452  0.00  0.00     0.162 A 
ATOM      4  C3  UNL d   1      -2.902   1.488   2.155  0.00  0.00    -0.034 A 
ATOM      5  C4  UNL d   1      -3.065   2.864   2.332  0.00  0.00     0.162 A 
ATOM      6  C5  UNL d   1      -2.009   3.641   2.798  0.00  0.00     0.062 A 
ATOM      7  F   UNL d   1      -2.174   4.961   2.964  0.00  0.00    -0.097 F 
ATOM      8  F1  UNL d   1      -4.236   3.456   2.057  0.00  0.00    -0.096 F 
ATOM      9  I   UNL d   1      -4.479   0.322   1.459  0.00  0.00    -0.060 I 
ATOM     10  F2  UNL d   1      -1.478  -0.413   2.294  0.00  0.00    -0.096 F 
ATOM     11  F3  UNL d   1       0.564   1.119   3.199  0.00  0.00    -0.097 F 
ATOM     12  F4  UNL d   1       0.229   3.805   3.539  0.00  0.00    -0.092 F 
ENDROOT
TORSDOF 0
ENDMDL
