MODEL 1
REMARK minimizedAffinity 21.7743053
REMARK minimizedRMSD -1
REMARK  0 active torsions:
REMARK  status: ('A' for Active; 'I' for Inactive)
ROOT
ATOM      1  C   UNL d   1       1.428   2.034   1.838  0.00  0.00     0.124 A 
ATOM      2  C1  UNL d   1       0.749   1.468   2.908  0.00  0.00     0.062 A 
ATOM      3  C2  UNL d   1      -0.522   0.931   2.727  0.00  0.00     0.162 A 
ATOM      4  C3  UNL d   1      -1.124   0.957   1.468  0.00  0.00    -0.034 A 
ATOM      5  C4  UNL d   1      -0.436   1.528   0.397  0.00  0.00     0.162 A 
ATOM      6  C5  UNL d   1       0.835   2.063   0.583  0.00  0.00     0.062 A 
ATOM      7  F   UNL d   1       1.489   2.610  -0.452  0.00  0.00    -0.097 F 
ATOM      8  F1  UNL d   1      -0.984   1.570  -0.827  0.00  0.00    -0.096 F 
ATOM      9  I   UNL d   1      -3.024   0.155   1.192  0.00  0.00    -0.060 I 
ATOM     10  F2  UNL d   1      -1.154   0.391   3.779  0.00  0.00    -0.096 F 
ATOM     11  F3  UNL d   1       1.319   1.439   4.122  0.00  0.00    -0.097 F 
ATOM     12  F4  UNL d   1       2.650   2.550   2.016  0.00  0.00    -0.092 F 
ENDROOT
TORSDOF 0
ENDMDL
