MODEL 1
REMARK minimizedAffinity 23.0688801
REMARK minimizedRMSD -1
REMARK  0 active torsions:
REMARK  status: ('A' for Active; 'I' for Inactive)
ROOT
ATOM      1  C   UNL d   1       1.492  -0.692  -3.304  0.00  0.00     0.124 A 
ATOM      2  C1  UNL d   1       2.725  -0.323  -2.786  0.00  0.00     0.062 A 
ATOM      3  C2  UNL d   1       2.808   0.671  -1.815  0.00  0.00     0.162 A 
ATOM      4  C3  UNL d   1       1.652   1.304  -1.356  0.00  0.00    -0.034 A 
ATOM      5  C4  UNL d   1       0.415   0.928  -1.883  0.00  0.00     0.162 A 
ATOM      6  C5  UNL d   1       0.338  -0.066  -2.853  0.00  0.00     0.062 A 
ATOM      7  F   UNL d   1      -0.854  -0.421  -3.353  0.00  0.00    -0.097 F 
ATOM      8  F1  UNL d   1      -0.715   1.515  -1.464  0.00  0.00    -0.096 F 
ATOM      9  I   UNL d   1       1.771   2.791   0.095  0.00  0.00    -0.060 I 
ATOM     10  F2  UNL d   1       4.013   1.007  -1.332  0.00  0.00    -0.096 F 
ATOM     11  F3  UNL d   1       3.841  -0.926  -3.221  0.00  0.00    -0.097 F 
ATOM     12  F4  UNL d   1       1.416  -1.648  -4.239  0.00  0.00    -0.092 F 
ENDROOT
TORSDOF 0
ENDMDL
