MODEL 1
REMARK minimizedAffinity 10.6589079
REMARK minimizedRMSD -1
REMARK  0 active torsions:
REMARK  status: ('A' for Active; 'I' for Inactive)
ROOT
ATOM      1  C   UNL d   1       2.994   4.432  -2.660  0.00  0.00     0.124 A 
ATOM      2  C1  UNL d   1       2.251   3.736  -1.717  0.00  0.00     0.062 A 
ATOM      3  C2  UNL d   1       1.890   2.412  -1.950  0.00  0.00     0.162 A 
ATOM      4  C3  UNL d   1       2.273   1.774  -3.130  0.00  0.00    -0.034 A 
ATOM      5  C4  UNL d   1       3.019   2.482  -4.074  0.00  0.00     0.162 A 
ATOM      6  C5  UNL d   1       3.377   3.805  -3.837  0.00  0.00     0.062 A 
ATOM      7  F   UNL d   1       4.095   4.476  -4.750  0.00  0.00    -0.097 F 
ATOM      8  F1  UNL d   1       3.404   1.900  -5.220  0.00  0.00    -0.096 F 
ATOM      9  I   UNL d   1       1.735  -0.205  -3.481  0.00  0.00    -0.060 I 
ATOM     10  F2  UNL d   1       1.172   1.763  -1.021  0.00  0.00    -0.096 F 
ATOM     11  F3  UNL d   1       1.879   4.340  -0.580  0.00  0.00    -0.097 F 
ATOM     12  F4  UNL d   1       3.339   5.706  -2.435  0.00  0.00    -0.092 F 
ENDROOT
TORSDOF 0
ENDMDL
