MODEL 1
REMARK minimizedAffinity 19.9521542
REMARK minimizedRMSD -1
REMARK  0 active torsions:
REMARK  status: ('A' for Active; 'I' for Inactive)
ROOT
ATOM      1  C   UNL d   1       1.488  -0.055  -2.859  0.00  0.00     0.124 A 
ATOM      2  C1  UNL d   1       1.404   1.027  -1.994  0.00  0.00     0.062 A 
ATOM      3  C2  UNL d   1       2.007   2.237  -2.327  0.00  0.00     0.162 A 
ATOM      4  C3  UNL d   1       2.698   2.371  -3.531  0.00  0.00    -0.034 A 
ATOM      5  C4  UNL d   1       2.778   1.278  -4.395  0.00  0.00     0.162 A 
ATOM      6  C5  UNL d   1       2.174   0.071  -4.058  0.00  0.00     0.062 A 
ATOM      7  F   UNL d   1       2.256  -0.974  -4.895  0.00  0.00    -0.097 F 
ATOM      8  F1  UNL d   1       3.435   1.372  -5.561  0.00  0.00    -0.096 F 
ATOM      9  I   UNL d   1       3.601   4.178  -4.032  0.00  0.00    -0.060 I 
ATOM     10  F2  UNL d   1       1.911   3.266  -1.472  0.00  0.00    -0.096 F 
ATOM     11  F3  UNL d   1       0.742   0.907  -0.835  0.00  0.00    -0.097 F 
ATOM     12  F4  UNL d   1       0.908  -1.218  -2.536  0.00  0.00    -0.092 F 
ENDROOT
TORSDOF 0
ENDMDL
