MODEL 1
REMARK minimizedAffinity 23.9119682
REMARK minimizedRMSD -1
REMARK  0 active torsions:
REMARK  status: ('A' for Active; 'I' for Inactive)
ROOT
ATOM      1  C   UNL d   1      -5.224  -1.898  -1.975  0.00  0.00     0.124 A 
ATOM      2  C1  UNL d   1      -5.326  -3.129  -2.609  0.00  0.00     0.062 A 
ATOM      3  C2  UNL d   1      -5.026  -4.299  -1.918  0.00  0.00     0.162 A 
ATOM      4  C3  UNL d   1      -4.622  -4.246  -0.584  0.00  0.00    -0.034 A 
ATOM      5  C4  UNL d   1      -4.520  -3.004   0.046  0.00  0.00     0.162 A 
ATOM      6  C5  UNL d   1      -4.821  -1.837  -0.648  0.00  0.00     0.062 A 
ATOM      7  F   UNL d   1      -4.722  -0.649  -0.034  0.00  0.00    -0.097 F 
ATOM      8  F1  UNL d   1      -4.134  -2.916   1.328  0.00  0.00    -0.096 F 
ATOM      9  I   UNL d   1      -4.173  -5.994   0.452  0.00  0.00    -0.060 I 
ATOM     10  F2  UNL d   1      -5.134  -5.474  -2.556  0.00  0.00    -0.096 F 
ATOM     11  F3  UNL d   1      -5.714  -3.190  -3.891  0.00  0.00    -0.097 F 
ATOM     12  F4  UNL d   1      -5.512  -0.774  -2.642  0.00  0.00    -0.092 F 
ENDROOT
TORSDOF 0
ENDMDL
