MODEL 1
REMARK minimizedAffinity 26.2594738
REMARK minimizedRMSD -1
REMARK  0 active torsions:
REMARK  status: ('A' for Active; 'I' for Inactive)
ROOT
ATOM      1  C   UNL d   1      -0.838   1.285   2.323  0.00  0.00     0.124 A 
ATOM      2  C1  UNL d   1      -1.303   1.119   1.025  0.00  0.00     0.062 A 
ATOM      3  C2  UNL d   1      -0.515   1.504  -0.056  0.00  0.00     0.162 A 
ATOM      4  C3  UNL d   1       0.747   2.060   0.156  0.00  0.00    -0.034 A 
ATOM      5  C4  UNL d   1       1.207   2.225   1.463  0.00  0.00     0.162 A 
ATOM      6  C5  UNL d   1       0.416   1.838   2.540  0.00  0.00     0.062 A 
ATOM      7  F   UNL d   1       0.867   2.000   3.793  0.00  0.00    -0.097 F 
ATOM      8  F1  UNL d   1       2.416   2.756   1.702  0.00  0.00    -0.096 F 
ATOM      9  I   UNL d   1       1.927   2.638  -1.458  0.00  0.00    -0.060 I 
ATOM     10  F2  UNL d   1      -0.990   1.332  -1.298  0.00  0.00    -0.096 F 
ATOM     11  F3  UNL d   1      -2.515   0.586   0.812  0.00  0.00    -0.097 F 
ATOM     12  F4  UNL d   1      -1.598   0.914   3.361  0.00  0.00    -0.092 F 
ENDROOT
TORSDOF 0
ENDMDL
