MODEL 1
REMARK minimizedAffinity 18.1838188
REMARK minimizedRMSD -1
REMARK  0 active torsions:
REMARK  status: ('A' for Active; 'I' for Inactive)
ROOT
ATOM      1  C   UNL d   1       2.954   4.058  -3.114  0.00  0.00     0.124 A 
ATOM      2  C1  UNL d   1       2.132   3.400  -2.210  0.00  0.00     0.062 A 
ATOM      3  C2  UNL d   1       1.823   2.055  -2.394  0.00  0.00     0.162 A 
ATOM      4  C3  UNL d   1       2.339   1.359  -3.487  0.00  0.00    -0.034 A 
ATOM      5  C4  UNL d   1       3.165   2.027  -4.393  0.00  0.00     0.162 A 
ATOM      6  C5  UNL d   1       3.470   3.371  -4.204  0.00  0.00     0.062 A 
ATOM      7  F   UNL d   1       4.265   4.005  -5.079  0.00  0.00    -0.097 F 
ATOM      8  F1  UNL d   1       3.677   1.387  -5.454  0.00  0.00    -0.096 F 
ATOM      9  I   UNL d   1       1.880  -0.652  -3.766  0.00  0.00    -0.060 I 
ATOM     10  F2  UNL d   1       1.026   1.445  -1.505  0.00  0.00    -0.096 F 
ATOM     11  F3  UNL d   1       1.632   4.062  -1.156  0.00  0.00    -0.097 F 
ATOM     12  F4  UNL d   1       3.249   5.352  -2.935  0.00  0.00    -0.092 F 
ENDROOT
TORSDOF 0
ENDMDL
