MODEL 1
REMARK minimizedAffinity 28.2952232
REMARK minimizedRMSD -1
REMARK  0 active torsions:
REMARK  status: ('A' for Active; 'I' for Inactive)
ROOT
ATOM      1  C   UNL d   1       3.031   4.672  -3.745  0.00  0.00     0.124 A 
ATOM      2  C1  UNL d   1       2.534   4.076  -2.594  0.00  0.00     0.062 A 
ATOM      3  C2  UNL d   1       2.234   2.717  -2.583  0.00  0.00     0.162 A 
ATOM      4  C3  UNL d   1       2.432   1.944  -3.727  0.00  0.00    -0.034 A 
ATOM      5  C4  UNL d   1       2.931   2.550  -4.881  0.00  0.00     0.162 A 
ATOM      6  C5  UNL d   1       3.229   3.909  -4.887  0.00  0.00     0.062 A 
ATOM      7  F   UNL d   1       3.709   4.483  -6.000  0.00  0.00    -0.097 F 
ATOM      8  F1  UNL d   1       3.134   1.836  -5.998  0.00  0.00    -0.096 F 
ATOM      9  I   UNL d   1       1.985  -0.089  -3.714  0.00  0.00    -0.060 I 
ATOM     10  F2  UNL d   1       1.755   2.168  -1.457  0.00  0.00    -0.096 F 
ATOM     11  F3  UNL d   1       2.341   4.812  -1.490  0.00  0.00    -0.097 F 
ATOM     12  F4  UNL d   1       3.317   5.980  -3.754  0.00  0.00    -0.092 F 
ENDROOT
TORSDOF 0
ENDMDL
