MODEL 1
REMARK minimizedAffinity 21.4514446
REMARK minimizedRMSD -1
REMARK  0 active torsions:
REMARK  status: ('A' for Active; 'I' for Inactive)
ROOT
ATOM      1  C   UNL d   1       1.395  -0.764  -3.613  0.00  0.00     0.124 A 
ATOM      2  C1  UNL d   1       1.281   0.312  -2.744  0.00  0.00     0.062 A 
ATOM      3  C2  UNL d   1       2.048   1.457  -2.942  0.00  0.00     0.162 A 
ATOM      4  C3  UNL d   1       2.935   1.532  -4.016  0.00  0.00    -0.034 A 
ATOM      5  C4  UNL d   1       3.045   0.446  -4.886  0.00  0.00     0.162 A 
ATOM      6  C5  UNL d   1       2.276  -0.696  -4.683  0.00  0.00     0.062 A 
ATOM      7  F   UNL d   1       2.387  -1.734  -5.524  0.00  0.00    -0.097 F 
ATOM      8  F1  UNL d   1       3.888   0.485  -5.928  0.00  0.00    -0.096 F 
ATOM      9  I   UNL d   1       4.084   3.242  -4.316  0.00  0.00    -0.060 I 
ATOM     10  F2  UNL d   1       1.918   2.481  -2.086  0.00  0.00    -0.096 F 
ATOM     11  F3  UNL d   1       0.431   0.249  -1.709  0.00  0.00    -0.097 F 
ATOM     12  F4  UNL d   1       0.656  -1.864  -3.420  0.00  0.00    -0.092 F 
ENDROOT
TORSDOF 0
ENDMDL
