MODEL 1
REMARK minimizedAffinity 30.2799282
REMARK minimizedRMSD -1
REMARK  0 active torsions:
REMARK  status: ('A' for Active; 'I' for Inactive)
ROOT
ATOM      1  C   UNL d   1      -2.827   2.408   1.707  0.00  0.00     0.124 A 
ATOM      2  C1  UNL d   1      -1.792   2.906   2.487  0.00  0.00     0.062 A 
ATOM      3  C2  UNL d   1      -0.774   2.062   2.920  0.00  0.00     0.162 A 
ATOM      4  C3  UNL d   1      -0.785   0.710   2.575  0.00  0.00    -0.034 A 
ATOM      5  C4  UNL d   1      -1.830   0.217   1.792  0.00  0.00     0.162 A 
ATOM      6  C5  UNL d   1      -2.845   1.065   1.361  0.00  0.00     0.062 A 
ATOM      7  F   UNL d   1      -3.844   0.582   0.608  0.00  0.00    -0.097 F 
ATOM      8  F1  UNL d   1      -1.872  -1.077   1.441  0.00  0.00    -0.096 F 
ATOM      9  I   UNL d   1       0.735  -0.555   3.222  0.00  0.00    -0.060 I 
ATOM     10  F2  UNL d   1       0.214   2.570   3.672  0.00  0.00    -0.096 F 
ATOM     11  F3  UNL d   1      -1.772   4.204   2.824  0.00  0.00    -0.097 F 
ATOM     12  F4  UNL d   1      -3.805   3.223   1.292  0.00  0.00    -0.092 F 
ENDROOT
TORSDOF 0
ENDMDL
