MODEL 1
REMARK minimizedAffinity 8.45732307
REMARK minimizedRMSD -1
REMARK  0 active torsions:
REMARK  status: ('A' for Active; 'I' for Inactive)
ROOT
ATOM      1  C   UNL d   1      -0.867  -0.830  -4.543  0.00  0.00     0.124 A 
ATOM      2  C1  UNL d   1       0.461  -1.127  -4.272  0.00  0.00     0.062 A 
ATOM      3  C2  UNL d   1       1.160  -0.397  -3.315  0.00  0.00     0.162 A 
ATOM      4  C3  UNL d   1       0.532   0.637  -2.621  0.00  0.00    -0.034 A 
ATOM      5  C4  UNL d   1      -0.804   0.930  -2.900  0.00  0.00     0.162 A 
ATOM      6  C5  UNL d   1      -1.499   0.198  -3.857  0.00  0.00     0.062 A 
ATOM      7  F   UNL d   1      -2.782   0.487  -4.117  0.00  0.00    -0.097 F 
ATOM      8  F1  UNL d   1      -1.439   1.918  -2.251  0.00  0.00    -0.096 F 
ATOM      9  I   UNL d   1       1.574   1.731  -1.189  0.00  0.00    -0.060 I 
ATOM     10  F2  UNL d   1       2.443  -0.706  -3.074  0.00  0.00    -0.096 F 
ATOM     11  F3  UNL d   1       1.073  -2.119  -4.934  0.00  0.00    -0.097 F 
ATOM     12  F4  UNL d   1      -1.538  -1.533  -5.465  0.00  0.00    -0.092 F 
ENDROOT
TORSDOF 0
ENDMDL
