MODEL 1
REMARK minimizedAffinity 13.6857891
REMARK minimizedRMSD -1
REMARK  0 active torsions:
REMARK  status: ('A' for Active; 'I' for Inactive)
ROOT
ATOM      1  C   UNL d   1       1.297   0.173  -2.533  0.00  0.00     0.124 A 
ATOM      2  C1  UNL d   1       1.282   1.334  -1.772  0.00  0.00     0.062 A 
ATOM      3  C2  UNL d   1       1.948   2.472  -2.217  0.00  0.00     0.162 A 
ATOM      4  C3  UNL d   1       2.635   2.455  -3.431  0.00  0.00    -0.034 A 
ATOM      5  C4  UNL d   1       2.648   1.284  -4.190  0.00  0.00     0.162 A 
ATOM      6  C5  UNL d   1       1.980   0.149  -3.741  0.00  0.00     0.062 A 
ATOM      7  F   UNL d   1       1.996  -0.971  -4.477  0.00  0.00    -0.097 F 
ATOM      8  F1  UNL d   1       3.299   1.233  -5.362  0.00  0.00    -0.096 F 
ATOM      9  I   UNL d   1       3.633   4.155  -4.101  0.00  0.00    -0.060 I 
ATOM     10  F2  UNL d   1       1.916   3.580  -1.462  0.00  0.00    -0.096 F 
ATOM     11  F3  UNL d   1       0.624   1.360  -0.604  0.00  0.00    -0.097 F 
ATOM     12  F4  UNL d   1       0.656  -0.920  -2.102  0.00  0.00    -0.092 F 
ENDROOT
TORSDOF 0
ENDMDL
