MODEL 1
REMARK minimizedAffinity -2.31970167
REMARK minimizedRMSD -1
REMARK  0 active torsions:
REMARK  status: ('A' for Active; 'I' for Inactive)
ROOT
ATOM      1  C   UNL d   1      -5.669  -1.908   2.980  0.00  0.00     0.078 C 
ATOM      2  C1  UNL d   1      -4.453  -1.040   2.851  0.00  0.00    -0.077 A 
ATOM      3  C2  UNL d   1      -3.551  -0.900   3.914  0.00  0.00    -0.001 A 
ATOM      4  C3  UNL d   1      -2.428  -0.081   3.784  0.00  0.00     0.003 A 
ATOM      5  C4  UNL d   1      -2.198   0.606   2.593  0.00  0.00    -0.005 A 
ATOM      6  C5  UNL d   1      -3.090   0.475   1.532  0.00  0.00     0.003 A 
ATOM      7  C6  UNL d   1      -4.214  -0.344   1.660  0.00  0.00    -0.001 A 
ENDROOT
TORSDOF 0
ENDMDL
