MODEL 1
REMARK minimizedAffinity -1.12123752
REMARK minimizedRMSD -1
REMARK  0 active torsions:
REMARK  status: ('A' for Active; 'I' for Inactive)
ROOT
ATOM      1  C   UNL d   1      -3.746   5.590   2.490  0.00  0.00     0.078 C 
ATOM      2  C1  UNL d   1      -3.310   4.587   1.464  0.00  0.00    -0.077 A 
ATOM      3  C2  UNL d   1      -3.099   3.247   1.808  0.00  0.00    -0.001 A 
ATOM      4  C3  UNL d   1      -2.684   2.327   0.844  0.00  0.00     0.003 A 
ATOM      5  C4  UNL d   1      -2.475   2.738  -0.471  0.00  0.00    -0.005 A 
ATOM      6  C5  UNL d   1      -2.680   4.070  -0.823  0.00  0.00     0.003 A 
ATOM      7  C6  UNL d   1      -3.095   4.992   0.140  0.00  0.00    -0.001 A 
ENDROOT
TORSDOF 0
ENDMDL
