MODEL 1
REMARK minimizedAffinity 5.46591043
REMARK minimizedRMSD -1
REMARK  0 active torsions:
REMARK  status: ('A' for Active; 'I' for Inactive)
ROOT
ATOM      1  C   UNL d   1      -3.367   0.187   2.991  0.00  0.00     0.078 C 
ATOM      2  C1  UNL d   1      -4.002   0.364   1.644  0.00  0.00    -0.077 A 
ATOM      3  C2  UNL d   1      -3.220   0.548   0.497  0.00  0.00    -0.001 A 
ATOM      4  C3  UNL d   1      -3.825   0.721  -0.749  0.00  0.00     0.003 A 
ATOM      5  C4  UNL d   1      -5.214   0.714  -0.860  0.00  0.00    -0.005 A 
ATOM      6  C5  UNL d   1      -6.000   0.535   0.276  0.00  0.00     0.003 A 
ATOM      7  C6  UNL d   1      -5.397   0.361   1.523  0.00  0.00    -0.001 A 
ENDROOT
TORSDOF 0
ENDMDL
