MODEL 1
REMARK minimizedAffinity -2.81054497
REMARK minimizedRMSD -1
REMARK  0 active torsions:
REMARK  status: ('A' for Active; 'I' for Inactive)
ROOT
ATOM      1  C   UNL d   1      -2.916   3.007   0.157  0.00  0.00     0.078 C 
ATOM      2  C1  UNL d   1      -2.843   1.674   0.840  0.00  0.00    -0.077 A 
ATOM      3  C2  UNL d   1      -2.607   1.581   2.218  0.00  0.00    -0.001 A 
ATOM      4  C3  UNL d   1      -2.532   0.334   2.838  0.00  0.00     0.003 A 
ATOM      5  C4  UNL d   1      -2.690  -0.831   2.090  0.00  0.00    -0.005 A 
ATOM      6  C5  UNL d   1      -2.923  -0.749   0.718  0.00  0.00     0.003 A 
ATOM      7  C6  UNL d   1      -2.998   0.498   0.096  0.00  0.00    -0.001 A 
ENDROOT
TORSDOF 0
ENDMDL
