MODEL 1
REMARK minimizedAffinity 2.99761295
REMARK minimizedRMSD -1
REMARK  0 active torsions:
REMARK  status: ('A' for Active; 'I' for Inactive)
ROOT
ATOM      1  C   UNL d   1      -2.807  -0.755   2.861  0.00  0.00     0.078 C 
ATOM      2  C1  UNL d   1      -2.973   0.036   1.598  0.00  0.00    -0.077 A 
ATOM      3  C2  UNL d   1      -3.115  -0.603   0.360  0.00  0.00    -0.001 A 
ATOM      4  C3  UNL d   1      -3.259   0.147  -0.809  0.00  0.00     0.003 A 
ATOM      5  C4  UNL d   1      -3.261   1.539  -0.752  0.00  0.00    -0.005 A 
ATOM      6  C5  UNL d   1      -3.117   2.183   0.475  0.00  0.00     0.003 A 
ATOM      7  C6  UNL d   1      -2.973   1.436   1.645  0.00  0.00    -0.001 A 
ENDROOT
TORSDOF 0
ENDMDL
