MODEL 1
REMARK minimizedAffinity 1.72707093
REMARK minimizedRMSD -1
REMARK  0 active torsions:
REMARK  status: ('A' for Active; 'I' for Inactive)
ROOT
ATOM      1  C   UNL d   1      -3.796   4.436   0.605  0.00  0.00     0.078 C 
ATOM      2  C1  UNL d   1      -3.366   3.038   0.275  0.00  0.00    -0.077 A 
ATOM      3  C2  UNL d   1      -4.163   1.939   0.618  0.00  0.00    -0.001 A 
ATOM      4  C3  UNL d   1      -3.746   0.642   0.312  0.00  0.00     0.003 A 
ATOM      5  C4  UNL d   1      -2.531   0.433  -0.337  0.00  0.00    -0.005 A 
ATOM      6  C5  UNL d   1      -1.730   1.520  -0.680  0.00  0.00     0.003 A 
ATOM      7  C6  UNL d   1      -2.146   2.817  -0.376  0.00  0.00    -0.001 A 
ENDROOT
TORSDOF 0
ENDMDL
