MODEL 1
REMARK minimizedAffinity -4.69220161
REMARK minimizedRMSD -1
REMARK  0 active torsions:
REMARK  status: ('A' for Active; 'I' for Inactive)
ROOT
ATOM      1  C   UNL d   1      -5.154  -0.274  -0.726  0.00  0.00     0.078 C 
ATOM      2  C1  UNL d   1      -4.094  -0.382   0.330  0.00  0.00    -0.077 A 
ATOM      3  C2  UNL d   1      -4.414  -0.261   1.688  0.00  0.00    -0.001 A 
ATOM      4  C3  UNL d   1      -3.416  -0.354   2.659  0.00  0.00     0.003 A 
ATOM      5  C4  UNL d   1      -2.091  -0.566   2.282  0.00  0.00    -0.005 A 
ATOM      6  C5  UNL d   1      -1.763  -0.685   0.933  0.00  0.00     0.003 A 
ATOM      7  C6  UNL d   1      -2.760  -0.593  -0.039  0.00  0.00    -0.001 A 
ENDROOT
TORSDOF 0
ENDMDL
