MODEL 1
REMARK minimizedAffinity -2.56785417
REMARK minimizedRMSD -1
REMARK  0 active torsions:
REMARK  status: ('A' for Active; 'I' for Inactive)
ROOT
ATOM      1  C   UNL d   1      -3.079   4.331   0.337  0.00  0.00     0.078 C 
ATOM      2  C1  UNL d   1      -3.028   2.881   0.713  0.00  0.00    -0.077 A 
ATOM      3  C2  UNL d   1      -3.307   1.881  -0.227  0.00  0.00    -0.001 A 
ATOM      4  C3  UNL d   1      -3.265   0.535   0.140  0.00  0.00     0.003 A 
ATOM      5  C4  UNL d   1      -2.946   0.176   1.447  0.00  0.00    -0.005 A 
ATOM      6  C5  UNL d   1      -2.669   1.163   2.391  0.00  0.00     0.003 A 
ATOM      7  C6  UNL d   1      -2.710   2.510   2.026  0.00  0.00    -0.001 A 
ENDROOT
TORSDOF 0
ENDMDL
