MODEL 1
REMARK minimizedAffinity -3.55580831
REMARK minimizedRMSD -1
REMARK  0 active torsions:
REMARK  status: ('A' for Active; 'I' for Inactive)
ROOT
ATOM      1  C   UNL d   1      -2.708   0.336   3.461  0.00  0.00     0.078 C 
ATOM      2  C1  UNL d   1      -2.409   0.671   2.030  0.00  0.00    -0.077 A 
ATOM      3  C2  UNL d   1      -2.177  -0.337   1.087  0.00  0.00    -0.001 A 
ATOM      4  C3  UNL d   1      -1.891  -0.011  -0.239  0.00  0.00     0.003 A 
ATOM      5  C4  UNL d   1      -1.834   1.324  -0.635  0.00  0.00    -0.005 A 
ATOM      6  C5  UNL d   1      -2.061   2.335   0.297  0.00  0.00     0.003 A 
ATOM      7  C6  UNL d   1      -2.347   2.010   1.624  0.00  0.00    -0.001 A 
ENDROOT
TORSDOF 0
ENDMDL
