MODEL 1
REMARK minimizedAffinity -3.4877255
REMARK minimizedRMSD -1
REMARK  0 active torsions:
REMARK  status: ('A' for Active; 'I' for Inactive)
ROOT
ATOM      1  C   UNL d   1      -4.130   2.913   4.519  0.00  0.00     0.078 C 
ATOM      2  C1  UNL d   1      -3.786   1.589   3.903  0.00  0.00    -0.077 A 
ATOM      3  C2  UNL d   1      -2.627   1.432   3.132  0.00  0.00    -0.001 A 
ATOM      4  C3  UNL d   1      -2.325   0.197   2.557  0.00  0.00     0.003 A 
ATOM      5  C4  UNL d   1      -3.176  -0.890   2.744  0.00  0.00    -0.005 A 
ATOM      6  C5  UNL d   1      -4.333  -0.742   3.507  0.00  0.00     0.003 A 
ATOM      7  C6  UNL d   1      -4.637   0.492   4.084  0.00  0.00    -0.001 A 
ENDROOT
TORSDOF 0
ENDMDL
