MODEL 1
REMARK minimizedAffinity 0.663192451
REMARK minimizedRMSD -1
REMARK  0 active torsions:
REMARK  status: ('A' for Active; 'I' for Inactive)
ROOT
ATOM      1  C   UNL d   1       5.990   0.756   5.999  0.00  0.00     0.078 C 
ATOM      2  C1  UNL d   1       5.238   0.866   4.707  0.00  0.00    -0.077 A 
ATOM      3  C2  UNL d   1       5.179   2.078   4.008  0.00  0.00    -0.001 A 
ATOM      4  C3  UNL d   1       4.467   2.169   2.812  0.00  0.00     0.003 A 
ATOM      5  C4  UNL d   1       3.806   1.052   2.304  0.00  0.00    -0.005 A 
ATOM      6  C5  UNL d   1       3.857  -0.157   2.993  0.00  0.00     0.003 A 
ATOM      7  C6  UNL d   1       4.569  -0.250   4.190  0.00  0.00    -0.001 A 
ENDROOT
TORSDOF 0
ENDMDL
