MODEL 1
REMARK minimizedAffinity -1.48176897
REMARK minimizedRMSD -1
REMARK  0 active torsions:
REMARK  status: ('A' for Active; 'I' for Inactive)
ROOT
ATOM      1  C   UNL d   1      -2.654   0.099   4.235  0.00  0.00     0.078 C 
ATOM      2  C1  UNL d   1      -2.837   0.282   2.758  0.00  0.00    -0.077 A 
ATOM      3  C2  UNL d   1      -3.121  -0.808   1.926  0.00  0.00    -0.001 A 
ATOM      4  C3  UNL d   1      -3.280  -0.625   0.551  0.00  0.00     0.003 A 
ATOM      5  C4  UNL d   1      -3.154   0.647  -0.004  0.00  0.00    -0.005 A 
ATOM      6  C5  UNL d   1      -2.869   1.738   0.815  0.00  0.00     0.003 A 
ATOM      7  C6  UNL d   1      -2.710   1.556   2.190  0.00  0.00    -0.001 A 
ENDROOT
TORSDOF 0
ENDMDL
