MODEL 1
REMARK minimizedAffinity -3.79078531
REMARK minimizedRMSD -1
REMARK  0 active torsions:
REMARK  status: ('A' for Active; 'I' for Inactive)
ROOT
ATOM      1  C   UNL d   1      -3.009   3.017   0.361  0.00  0.00     0.078 C 
ATOM      2  C1  UNL d   1      -2.951   1.688   1.053  0.00  0.00    -0.077 A 
ATOM      3  C2  UNL d   1      -3.077   0.494   0.333  0.00  0.00    -0.001 A 
ATOM      4  C3  UNL d   1      -3.031  -0.736   0.991  0.00  0.00     0.003 A 
ATOM      5  C4  UNL d   1      -2.860  -0.784   2.373  0.00  0.00    -0.005 A 
ATOM      6  C5  UNL d   1      -2.736   0.399   3.099  0.00  0.00     0.003 A 
ATOM      7  C6  UNL d   1      -2.782   1.630   2.442  0.00  0.00    -0.001 A 
ENDROOT
TORSDOF 0
ENDMDL
