MODEL 1
REMARK minimizedAffinity -0.508973181
REMARK minimizedRMSD -1
REMARK  0 active torsions:
REMARK  status: ('A' for Active; 'I' for Inactive)
ROOT
ATOM      1  C   UNL d   1      -3.059  -0.025   3.152  0.00  0.00     0.078 C 
ATOM      2  C1  UNL d   1      -3.061   0.898   1.971  0.00  0.00    -0.077 A 
ATOM      3  C2  UNL d   1      -3.512   0.466   0.718  0.00  0.00    -0.001 A 
ATOM      4  C3  UNL d   1      -3.500   1.333  -0.375  0.00  0.00     0.003 A 
ATOM      5  C4  UNL d   1      -3.035   2.639  -0.227  0.00  0.00    -0.005 A 
ATOM      6  C5  UNL d   1      -2.582   3.078   1.016  0.00  0.00     0.003 A 
ATOM      7  C6  UNL d   1      -2.594   2.211   2.110  0.00  0.00    -0.001 A 
ENDROOT
TORSDOF 0
ENDMDL
