MODEL 1
REMARK minimizedAffinity 1.26145172
REMARK minimizedRMSD -1
REMARK  0 active torsions:
REMARK  status: ('A' for Active; 'I' for Inactive)
ROOT
ATOM      1  C   UNL d   1      -5.883  -1.735   3.522  0.00  0.00     0.078 C 
ATOM      2  C1  UNL d   1      -4.853  -0.647   3.587  0.00  0.00    -0.077 A 
ATOM      3  C2  UNL d   1      -4.612   0.049   4.778  0.00  0.00    -0.001 A 
ATOM      4  C3  UNL d   1      -3.657   1.066   4.821  0.00  0.00     0.003 A 
ATOM      5  C4  UNL d   1      -2.936   1.397   3.676  0.00  0.00    -0.005 A 
ATOM      6  C5  UNL d   1      -3.170   0.712   2.485  0.00  0.00     0.003 A 
ATOM      7  C6  UNL d   1      -4.125  -0.305   2.440  0.00  0.00    -0.001 A 
ENDROOT
TORSDOF 0
ENDMDL
