MODEL 1
REMARK minimizedAffinity -3.86225224
REMARK minimizedRMSD -1
REMARK  0 active torsions:
REMARK  status: ('A' for Active; 'I' for Inactive)
ROOT
ATOM      1  C   UNL d   1      -2.574   3.247   0.829  0.00  0.00     0.078 C 
ATOM      2  C1  UNL d   1      -2.608   1.789   1.177  0.00  0.00    -0.077 A 
ATOM      3  C2  UNL d   1      -2.436   1.359   2.499  0.00  0.00    -0.001 A 
ATOM      4  C3  UNL d   1      -2.460  -0.002   2.807  0.00  0.00     0.003 A 
ATOM      5  C4  UNL d   1      -2.655  -0.945   1.799  0.00  0.00    -0.005 A 
ATOM      6  C5  UNL d   1      -2.825  -0.527   0.481  0.00  0.00     0.003 A 
ATOM      7  C6  UNL d   1      -2.801   0.834   0.171  0.00  0.00    -0.001 A 
ENDROOT
TORSDOF 0
ENDMDL
