MODEL 1
REMARK minimizedAffinity -3.223912
REMARK minimizedRMSD -1
REMARK  0 active torsions:
REMARK  status: ('A' for Active; 'I' for Inactive)
ROOT
ATOM      1  C   UNL d   1      -2.629   2.956  -0.017  0.00  0.00     0.078 C 
ATOM      2  C1  UNL d   1      -2.556   1.632   0.682  0.00  0.00    -0.077 A 
ATOM      3  C2  UNL d   1      -2.516   0.435  -0.043  0.00  0.00    -0.001 A 
ATOM      4  C3  UNL d   1      -2.458  -0.792   0.621  0.00  0.00     0.003 A 
ATOM      5  C4  UNL d   1      -2.441  -0.833   2.014  0.00  0.00    -0.005 A 
ATOM      6  C5  UNL d   1      -2.483   0.353   2.744  0.00  0.00     0.003 A 
ATOM      7  C6  UNL d   1      -2.541   1.580   2.081  0.00  0.00    -0.001 A 
ENDROOT
TORSDOF 0
ENDMDL
