MODEL 1
REMARK minimizedAffinity 4.25562906
REMARK minimizedRMSD -1
REMARK  0 active torsions:
REMARK  status: ('A' for Active; 'I' for Inactive)
ROOT
ATOM      1  C   UNL d   1      -4.087   0.304   0.227  0.00  0.00     0.078 C 
ATOM      2  C1  UNL d   1      -3.687   0.039   1.648  0.00  0.00    -0.077 A 
ATOM      3  C2  UNL d   1      -2.510   0.581   2.179  0.00  0.00    -0.001 A 
ATOM      4  C3  UNL d   1      -2.146   0.317   3.501  0.00  0.00     0.003 A 
ATOM      5  C4  UNL d   1      -2.953  -0.488   4.302  0.00  0.00    -0.005 A 
ATOM      6  C5  UNL d   1      -4.125  -1.033   3.781  0.00  0.00     0.003 A 
ATOM      7  C6  UNL d   1      -4.491  -0.771   2.460  0.00  0.00    -0.001 A 
ENDROOT
TORSDOF 0
ENDMDL
