MODEL 1
REMARK minimizedAffinity 7.60243702
REMARK minimizedRMSD -1
REMARK  0 active torsions:
REMARK  status: ('A' for Active; 'I' for Inactive)
ROOT
ATOM      1  C   UNL d   1      -5.459  -1.685   3.555  0.00  0.00     0.078 C 
ATOM      2  C1  UNL d   1      -4.219  -0.852   3.422  0.00  0.00    -0.077 A 
ATOM      3  C2  UNL d   1      -3.798  -0.381   2.172  0.00  0.00    -0.001 A 
ATOM      4  C3  UNL d   1      -2.636   0.385   2.062  0.00  0.00     0.003 A 
ATOM      5  C4  UNL d   1      -1.886   0.686   3.197  0.00  0.00    -0.005 A 
ATOM      6  C5  UNL d   1      -2.296   0.220   4.444  0.00  0.00     0.003 A 
ATOM      7  C6  UNL d   1      -3.457  -0.546   4.556  0.00  0.00    -0.001 A 
ENDROOT
TORSDOF 0
ENDMDL
