MODEL 1
REMARK minimizedAffinity -2.83089876
REMARK minimizedRMSD -1
REMARK  0 active torsions:
REMARK  status: ('A' for Active; 'I' for Inactive)
ROOT
ATOM      1  C   UNL d   1      -2.335  -1.120   0.813  0.00  0.00     0.078 C 
ATOM      2  C1  UNL d   1      -2.634   0.342   0.675  0.00  0.00    -0.077 A 
ATOM      3  C2  UNL d   1      -3.468   0.815  -0.346  0.00  0.00    -0.001 A 
ATOM      4  C3  UNL d   1      -3.730   2.180  -0.469  0.00  0.00     0.003 A 
ATOM      5  C4  UNL d   1      -3.161   3.085   0.425  0.00  0.00    -0.005 A 
ATOM      6  C5  UNL d   1      -2.328   2.625   1.443  0.00  0.00     0.003 A 
ATOM      7  C6  UNL d   1      -2.065   1.259   1.567  0.00  0.00    -0.001 A 
ENDROOT
TORSDOF 0
ENDMDL
