MODEL 1
REMARK minimizedAffinity -2.74780965
REMARK minimizedRMSD -1
REMARK  1 active torsions:
REMARK  status: ('A' for Active; 'I' for Inactive)
REMARK    1  A    between atoms: C1_2  and  C2_3 
ROOT
ATOM      1  C2  UNL d   1      -0.901  -0.791  -4.544  0.00  0.00    -0.073 A 
ATOM      2  C3  UNL d   1      -0.343  -2.002  -4.970  0.00  0.00    -0.002 A 
ATOM      3  C4  UNL d   1      -0.077  -3.017  -4.050  0.00  0.00     0.004 A 
ATOM      4  C5  UNL d   1      -0.371  -2.836  -2.699  0.00  0.00    -0.004 A 
ATOM      5  C6  UNL d   1      -0.940  -1.637  -2.256  0.00  0.00    -0.075 A 
ATOM      6  C7  UNL d   1      -1.261  -1.425  -0.805  0.00  0.00     0.076 C 
ATOM      7  C8  UNL d   1      -1.202  -0.621  -3.185  0.00  0.00     0.001 A 
ENDROOT
BRANCH   1   8
ATOM      8  C1  UNL d   1      -1.196   0.306  -5.534  0.00  0.00     0.053 C 
ATOM      9  C   UNL d   1       0.069   1.009  -6.000  0.00  0.00     0.018 C 
ENDBRANCH   1   8
TORSDOF 1
ENDMDL
