MODEL 1
REMARK minimizedAffinity 2.04794407
REMARK minimizedRMSD -1
REMARK  1 active torsions:
REMARK  status: ('A' for Active; 'I' for Inactive)
REMARK    1  A    between atoms: C1_2  and  C2_3 
ROOT
ATOM      1  C2  UNL d   1      -0.774  -1.022  -2.541  0.00  0.00    -0.073 A 
ATOM      2  C3  UNL d   1      -0.311  -2.204  -3.130  0.00  0.00    -0.002 A 
ATOM      3  C4  UNL d   1      -0.167  -2.292  -4.515  0.00  0.00     0.004 A 
ATOM      4  C5  UNL d   1      -0.477  -1.199  -5.324  0.00  0.00    -0.004 A 
ATOM      5  C6  UNL d   1      -0.930  -0.005  -4.754  0.00  0.00    -0.075 A 
ATOM      6  C7  UNL d   1      -1.271   1.179  -5.610  0.00  0.00     0.076 C 
ATOM      7  C8  UNL d   1      -1.074   0.074  -3.362  0.00  0.00     0.001 A 
ENDROOT
BRANCH   1   8
ATOM      8  C1  UNL d   1      -0.924  -0.920  -1.045  0.00  0.00     0.053 C 
ATOM      9  C   UNL d   1      -1.630  -2.133  -0.460  0.00  0.00     0.018 C 
ENDBRANCH   1   8
TORSDOF 1
ENDMDL
