MODEL 1
REMARK minimizedAffinity 0.514829516
REMARK minimizedRMSD -1
REMARK  1 active torsions:
REMARK  status: ('A' for Active; 'I' for Inactive)
REMARK    1  A    between atoms: C1_2  and  C2_3 
ROOT
ATOM      1  C2  UNL d   1      -0.682  -0.438  -4.144  0.00  0.00    -0.073 A 
ATOM      2  C3  UNL d   1       0.032  -1.491  -4.728  0.00  0.00    -0.002 A 
ATOM      3  C4  UNL d   1       0.434  -2.582  -3.957  0.00  0.00     0.004 A 
ATOM      4  C5  UNL d   1       0.122  -2.635  -2.598  0.00  0.00    -0.004 A 
ATOM      5  C6  UNL d   1      -0.601  -1.598  -2.000  0.00  0.00    -0.075 A 
ATOM      6  C7  UNL d   1      -0.943  -1.639  -0.539  0.00  0.00     0.076 C 
ATOM      7  C8  UNL d   1      -0.999  -0.504  -2.780  0.00  0.00     0.001 A 
ENDROOT
BRANCH   1   8
ATOM      8  C1  UNL d   1      -1.124   0.740  -4.974  0.00  0.00     0.053 C 
ATOM      9  C   UNL d   1      -0.071   1.147  -5.993  0.00  0.00     0.018 C 
ENDBRANCH   1   8
TORSDOF 1
ENDMDL
