MODEL 1
REMARK minimizedAffinity -3.05027676
REMARK minimizedRMSD -1
REMARK  1 active torsions:
REMARK  status: ('A' for Active; 'I' for Inactive)
REMARK    1  A    between atoms: C1_2  and  C2_3 
ROOT
ATOM      1  C2  UNL d   1       0.894   0.014  -5.176  0.00  0.00    -0.073 A 
ATOM      2  C3  UNL d   1      -0.208   0.276  -5.998  0.00  0.00    -0.002 A 
ATOM      3  C4  UNL d   1      -1.456   0.552  -5.438  0.00  0.00     0.004 A 
ATOM      4  C5  UNL d   1      -1.613   0.577  -4.053  0.00  0.00    -0.004 A 
ATOM      5  C6  UNL d   1      -0.522   0.329  -3.214  0.00  0.00    -0.075 A 
ATOM      6  C7  UNL d   1      -0.676   0.350  -1.722  0.00  0.00     0.076 C 
ATOM      7  C8  UNL d   1       0.727   0.049  -3.784  0.00  0.00     0.001 A 
ENDROOT
BRANCH   1   8
ATOM      8  C1  UNL d   1       2.245  -0.279  -5.776  0.00  0.00     0.053 C 
ATOM      9  C   UNL d   1       3.237   0.844  -5.522  0.00  0.00     0.018 C 
ENDBRANCH   1   8
TORSDOF 1
ENDMDL
