MODEL 1
REMARK minimizedAffinity 1.01775742
REMARK minimizedRMSD -1
REMARK  1 active torsions:
REMARK  status: ('A' for Active; 'I' for Inactive)
REMARK    1  A    between atoms: C1_2  and  C2_3 
ROOT
ATOM      1  C2  UNL d   1      -2.637  -0.011   1.029  0.00  0.00    -0.073 A 
ATOM      2  C3  UNL d   1      -2.718  -1.086   0.136  0.00  0.00    -0.002 A 
ATOM      3  C4  UNL d   1      -3.859  -1.268  -0.646  0.00  0.00     0.004 A 
ATOM      4  C5  UNL d   1      -4.927  -0.375  -0.549  0.00  0.00    -0.004 A 
ATOM      5  C6  UNL d   1      -4.860   0.712   0.329  0.00  0.00    -0.075 A 
ATOM      6  C7  UNL d   1      -6.000   1.680   0.446  0.00  0.00     0.076 C 
ATOM      7  C8  UNL d   1      -3.711   0.887   1.113  0.00  0.00     0.001 A 
ENDROOT
BRANCH   1   8
ATOM      8  C1  UNL d   1      -1.404   0.194   1.871  0.00  0.00     0.053 C 
ATOM      9  C   UNL d   1      -0.747  -1.124   2.249  0.00  0.00     0.018 C 
ENDBRANCH   1   8
TORSDOF 1
ENDMDL
