MODEL 1
REMARK minimizedAffinity -0.692308307
REMARK minimizedRMSD -1
REMARK  1 active torsions:
REMARK  status: ('A' for Active; 'I' for Inactive)
REMARK    1  A    between atoms: C1_2  and  C2_3 
ROOT
ATOM      1  C2  UNL d   1      -1.377   0.714  -5.102  0.00  0.00    -0.073 A 
ATOM      2  C3  UNL d   1      -1.237   1.106  -3.766  0.00  0.00    -0.002 A 
ATOM      3  C4  UNL d   1       0.016   1.083  -3.152  0.00  0.00     0.004 A 
ATOM      4  C5  UNL d   1       1.141   0.677  -3.869  0.00  0.00    -0.004 A 
ATOM      5  C6  UNL d   1       1.023   0.293  -5.209  0.00  0.00    -0.075 A 
ATOM      6  C7  UNL d   1       2.224  -0.148  -5.993  0.00  0.00     0.076 C 
ATOM      7  C8  UNL d   1      -0.239   0.316  -5.817  0.00  0.00     0.001 A 
ENDROOT
BRANCH   1   8
ATOM      8  C1  UNL d   1      -2.728   0.743  -5.771  0.00  0.00     0.053 C 
ATOM      9  C   UNL d   1      -3.660  -0.324  -5.219  0.00  0.00     0.018 C 
ENDBRANCH   1   8
TORSDOF 1
ENDMDL
