MODEL 1
REMARK minimizedAffinity 0.616655827
REMARK minimizedRMSD -1
REMARK  1 active torsions:
REMARK  status: ('A' for Active; 'I' for Inactive)
REMARK    1  A    between atoms: C1_2  and  C2_3 
ROOT
ATOM      1  C2  UNL d   1      -3.428   0.744   1.621  0.00  0.00    -0.073 A 
ATOM      2  C3  UNL d   1      -2.630   0.787   2.770  0.00  0.00    -0.002 A 
ATOM      3  C4  UNL d   1      -1.549  -0.085   2.910  0.00  0.00     0.004 A 
ATOM      4  C5  UNL d   1      -1.251  -1.001   1.902  0.00  0.00    -0.004 A 
ATOM      5  C6  UNL d   1      -2.029  -1.052   0.742  0.00  0.00    -0.075 A 
ATOM      6  C7  UNL d   1      -1.723  -2.034  -0.351  0.00  0.00     0.076 C 
ATOM      7  C8  UNL d   1      -3.115  -0.175   0.609  0.00  0.00     0.001 A 
ENDROOT
BRANCH   1   8
ATOM      8  C1  UNL d   1      -4.593   1.687   1.463  0.00  0.00     0.053 C 
ATOM      9  C   UNL d   1      -5.526   1.256   0.342  0.00  0.00     0.018 C 
ENDBRANCH   1   8
TORSDOF 1
ENDMDL
