MODEL 1
REMARK minimizedAffinity 6.58797979
REMARK minimizedRMSD -1
REMARK  1 active torsions:
REMARK  status: ('A' for Active; 'I' for Inactive)
REMARK    1  A    between atoms: C1_2  and  C2_3 
ROOT
ATOM      1  C2  UNL d   1      -0.171  -0.387   3.049  0.00  0.00    -0.073 A 
ATOM      2  C3  UNL d   1      -0.974   0.726   3.324  0.00  0.00    -0.002 A 
ATOM      3  C4  UNL d   1      -2.186   0.903   2.656  0.00  0.00     0.004 A 
ATOM      4  C5  UNL d   1      -2.611  -0.033   1.713  0.00  0.00    -0.004 A 
ATOM      5  C6  UNL d   1      -1.828  -1.157   1.433  0.00  0.00    -0.075 A 
ATOM      6  C7  UNL d   1      -2.269  -2.172   0.419  0.00  0.00     0.076 C 
ATOM      7  C8  UNL d   1      -0.611  -1.327   2.106  0.00  0.00     0.001 A 
ENDROOT
BRANCH   1   8
ATOM      8  C1  UNL d   1       1.136  -0.585   3.773  0.00  0.00     0.053 C 
ATOM      9  C   UNL d   1       1.873  -1.824   3.290  0.00  0.00     0.018 C 
ENDBRANCH   1   8
TORSDOF 1
ENDMDL
