MODEL 1
REMARK minimizedAffinity 0.187144145
REMARK minimizedRMSD -1
REMARK  0 active torsions:
REMARK  status: ('A' for Active; 'I' for Inactive)
ROOT
ATOM      1  C   UNL d   1       0.074   0.328  -2.068  0.00  0.00     0.124 A 
ATOM      2  C1  UNL d   1      -1.102   0.671  -1.417  0.00  0.00     0.062 A 
ATOM      3  C2  UNL d   1      -1.268   0.373  -0.067  0.00  0.00     0.162 A 
ATOM      4  C3  UNL d   1      -0.254  -0.272   0.641  0.00  0.00    -0.034 A 
ATOM      5  C4  UNL d   1       0.926  -0.615  -0.021  0.00  0.00     0.162 A 
ATOM      6  C5  UNL d   1       1.087  -0.315  -1.370  0.00  0.00     0.062 A 
ATOM      7  F   UNL d   1       2.225  -0.647  -1.998  0.00  0.00    -0.097 F 
ATOM      8  F1  UNL d   1       1.922  -1.236   0.629  0.00  0.00    -0.096 F 
ATOM      9  I   UNL d   1      -0.498  -0.720   2.658  0.00  0.00    -0.060 I 
ATOM     10  F2  UNL d   1      -2.415   0.717   0.537  0.00  0.00    -0.096 F 
ATOM     11  F3  UNL d   1      -2.082   1.292  -2.089  0.00  0.00    -0.097 F 
ATOM     12  F4  UNL d   1       0.231   0.615  -3.367  0.00  0.00    -0.092 F 
ENDROOT
TORSDOF 0
ENDMDL
