MODEL 1
REMARK minimizedAffinity 0.681975186
REMARK minimizedRMSD -1
REMARK  0 active torsions:
REMARK  status: ('A' for Active; 'I' for Inactive)
ROOT
ATOM      1  C   UNL d   1       0.743   0.830  -0.543  0.00  0.00     0.124 A 
ATOM      2  C1  UNL d   1      -0.577   0.401  -0.545  0.00  0.00     0.062 A 
ATOM      3  C2  UNL d   1      -1.164  -0.065   0.628  0.00  0.00     0.162 A 
ATOM      4  C3  UNL d   1      -0.431  -0.103   1.814  0.00  0.00    -0.034 A 
ATOM      5  C4  UNL d   1       0.897   0.329   1.808  0.00  0.00     0.162 A 
ATOM      6  C5  UNL d   1       1.478   0.794   0.633  0.00  0.00     0.062 A 
ATOM      7  F   UNL d   1       2.754   1.208   0.637  0.00  0.00    -0.097 F 
ATOM      8  F1  UNL d   1       1.631   0.306   2.931  0.00  0.00    -0.096 F 
ATOM      9  I   UNL d   1      -1.304  -0.798   3.571  0.00  0.00    -0.060 I 
ATOM     10  F2  UNL d   1      -2.441  -0.473   0.597  0.00  0.00    -0.096 F 
ATOM     11  F3  UNL d   1      -1.290   0.434  -1.680  0.00  0.00    -0.097 F 
ATOM     12  F4  UNL d   1       1.305   1.276  -1.674  0.00  0.00    -0.092 F 
ENDROOT
TORSDOF 0
ENDMDL
