MODEL 1
REMARK minimizedAffinity -2.22725558
REMARK minimizedRMSD -1
REMARK  0 active torsions:
REMARK  status: ('A' for Active; 'I' for Inactive)
ROOT
ATOM      1  C   UNL d   1      -1.384   0.506   2.562  0.00  0.00     0.124 A 
ATOM      2  C1  UNL d   1      -2.240   0.142   1.532  0.00  0.00     0.062 A 
ATOM      3  C2  UNL d   1      -1.758   0.014   0.233  0.00  0.00     0.162 A 
ATOM      4  C3  UNL d   1      -0.411   0.248  -0.044  0.00  0.00    -0.034 A 
ATOM      5  C4  UNL d   1       0.444   0.614   0.997  0.00  0.00     0.162 A 
ATOM      6  C5  UNL d   1      -0.043   0.741   2.293  0.00  0.00     0.062 A 
ATOM      7  F   UNL d   1       0.786   1.092   3.287  0.00  0.00    -0.097 F 
ATOM      8  F1  UNL d   1       1.745   0.846   0.766  0.00  0.00    -0.096 F 
ATOM      9  I   UNL d   1       0.315   0.057  -1.986  0.00  0.00    -0.060 I 
ATOM     10  F2  UNL d   1      -2.608  -0.338  -0.743  0.00  0.00    -0.096 F 
ATOM     11  F3  UNL d   1      -3.537  -0.084   1.788  0.00  0.00    -0.097 F 
ATOM     12  F4  UNL d   1      -1.851   0.629   3.811  0.00  0.00    -0.092 F 
ENDROOT
TORSDOF 0
ENDMDL
