MODEL 1
REMARK minimizedAffinity -0.665871143
REMARK minimizedRMSD -1
REMARK  0 active torsions:
REMARK  status: ('A' for Active; 'I' for Inactive)
ROOT
ATOM      1  C   UNL d   1      -2.018  -0.489   0.762  0.00  0.00     0.124 A 
ATOM      2  C1  UNL d   1      -1.280   0.250  -0.153  0.00  0.00     0.062 A 
ATOM      3  C2  UNL d   1       0.045   0.576   0.117  0.00  0.00     0.162 A 
ATOM      4  C3  UNL d   1       0.643   0.163   1.308  0.00  0.00    -0.034 A 
ATOM      5  C4  UNL d   1      -0.105  -0.579   2.223  0.00  0.00     0.162 A 
ATOM      6  C5  UNL d   1      -1.430  -0.903   1.948  0.00  0.00     0.062 A 
ATOM      7  F   UNL d   1      -2.141  -1.617   2.833  0.00  0.00    -0.097 F 
ATOM      8  F1  UNL d   1       0.438  -0.993   3.378  0.00  0.00    -0.096 F 
ATOM      9  I   UNL d   1       2.625   0.649   1.716  0.00  0.00    -0.060 I 
ATOM     10  F2  UNL d   1       0.734   1.292  -0.784  0.00  0.00    -0.096 F 
ATOM     11  F3  UNL d   1      -1.846   0.652  -1.300  0.00  0.00    -0.097 F 
ATOM     12  F4  UNL d   1      -3.294  -0.801   0.499  0.00  0.00    -0.092 F 
ENDROOT
TORSDOF 0
ENDMDL
