MODEL 1
REMARK minimizedAffinity -1.84594667
REMARK minimizedRMSD -1
REMARK  0 active torsions:
REMARK  status: ('A' for Active; 'I' for Inactive)
ROOT
ATOM      1  C   UNL d   1       1.705   0.557   1.056  0.00  0.00     0.124 A 
ATOM      2  C1  UNL d   1       1.122   0.729  -0.192  0.00  0.00     0.062 A 
ATOM      3  C2  UNL d   1      -0.263   0.727  -0.323  0.00  0.00     0.162 A 
ATOM      4  C3  UNL d   1      -1.076   0.554   0.797  0.00  0.00    -0.034 A 
ATOM      5  C4  UNL d   1      -0.483   0.381   2.049  0.00  0.00     0.162 A 
ATOM      6  C5  UNL d   1       0.903   0.383   2.175  0.00  0.00     0.062 A 
ATOM      7  F   UNL d   1       1.464   0.217   3.381  0.00  0.00    -0.097 F 
ATOM      8  F1  UNL d   1      -1.235   0.212   3.146  0.00  0.00    -0.096 F 
ATOM      9  I   UNL d   1      -3.149   0.551   0.605  0.00  0.00    -0.060 I 
ATOM     10  F2  UNL d   1      -0.799   0.895  -1.541  0.00  0.00    -0.096 F 
ATOM     11  F3  UNL d   1       1.896   0.896  -1.274  0.00  0.00    -0.097 F 
ATOM     12  F4  UNL d   1       3.039   0.558   1.180  0.00  0.00    -0.092 F 
ENDROOT
TORSDOF 0
ENDMDL
