MODEL 1
REMARK minimizedAffinity 0.174189925
REMARK minimizedRMSD -1
REMARK  0 active torsions:
REMARK  status: ('A' for Active; 'I' for Inactive)
ROOT
ATOM      1  C   UNL d   1      -1.655  -0.027   2.579  0.00  0.00     0.124 A 
ATOM      2  C1  UNL d   1      -0.282  -0.205   2.486  0.00  0.00     0.062 A 
ATOM      3  C2  UNL d   1       0.356  -0.101   1.254  0.00  0.00     0.162 A 
ATOM      4  C3  UNL d   1      -0.379   0.183   0.103  0.00  0.00    -0.034 A 
ATOM      5  C4  UNL d   1      -1.760   0.359   0.203  0.00  0.00     0.162 A 
ATOM      6  C5  UNL d   1      -2.393   0.254   1.437  0.00  0.00     0.062 A 
ATOM      7  F   UNL d   1      -3.720   0.426   1.525  0.00  0.00    -0.097 F 
ATOM      8  F1  UNL d   1      -2.497   0.633  -0.884  0.00  0.00    -0.096 F 
ATOM      9  I   UNL d   1       0.571   0.339  -1.742  0.00  0.00    -0.060 I 
ATOM     10  F2  UNL d   1       1.684  -0.277   1.194  0.00  0.00    -0.096 F 
ATOM     11  F3  UNL d   1       0.433  -0.478   3.587  0.00  0.00    -0.097 F 
ATOM     12  F4  UNL d   1      -2.267  -0.129   3.766  0.00  0.00    -0.092 F 
ENDROOT
TORSDOF 0
ENDMDL
