MODEL 1
REMARK minimizedAffinity 9.54655743
REMARK minimizedRMSD -1
REMARK  0 active torsions:
REMARK  status: ('A' for Active; 'I' for Inactive)
ROOT
ATOM      1  C   UNL d   1       0.605   1.185   3.111  0.00  0.00     0.124 A 
ATOM      2  C1  UNL d   1       1.047   2.122   2.186  0.00  0.00     0.062 A 
ATOM      3  C2  UNL d   1       0.788   1.944   0.831  0.00  0.00     0.162 A 
ATOM      4  C3  UNL d   1       0.081   0.825   0.390  0.00  0.00    -0.034 A 
ATOM      5  C4  UNL d   1      -0.360  -0.113   1.326  0.00  0.00     0.162 A 
ATOM      6  C5  UNL d   1      -0.098   0.069   2.680  0.00  0.00     0.062 A 
ATOM      7  F   UNL d   1      -0.526  -0.836   3.571  0.00  0.00    -0.097 F 
ATOM      8  F1  UNL d   1      -1.043  -1.200   0.937  0.00  0.00    -0.096 F 
ATOM      9  I   UNL d   1      -0.310   0.555  -1.636  0.00  0.00    -0.060 I 
ATOM     10  F2  UNL d   1       1.227   2.865  -0.040  0.00  0.00    -0.096 F 
ATOM     11  F3  UNL d   1       1.728   3.200   2.600  0.00  0.00    -0.097 F 
ATOM     12  F4  UNL d   1       0.857   1.359   4.414  0.00  0.00    -0.092 F 
ENDROOT
TORSDOF 0
ENDMDL
