MODEL 1
REMARK minimizedAffinity 7.07803631
REMARK minimizedRMSD -1
REMARK  0 active torsions:
REMARK  status: ('A' for Active; 'I' for Inactive)
ROOT
ATOM      1  C   UNL d   1      -2.245  -0.094   1.210  0.00  0.00     0.124 A 
ATOM      2  C1  UNL d   1      -1.762   0.496   0.050  0.00  0.00     0.062 A 
ATOM      3  C2  UNL d   1      -0.488   1.056   0.028  0.00  0.00     0.162 A 
ATOM      4  C3  UNL d   1       0.313   1.027   1.169  0.00  0.00    -0.034 A 
ATOM      5  C4  UNL d   1      -0.180   0.433   2.332  0.00  0.00     0.162 A 
ATOM      6  C5  UNL d   1      -1.454  -0.125   2.349  0.00  0.00     0.062 A 
ATOM      7  F   UNL d   1      -1.919  -0.695   3.471  0.00  0.00    -0.097 F 
ATOM      8  F1  UNL d   1       0.564   0.388   3.448  0.00  0.00    -0.096 F 
ATOM      9  I   UNL d   1       2.219   1.863   1.140  0.00  0.00    -0.060 I 
ATOM     10  F2  UNL d   1      -0.047   1.619  -1.107  0.00  0.00    -0.096 F 
ATOM     11  F3  UNL d   1      -2.525   0.528  -1.052  0.00  0.00    -0.097 F 
ATOM     12  F4  UNL d   1      -3.472  -0.632   1.229  0.00  0.00    -0.092 F 
ENDROOT
TORSDOF 0
ENDMDL
