MODEL 1
REMARK minimizedAffinity -0.0355639532
REMARK minimizedRMSD -1
REMARK  0 active torsions:
REMARK  status: ('A' for Active; 'I' for Inactive)
ROOT
ATOM      1  C   UNL d   1       0.361   0.306   2.037  0.00  0.00     0.124 A 
ATOM      2  C1  UNL d   1       0.852   0.936   0.902  0.00  0.00     0.062 A 
ATOM      3  C2  UNL d   1       0.421   0.540  -0.361  0.00  0.00     0.162 A 
ATOM      4  C3  UNL d   1      -0.508  -0.491  -0.496  0.00  0.00    -0.034 A 
ATOM      5  C4  UNL d   1      -0.998  -1.121   0.650  0.00  0.00     0.162 A 
ATOM      6  C5  UNL d   1      -0.563  -0.722   1.910  0.00  0.00     0.062 A 
ATOM      7  F   UNL d   1      -1.040  -1.332   3.005  0.00  0.00    -0.097 F 
ATOM      8  F1  UNL d   1      -1.892  -2.116   0.556  0.00  0.00    -0.096 F 
ATOM      9  I   UNL d   1      -1.156  -1.086  -2.382  0.00  0.00    -0.060 I 
ATOM     10  F2  UNL d   1       0.913   1.167  -1.440  0.00  0.00    -0.096 F 
ATOM     11  F3  UNL d   1       1.746   1.928   1.022  0.00  0.00    -0.097 F 
ATOM     12  F4  UNL d   1       0.778   0.688   3.251  0.00  0.00    -0.092 F 
ENDROOT
TORSDOF 0
ENDMDL
