MODEL 1
REMARK minimizedAffinity -1.36031675
REMARK minimizedRMSD -1
REMARK  0 active torsions:
REMARK  status: ('A' for Active; 'I' for Inactive)
ROOT
ATOM      1  C   UNL d   1      -1.020   0.074   2.068  0.00  0.00     0.124 A 
ATOM      2  C1  UNL d   1       0.304  -0.310   1.907  0.00  0.00     0.062 A 
ATOM      3  C2  UNL d   1       0.841  -0.454   0.631  0.00  0.00     0.162 A 
ATOM      4  C3  UNL d   1       0.054  -0.213  -0.495  0.00  0.00    -0.034 A 
ATOM      5  C4  UNL d   1      -1.277   0.172  -0.325  0.00  0.00     0.162 A 
ATOM      6  C5  UNL d   1      -1.809   0.315   0.953  0.00  0.00     0.062 A 
ATOM      7  F   UNL d   1      -3.089   0.686   1.106  0.00  0.00    -0.097 F 
ATOM      8  F1  UNL d   1      -2.062   0.413  -1.386  0.00  0.00    -0.096 F 
ATOM      9  I   UNL d   1       0.853  -0.427  -2.405  0.00  0.00    -0.060 I 
ATOM     10  F2  UNL d   1       2.123  -0.827   0.505  0.00  0.00    -0.096 F 
ATOM     11  F3  UNL d   1       1.068  -0.544   2.984  0.00  0.00    -0.097 F 
ATOM     12  F4  UNL d   1      -1.535   0.211   3.297  0.00  0.00    -0.092 F 
ENDROOT
TORSDOF 0
ENDMDL
