MODEL 1
REMARK minimizedAffinity -0.480803072
REMARK minimizedRMSD -1
REMARK  0 active torsions:
REMARK  status: ('A' for Active; 'I' for Inactive)
ROOT
ATOM      1  C   UNL d   1       0.989  -0.112   2.288  0.00  0.00     0.124 A 
ATOM      2  C1  UNL d   1      -0.339  -0.494   2.151  0.00  0.00     0.062 A 
ATOM      3  C2  UNL d   1      -0.970  -0.399   0.914  0.00  0.00     0.162 A 
ATOM      4  C3  UNL d   1      -0.274   0.079  -0.197  0.00  0.00    -0.034 A 
ATOM      5  C4  UNL d   1       1.060   0.462  -0.050  0.00  0.00     0.162 A 
ATOM      6  C5  UNL d   1       1.687   0.365   1.188  0.00  0.00     0.062 A 
ATOM      7  F   UNL d   1       2.969   0.734   1.318  0.00  0.00    -0.097 F 
ATOM      8  F1  UNL d   1       1.759   0.925  -1.097  0.00  0.00    -0.096 F 
ATOM      9  I   UNL d   1      -1.215   0.222  -2.048  0.00  0.00    -0.060 I 
ATOM     10  F2  UNL d   1      -2.254  -0.775   0.811  0.00  0.00    -0.096 F 
ATOM     11  F3  UNL d   1      -1.016  -0.955   3.213  0.00  0.00    -0.097 F 
ATOM     12  F4  UNL d   1       1.593  -0.204   3.479  0.00  0.00    -0.092 F 
ENDROOT
TORSDOF 0
ENDMDL
