MODEL 1
REMARK minimizedAffinity -4.46006346
REMARK minimizedRMSD -1
REMARK  0 active torsions:
REMARK  status: ('A' for Active; 'I' for Inactive)
ROOT
ATOM      1  C   UNL d   1      -2.363  -0.449   2.546  0.00  0.00     0.124 A 
ATOM      2  C1  UNL d   1      -0.988  -0.640   2.562  0.00  0.00     0.062 A 
ATOM      3  C2  UNL d   1      -0.227  -0.337   1.436  0.00  0.00     0.162 A 
ATOM      4  C3  UNL d   1      -0.838   0.159   0.285  0.00  0.00    -0.034 A 
ATOM      5  C4  UNL d   1      -2.222   0.347   0.277  0.00  0.00     0.162 A 
ATOM      6  C5  UNL d   1      -2.978   0.044   1.404  0.00  0.00     0.062 A 
ATOM      7  F   UNL d   1      -4.306   0.228   1.387  0.00  0.00    -0.097 F 
ATOM      8  F1  UNL d   1      -2.842   0.823  -0.813  0.00  0.00    -0.096 F 
ATOM      9  I   UNL d   1       0.297   0.612  -1.399  0.00  0.00    -0.060 I 
ATOM     10  F2  UNL d   1       1.100  -0.531   1.480  0.00  0.00    -0.096 F 
ATOM     11  F3  UNL d   1      -0.391  -1.117   3.664  0.00  0.00    -0.097 F 
ATOM     12  F4  UNL d   1      -3.093  -0.742   3.630  0.00  0.00    -0.092 F 
ENDROOT
TORSDOF 0
ENDMDL
