MODEL 1
REMARK minimizedAffinity -3.02260447
REMARK minimizedRMSD -1
REMARK  0 active torsions:
REMARK  status: ('A' for Active; 'I' for Inactive)
ROOT
ATOM      1  C   UNL d   1      -2.279   0.254   1.741  0.00  0.00     0.124 A 
ATOM      2  C1  UNL d   1      -1.830   0.603   0.475  0.00  0.00     0.062 A 
ATOM      3  C2  UNL d   1      -0.465   0.663   0.208  0.00  0.00     0.162 A 
ATOM      4  C3  UNL d   1       0.461   0.371   1.209  0.00  0.00    -0.034 A 
ATOM      5  C4  UNL d   1       0.002   0.021   2.480  0.00  0.00     0.162 A 
ATOM      6  C5  UNL d   1      -1.363  -0.037   2.742  0.00  0.00     0.062 A 
ATOM      7  F   UNL d   1      -1.795  -0.375   3.965  0.00  0.00    -0.097 F 
ATOM      8  F1  UNL d   1       0.865  -0.266   3.466  0.00  0.00    -0.096 F 
ATOM      9  I   UNL d   1       2.503   0.459   0.814  0.00  0.00    -0.060 I 
ATOM     10  F2  UNL d   1      -0.060   1.004  -1.025  0.00  0.00    -0.096 F 
ATOM     11  F3  UNL d   1      -2.713   0.886  -0.494  0.00  0.00    -0.097 F 
ATOM     12  F4  UNL d   1      -3.593   0.198   1.995  0.00  0.00    -0.092 F 
ENDROOT
TORSDOF 0
ENDMDL
