MODEL 1
REMARK minimizedAffinity 0.837849498
REMARK minimizedRMSD -1
REMARK  0 active torsions:
REMARK  status: ('A' for Active; 'I' for Inactive)
ROOT
ATOM      1  C   UNL d   1       1.503  -1.134  -3.280  0.00  0.00     0.124 A 
ATOM      2  C1  UNL d   1       1.699   0.118  -2.714  0.00  0.00     0.062 A 
ATOM      3  C2  UNL d   1       1.053   0.460  -1.530  0.00  0.00     0.162 A 
ATOM      4  C3  UNL d   1       0.204  -0.453  -0.903  0.00  0.00    -0.034 A 
ATOM      5  C4  UNL d   1       0.012  -1.710  -1.479  0.00  0.00     0.162 A 
ATOM      6  C5  UNL d   1       0.660  -2.047  -2.662  0.00  0.00     0.062 A 
ATOM      7  F   UNL d   1       0.469  -3.257  -3.208  0.00  0.00    -0.097 F 
ATOM      8  F1  UNL d   1      -0.797  -2.611  -0.902  0.00  0.00    -0.096 F 
ATOM      9  I   UNL d   1      -0.764   0.054   0.868  0.00  0.00    -0.060 I 
ATOM     10  F2  UNL d   1       1.261   1.676  -1.006  0.00  0.00    -0.096 F 
ATOM     11  F3  UNL d   1       2.513   1.001  -3.310  0.00  0.00    -0.097 F 
ATOM     12  F4  UNL d   1       2.126  -1.460  -4.421  0.00  0.00    -0.092 F 
ENDROOT
TORSDOF 0
ENDMDL
