MODEL 1
REMARK minimizedAffinity -3.11512017
REMARK minimizedRMSD -1
REMARK  0 active torsions:
REMARK  status: ('A' for Active; 'I' for Inactive)
ROOT
ATOM      1  C   UNL d   1      -1.399   0.511   2.123  0.00  0.00     0.124 A 
ATOM      2  C1  UNL d   1      -0.065   0.154   1.990  0.00  0.00     0.062 A 
ATOM      3  C2  UNL d   1       0.512   0.060   0.727  0.00  0.00     0.162 A 
ATOM      4  C3  UNL d   1      -0.245   0.324  -0.414  0.00  0.00    -0.034 A 
ATOM      5  C4  UNL d   1      -1.587   0.681  -0.273  0.00  0.00     0.162 A 
ATOM      6  C5  UNL d   1      -2.159   0.774   0.992  0.00  0.00     0.062 A 
ATOM      7  F   UNL d   1      -3.449   1.119   1.118  0.00  0.00    -0.097 F 
ATOM      8  F1  UNL d   1      -2.344   0.942  -1.349  0.00  0.00    -0.096 F 
ATOM      9  I   UNL d   1       0.614   0.184  -2.305  0.00  0.00    -0.060 I 
ATOM     10  F2  UNL d   1       1.804  -0.287   0.628  0.00  0.00    -0.096 F 
ATOM     11  F3  UNL d   1       0.671  -0.102   3.081  0.00  0.00    -0.097 F 
ATOM     12  F4  UNL d   1      -1.952   0.600   3.339  0.00  0.00    -0.092 F 
ENDROOT
TORSDOF 0
ENDMDL
