MODEL 1
REMARK minimizedAffinity 10.5801172
REMARK minimizedRMSD -1
REMARK  0 active torsions:
REMARK  status: ('A' for Active; 'I' for Inactive)
ROOT
ATOM      1  C   UNL d   1      -2.388  -2.576   1.080  0.00  0.00     0.124 A 
ATOM      2  C1  UNL d   1      -1.971  -1.463   1.797  0.00  0.00     0.062 A 
ATOM      3  C2  UNL d   1      -1.268  -0.444   1.161  0.00  0.00     0.162 A 
ATOM      4  C3  UNL d   1      -0.977  -0.533  -0.201  0.00  0.00    -0.034 A 
ATOM      5  C4  UNL d   1      -1.399  -1.656  -0.915  0.00  0.00     0.162 A 
ATOM      6  C5  UNL d   1      -2.102  -2.671  -0.275  0.00  0.00     0.062 A 
ATOM      7  F   UNL d   1      -2.505  -3.746  -0.969  0.00  0.00    -0.097 F 
ATOM      8  F1  UNL d   1      -1.137  -1.773  -2.225  0.00  0.00    -0.096 F 
ATOM      9  I   UNL d   1       0.074   0.988  -1.155  0.00  0.00    -0.060 I 
ATOM     10  F2  UNL d   1      -0.877   0.620   1.878  0.00  0.00    -0.096 F 
ATOM     11  F3  UNL d   1      -2.246  -1.369   3.106  0.00  0.00    -0.097 F 
ATOM     12  F4  UNL d   1      -3.064  -3.555   1.694  0.00  0.00    -0.092 F 
ENDROOT
TORSDOF 0
ENDMDL
