MODEL 1
REMARK minimizedAffinity -0.458723783
REMARK minimizedRMSD -1
REMARK  0 active torsions:
REMARK  status: ('A' for Active; 'I' for Inactive)
ROOT
ATOM      1  C   UNL d   1      -0.161  -0.354   0.705  0.00  0.00     0.124 A 
ATOM      2  C1  UNL d   1      -0.745  -0.488   1.957  0.00  0.00     0.062 A 
ATOM      3  C2  UNL d   1      -0.472   0.437   2.960  0.00  0.00     0.162 A 
ATOM      4  C3  UNL d   1       0.390   1.506   2.716  0.00  0.00    -0.034 A 
ATOM      5  C4  UNL d   1       0.975   1.634   1.455  0.00  0.00     0.162 A 
ATOM      6  C5  UNL d   1       0.698   0.707   0.455  0.00  0.00     0.062 A 
ATOM      7  F   UNL d   1       1.264   0.839  -0.753  0.00  0.00    -0.097 F 
ATOM      8  F1  UNL d   1       1.808   2.650   1.186  0.00  0.00    -0.096 F 
ATOM      9  I   UNL d   1       0.801   2.891   4.214  0.00  0.00    -0.060 I 
ATOM     10  F2  UNL d   1      -1.051   0.282   4.160  0.00  0.00    -0.096 F 
ATOM     11  F3  UNL d   1      -1.575  -1.513   2.201  0.00  0.00    -0.097 F 
ATOM     12  F4  UNL d   1      -0.425  -1.246  -0.258  0.00  0.00    -0.092 F 
ENDROOT
TORSDOF 0
ENDMDL
