MODEL 1
REMARK minimizedAffinity -3.32736039
REMARK minimizedRMSD -1
REMARK  0 active torsions:
REMARK  status: ('A' for Active; 'I' for Inactive)
ROOT
ATOM      1  C   UNL d   1      -1.187  -0.028   2.864  0.00  0.00     0.124 A 
ATOM      2  C1  UNL d   1       0.148   0.263   2.624  0.00  0.00     0.062 A 
ATOM      3  C2  UNL d   1       0.626   0.335   1.319  0.00  0.00     0.162 A 
ATOM      4  C3  UNL d   1      -0.233   0.116   0.242  0.00  0.00    -0.034 A 
ATOM      5  C4  UNL d   1      -1.575  -0.178   0.491  0.00  0.00     0.162 A 
ATOM      6  C5  UNL d   1      -2.047  -0.249   1.798  0.00  0.00     0.062 A 
ATOM      7  F   UNL d   1      -3.338  -0.531   2.027  0.00  0.00    -0.097 F 
ATOM      8  F1  UNL d   1      -2.429  -0.394  -0.521  0.00  0.00    -0.096 F 
ATOM      9  I   UNL d   1       0.477   0.222  -1.711  0.00  0.00    -0.060 I 
ATOM     10  F2  UNL d   1       1.921   0.619   1.117  0.00  0.00    -0.096 F 
ATOM     11  F3  UNL d   1       0.982   0.476   3.653  0.00  0.00    -0.097 F 
ATOM     12  F4  UNL d   1      -1.644  -0.098   4.121  0.00  0.00    -0.092 F 
ENDROOT
TORSDOF 0
ENDMDL
