MODEL 1
REMARK minimizedAffinity -0.453137964
REMARK minimizedRMSD -1
REMARK  0 active torsions:
REMARK  status: ('A' for Active; 'I' for Inactive)
ROOT
ATOM      1  C   UNL d   1      -1.783  -0.628   2.195  0.00  0.00     0.124 A 
ATOM      2  C1  UNL d   1      -0.409  -0.824   2.153  0.00  0.00     0.062 A 
ATOM      3  C2  UNL d   1       0.307  -0.517   1.000  0.00  0.00     0.162 A 
ATOM      4  C3  UNL d   1      -0.348  -0.010  -0.122  0.00  0.00    -0.034 A 
ATOM      5  C4  UNL d   1      -1.730   0.183  -0.073  0.00  0.00     0.162 A 
ATOM      6  C5  UNL d   1      -2.442  -0.125   1.082  0.00  0.00     0.062 A 
ATOM      7  F   UNL d   1      -3.769   0.065   1.120  0.00  0.00    -0.097 F 
ATOM      8  F1  UNL d   1      -2.392   0.669  -1.134  0.00  0.00    -0.096 F 
ATOM      9  I   UNL d   1       0.720   0.450  -1.848  0.00  0.00    -0.060 I 
ATOM     10  F2  UNL d   1       1.634  -0.717   0.989  0.00  0.00    -0.096 F 
ATOM     11  F3  UNL d   1       0.229  -1.311   3.227  0.00  0.00    -0.097 F 
ATOM     12  F4  UNL d   1      -2.470  -0.925   3.305  0.00  0.00    -0.092 F 
ENDROOT
TORSDOF 0
ENDMDL
