MODEL 1
REMARK minimizedAffinity 0.417719722
REMARK minimizedRMSD -1
REMARK  0 active torsions:
REMARK  status: ('A' for Active; 'I' for Inactive)
ROOT
ATOM      1  C   UNL d   1      -5.157   2.139  -3.281  0.00  0.00    -0.002 A 
ATOM      2  C1  UNL d   1      -4.838   3.483  -3.414  0.00  0.00     0.010 A 
ATOM      3  C2  UNL d   1      -3.506   3.889  -3.523  0.00  0.00     0.041 A 
ATOM      4  C3  UNL d   1      -2.492   2.912  -3.497  0.00  0.00    -0.075 A 
ATOM      5  S   UNL d   1      -0.792   3.175  -3.616  0.00  0.00     0.015 SA
ATOM      6  C4  UNL d   1      -0.450   1.510  -3.493  0.00  0.00     0.022 A 
ATOM      7  C5  UNL d   1      -1.593   0.757  -3.364  0.00  0.00     0.026 A 
ATOM      8  C6  UNL d   1      -2.788   1.552  -3.365  0.00  0.00    -0.082 A 
ATOM      9  C7  UNL d   1      -4.148   1.173  -3.255  0.00  0.00     0.045 A 
ENDROOT
TORSDOF 0
ENDMDL
