MODEL 1
REMARK minimizedAffinity 14.8164072
REMARK minimizedRMSD -1
REMARK  0 active torsions:
REMARK  status: ('A' for Active; 'I' for Inactive)
ROOT
ATOM      1  C   UNL d   1       4.869  -4.266   2.519  0.00  0.00    -0.002 A 
ATOM      2  C1  UNL d   1       4.507  -3.466   1.444  0.00  0.00     0.010 A 
ATOM      3  C2  UNL d   1       3.486  -2.523   1.574  0.00  0.00     0.041 A 
ATOM      4  C3  UNL d   1       2.829  -2.395   2.813  0.00  0.00    -0.075 A 
ATOM      5  S   UNL d   1       1.550  -1.307   3.205  0.00  0.00     0.015 SA
ATOM      6  C4  UNL d   1       1.455  -1.878   4.808  0.00  0.00     0.022 A 
ATOM      7  C5  UNL d   1       2.369  -2.875   5.055  0.00  0.00     0.026 A 
ATOM      8  C6  UNL d   1       3.177  -3.188   3.910  0.00  0.00    -0.082 A 
ATOM      9  C7  UNL d   1       4.216  -4.136   3.747  0.00  0.00     0.045 A 
ENDROOT
TORSDOF 0
ENDMDL
