MODEL 1
REMARK minimizedAffinity 11.7307253
REMARK minimizedRMSD -1
REMARK  0 active torsions:
REMARK  status: ('A' for Active; 'I' for Inactive)
ROOT
ATOM      1  C   UNL d   1       3.924  -4.585   2.624  0.00  0.00    -0.002 A 
ATOM      2  C1  UNL d   1       3.796  -3.251   2.264  0.00  0.00     0.010 A 
ATOM      3  C2  UNL d   1       2.861  -2.862   1.303  0.00  0.00     0.041 A 
ATOM      4  C3  UNL d   1       2.048  -3.845   0.705  0.00  0.00    -0.075 A 
ATOM      5  S   UNL d   1       0.835  -3.601  -0.495  0.00  0.00     0.015 SA
ATOM      6  C4  UNL d   1       0.457  -5.262  -0.557  0.00  0.00     0.022 A 
ATOM      7  C5  UNL d   1       1.229  -5.999   0.310  0.00  0.00     0.026 A 
ATOM      8  C6  UNL d   1       2.158  -5.195   1.052  0.00  0.00    -0.082 A 
ATOM      9  C7  UNL d   1       3.116  -5.558   2.029  0.00  0.00     0.045 A 
ENDROOT
TORSDOF 0
ENDMDL
