MODEL 1
REMARK minimizedAffinity 8.53787613
REMARK minimizedRMSD -1
REMARK  0 active torsions:
REMARK  status: ('A' for Active; 'I' for Inactive)
ROOT
ATOM      1  C   UNL d   1       3.851  -1.396  -5.270  0.00  0.00    -0.002 A 
ATOM      2  C1  UNL d   1       4.964  -1.839  -5.971  0.00  0.00     0.010 A 
ATOM      3  C2  UNL d   1       5.294  -3.195  -5.998  0.00  0.00     0.041 A 
ATOM      4  C3  UNL d   1       4.478  -4.109  -5.302  0.00  0.00    -0.075 A 
ATOM      5  S   UNL d   1       4.687  -5.817  -5.195  0.00  0.00     0.015 SA
ATOM      6  C4  UNL d   1       3.304  -6.000  -4.217  0.00  0.00     0.022 A 
ATOM      7  C5  UNL d   1       2.685  -4.797  -3.968  0.00  0.00     0.026 A 
ATOM      8  C6  UNL d   1       3.351  -3.688  -4.590  0.00  0.00    -0.082 A 
ATOM      9  C7  UNL d   1       3.044  -2.306  -4.582  0.00  0.00     0.045 A 
ENDROOT
TORSDOF 0
ENDMDL
