MODEL 1
REMARK minimizedAffinity 10.2494688
REMARK minimizedRMSD -1
REMARK  0 active torsions:
REMARK  status: ('A' for Active; 'I' for Inactive)
ROOT
ATOM      1  C   UNL d   1       4.911  -5.977  -4.723  0.00  0.00    -0.002 A 
ATOM      2  C1  UNL d   1       5.943  -5.528  -5.535  0.00  0.00     0.010 A 
ATOM      3  C2  UNL d   1       5.974  -4.203  -5.976  0.00  0.00     0.041 A 
ATOM      4  C3  UNL d   1       4.942  -3.329  -5.581  0.00  0.00    -0.075 A 
ATOM      5  S   UNL d   1       4.773  -1.665  -5.998  0.00  0.00     0.015 SA
ATOM      6  C4  UNL d   1       3.328  -1.511  -5.108  0.00  0.00     0.022 A 
ATOM      7  C5  UNL d   1       2.968  -2.691  -4.501  0.00  0.00     0.026 A 
ATOM      8  C6  UNL d   1       3.893  -3.758  -4.763  0.00  0.00    -0.082 A 
ATOM      9  C7  UNL d   1       3.889  -5.107  -4.334  0.00  0.00     0.045 A 
ENDROOT
TORSDOF 0
ENDMDL
