MODEL 1
REMARK minimizedAffinity 12.4149122
REMARK minimizedRMSD -1
REMARK  0 active torsions:
REMARK  status: ('A' for Active; 'I' for Inactive)
ROOT
ATOM      1  C   UNL d   1       2.739  -2.069  -4.363  0.00  0.00    -0.002 A 
ATOM      2  C1  UNL d   1       2.069  -3.221  -3.973  0.00  0.00     0.010 A 
ATOM      3  C2  UNL d   1       2.616  -4.480  -4.226  0.00  0.00     0.041 A 
ATOM      4  C3  UNL d   1       3.860  -4.564  -4.882  0.00  0.00    -0.075 A 
ATOM      5  S   UNL d   1       4.722  -5.999  -5.296  0.00  0.00     0.015 SA
ATOM      6  C4  UNL d   1       6.000  -5.117  -6.000  0.00  0.00     0.022 A 
ATOM      7  C5  UNL d   1       5.790  -3.760  -5.929  0.00  0.00     0.026 A 
ATOM      8  C6  UNL d   1       4.554  -3.419  -5.284  0.00  0.00    -0.082 A 
ATOM      9  C7  UNL d   1       3.973  -2.157  -5.013  0.00  0.00     0.045 A 
ENDROOT
TORSDOF 0
ENDMDL
