MODEL 1
REMARK minimizedAffinity 10.2687368
REMARK minimizedRMSD -1
REMARK  0 active torsions:
REMARK  status: ('A' for Active; 'I' for Inactive)
ROOT
ATOM      1  C   UNL d   1      -3.766   2.253  -2.138  0.00  0.00    -0.002 A 
ATOM      2  C1  UNL d   1      -4.395   2.888  -3.199  0.00  0.00     0.010 A 
ATOM      3  C2  UNL d   1      -5.016   2.144  -4.204  0.00  0.00     0.041 A 
ATOM      4  C3  UNL d   1      -4.995   0.738  -4.124  0.00  0.00    -0.075 A 
ATOM      5  S   UNL d   1      -5.691  -0.378  -5.239  0.00  0.00     0.015 SA
ATOM      6  C4  UNL d   1      -5.170  -1.724  -4.332  0.00  0.00     0.022 A 
ATOM      7  C5  UNL d   1      -4.480  -1.349  -3.203  0.00  0.00     0.026 A 
ATOM      8  C6  UNL d   1      -4.369   0.075  -3.064  0.00  0.00    -0.082 A 
ATOM      9  C7  UNL d   1      -3.747   0.858  -2.061  0.00  0.00     0.045 A 
ENDROOT
TORSDOF 0
ENDMDL
