MODEL 1
REMARK minimizedAffinity -1.49487209
REMARK minimizedRMSD -1
REMARK  2 active torsions:
REMARK  status: ('A' for Active; 'I' for Inactive)
REMARK    1  A    between atoms: C2'_3  and  C1'_4 
REMARK    2  A    between atoms: C1'_4  and  C1_5 
ROOT
ATOM      1  C1  I4B d   1       0.998   0.460   0.115  0.00  0.00    -0.075 A 
ATOM      2  C2  I4B d   1       0.764  -0.590   0.967  0.00  0.00     0.003 A 
ATOM      3  C3  I4B d   1      -0.414  -1.365   0.837  0.00  0.00     0.002 A 
ATOM      4  C4  I4B d   1      -1.349  -1.026  -0.120  0.00  0.00    -0.004 A 
ATOM      5  C5  I4B d   1      -1.099   0.026  -0.997  0.00  0.00     0.002 A 
ATOM      6  C6  I4B d   1       0.087   0.766  -0.888  0.00  0.00     0.003 A 
ENDROOT
BRANCH   1   7
ATOM      7  C1' I4B d   1       2.237   1.277   0.302  0.00  0.00     0.060 C 
BRANCH   7   8
ATOM      8  C2' I4B d   1       1.888   2.457   1.187  0.00  0.00    -0.013 C 
ATOM      9  C4' I4B d   1       2.430   2.271   2.580  0.00  0.00     0.013 C 
ATOM     10  C3' I4B d   1       2.446   3.695   0.550  0.00  0.00     0.013 C 
ENDBRANCH   7   8
ENDBRANCH   1   7
TORSDOF 2
ENDMDL
