MODEL 1
REMARK minimizedAffinity -0.396423608
REMARK minimizedRMSD -1
REMARK  2 active torsions:
REMARK  status: ('A' for Active; 'I' for Inactive)
REMARK    1  A    between atoms: C2'_3  and  C1'_4 
REMARK    2  A    between atoms: C1'_4  and  C1_5 
ROOT
ATOM      1  C1  I4B d   1       1.114   0.234   0.215  0.00  0.00    -0.075 A 
ATOM      2  C2  I4B d   1       0.304   0.368  -0.885  0.00  0.00     0.003 A 
ATOM      3  C3  I4B d   1      -0.780  -0.522  -1.084  0.00  0.00     0.002 A 
ATOM      4  C4  I4B d   1      -0.985  -1.554  -0.191  0.00  0.00    -0.004 A 
ATOM      5  C5  I4B d   1      -0.176  -1.674   0.935  0.00  0.00     0.002 A 
ATOM      6  C6  I4B d   1       0.872  -0.767   1.147  0.00  0.00     0.003 A 
ENDROOT
BRANCH   1   7
ATOM      7  C1' I4B d   1       2.269   1.170   0.377  0.00  0.00     0.060 C 
BRANCH   7   8
ATOM      8  C2' I4B d   1       1.791   2.369   1.171  0.00  0.00    -0.013 C 
ATOM      9  C4' I4B d   1       2.147   2.234   2.629  0.00  0.00     0.013 C 
ATOM     10  C3' I4B d   1       2.410   3.597   0.574  0.00  0.00     0.013 C 
ENDBRANCH   7   8
ENDBRANCH   1   7
TORSDOF 2
ENDMDL
