MODEL 1
REMARK minimizedAffinity -4.42626381
REMARK minimizedRMSD -1
REMARK  2 active torsions:
REMARK  status: ('A' for Active; 'I' for Inactive)
REMARK    1  A    between atoms: C2'_3  and  C1'_4 
REMARK    2  A    between atoms: C1'_4  and  C1_5 
ROOT
ATOM      1  C1  I4B d   1       1.222   1.111   0.166  0.00  0.00    -0.075 A 
ATOM      2  C2  I4B d   1       2.581   1.069  -0.022  0.00  0.00     0.003 A 
ATOM      3  C3  I4B d   1       3.403   2.107   0.481  0.00  0.00     0.002 A 
ATOM      4  C4  I4B d   1       2.822   3.185   1.117  0.00  0.00    -0.004 A 
ATOM      5  C5  I4B d   1       1.447   3.215   1.327  0.00  0.00     0.002 A 
ATOM      6  C6  I4B d   1       0.642   2.166   0.860  0.00  0.00     0.003 A 
ENDROOT
BRANCH   1   7
ATOM      7  C1' I4B d   1       0.381   0.015  -0.407  0.00  0.00     0.060 C 
BRANCH   7   8
ATOM      8  C2' I4B d   1      -1.004   0.574  -0.662  0.00  0.00    -0.013 C 
ATOM      9  C4' I4B d   1      -0.986   1.586  -1.777  0.00  0.00     0.013 C 
ATOM     10  C3' I4B d   1      -1.914  -0.573  -0.986  0.00  0.00     0.013 C 
ENDBRANCH   7   8
ENDBRANCH   1   7
TORSDOF 2
ENDMDL
