MODEL 1
REMARK minimizedAffinity -0.574053645
REMARK minimizedRMSD -1
REMARK  2 active torsions:
REMARK  status: ('A' for Active; 'I' for Inactive)
REMARK    1  A    between atoms: C2'_3  and  C1'_4 
REMARK    2  A    between atoms: C1'_4  and  C1_5 
ROOT
ATOM      1  C1  I4B d   1      -0.095  -0.078   0.162  0.00  0.00    -0.075 A 
ATOM      2  C2  I4B d   1       0.302   1.107   0.729  0.00  0.00     0.003 A 
ATOM      3  C3  I4B d   1       0.929   1.116   1.998  0.00  0.00     0.002 A 
ATOM      4  C4  I4B d   1       1.094  -0.070   2.683  0.00  0.00    -0.004 A 
ATOM      5  C5  I4B d   1       0.712  -1.274   2.097  0.00  0.00     0.002 A 
ATOM      6  C6  I4B d   1       0.125  -1.280   0.824  0.00  0.00     0.003 A 
ENDROOT
BRANCH   1   7
ATOM      7  C1' I4B d   1      -0.784  -0.048  -1.165  0.00  0.00     0.060 C 
BRANCH   7   8
ATOM      8  C2' I4B d   1      -1.849  -1.126  -1.163  0.00  0.00    -0.013 C 
ATOM      9  C4' I4B d   1      -3.079  -0.675  -0.420  0.00  0.00     0.013 C 
ATOM     10  C3' I4B d   1      -2.169  -1.463  -2.588  0.00  0.00     0.013 C 
ENDBRANCH   7   8
ENDBRANCH   1   7
TORSDOF 2
ENDMDL
