MODEL 1
REMARK minimizedAffinity -2.99469233
REMARK minimizedRMSD -1
REMARK  2 active torsions:
REMARK  status: ('A' for Active; 'I' for Inactive)
REMARK    1  A    between atoms: C2'_3  and  C1'_4 
REMARK    2  A    between atoms: C1'_4  and  C1_5 
ROOT
ATOM      1  C1  I4B d   1       0.677   0.270  -0.052  0.00  0.00    -0.075 A 
ATOM      2  C2  I4B d   1       1.489   1.356   0.159  0.00  0.00     0.003 A 
ATOM      3  C3  I4B d   1       1.742   1.812   1.475  0.00  0.00     0.002 A 
ATOM      4  C4  I4B d   1       1.128   1.187   2.541  0.00  0.00    -0.004 A 
ATOM      5  C5  I4B d   1       0.323   0.071   2.327  0.00  0.00     0.002 A 
ATOM      6  C6  I4B d   1       0.106  -0.398   1.023  0.00  0.00     0.003 A 
ENDROOT
BRANCH   1   7
ATOM      7  C1' I4B d   1       0.404  -0.164  -1.458  0.00  0.00     0.060 C 
BRANCH   7   8
ATOM      8  C2' I4B d   1      -0.977   0.328  -1.838  0.00  0.00    -0.013 C 
ATOM      9  C4' I4B d   1      -1.982  -0.794  -1.816  0.00  0.00     0.013 C 
ATOM     10  C3' I4B d   1      -1.361   1.417  -0.881  0.00  0.00     0.013 C 
ENDBRANCH   7   8
ENDBRANCH   1   7
TORSDOF 2
ENDMDL
