MODEL 1
REMARK minimizedAffinity -2.98009229
REMARK minimizedRMSD -1
REMARK  2 active torsions:
REMARK  status: ('A' for Active; 'I' for Inactive)
REMARK    1  A    between atoms: C2'_3  and  C1'_4 
REMARK    2  A    between atoms: C1'_4  and  C1_5 
ROOT
ATOM      1  C1  I4B d   1       1.972   1.340   0.596  0.00  0.00    -0.075 A 
ATOM      2  C2  I4B d   1       3.015   2.000  -0.003  0.00  0.00     0.003 A 
ATOM      3  C3  I4B d   1       3.412   3.278   0.461  0.00  0.00     0.002 A 
ATOM      4  C4  I4B d   1       2.709   3.876   1.487  0.00  0.00    -0.004 A 
ATOM      5  C5  I4B d   1       1.666   3.196   2.109  0.00  0.00     0.002 A 
ATOM      6  C6  I4B d   1       1.303   1.914   1.669  0.00  0.00     0.003 A 
ENDROOT
BRANCH   1   7
ATOM      7  C1' I4B d   1       1.559   0.006   0.060  0.00  0.00     0.060 C 
BRANCH   7   8
ATOM      8  C2' I4B d   1       0.064  -0.135   0.260  0.00  0.00    -0.013 C 
ATOM      9  C4' I4B d   1      -0.680   0.049  -1.037  0.00  0.00     0.013 C 
ATOM     10  C3' I4B d   1      -0.199  -1.489   0.848  0.00  0.00     0.013 C 
ENDBRANCH   7   8
ENDBRANCH   1   7
TORSDOF 2
ENDMDL
