MODEL 1
REMARK minimizedAffinity 2.27056599
REMARK minimizedRMSD -1
REMARK  2 active torsions:
REMARK  status: ('A' for Active; 'I' for Inactive)
REMARK    1  A    between atoms: C2'_3  and  C1'_4 
REMARK    2  A    between atoms: C1'_4  and  C1_5 
ROOT
ATOM      1  C1  I4B d   1       3.503   3.137  -0.423  0.00  0.00    -0.075 A 
ATOM      2  C2  I4B d   1       3.966   1.989  -1.017  0.00  0.00     0.003 A 
ATOM      3  C3  I4B d   1       4.923   2.062  -2.058  0.00  0.00     0.002 A 
ATOM      4  C4  I4B d   1       5.349   3.296  -2.505  0.00  0.00    -0.004 A 
ATOM      5  C5  I4B d   1       4.896   4.457  -1.885  0.00  0.00     0.002 A 
ATOM      6  C6  I4B d   1       3.977   4.377  -0.829  0.00  0.00     0.003 A 
ENDROOT
BRANCH   1   7
ATOM      7  C1' I4B d   1       2.468   3.025   0.652  0.00  0.00     0.060 C 
BRANCH   7   8
ATOM      8  C2' I4B d   1       3.115   3.413   1.965  0.00  0.00    -0.013 C 
ATOM      9  C4' I4B d   1       2.338   4.504   2.655  0.00  0.00     0.013 C 
ATOM     10  C3' I4B d   1       3.199   2.185   2.821  0.00  0.00     0.013 C 
ENDBRANCH   7   8
ENDBRANCH   1   7
TORSDOF 2
ENDMDL
