MODEL 1
REMARK minimizedAffinity 2.29230261
REMARK minimizedRMSD -1
REMARK  2 active torsions:
REMARK  status: ('A' for Active; 'I' for Inactive)
REMARK    1  A    between atoms: C2'_3  and  C1'_4 
REMARK    2  A    between atoms: C1'_4  and  C1_5 
ROOT
ATOM      1  C1  I4B d   1      -1.884   0.529   0.251  0.00  0.00    -0.075 A 
ATOM      2  C2  I4B d   1      -2.641  -0.298  -0.540  0.00  0.00     0.003 A 
ATOM      3  C3  I4B d   1      -2.276  -0.525  -1.889  0.00  0.00     0.002 A 
ATOM      4  C4  I4B d   1      -1.182   0.131  -2.416  0.00  0.00    -0.004 A 
ATOM      5  C5  I4B d   1      -0.402   0.951  -1.606  0.00  0.00     0.002 A 
ATOM      6  C6  I4B d   1      -0.748   1.142  -0.261  0.00  0.00     0.003 A 
ENDROOT
BRANCH   1   7
ATOM      7  C1' I4B d   1      -2.318   0.772   1.662  0.00  0.00     0.060 C 
BRANCH   7   8
ATOM      8  C2' I4B d   1      -1.519  -0.149   2.561  0.00  0.00    -0.013 C 
ATOM      9  C4' I4B d   1      -0.182   0.452   2.908  0.00  0.00     0.013 C 
ATOM     10  C3' I4B d   1      -2.331  -0.411   3.795  0.00  0.00     0.013 C 
ENDBRANCH   7   8
ENDBRANCH   1   7
TORSDOF 2
ENDMDL
