MODEL 1
REMARK minimizedAffinity -2.22566605
REMARK minimizedRMSD -1
REMARK  2 active torsions:
REMARK  status: ('A' for Active; 'I' for Inactive)
REMARK    1  A    between atoms: C2'_3  and  C1'_4 
REMARK    2  A    between atoms: C1'_4  and  C1_5 
ROOT
ATOM      1  C1  I4B d   1       0.639   0.439  -0.134  0.00  0.00    -0.075 A 
ATOM      2  C2  I4B d   1      -0.128  -0.593   0.346  0.00  0.00     0.003 A 
ATOM      3  C3  I4B d   1      -1.360  -0.914  -0.274  0.00  0.00     0.002 A 
ATOM      4  C4  I4B d   1      -1.808  -0.149  -1.331  0.00  0.00    -0.004 A 
ATOM      5  C5  I4B d   1      -1.019   0.883  -1.831  0.00  0.00     0.002 A 
ATOM      6  C6  I4B d   1       0.218   1.171  -1.236  0.00  0.00     0.003 A 
ENDROOT
BRANCH   1   7
ATOM      7  C1' I4B d   1       1.919   0.771   0.565  0.00  0.00     0.060 C 
BRANCH   7   8
ATOM      8  C2' I4B d   1       2.053   2.280   0.602  0.00  0.00    -0.013 C 
ATOM      9  C4' I4B d   1       2.209   2.779   2.014  0.00  0.00     0.013 C 
ATOM     10  C3' I4B d   1       3.234   2.660  -0.240  0.00  0.00     0.013 C 
ENDBRANCH   7   8
ENDBRANCH   1   7
TORSDOF 2
ENDMDL
