MODEL 1
REMARK minimizedAffinity 2.93443727
REMARK minimizedRMSD -1
REMARK  2 active torsions:
REMARK  status: ('A' for Active; 'I' for Inactive)
REMARK    1  A    between atoms: C2'_3  and  C1'_4 
REMARK    2  A    between atoms: C1'_4  and  C1_5 
ROOT
ATOM      1  C1  I4B d   1       1.320   0.651  -0.276  0.00  0.00    -0.075 A 
ATOM      2  C2  I4B d   1       1.134  -0.166   0.811  0.00  0.00     0.003 A 
ATOM      3  C3  I4B d   1      -0.031  -0.964   0.912  0.00  0.00     0.002 A 
ATOM      4  C4  I4B d   1      -1.001  -0.877  -0.066  0.00  0.00    -0.004 A 
ATOM      5  C5  I4B d   1      -0.800  -0.066  -1.179  0.00  0.00     0.002 A 
ATOM      6  C6  I4B d   1       0.373   0.694  -1.291  0.00  0.00     0.003 A 
ENDROOT
BRANCH   1   7
ATOM      7  C1' I4B d   1       2.546   1.506  -0.334  0.00  0.00     0.060 C 
BRANCH   7   8
ATOM      8  C2' I4B d   1       2.189   2.873   0.212  0.00  0.00    -0.013 C 
ATOM      9  C4' I4B d   1       2.749   3.071   1.597  0.00  0.00     0.013 C 
ATOM     10  C3' I4B d   1       2.719   3.905  -0.738  0.00  0.00     0.013 C 
ENDBRANCH   7   8
ENDBRANCH   1   7
TORSDOF 2
ENDMDL
