MODEL 1
REMARK minimizedAffinity -3.58345366
REMARK minimizedRMSD -1
REMARK  2 active torsions:
REMARK  status: ('A' for Active; 'I' for Inactive)
REMARK    1  A    between atoms: C2'_3  and  C1'_4 
REMARK    2  A    between atoms: C1'_4  and  C1_5 
ROOT
ATOM      1  C1  I4B d   1       0.563   0.803  -0.209  0.00  0.00    -0.075 A 
ATOM      2  C2  I4B d   1      -0.168   1.463  -1.165  0.00  0.00     0.003 A 
ATOM      3  C3  I4B d   1      -1.422   0.954  -1.581  0.00  0.00     0.002 A 
ATOM      4  C4  I4B d   1      -1.880  -0.237  -1.056  0.00  0.00    -0.004 A 
ATOM      5  C5  I4B d   1      -1.148  -0.893  -0.070  0.00  0.00     0.002 A 
ATOM      6  C6  I4B d   1       0.075  -0.364   0.365  0.00  0.00     0.003 A 
ENDROOT
BRANCH   1   7
ATOM      7  C1' I4B d   1       1.898   1.352   0.184  0.00  0.00     0.060 C 
BRANCH   7   8
ATOM      8  C2' I4B d   1       1.679   2.720   0.795  0.00  0.00    -0.013 C 
ATOM      9  C4' I4B d   1       1.802   2.673   2.295  0.00  0.00     0.013 C 
ATOM     10  C3' I4B d   1       2.683   3.660   0.198  0.00  0.00     0.013 C 
ENDBRANCH   7   8
ENDBRANCH   1   7
TORSDOF 2
ENDMDL
