MODEL 1
REMARK minimizedAffinity 0.0880215541
REMARK minimizedRMSD -1
REMARK  2 active torsions:
REMARK  status: ('A' for Active; 'I' for Inactive)
REMARK    1  A    between atoms: C2'_3  and  C1'_4 
REMARK    2  A    between atoms: C1'_4  and  C1_5 
ROOT
ATOM      1  C1  I4B d   1       0.984   0.239   0.574  0.00  0.00    -0.075 A 
ATOM      2  C2  I4B d   1       1.925   0.558  -0.373  0.00  0.00     0.003 A 
ATOM      3  C3  I4B d   1       3.025   1.383  -0.036  0.00  0.00     0.002 A 
ATOM      4  C4  I4B d   1       3.119   1.904   1.238  0.00  0.00    -0.004 A 
ATOM      5  C5  I4B d   1       2.177   1.561   2.204  0.00  0.00     0.002 A 
ATOM      6  C6  I4B d   1       1.109   0.713   1.874  0.00  0.00     0.003 A 
ENDROOT
BRANCH   1   7
ATOM      7  C1' I4B d   1      -0.183  -0.607   0.175  0.00  0.00     0.060 C 
BRANCH   7   8
ATOM      8  C2' I4B d   1      -0.812   0.016  -1.055  0.00  0.00    -0.013 C 
ATOM      9  C4' I4B d   1      -2.087  -0.692  -1.433  0.00  0.00     0.013 C 
ATOM     10  C3' I4B d   1      -1.063   1.465  -0.763  0.00  0.00     0.013 C 
ENDBRANCH   7   8
ENDBRANCH   1   7
TORSDOF 2
ENDMDL
