MODEL 1
REMARK minimizedAffinity -1.68117821
REMARK minimizedRMSD -1
REMARK  1 active torsions:
REMARK  status: ('A' for Active; 'I' for Inactive)
REMARK    1  A    between atoms: C1_2  and  C2_3 
ROOT
ATOM      1  C2  UNL d   1       0.429  -0.365  -1.516  0.00  0.00    -0.081 A 
ATOM      2  C3  UNL d   1      -0.648   0.346  -0.974  0.00  0.00     0.006 A 
ATOM      3  C4  UNL d   1      -0.719   0.583   0.401  0.00  0.00     0.002 A 
ATOM      4  C5  UNL d   1       0.288   0.121   1.254  0.00  0.00    -0.080 A 
ATOM      5  C6  UNL d   1       0.239   0.395   2.728  0.00  0.00     0.076 C 
ATOM      6  C7  UNL d   1       1.356  -0.604   0.714  0.00  0.00     0.002 A 
ATOM      7  C8  UNL d   1       1.427  -0.842  -0.660  0.00  0.00     0.006 A 
ENDROOT
BRANCH   1   8
ATOM      8  C1  UNL d   1       0.542  -0.567  -3.006  0.00  0.00     0.054 C 
ATOM      9  C   UNL d   1       1.953  -0.975  -3.404  0.00  0.00     0.018 C 
ENDBRANCH   1   8
TORSDOF 1
ENDMDL
