MODEL 1
REMARK minimizedAffinity -2.5936749
REMARK minimizedRMSD -1
REMARK  1 active torsions:
REMARK  status: ('A' for Active; 'I' for Inactive)
REMARK    1  A    between atoms: C1_2  and  C2_3 
ROOT
ATOM      1  C2  UNL d   1       0.605   0.048  -1.599  0.00  0.00    -0.081 A 
ATOM      2  C3  UNL d   1      -0.693   0.514  -1.360  0.00  0.00     0.006 A 
ATOM      3  C4  UNL d   1      -1.145   0.714  -0.054  0.00  0.00     0.002 A 
ATOM      4  C5  UNL d   1      -0.304   0.459   1.035  0.00  0.00    -0.080 A 
ATOM      5  C6  UNL d   1      -0.767   0.698   2.441  0.00  0.00     0.076 C 
ATOM      6  C7  UNL d   1       0.987  -0.024   0.797  0.00  0.00     0.002 A 
ATOM      7  C8  UNL d   1       1.439  -0.224  -0.509  0.00  0.00     0.006 A 
ENDROOT
BRANCH   1   8
ATOM      8  C1  UNL d   1       1.117  -0.107  -3.008  0.00  0.00     0.054 C 
ATOM      9  C   UNL d   1       1.094  -1.564  -3.448  0.00  0.00     0.018 C 
ENDBRANCH   1   8
TORSDOF 1
ENDMDL
