MODEL 1
REMARK minimizedAffinity -2.64420795
REMARK minimizedRMSD -1
REMARK  1 active torsions:
REMARK  status: ('A' for Active; 'I' for Inactive)
REMARK    1  A    between atoms: C1_2  and  C2_3 
ROOT
ATOM      1  C2  UNL d   1       0.608   0.254  -1.402  0.00  0.00    -0.081 A 
ATOM      2  C3  UNL d   1       1.496  -0.125  -0.387  0.00  0.00     0.006 A 
ATOM      3  C4  UNL d   1       1.134   0.007   0.955  0.00  0.00     0.002 A 
ATOM      4  C5  UNL d   1      -0.122   0.513   1.306  0.00  0.00    -0.080 A 
ATOM      5  C6  UNL d   1      -0.534   0.632   2.743  0.00  0.00     0.076 C 
ATOM      6  C7  UNL d   1      -1.002   0.908   0.292  0.00  0.00     0.002 A 
ATOM      7  C8  UNL d   1      -0.641   0.777  -1.051  0.00  0.00     0.006 A 
ENDROOT
BRANCH   1   8
ATOM      8  C1  UNL d   1       0.970   0.053  -2.852  0.00  0.00     0.054 C 
ATOM      9  C   UNL d   1       0.956  -1.423  -3.225  0.00  0.00     0.018 C 
ENDBRANCH   1   8
TORSDOF 1
ENDMDL
