MODEL 1
REMARK minimizedAffinity -6.77447462
REMARK minimizedRMSD -1
REMARK  1 active torsions:
REMARK  status: ('A' for Active; 'I' for Inactive)
REMARK    1  A    between atoms: C1_2  and  C2_3 
ROOT
ATOM      1  C2  UNL d   1      -0.202   0.152  -0.713  0.00  0.00    -0.081 A 
ATOM      2  C3  UNL d   1       0.679   0.232   0.372  0.00  0.00     0.006 A 
ATOM      3  C4  UNL d   1       0.233  -0.035   1.668  0.00  0.00     0.002 A 
ATOM      4  C5  UNL d   1      -1.100  -0.394   1.900  0.00  0.00    -0.080 A 
ATOM      5  C6  UNL d   1      -1.585  -0.713   3.283  0.00  0.00     0.076 C 
ATOM      6  C7  UNL d   1      -1.984  -0.457   0.818  0.00  0.00     0.002 A 
ATOM      7  C8  UNL d   1      -1.538  -0.189  -0.478  0.00  0.00     0.006 A 
ENDROOT
BRANCH   1   8
ATOM      8  C1  UNL d   1       0.292   0.377  -2.120  0.00  0.00     0.054 C 
ATOM      9  C   UNL d   1       0.682  -0.936  -2.785  0.00  0.00     0.018 C 
ENDBRANCH   1   8
TORSDOF 1
ENDMDL
