MODEL 1
REMARK minimizedAffinity -0.396355033
REMARK minimizedRMSD -1
REMARK  1 active torsions:
REMARK  status: ('A' for Active; 'I' for Inactive)
REMARK    1  A    between atoms: C1_2  and  C2_3 
ROOT
ATOM      1  C2  UNL d   1      -1.387   0.358   0.632  0.00  0.00    -0.081 A 
ATOM      2  C3  UNL d   1      -0.981   0.449   1.969  0.00  0.00     0.006 A 
ATOM      3  C4  UNL d   1       0.375   0.542   2.293  0.00  0.00     0.002 A 
ATOM      4  C5  UNL d   1       1.346   0.553   1.286  0.00  0.00    -0.080 A 
ATOM      5  C6  UNL d   1       2.803   0.683   1.619  0.00  0.00     0.076 C 
ATOM      6  C7  UNL d   1       0.942   0.444  -0.049  0.00  0.00     0.002 A 
ATOM      7  C8  UNL d   1      -0.414   0.350  -0.373  0.00  0.00     0.006 A 
ENDROOT
BRANCH   1   8
ATOM      8  C1  UNL d   1      -2.851   0.323   0.276  0.00  0.00     0.054 C 
ATOM      9  C   UNL d   1      -3.092   0.856  -1.129  0.00  0.00     0.018 C 
ENDBRANCH   1   8
TORSDOF 1
ENDMDL
