MODEL 1
REMARK minimizedAffinity -3.03361273
REMARK minimizedRMSD -1
REMARK  1 active torsions:
REMARK  status: ('A' for Active; 'I' for Inactive)
REMARK    1  A    between atoms: C1_2  and  C2_3 
ROOT
ATOM      1  C2  UNL d   1       0.586   0.428  -0.547  0.00  0.00    -0.081 A 
ATOM      2  C3  UNL d   1      -0.704  -0.079  -0.349  0.00  0.00     0.006 A 
ATOM      3  C4  UNL d   1      -1.235  -1.027  -1.227  0.00  0.00     0.002 A 
ATOM      4  C5  UNL d   1      -0.482  -1.490  -2.311  0.00  0.00    -0.080 A 
ATOM      5  C6  UNL d   1      -1.029  -2.530  -3.243  0.00  0.00     0.076 C 
ATOM      6  C7  UNL d   1       0.800  -0.971  -2.519  0.00  0.00     0.002 A 
ATOM      7  C8  UNL d   1       1.331  -0.022  -1.643  0.00  0.00     0.006 A 
ENDROOT
BRANCH   1   8
ATOM      8  C1  UNL d   1       1.186   1.402   0.434  0.00  0.00     0.054 C 
ATOM      9  C   UNL d   1       2.349   0.779   1.192  0.00  0.00     0.018 C 
ENDBRANCH   1   8
TORSDOF 1
ENDMDL
