MODEL 1
REMARK minimizedAffinity 0.886247337
REMARK minimizedRMSD -1
REMARK  1 active torsions:
REMARK  status: ('A' for Active; 'I' for Inactive)
REMARK    1  A    between atoms: C1_2  and  C2_3 
ROOT
ATOM      1  C2  UNL d   1       0.471   0.124  -1.243  0.00  0.00    -0.081 A 
ATOM      2  C3  UNL d   1       1.548   0.250  -0.358  0.00  0.00     0.006 A 
ATOM      3  C4  UNL d   1       1.325   0.378   1.015  0.00  0.00     0.002 A 
ATOM      4  C5  UNL d   1       0.023   0.374   1.526  0.00  0.00    -0.080 A 
ATOM      5  C6  UNL d   1      -0.229   0.481   3.001  0.00  0.00     0.076 C 
ATOM      6  C7  UNL d   1      -1.054   0.266   0.640  0.00  0.00     0.002 A 
ATOM      7  C8  UNL d   1      -0.832   0.138  -0.733  0.00  0.00     0.006 A 
ENDROOT
BRANCH   1   8
ATOM      8  C1  UNL d   1       0.710  -0.079  -2.718  0.00  0.00     0.054 C 
ATOM      9  C   UNL d   1       2.197  -0.144  -3.033  0.00  0.00     0.018 C 
ENDBRANCH   1   8
TORSDOF 1
ENDMDL
