MODEL 1
REMARK minimizedAffinity -0.608161688
REMARK minimizedRMSD -1
REMARK  1 active torsions:
REMARK  status: ('A' for Active; 'I' for Inactive)
REMARK    1  A    between atoms: C1_2  and  C2_3 
ROOT
ATOM      1  C2  UNL d   1       0.564  -0.050  -1.595  0.00  0.00    -0.081 A 
ATOM      2  C3  UNL d   1       1.771   0.065  -0.895  0.00  0.00     0.006 A 
ATOM      3  C4  UNL d   1       1.774   0.188   0.497  0.00  0.00     0.002 A 
ATOM      4  C5  UNL d   1       0.571   0.189   1.212  0.00  0.00    -0.080 A 
ATOM      5  C6  UNL d   1       0.562   0.290   2.708  0.00  0.00     0.076 C 
ATOM      6  C7  UNL d   1      -0.635   0.091   0.511  0.00  0.00     0.002 A 
ATOM      7  C8  UNL d   1      -0.639  -0.031  -0.881  0.00  0.00     0.006 A 
ENDROOT
BRANCH   1   8
ATOM      8  C1  UNL d   1       0.561  -0.248  -3.089  0.00  0.00     0.054 C 
ATOM      9  C   UNL d   1       0.900  -1.685  -3.458  0.00  0.00     0.018 C 
ENDBRANCH   1   8
TORSDOF 1
ENDMDL
