MODEL 1
REMARK minimizedAffinity -3.97344923
REMARK minimizedRMSD -1
REMARK  1 active torsions:
REMARK  status: ('A' for Active; 'I' for Inactive)
REMARK    1  A    between atoms: C1_2  and  C2_3 
ROOT
ATOM      1  C2  UNL d   1      -1.193   0.663   0.715  0.00  0.00    -0.081 A 
ATOM      2  C3  UNL d   1      -0.289   0.622  -0.355  0.00  0.00     0.006 A 
ATOM      3  C4  UNL d   1       1.072   0.409  -0.124  0.00  0.00     0.002 A 
ATOM      4  C5  UNL d   1       1.551   0.227   1.178  0.00  0.00    -0.080 A 
ATOM      5  C6  UNL d   1       3.006  -0.031   1.437  0.00  0.00     0.076 C 
ATOM      6  C7  UNL d   1       0.652   0.286   2.248  0.00  0.00     0.002 A 
ATOM      7  C8  UNL d   1      -0.710   0.499   2.017  0.00  0.00     0.006 A 
ENDROOT
BRANCH   1   8
ATOM      8  C1  UNL d   1      -2.670   0.827   0.464  0.00  0.00     0.054 C 
ATOM      9  C   UNL d   1      -3.418   1.142   1.751  0.00  0.00     0.018 C 
ENDBRANCH   1   8
TORSDOF 1
ENDMDL
