MODEL 1
REMARK minimizedAffinity -1.32811856
REMARK minimizedRMSD -1
REMARK  1 active torsions:
REMARK  status: ('A' for Active; 'I' for Inactive)
REMARK    1  A    between atoms: C1_2  and  C2_3 
ROOT
ATOM      1  C2  UNL d   1       0.906   0.057  -1.627  0.00  0.00    -0.081 A 
ATOM      2  C3  UNL d   1       1.928   0.446  -0.753  0.00  0.00     0.006 A 
ATOM      3  C4  UNL d   1       1.680   0.568   0.616  0.00  0.00     0.002 A 
ATOM      4  C5  UNL d   1       0.409   0.296   1.135  0.00  0.00    -0.080 A 
ATOM      5  C6  UNL d   1       0.138   0.394   2.606  0.00  0.00     0.076 C 
ATOM      6  C7  UNL d   1      -0.616  -0.075   0.259  0.00  0.00     0.002 A 
ATOM      7  C8  UNL d   1      -0.369  -0.197  -1.110  0.00  0.00     0.006 A 
ENDROOT
BRANCH   1   8
ATOM      8  C1  UNL d   1       1.186  -0.139  -3.096  0.00  0.00     0.054 C 
ATOM      9  C   UNL d   1       1.647  -1.560  -3.386  0.00  0.00     0.018 C 
ENDBRANCH   1   8
TORSDOF 1
ENDMDL
