MODEL 1
REMARK minimizedAffinity -4.31114626
REMARK minimizedRMSD -1
REMARK  1 active torsions:
REMARK  status: ('A' for Active; 'I' for Inactive)
REMARK    1  A    between atoms: C1_2  and  C2_3 
ROOT
ATOM      1  C2  UNL d   1      -2.167   0.592   1.830  0.00  0.00    -0.081 A 
ATOM      2  C3  UNL d   1      -0.816   0.299   2.054  0.00  0.00     0.006 A 
ATOM      3  C4  UNL d   1       0.074   0.197   0.982  0.00  0.00     0.002 A 
ATOM      4  C5  UNL d   1      -0.369   0.394  -0.330  0.00  0.00    -0.080 A 
ATOM      5  C6  UNL d   1       0.582   0.317  -1.487  0.00  0.00     0.076 C 
ATOM      6  C7  UNL d   1      -1.722   0.669  -0.555  0.00  0.00     0.002 A 
ATOM      7  C8  UNL d   1      -2.613   0.771   0.516  0.00  0.00     0.006 A 
ENDROOT
BRANCH   1   8
ATOM      8  C1  UNL d   1      -3.116   0.767   2.988  0.00  0.00     0.054 C 
ATOM      9  C   UNL d   1      -4.060   1.938   2.758  0.00  0.00     0.018 C 
ENDBRANCH   1   8
TORSDOF 1
ENDMDL
