MODEL 1
REMARK minimizedAffinity -3.33916688
REMARK minimizedRMSD -1
REMARK  0 active torsions:
REMARK  status: ('A' for Active; 'I' for Inactive)
ROOT
ATOM      1  C1  BNZ d   1      -0.873   1.216   2.306  0.00  0.00     0.000 A 
ATOM      2  C2  BNZ d   1      -0.738  -0.086   1.903  0.00  0.00     0.000 A 
ATOM      3  C3  BNZ d   1      -0.219  -0.388   0.675  0.00  0.00     0.000 A 
ATOM      4  C4  BNZ d   1       0.127   0.610  -0.163  0.00  0.00     0.000 A 
ATOM      5  C5  BNZ d   1      -0.012   1.928   0.225  0.00  0.00     0.000 A 
ATOM      6  C6  BNZ d   1      -0.499   2.228   1.477  0.00  0.00     0.000 A 
ENDROOT
TORSDOF 0
ENDMDL
