MODEL 1
REMARK minimizedAffinity 0.909024358
REMARK minimizedRMSD -1
REMARK  0 active torsions:
REMARK  status: ('A' for Active; 'I' for Inactive)
ROOT
ATOM      1  C1  BNZ d   1      -0.081  -4.077  -0.429  0.00  0.00     0.000 A 
ATOM      2  C2  BNZ d   1       0.681  -2.944  -0.326  0.00  0.00     0.000 A 
ATOM      3  C3  BNZ d   1       0.357  -1.816  -1.026  0.00  0.00     0.000 A 
ATOM      4  C4  BNZ d   1      -0.704  -1.834  -1.859  0.00  0.00     0.000 A 
ATOM      5  C5  BNZ d   1      -1.477  -2.972  -1.981  0.00  0.00     0.000 A 
ATOM      6  C6  BNZ d   1      -1.170  -4.093  -1.244  0.00  0.00     0.000 A 
ENDROOT
TORSDOF 0
ENDMDL
