MODEL 1
REMARK minimizedAffinity -2.26643658
REMARK minimizedRMSD -1
REMARK  0 active torsions:
REMARK  status: ('A' for Active; 'I' for Inactive)
ROOT
ATOM      1  C1  BNZ d   1      -0.388   1.041   1.361  0.00  0.00     0.000 A 
ATOM      2  C2  BNZ d   1      -0.721   0.952   0.035  0.00  0.00     0.000 A 
ATOM      3  C3  BNZ d   1      -0.168  -0.010  -0.762  0.00  0.00     0.000 A 
ATOM      4  C4  BNZ d   1       0.746  -0.856  -0.244  0.00  0.00     0.000 A 
ATOM      5  C5  BNZ d   1       1.099  -0.773   1.088  0.00  0.00     0.000 A 
ATOM      6  C6  BNZ d   1       0.511   0.172   1.897  0.00  0.00     0.000 A 
ENDROOT
TORSDOF 0
ENDMDL
