MODEL 1
REMARK minimizedAffinity -2.63925433
REMARK minimizedRMSD -1
REMARK  0 active torsions:
REMARK  status: ('A' for Active; 'I' for Inactive)
ROOT
ATOM      1  C1  BNZ d   1      -0.693  -2.713  -1.952  0.00  0.00     0.000 A 
ATOM      2  C2  BNZ d   1      -1.594  -3.482  -1.263  0.00  0.00     0.000 A 
ATOM      3  C3  BNZ d   1      -1.204  -4.211  -0.175  0.00  0.00     0.000 A 
ATOM      4  C4  BNZ d   1       0.092  -4.201   0.200  0.00  0.00     0.000 A 
ATOM      5  C5  BNZ d   1       1.014  -3.439  -0.490  0.00  0.00     0.000 A 
ATOM      6  C6  BNZ d   1       0.610  -2.676  -1.561  0.00  0.00     0.000 A 
ENDROOT
TORSDOF 0
ENDMDL
