MODEL 1
REMARK minimizedAffinity -2.60527444
REMARK minimizedRMSD -1
REMARK  0 active torsions:
REMARK  status: ('A' for Active; 'I' for Inactive)
ROOT
ATOM      1  C1  BNZ d   1      -0.215   0.771   1.873  0.00  0.00     0.000 A 
ATOM      2  C2  BNZ d   1      -0.032  -0.449   1.279  0.00  0.00     0.000 A 
ATOM      3  C3  BNZ d   1       0.137  -0.551  -0.074  0.00  0.00     0.000 A 
ATOM      4  C4  BNZ d   1       0.082   0.561  -0.834  0.00  0.00     0.000 A 
ATOM      5  C5  BNZ d   1      -0.111   1.798  -0.252  0.00  0.00     0.000 A 
ATOM      6  C6  BNZ d   1      -0.242   1.901   1.114  0.00  0.00     0.000 A 
ENDROOT
TORSDOF 0
ENDMDL
