MODEL 1
REMARK minimizedAffinity -1.76301408
REMARK minimizedRMSD -1
REMARK  0 active torsions:
REMARK  status: ('A' for Active; 'I' for Inactive)
ROOT
ATOM      1  C1  BNZ d   1       0.501  -4.728  -1.061  0.00  0.00     0.000 A 
ATOM      2  C2  BNZ d   1      -0.867  -4.653  -1.062  0.00  0.00     0.000 A 
ATOM      3  C3  BNZ d   1      -1.501  -3.443  -1.109  0.00  0.00     0.000 A 
ATOM      4  C4  BNZ d   1      -0.770  -2.310  -1.113  0.00  0.00     0.000 A 
ATOM      5  C5  BNZ d   1       0.609  -2.369  -1.103  0.00  0.00     0.000 A 
ATOM      6  C6  BNZ d   1       1.245  -3.589  -1.095  0.00  0.00     0.000 A 
ENDROOT
TORSDOF 0
ENDMDL
