MODEL 1
REMARK minimizedAffinity -3.87631869
REMARK minimizedRMSD -1
REMARK  0 active torsions:
REMARK  status: ('A' for Active; 'I' for Inactive)
ROOT
ATOM      1  C1  BNZ d   1      -0.367  -0.146   1.587  0.00  0.00     0.000 A 
ATOM      2  C2  BNZ d   1       0.510   0.313   0.641  0.00  0.00     0.000 A 
ATOM      3  C3  BNZ d   1       0.831  -0.452  -0.446  0.00  0.00     0.000 A 
ATOM      4  C4  BNZ d   1       0.305  -1.688  -0.565  0.00  0.00     0.000 A 
ATOM      5  C5  BNZ d   1      -0.574  -2.169   0.385  0.00  0.00     0.000 A 
ATOM      6  C6  BNZ d   1      -0.924  -1.381   1.457  0.00  0.00     0.000 A 
ENDROOT
TORSDOF 0
ENDMDL
