MODEL 1
REMARK minimizedAffinity -3.76621747
REMARK minimizedRMSD -1
REMARK  0 active torsions:
REMARK  status: ('A' for Active; 'I' for Inactive)
ROOT
ATOM      1  C1  BNZ d   1      -0.166   1.261   0.531  0.00  0.00     0.000 A 
ATOM      2  C2  BNZ d   1      -0.081   0.969  -0.805  0.00  0.00     0.000 A 
ATOM      3  C3  BNZ d   1       0.589  -0.141  -1.238  0.00  0.00     0.000 A 
ATOM      4  C4  BNZ d   1       1.206  -0.935  -0.339  0.00  0.00     0.000 A 
ATOM      5  C5  BNZ d   1       1.137  -0.650   1.010  0.00  0.00     0.000 A 
ATOM      6  C6  BNZ d   1       0.429   0.447   1.445  0.00  0.00     0.000 A 
ENDROOT
TORSDOF 0
ENDMDL
