MODEL 1
REMARK minimizedAffinity -2.24223137
REMARK minimizedRMSD -1
REMARK  0 active torsions:
REMARK  status: ('A' for Active; 'I' for Inactive)
ROOT
ATOM      1  C1  BNZ d   1      -0.861  -1.741  -1.749  0.00  0.00     0.000 A 
ATOM      2  C2  BNZ d   1      -1.479  -2.958  -1.865  0.00  0.00     0.000 A 
ATOM      3  C3  BNZ d   1      -0.940  -4.075  -1.289  0.00  0.00     0.000 A 
ATOM      4  C4  BNZ d   1       0.234  -3.981  -0.633  0.00  0.00     0.000 A 
ATOM      5  C5  BNZ d   1       0.874  -2.763  -0.515  0.00  0.00     0.000 A 
ATOM      6  C6  BNZ d   1       0.309  -1.634  -1.062  0.00  0.00     0.000 A 
ENDROOT
TORSDOF 0
ENDMDL
