MODEL 1
REMARK minimizedAffinity 9.56511211
REMARK minimizedRMSD -1
REMARK  1 active torsions:
REMARK  status: ('A' for Active; 'I' for Inactive)
REMARK    1  A    between atoms: N_2  and  C1_3 
ROOT
ATOM      1  C1  UNL d   1      -1.643  -0.460   3.393  0.00  0.00     0.143 A 
ATOM      2  C2  UNL d   1      -1.891  -1.679   2.753  0.00  0.00    -0.057 A 
ATOM      3  C3  UNL d   1      -0.851  -2.430   2.193  0.00  0.00     0.033 A 
ATOM      4  C4  UNL d   1       0.457  -1.959   2.237  0.00  0.00    -0.042 A 
ATOM      5  C5  UNL d   1       0.724  -0.738   2.845  0.00  0.00     0.033 A 
ATOM      6  C6  UNL d   1      -0.318   0.004   3.409  0.00  0.00    -0.057 A 
ENDROOT
BRANCH   1   7
ATOM      7  N   UNL d   1      -2.646   0.380   3.882  0.00  0.00    -0.732 N 
ATOM      8  C   UNL d   1      -3.786   0.724   3.060  0.00  0.00     0.284 C 
ATOM      9  H3  UNL d   1      -2.878   0.183   4.853  0.00  0.00     0.395 HD
ENDBRANCH   1   7
TORSDOF 1
ENDMDL
