MODEL 1
REMARK minimizedAffinity 7.10245895
REMARK minimizedRMSD -1
REMARK  1 active torsions:
REMARK  status: ('A' for Active; 'I' for Inactive)
REMARK    1  A    between atoms: N_2  and  C1_3 
ROOT
ATOM      1  C1  UNL d   1       1.184  -1.286   1.017  0.00  0.00     0.143 A 
ATOM      2  C2  UNL d   1       2.010  -0.174   1.208  0.00  0.00    -0.057 A 
ATOM      3  C3  UNL d   1       1.970   0.919   0.333  0.00  0.00     0.033 A 
ATOM      4  C4  UNL d   1       1.121   0.905  -0.769  0.00  0.00    -0.042 A 
ATOM      5  C5  UNL d   1       0.308  -0.201  -0.992  0.00  0.00     0.033 A 
ATOM      6  C6  UNL d   1       0.348  -1.286  -0.110  0.00  0.00    -0.057 A 
ENDROOT
BRANCH   1   7
ATOM      7  N   UNL d   1       1.247  -2.445   1.796  0.00  0.00    -0.732 N 
ATOM      8  C   UNL d   1       1.879  -3.642   1.285  0.00  0.00     0.284 C 
ATOM      9  H3  UNL d   1       1.459  -2.246   2.771  0.00  0.00     0.395 HD
ENDBRANCH   1   7
TORSDOF 1
ENDMDL
