MODEL 1
REMARK minimizedAffinity -3.91575766
REMARK minimizedRMSD -1
REMARK  1 active torsions:
REMARK  status: ('A' for Active; 'I' for Inactive)
REMARK    1  A    between atoms: N_2  and  C1_3 
ROOT
ATOM      1  C1  UNL d   1       4.701  -3.373   4.244  0.00  0.00     0.143 A 
ATOM      2  C2  UNL d   1       5.208  -2.811   3.068  0.00  0.00    -0.057 A 
ATOM      3  C3  UNL d   1       4.399  -2.636   1.939  0.00  0.00     0.033 A 
ATOM      4  C4  UNL d   1       3.071  -3.048   1.957  0.00  0.00    -0.042 A 
ATOM      5  C5  UNL d   1       2.551  -3.632   3.107  0.00  0.00     0.033 A 
ATOM      6  C6  UNL d   1       3.363  -3.798   4.233  0.00  0.00    -0.057 A 
ENDROOT
BRANCH   1   7
ATOM      7  N   UNL d   1       5.480  -3.664   5.366  0.00  0.00    -0.732 N 
ATOM      8  C   UNL d   1       5.404  -4.963   6.000  0.00  0.00     0.284 C 
ATOM      9  H3  UNL d   1       6.424  -3.293   5.290  0.00  0.00     0.395 HD
ENDBRANCH   1   7
TORSDOF 1
ENDMDL
