MODEL 1
REMARK minimizedAffinity 9.74049664
REMARK minimizedRMSD -1
REMARK  1 active torsions:
REMARK  status: ('A' for Active; 'I' for Inactive)
REMARK    1  A    between atoms: N_2  and  C1_3 
ROOT
ATOM      1  C1  UNL d   1       0.883  -1.050   0.609  0.00  0.00     0.143 A 
ATOM      2  C2  UNL d   1       1.836  -0.060   0.872  0.00  0.00    -0.057 A 
ATOM      3  C3  UNL d   1       2.078   0.975  -0.040  0.00  0.00     0.033 A 
ATOM      4  C4  UNL d   1       1.388   1.022  -1.247  0.00  0.00    -0.042 A 
ATOM      5  C5  UNL d   1       0.455   0.034  -1.540  0.00  0.00     0.033 A 
ATOM      6  C6  UNL d   1       0.213  -0.993  -0.623  0.00  0.00    -0.057 A 
ENDROOT
BRANCH   1   7
ATOM      7  N   UNL d   1       0.668  -2.159   1.431  0.00  0.00    -0.732 N 
ATOM      8  C   UNL d   1       1.783  -2.927   1.940  0.00  0.00     0.284 C 
ATOM      9  H3  UNL d   1      -0.073  -2.002   2.110  0.00  0.00     0.395 HD
ENDBRANCH   1   7
TORSDOF 1
ENDMDL
