MODEL 1
REMARK minimizedAffinity -1.92257404
REMARK minimizedRMSD -1
REMARK  0 active torsions:
REMARK  status: ('A' for Active; 'I' for Inactive)
ROOT
ATOM      1  C   UNL d   1       3.222  -0.237  -3.199  0.00  0.00     0.020 A 
ATOM      2  C1  UNL d   1       2.838  -1.261  -4.064  0.00  0.00     0.020 A 
ATOM      3  C2  UNL d   1       1.487  -1.581  -4.210  0.00  0.00     0.034 A 
ATOM      4  C3  UNL d   1       0.515  -0.878  -3.490  0.00  0.00     0.017 A 
ATOM      5  C4  UNL d   1       0.901   0.149  -2.621  0.00  0.00     0.017 A 
ATOM      6  C5  UNL d   1       2.256   0.466  -2.479  0.00  0.00     0.034 A 
ATOM      7 Cl   UNL d   1      -0.240   1.062  -1.699  0.00  0.00    -0.070 Cl
ATOM      8 Cl1  UNL d   1      -1.138  -1.327  -3.719  0.00  0.00    -0.070 Cl
ENDROOT
TORSDOF 0
ENDMDL
