MODEL 1
REMARK minimizedAffinity -3.94647288
REMARK minimizedRMSD -1
REMARK  0 active torsions:
REMARK  status: ('A' for Active; 'I' for Inactive)
ROOT
ATOM      1  C   UNL d   1      -1.874  -0.138   3.332  0.00  0.00     0.020 A 
ATOM      2  C1  UNL d   1      -0.536  -0.454   3.098  0.00  0.00     0.020 A 
ATOM      3  C2  UNL d   1      -0.024  -0.404   1.799  0.00  0.00     0.034 A 
ATOM      4  C3  UNL d   1      -0.851  -0.038   0.731  0.00  0.00     0.017 A 
ATOM      5  C4  UNL d   1      -2.193   0.278   0.967  0.00  0.00     0.017 A 
ATOM      6  C5  UNL d   1      -2.700   0.227   2.269  0.00  0.00     0.034 A 
ATOM      7 Cl   UNL d   1      -3.274   0.739  -0.300  0.00  0.00    -0.070 Cl
ATOM      8 Cl1  UNL d   1      -0.151   0.002  -0.849  0.00  0.00    -0.070 Cl
ENDROOT
TORSDOF 0
ENDMDL
