MODEL 1
REMARK minimizedAffinity -5.33389568
REMARK minimizedRMSD -1
REMARK  0 active torsions:
REMARK  status: ('A' for Active; 'I' for Inactive)
ROOT
ATOM      1  C   UNL d   1      -2.560   0.289   2.611  0.00  0.00     0.020 A 
ATOM      2  C1  UNL d   1      -1.416  -0.177   3.258  0.00  0.00     0.020 A 
ATOM      3  C2  UNL d   1      -0.243  -0.394   2.533  0.00  0.00     0.034 A 
ATOM      4  C3  UNL d   1      -0.211  -0.145   1.156  0.00  0.00     0.017 A 
ATOM      5  C4  UNL d   1      -1.360   0.323   0.507  0.00  0.00     0.017 A 
ATOM      6  C5  UNL d   1      -2.532   0.538   1.239  0.00  0.00     0.034 A 
ATOM      7 Cl   UNL d   1      -1.397   0.653  -1.189  0.00  0.00    -0.070 Cl
ATOM      8 Cl1  UNL d   1       1.274  -0.434   0.321  0.00  0.00    -0.070 Cl
ENDROOT
TORSDOF 0
ENDMDL
