MODEL 1
REMARK minimizedAffinity -2.87356567
REMARK minimizedRMSD -1
REMARK  0 active torsions:
REMARK  status: ('A' for Active; 'I' for Inactive)
ROOT
ATOM      1  C   UNL d   1       0.437   0.417  -1.103  0.00  0.00     0.020 A 
ATOM      2  C1  UNL d   1       1.390   0.444  -0.086  0.00  0.00     0.020 A 
ATOM      3  C2  UNL d   1       1.027   0.110   1.220  0.00  0.00     0.034 A 
ATOM      4  C3  UNL d   1      -0.293  -0.252   1.513  0.00  0.00     0.017 A 
ATOM      5  C4  UNL d   1      -1.249  -0.278   0.491  0.00  0.00     0.017 A 
ATOM      6  C5  UNL d   1      -0.880   0.057  -0.815  0.00  0.00     0.034 A 
ATOM      7 Cl   UNL d   1      -2.897  -0.715   0.776  0.00  0.00    -0.070 Cl
ATOM      8 Cl1  UNL d   1      -0.671  -0.653   3.150  0.00  0.00    -0.070 Cl
ENDROOT
TORSDOF 0
ENDMDL
