MODEL 1
REMARK minimizedAffinity -3.31572032
REMARK minimizedRMSD -1
REMARK  0 active torsions:
REMARK  status: ('A' for Active; 'I' for Inactive)
ROOT
ATOM      1  C   UNL d   1      -1.557   0.780  -0.842  0.00  0.00     0.020 A 
ATOM      2  C1  UNL d   1      -0.264   1.227  -1.109  0.00  0.00     0.020 A 
ATOM      3  C2  UNL d   1       0.744   1.055  -0.158  0.00  0.00     0.034 A 
ATOM      4  C3  UNL d   1       0.460   0.435   1.064  0.00  0.00     0.017 A 
ATOM      5  C4  UNL d   1      -0.838  -0.013   1.331  0.00  0.00     0.017 A 
ATOM      6  C5  UNL d   1      -1.844   0.162   0.375  0.00  0.00     0.034 A 
ATOM      7 Cl   UNL d   1      -1.265  -0.786   2.817  0.00  0.00    -0.070 Cl
ATOM      8 Cl1  UNL d   1       1.756   0.256   2.194  0.00  0.00    -0.070 Cl
ENDROOT
TORSDOF 0
ENDMDL
