MODEL 1
REMARK minimizedAffinity -3.15463471
REMARK minimizedRMSD -1
REMARK  0 active torsions:
REMARK  status: ('A' for Active; 'I' for Inactive)
ROOT
ATOM      1  C   UNL d   1      -1.566   0.202   2.869  0.00  0.00     0.020 A 
ATOM      2  C1  UNL d   1      -2.450   0.304   1.796  0.00  0.00     0.020 A 
ATOM      3  C2  UNL d   1      -1.973   0.206   0.487  0.00  0.00     0.034 A 
ATOM      4  C3  UNL d   1      -0.608   0.006   0.248  0.00  0.00     0.017 A 
ATOM      5  C4  UNL d   1       0.278  -0.096   1.327  0.00  0.00     0.017 A 
ATOM      6  C5  UNL d   1      -0.205   0.003   2.635  0.00  0.00     0.034 A 
ATOM      7 Cl   UNL d   1       1.975  -0.342   1.111  0.00  0.00    -0.070 Cl
ATOM      8 Cl1  UNL d   1      -0.088  -0.105  -1.396  0.00  0.00    -0.070 Cl
ENDROOT
TORSDOF 0
ENDMDL
