MODEL 1
REMARK minimizedAffinity -2.99176502
REMARK minimizedRMSD -1
REMARK  0 active torsions:
REMARK  status: ('A' for Active; 'I' for Inactive)
ROOT
ATOM      1  C   UNL d   1       0.551   0.545  -0.599  0.00  0.00     0.020 A 
ATOM      2  C1  UNL d   1      -0.355  -0.514  -0.571  0.00  0.00     0.020 A 
ATOM      3  C2  UNL d   1      -0.886  -0.946   0.646  0.00  0.00     0.034 A 
ATOM      4  C3  UNL d   1      -0.511  -0.319   1.840  0.00  0.00     0.017 A 
ATOM      5  C4  UNL d   1       0.399   0.744   1.811  0.00  0.00     0.017 A 
ATOM      6  C5  UNL d   1       0.928   1.173   0.589  0.00  0.00     0.034 A 
ATOM      7 Cl   UNL d   1       0.910   1.567   3.242  0.00  0.00    -0.070 Cl
ATOM      8 Cl1  UNL d   1      -1.207  -0.905   3.309  0.00  0.00    -0.070 Cl
ENDROOT
TORSDOF 0
ENDMDL
