MODEL 1
REMARK minimizedAffinity -3.35134053
REMARK minimizedRMSD -1
REMARK  0 active torsions:
REMARK  status: ('A' for Active; 'I' for Inactive)
ROOT
ATOM      1  C   UNL d   1      -0.128   0.860  -1.651  0.00  0.00     0.020 A 
ATOM      2  C1  UNL d   1       0.961   0.479  -0.868  0.00  0.00     0.020 A 
ATOM      3  C2  UNL d   1       0.753  -0.026   0.418  0.00  0.00     0.034 A 
ATOM      4  C3  UNL d   1      -0.546  -0.152   0.923  0.00  0.00     0.017 A 
ATOM      5  C4  UNL d   1      -1.638   0.230   0.136  0.00  0.00     0.017 A 
ATOM      6  C5  UNL d   1      -1.425   0.736  -1.150  0.00  0.00     0.034 A 
ATOM      7 Cl   UNL d   1      -3.270   0.105   0.691  0.00  0.00    -0.070 Cl
ATOM      8 Cl1  UNL d   1      -0.729  -0.785   2.521  0.00  0.00    -0.070 Cl
ENDROOT
TORSDOF 0
ENDMDL
