MODEL 1
REMARK minimizedAffinity -2.86446643
REMARK minimizedRMSD -1
REMARK  0 active torsions:
REMARK  status: ('A' for Active; 'I' for Inactive)
ROOT
ATOM      1  C   UNL d   1       0.697   0.053  -1.120  0.00  0.00     0.020 A 
ATOM      2  C1  UNL d   1       1.643  -0.046  -0.101  0.00  0.00     0.020 A 
ATOM      3  C2  UNL d   1       1.236  -0.323   1.206  0.00  0.00     0.034 A 
ATOM      4  C3  UNL d   1      -0.122  -0.501   1.497  0.00  0.00     0.017 A 
ATOM      5  C4  UNL d   1      -1.071  -0.400   0.474  0.00  0.00     0.017 A 
ATOM      6  C5  UNL d   1      -0.657  -0.123  -0.833  0.00  0.00     0.034 A 
ATOM      7 Cl   UNL d   1      -2.764  -0.607   0.756  0.00  0.00    -0.070 Cl
ATOM      8 Cl1  UNL d   1      -0.554  -0.841   3.135  0.00  0.00    -0.070 Cl
ENDROOT
TORSDOF 0
ENDMDL
