MODEL 1
REMARK minimizedAffinity -3.91557622
REMARK minimizedRMSD -1
REMARK  0 active torsions:
REMARK  status: ('A' for Active; 'I' for Inactive)
ROOT
ATOM      1  C   UNL d   1      -0.643  -0.480   3.044  0.00  0.00     0.020 A 
ATOM      2  C1  UNL d   1       0.379  -0.230   2.130  0.00  0.00     0.020 A 
ATOM      3  C2  UNL d   1       0.069   0.068   0.801  0.00  0.00     0.034 A 
ATOM      4  C3  UNL d   1      -1.265   0.115   0.383  0.00  0.00     0.017 A 
ATOM      5  C4  UNL d   1      -2.291  -0.136   1.301  0.00  0.00     0.017 A 
ATOM      6  C5  UNL d   1      -1.975  -0.434   2.631  0.00  0.00     0.034 A 
ATOM      7 Cl   UNL d   1      -3.961  -0.096   0.860  0.00  0.00    -0.070 Cl
ATOM      8 Cl1  UNL d   1      -1.575   0.490  -1.276  0.00  0.00    -0.070 Cl
ENDROOT
TORSDOF 0
ENDMDL
