MODEL 1
REMARK minimizedAffinity -3.37996483
REMARK minimizedRMSD -1
REMARK  0 active torsions:
REMARK  status: ('A' for Active; 'I' for Inactive)
ROOT
ATOM      1  C   UNL d   1      -0.896  -1.062  -1.959  0.00  0.00     0.020 A 
ATOM      2  C1  UNL d   1      -0.445   0.145  -1.425  0.00  0.00     0.020 A 
ATOM      3  C2  UNL d   1       0.823   0.625  -1.759  0.00  0.00     0.034 A 
ATOM      4  C3  UNL d   1       1.645  -0.101  -2.629  0.00  0.00     0.017 A 
ATOM      5  C4  UNL d   1       1.191  -1.313  -3.164  0.00  0.00     0.017 A 
ATOM      6  C5  UNL d   1      -0.080  -1.789  -2.826  0.00  0.00     0.034 A 
ATOM      7 Cl   UNL d   1       2.147  -2.265  -4.243  0.00  0.00    -0.070 Cl
ATOM      8 Cl1  UNL d   1       3.201   0.553  -2.998  0.00  0.00    -0.070 Cl
ENDROOT
TORSDOF 0
ENDMDL
