MODEL 1
REMARK minimizedAffinity -2.8630507
REMARK minimizedRMSD -1
REMARK  0 active torsions:
REMARK  status: ('A' for Active; 'I' for Inactive)
ROOT
ATOM      1  C   UNL d   1      -0.051  -0.520   2.971  0.00  0.00     0.020 A 
ATOM      2  C1  UNL d   1       1.061  -1.081   2.344  0.00  0.00     0.020 A 
ATOM      3  C2  UNL d   1       1.162  -1.059   0.951  0.00  0.00     0.034 A 
ATOM      4  C3  UNL d   1       0.149  -0.476   0.181  0.00  0.00     0.017 A 
ATOM      5  C4  UNL d   1      -0.967   0.087   0.811  0.00  0.00     0.017 A 
ATOM      6  C5  UNL d   1      -1.063   0.062   2.206  0.00  0.00     0.034 A 
ATOM      7 Cl   UNL d   1      -2.256   0.824  -0.072  0.00  0.00    -0.070 Cl
ATOM      8 Cl1  UNL d   1       0.340  -0.485  -1.536  0.00  0.00    -0.070 Cl
ENDROOT
TORSDOF 0
ENDMDL
