MODEL 1
REMARK minimizedAffinity -1.37752962
REMARK minimizedRMSD -1
REMARK  0 active torsions:
REMARK  status: ('A' for Active; 'I' for Inactive)
ROOT
ATOM      1  C   UNL d   1      -1.056  -1.615   0.469  0.00  0.00     0.020 A 
ATOM      2  C1  UNL d   1      -1.114  -1.806   1.849  0.00  0.00     0.020 A 
ATOM      3  C2  UNL d   1      -0.537  -0.868   2.708  0.00  0.00     0.034 A 
ATOM      4  C3  UNL d   1       0.101   0.264   2.188  0.00  0.00     0.017 A 
ATOM      5  C4  UNL d   1       0.159   0.455   0.803  0.00  0.00     0.017 A 
ATOM      6  C5  UNL d   1      -0.421  -0.487  -0.053  0.00  0.00     0.034 A 
ATOM      7 Cl   UNL d   1       0.928   1.827   0.087  0.00  0.00    -0.070 Cl
ATOM      8 Cl1  UNL d   1       0.792   1.383   3.309  0.00  0.00    -0.070 Cl
ENDROOT
TORSDOF 0
ENDMDL
