MODEL 1
REMARK minimizedAffinity -2.44056702
REMARK minimizedRMSD -1
REMARK  0 active torsions:
REMARK  status: ('A' for Active; 'I' for Inactive)
ROOT
ATOM      1  C   UNL d   1       4.180   0.876  -3.425  0.00  0.00     0.020 A 
ATOM      2  C1  UNL d   1       4.563  -0.384  -3.883  0.00  0.00     0.020 A 
ATOM      3  C2  UNL d   1       3.645  -1.437  -3.880  0.00  0.00     0.034 A 
ATOM      4  C3  UNL d   1       2.340  -1.231  -3.420  0.00  0.00     0.017 A 
ATOM      5  C4  UNL d   1       1.956   0.034  -2.961  0.00  0.00     0.017 A 
ATOM      6  C5  UNL d   1       2.879   1.085  -2.965  0.00  0.00     0.034 A 
ATOM      7 Cl   UNL d   1       0.363   0.365  -2.377  0.00  0.00    -0.070 Cl
ATOM      8 Cl1  UNL d   1       1.257  -2.577  -3.446  0.00  0.00    -0.070 Cl
ENDROOT
TORSDOF 0
ENDMDL
