MODEL 1
REMARK minimizedAffinity -4.74218559
REMARK minimizedRMSD -1
REMARK  0 active torsions:
REMARK  status: ('A' for Active; 'I' for Inactive)
ROOT
ATOM      1  C   UNL d   1       0.230  -0.418   2.441  0.00  0.00     0.020 A 
ATOM      2  C1  UNL d   1      -1.148  -0.589   2.567  0.00  0.00     0.020 A 
ATOM      3  C2  UNL d   1      -1.992  -0.254   1.507  0.00  0.00     0.034 A 
ATOM      4  C3  UNL d   1      -1.460   0.253   0.316  0.00  0.00     0.017 A 
ATOM      5  C4  UNL d   1      -0.076   0.423   0.190  0.00  0.00     0.017 A 
ATOM      6  C5  UNL d   1       0.765   0.086   1.255  0.00  0.00     0.034 A 
ATOM      7 Cl   UNL d   1       0.655   1.043  -1.248  0.00  0.00    -0.070 Cl
ATOM      8 Cl1  UNL d   1      -2.563   0.645  -0.955  0.00  0.00    -0.070 Cl
ENDROOT
TORSDOF 0
ENDMDL
