MODEL 1
REMARK minimizedAffinity -3.09623742
REMARK minimizedRMSD -1
REMARK  0 active torsions:
REMARK  status: ('A' for Active; 'I' for Inactive)
ROOT
ATOM      1  C   UNL d   1       0.348  -2.354  -3.251  0.00  0.00     0.020 A 
ATOM      2  C1  UNL d   1       1.358  -2.217  -4.203  0.00  0.00     0.020 A 
ATOM      3  C2  UNL d   1       2.233  -1.130  -4.142  0.00  0.00     0.034 A 
ATOM      4  C3  UNL d   1       2.099  -0.176  -3.127  0.00  0.00     0.017 A 
ATOM      5  C4  UNL d   1       1.085  -0.313  -2.172  0.00  0.00     0.017 A 
ATOM      6  C5  UNL d   1       0.212  -1.404  -2.238  0.00  0.00     0.034 A 
ATOM      7 Cl   UNL d   1       0.858   0.824  -0.891  0.00  0.00    -0.070 Cl
ATOM      8 Cl1  UNL d   1       3.216   1.142  -3.112  0.00  0.00    -0.070 Cl
ENDROOT
TORSDOF 0
ENDMDL
