MODEL 1
REMARK minimizedAffinity -2.49444222
REMARK minimizedRMSD -1
REMARK  0 active torsions:
REMARK  status: ('A' for Active; 'I' for Inactive)
ROOT
ATOM      1  C   UNL d   1      -0.497   0.759  -0.859  0.00  0.00     0.020 A 
ATOM      2  C1  UNL d   1      -1.586  -0.053  -0.544  0.00  0.00     0.020 A 
ATOM      3  C2  UNL d   1      -1.695  -0.610   0.732  0.00  0.00     0.034 A 
ATOM      4  C3  UNL d   1      -0.715  -0.354   1.698  0.00  0.00     0.017 A 
ATOM      5  C4  UNL d   1       0.377   0.462   1.381  0.00  0.00     0.017 A 
ATOM      6  C5  UNL d   1       0.482   1.016   0.101  0.00  0.00     0.034 A 
ATOM      7 Cl   UNL d   1       1.626   0.822   2.519  0.00  0.00    -0.070 Cl
ATOM      8 Cl1  UNL d   1      -0.915  -1.075   3.255  0.00  0.00    -0.070 Cl
ENDROOT
TORSDOF 0
ENDMDL
