MODEL 1
REMARK minimizedAffinity -0.156499714
REMARK minimizedRMSD -1
REMARK  0 active torsions:
REMARK  status: ('A' for Active; 'I' for Inactive)
ROOT
ATOM      1  C   UNL d   1      -0.808  -0.320   3.080  0.00  0.00     0.020 A 
ATOM      2  C1  UNL d   1      -1.339  -1.253   2.191  0.00  0.00     0.020 A 
ATOM      3  C2  UNL d   1      -0.952  -1.239   0.849  0.00  0.00     0.034 A 
ATOM      4  C3  UNL d   1      -0.031  -0.289   0.393  0.00  0.00     0.017 A 
ATOM      5  C4  UNL d   1       0.502   0.647   1.286  0.00  0.00     0.017 A 
ATOM      6  C5  UNL d   1       0.111   0.628   2.628  0.00  0.00     0.034 A 
ATOM      7 Cl   UNL d   1       1.643   1.850   0.797  0.00  0.00    -0.070 Cl
ATOM      8 Cl1  UNL d   1       0.404  -0.330  -1.279  0.00  0.00    -0.070 Cl
ENDROOT
TORSDOF 0
ENDMDL
