MODEL 1
REMARK minimizedAffinity -0.35872364
REMARK minimizedRMSD -1
REMARK  1 active torsions:
REMARK  status: ('A' for Active; 'I' for Inactive)
REMARK    1  A    between atoms: N_2  and  C1_3 
ROOT
ATOM      1  C1  UNL d   1       1.900   0.017  -0.416  0.00  0.00     0.143 A 
ATOM      2  C2  UNL d   1       2.416   1.084  -1.160  0.00  0.00    -0.057 A 
ATOM      3  C3  UNL d   1       3.193   0.863  -2.303  0.00  0.00     0.033 A 
ATOM      4  C4  UNL d   1       3.494  -0.434  -2.708  0.00  0.00    -0.042 A 
ATOM      5  C5  UNL d   1       3.012  -1.509  -1.969  0.00  0.00     0.033 A 
ATOM      6  C6  UNL d   1       2.231  -1.282  -0.832  0.00  0.00    -0.057 A 
ENDROOT
BRANCH   1   7
ATOM      7  N   UNL d   1       1.204   0.171   0.785  0.00  0.00    -0.732 N 
ATOM      8  C   UNL d   1       0.396  -0.907   1.313  0.00  0.00     0.284 C 
ATOM      9  H3  UNL d   1       1.748   0.666   1.489  0.00  0.00     0.395 HD
ENDBRANCH   1   7
TORSDOF 1
ENDMDL
