MODEL 1
REMARK minimizedAffinity -1.7574321
REMARK minimizedRMSD -1
REMARK  1 active torsions:
REMARK  status: ('A' for Active; 'I' for Inactive)
REMARK    1  A    between atoms: N_2  and  C1_3 
ROOT
ATOM      1  C1  UNL d   1       1.690   0.913  -0.539  0.00  0.00     0.143 A 
ATOM      2  C2  UNL d   1       2.367  -0.117  -1.202  0.00  0.00    -0.057 A 
ATOM      3  C3  UNL d   1       2.286  -1.442  -0.758  0.00  0.00     0.033 A 
ATOM      4  C4  UNL d   1       1.548  -1.758   0.378  0.00  0.00    -0.042 A 
ATOM      5  C5  UNL d   1       0.887  -0.747   1.067  0.00  0.00     0.033 A 
ATOM      6  C6  UNL d   1       0.966   0.574   0.615  0.00  0.00    -0.057 A 
ENDROOT
BRANCH   1   7
ATOM      7  N   UNL d   1       1.810   2.264  -0.873  0.00  0.00    -0.732 N 
ATOM      8  C   UNL d   1       1.940   3.270   0.159  0.00  0.00     0.284 C 
ATOM      9  H3  UNL d   1       2.415   2.413  -1.678  0.00  0.00     0.395 HD
ENDBRANCH   1   7
TORSDOF 1
ENDMDL
