MODEL 1
REMARK minimizedAffinity 0.0565854274
REMARK minimizedRMSD -1
REMARK  1 active torsions:
REMARK  status: ('A' for Active; 'I' for Inactive)
REMARK    1  A    between atoms: N_2  and  C1_3 
ROOT
ATOM      1  C1  UNL d   1      -3.174   3.294  -3.845  0.00  0.00     0.143 A 
ATOM      2  C2  UNL d   1      -3.944   4.089  -4.701  0.00  0.00    -0.057 A 
ATOM      3  C3  UNL d   1      -5.343   4.032  -4.681  0.00  0.00     0.033 A 
ATOM      4  C4  UNL d   1      -5.998   3.156  -3.822  0.00  0.00    -0.042 A 
ATOM      5  C5  UNL d   1      -5.252   2.339  -2.980  0.00  0.00     0.033 A 
ATOM      6  C6  UNL d   1      -3.855   2.404  -3.000  0.00  0.00    -0.057 A 
ENDROOT
BRANCH   1   7
ATOM      7  N   UNL d   1      -1.779   3.233  -3.887  0.00  0.00    -0.732 N 
ATOM      8  C   UNL d   1      -0.979   4.043  -2.993  0.00  0.00     0.284 C 
ATOM      9  H3  UNL d   1      -1.435   2.283  -4.007  0.00  0.00     0.395 HD
ENDBRANCH   1   7
TORSDOF 1
ENDMDL
