MODEL 1
REMARK minimizedAffinity -4.30604124
REMARK minimizedRMSD -1
REMARK  1 active torsions:
REMARK  status: ('A' for Active; 'I' for Inactive)
REMARK    1  A    between atoms: N_2  and  C1_3 
ROOT
ATOM      1  C1  UNL d   1      -3.005   3.132  -3.542  0.00  0.00     0.143 A 
ATOM      2  C2  UNL d   1      -1.784   2.489  -3.771  0.00  0.00    -0.057 A 
ATOM      3  C3  UNL d   1      -0.580   3.033  -3.308  0.00  0.00     0.033 A 
ATOM      4  C4  UNL d   1      -0.573   4.247  -2.630  0.00  0.00    -0.042 A 
ATOM      5  C5  UNL d   1      -1.772   4.916  -2.413  0.00  0.00     0.033 A 
ATOM      6  C6  UNL d   1      -2.972   4.365  -2.872  0.00  0.00    -0.057 A 
ENDROOT
BRANCH   1   7
ATOM      7  N   UNL d   1      -4.225   2.693  -4.062  0.00  0.00    -0.732 N 
ATOM      8  C   UNL d   1      -5.461   3.352  -3.700  0.00  0.00     0.284 C 
ATOM      9  H3  UNL d   1      -4.160   2.442  -5.046  0.00  0.00     0.395 HD
ENDBRANCH   1   7
TORSDOF 1
ENDMDL
