MODEL 1
REMARK minimizedAffinity 5.66311264
REMARK minimizedRMSD -1
REMARK  1 active torsions:
REMARK  status: ('A' for Active; 'I' for Inactive)
REMARK    1  A    between atoms: N_2  and  C1_3 
ROOT
ATOM      1  C1  UNL d   1      -0.753  -2.152   1.560  0.00  0.00     0.143 A 
ATOM      2  C2  UNL d   1      -0.825  -0.834   2.023  0.00  0.00    -0.057 A 
ATOM      3  C3  UNL d   1      -2.058  -0.216   2.266  0.00  0.00     0.033 A 
ATOM      4  C4  UNL d   1      -3.245  -0.899   2.022  0.00  0.00    -0.042 A 
ATOM      5  C5  UNL d   1      -3.198  -2.202   1.538  0.00  0.00     0.033 A 
ATOM      6  C6  UNL d   1      -1.963  -2.816   1.304  0.00  0.00    -0.057 A 
ENDROOT
BRANCH   1   7
ATOM      7  N   UNL d   1       0.439  -2.788   1.206  0.00  0.00    -0.732 N 
ATOM      8  C   UNL d   1       1.193  -2.351   0.051  0.00  0.00     0.284 C 
ATOM      9  H3  UNL d   1       1.013  -3.016   2.015  0.00  0.00     0.395 HD
ENDBRANCH   1   7
TORSDOF 1
ENDMDL
