MODEL 1
REMARK minimizedAffinity -0.938564837
REMARK minimizedRMSD -1
REMARK  1 active torsions:
REMARK  status: ('A' for Active; 'I' for Inactive)
REMARK    1  A    between atoms: N_2  and  C1_3 
ROOT
ATOM      1  C1  UNL d   1       2.770  -0.831  -0.918  0.00  0.00     0.143 A 
ATOM      2  C2  UNL d   1       2.081  -1.654  -0.021  0.00  0.00    -0.057 A 
ATOM      3  C3  UNL d   1       1.140  -1.127   0.873  0.00  0.00     0.033 A 
ATOM      4  C4  UNL d   1       0.892   0.242   0.904  0.00  0.00    -0.042 A 
ATOM      5  C5  UNL d   1       1.584   1.082   0.039  0.00  0.00     0.033 A 
ATOM      6  C6  UNL d   1       2.517   0.549  -0.856  0.00  0.00    -0.057 A 
ENDROOT
BRANCH   1   7
ATOM      7  N   UNL d   1       3.788  -1.281  -1.762  0.00  0.00    -0.732 N 
ATOM      8  C   UNL d   1       4.617  -0.340  -2.484  0.00  0.00     0.284 C 
ATOM      9  H3  UNL d   1       4.298  -2.068  -1.369  0.00  0.00     0.395 HD
ENDBRANCH   1   7
TORSDOF 1
ENDMDL
