MODEL 1
REMARK minimizedAffinity -2.1870532
REMARK minimizedRMSD -1
REMARK  1 active torsions:
REMARK  status: ('A' for Active; 'I' for Inactive)
REMARK    1  A    between atoms: N_2  and  C1_3 
ROOT
ATOM      1  C1  UNL d   1       0.981  -0.115   0.642  0.00  0.00     0.143 A 
ATOM      2  C2  UNL d   1       1.653   0.992   0.113  0.00  0.00    -0.057 A 
ATOM      3  C3  UNL d   1       2.613   0.845  -0.896  0.00  0.00     0.033 A 
ATOM      4  C4  UNL d   1       2.939  -0.419  -1.375  0.00  0.00    -0.042 A 
ATOM      5  C5  UNL d   1       2.302  -1.536  -0.846  0.00  0.00     0.033 A 
ATOM      6  C6  UNL d   1       1.340  -1.382   0.157  0.00  0.00    -0.057 A 
ENDROOT
BRANCH   1   7
ATOM      7  N   UNL d   1       0.089  -0.044   1.715  0.00  0.00    -0.732 N 
ATOM      8  C   UNL d   1      -1.112  -0.852   1.729  0.00  0.00     0.284 C 
ATOM      9  H3  UNL d   1       0.565   0.010   2.613  0.00  0.00     0.395 HD
ENDBRANCH   1   7
TORSDOF 1
ENDMDL
