MODEL 1
REMARK minimizedAffinity -2.00556111
REMARK minimizedRMSD -1
REMARK  1 active torsions:
REMARK  status: ('A' for Active; 'I' for Inactive)
REMARK    1  A    between atoms: N_2  and  C1_3 
ROOT
ATOM      1  C1  UNL d   1       1.087  -0.274   0.460  0.00  0.00     0.143 A 
ATOM      2  C2  UNL d   1       1.603   0.717  -0.383  0.00  0.00    -0.057 A 
ATOM      3  C3  UNL d   1       2.552   0.412  -1.366  0.00  0.00     0.033 A 
ATOM      4  C4  UNL d   1       3.027  -0.888  -1.504  0.00  0.00    -0.042 A 
ATOM      5  C5  UNL d   1       2.547  -1.884  -0.661  0.00  0.00     0.033 A 
ATOM      6  C6  UNL d   1       1.594  -1.575   0.314  0.00  0.00    -0.057 A 
ENDROOT
BRANCH   1   7
ATOM      7  N   UNL d   1       0.215  -0.016   1.520  0.00  0.00    -0.732 N 
ATOM      8  C   UNL d   1      -0.681  -1.045   2.004  0.00  0.00     0.284 C 
ATOM      9  H3  UNL d   1       0.650   0.536   2.256  0.00  0.00     0.395 HD
ENDBRANCH   1   7
TORSDOF 1
ENDMDL
