MODEL 1
REMARK minimizedAffinity -2.71138668
REMARK minimizedRMSD -1
REMARK  1 active torsions:
REMARK  status: ('A' for Active; 'I' for Inactive)
REMARK    1  A    between atoms: N_2  and  C1_3 
ROOT
ATOM      1  C1  UNL d   1       2.245  -0.869  -0.884  0.00  0.00     0.143 A 
ATOM      2  C2  UNL d   1       1.506  -1.419   0.169  0.00  0.00    -0.057 A 
ATOM      3  C3  UNL d   1       0.641  -0.631   0.938  0.00  0.00     0.033 A 
ATOM      4  C4  UNL d   1       0.521   0.732   0.685  0.00  0.00    -0.042 A 
ATOM      5  C5  UNL d   1       1.265   1.305  -0.341  0.00  0.00     0.033 A 
ATOM      6  C6  UNL d   1       2.123   0.511  -1.109  0.00  0.00    -0.057 A 
ENDROOT
BRANCH   1   7
ATOM      7  N   UNL d   1       3.196  -1.579  -1.621  0.00  0.00    -0.732 N 
ATOM      8  C   UNL d   1       4.239  -0.883  -2.344  0.00  0.00     0.284 C 
ATOM      9  H3  UNL d   1       3.512  -2.418  -1.141  0.00  0.00     0.395 HD
ENDBRANCH   1   7
TORSDOF 1
ENDMDL
