MODEL 1
REMARK minimizedAffinity -2.79723144
REMARK minimizedRMSD -1
REMARK  1 active torsions:
REMARK  status: ('A' for Active; 'I' for Inactive)
REMARK    1  A    between atoms: N_2  and  C1_3 
ROOT
ATOM      1  C1  UNL d   1       2.339  -1.417  -0.548  0.00  0.00     0.143 A 
ATOM      2  C2  UNL d   1       2.220  -0.112  -0.058  0.00  0.00    -0.057 A 
ATOM      3  C3  UNL d   1       1.199   0.240   0.833  0.00  0.00     0.033 A 
ATOM      4  C4  UNL d   1       0.257  -0.705   1.228  0.00  0.00    -0.042 A 
ATOM      5  C5  UNL d   1       0.340  -2.002   0.734  0.00  0.00     0.033 A 
ATOM      6  C6  UNL d   1       1.367  -2.348  -0.150  0.00  0.00    -0.057 A 
ENDROOT
BRANCH   1   7
ATOM      7  N   UNL d   1       3.273  -1.804  -1.512  0.00  0.00    -0.732 N 
ATOM      8  C   UNL d   1       4.268  -0.869  -1.991  0.00  0.00     0.284 C 
ATOM      9  H3  UNL d   1       3.628  -2.744  -1.353  0.00  0.00     0.395 HD
ENDBRANCH   1   7
TORSDOF 1
ENDMDL
