MODEL 1
REMARK minimizedAffinity -1.98428047
REMARK minimizedRMSD -1
REMARK  1 active torsions:
REMARK  status: ('A' for Active; 'I' for Inactive)
REMARK    1  A    between atoms: N_2  and  C1_3 
ROOT
ATOM      1  C1  UNL d   1       1.961  -0.741  -0.883  0.00  0.00     0.143 A 
ATOM      2  C2  UNL d   1       1.159  -1.434   0.030  0.00  0.00    -0.057 A 
ATOM      3  C3  UNL d   1       0.575  -0.783   1.123  0.00  0.00     0.033 A 
ATOM      4  C4  UNL d   1       0.808   0.571   1.340  0.00  0.00    -0.042 A 
ATOM      5  C5  UNL d   1       1.623   1.274   0.460  0.00  0.00     0.033 A 
ATOM      6  C6  UNL d   1       2.197   0.620  -0.634  0.00  0.00    -0.057 A 
ENDROOT
BRANCH   1   7
ATOM      7  N   UNL d   1       2.649  -1.352  -1.934  0.00  0.00    -0.732 N 
ATOM      8  C   UNL d   1       3.987  -0.926  -2.286  0.00  0.00     0.284 C 
ATOM      9  H3  UNL d   1       2.516  -2.361  -1.951  0.00  0.00     0.395 HD
ENDBRANCH   1   7
TORSDOF 1
ENDMDL
