MODEL 1
REMARK minimizedAffinity 20.2786942
REMARK minimizedRMSD -1
REMARK  0 active torsions:
REMARK  status: ('A' for Active; 'I' for Inactive)
ROOT
ATOM      1  C   UNL d   1       3.482   1.817   3.629  0.00  0.00     0.124 A 
ATOM      2  C1  UNL d   1       4.527   1.807   4.542  0.00  0.00     0.062 A 
ATOM      3  C2  UNL d   1       4.982   2.999   5.099  0.00  0.00     0.162 A 
ATOM      4  C3  UNL d   1       4.392   4.212   4.744  0.00  0.00    -0.034 A 
ATOM      5  C4  UNL d   1       3.342   4.214   3.824  0.00  0.00     0.162 A 
ATOM      6  C5  UNL d   1       2.891   3.020   3.271  0.00  0.00     0.062 A 
ATOM      7  F   UNL d   1       1.881   3.031   2.388  0.00  0.00    -0.097 F 
ATOM      8  F1  UNL d   1       2.751   5.362   3.460  0.00  0.00    -0.096 F 
ATOM      9  I   UNL d   1       5.069   5.996   5.573  0.00  0.00    -0.060 I 
ATOM     10  F2  UNL d   1       5.994   2.959   5.979  0.00  0.00    -0.096 F 
ATOM     11  F3  UNL d   1       5.101   0.646   4.890  0.00  0.00    -0.097 F 
ATOM     12  F4  UNL d   1       3.047   0.669   3.095  0.00  0.00    -0.092 F 
ENDROOT
TORSDOF 0
ENDMDL
