MODEL 1
REMARK minimizedAffinity 14.9681311
REMARK minimizedRMSD -1
REMARK  0 active torsions:
REMARK  status: ('A' for Active; 'I' for Inactive)
ROOT
ATOM      1  C   UNL d   1       2.487   0.729  -0.436  0.00  0.00     0.124 A 
ATOM      2  C1  UNL d   1       3.104   1.793   0.206  0.00  0.00     0.062 A 
ATOM      3  C2  UNL d   1       2.664   2.205   1.461  0.00  0.00     0.162 A 
ATOM      4  C3  UNL d   1       1.600   1.550   2.083  0.00  0.00    -0.034 A 
ATOM      5  C4  UNL d   1       0.984   0.481   1.430  0.00  0.00     0.162 A 
ATOM      6  C5  UNL d   1       1.428   0.074   0.177  0.00  0.00     0.062 A 
ATOM      7  F   UNL d   1       0.830  -0.955  -0.442  0.00  0.00    -0.097 F 
ATOM      8  F1  UNL d   1      -0.041  -0.171   2.000  0.00  0.00    -0.096 F 
ATOM      9  I   UNL d   1       0.939   2.162   3.959  0.00  0.00    -0.060 I 
ATOM     10  F2  UNL d   1       3.279   3.236   2.058  0.00  0.00    -0.096 F 
ATOM     11  F3  UNL d   1       4.127   2.428  -0.384  0.00  0.00    -0.097 F 
ATOM     12  F4  UNL d   1       2.912   0.336  -1.644  0.00  0.00    -0.092 F 
ENDROOT
TORSDOF 0
ENDMDL
