MODEL 1
REMARK minimizedAffinity 16.7692451
REMARK minimizedRMSD -1
REMARK  0 active torsions:
REMARK  status: ('A' for Active; 'I' for Inactive)
ROOT
ATOM      1  C   UNL d   1       2.969   0.720  -1.231  0.00  0.00     0.124 A 
ATOM      2  C1  UNL d   1       2.966  -0.584  -0.756  0.00  0.00     0.062 A 
ATOM      3  C2  UNL d   1       2.669  -0.843   0.579  0.00  0.00     0.162 A 
ATOM      4  C3  UNL d   1       2.372   0.206   1.450  0.00  0.00    -0.034 A 
ATOM      5  C4  UNL d   1       2.378   1.515   0.965  0.00  0.00     0.162 A 
ATOM      6  C5  UNL d   1       2.675   1.768  -0.370  0.00  0.00     0.062 A 
ATOM      7  F   UNL d   1       2.678   3.029  -0.826  0.00  0.00    -0.097 F 
ATOM      8  F1  UNL d   1       2.097   2.547   1.775  0.00  0.00    -0.096 F 
ATOM      9  I   UNL d   1       1.928  -0.177   3.447  0.00  0.00    -0.060 I 
ATOM     10  F2  UNL d   1       2.674  -2.113   1.010  0.00  0.00    -0.096 F 
ATOM     11  F3  UNL d   1       3.250  -1.598  -1.586  0.00  0.00    -0.097 F 
ATOM     12  F4  UNL d   1       3.256   0.966  -2.515  0.00  0.00    -0.092 F 
ENDROOT
TORSDOF 0
ENDMDL
