MODEL 1
REMARK minimizedAffinity 29.7066021
REMARK minimizedRMSD -1
REMARK  0 active torsions:
REMARK  status: ('A' for Active; 'I' for Inactive)
ROOT
ATOM      1  C   UNL d   1       4.553   5.282   0.294  0.00  0.00     0.124 A 
ATOM      2  C1  UNL d   1       4.872   5.286   1.644  0.00  0.00     0.062 A 
ATOM      3  C2  UNL d   1       4.106   4.554   2.547  0.00  0.00     0.162 A 
ATOM      4  C3  UNL d   1       3.014   3.809   2.102  0.00  0.00    -0.034 A 
ATOM      5  C4  UNL d   1       2.699   3.810   0.742  0.00  0.00     0.162 A 
ATOM      6  C5  UNL d   1       3.467   4.544  -0.156  0.00  0.00     0.062 A 
ATOM      7  F   UNL d   1       3.157   4.538  -1.461  0.00  0.00    -0.097 F 
ATOM      8  F1  UNL d   1       1.656   3.105   0.279  0.00  0.00    -0.096 F 
ATOM      9  I   UNL d   1       1.867   2.712   3.448  0.00  0.00    -0.060 I 
ATOM     10  F2  UNL d   1       4.438   4.576   3.847  0.00  0.00    -0.096 F 
ATOM     11  F3  UNL d   1       5.920   5.999   2.082  0.00  0.00    -0.097 F 
ATOM     12  F4  UNL d   1       5.290   5.989  -0.573  0.00  0.00    -0.092 F 
ENDROOT
TORSDOF 0
ENDMDL
