MODEL 1
REMARK minimizedAffinity 28.5644417
REMARK minimizedRMSD -1
REMARK  0 active torsions:
REMARK  status: ('A' for Active; 'I' for Inactive)
ROOT
ATOM      1  C   UNL d   1       0.340  -0.867  -2.452  0.00  0.00     0.124 A 
ATOM      2  C1  UNL d   1       1.584  -0.927  -1.840  0.00  0.00     0.062 A 
ATOM      3  C2  UNL d   1       1.933   0.009  -0.870  0.00  0.00     0.162 A 
ATOM      4  C3  UNL d   1       1.035   1.013  -0.506  0.00  0.00    -0.034 A 
ATOM      5  C4  UNL d   1      -0.214   1.068  -1.127  0.00  0.00     0.162 A 
ATOM      6  C5  UNL d   1      -0.558   0.130  -2.095  0.00  0.00     0.062 A 
ATOM      7  F   UNL d   1      -1.760   0.190  -2.686  0.00  0.00    -0.097 F 
ATOM      8  F1  UNL d   1      -1.100   2.020  -0.801  0.00  0.00    -0.096 F 
ATOM      9  I   UNL d   1       1.553   2.414   0.943  0.00  0.00    -0.060 I 
ATOM     10  F2  UNL d   1       3.142  -0.073  -0.295  0.00  0.00    -0.096 F 
ATOM     11  F3  UNL d   1       2.453  -1.888  -2.183  0.00  0.00    -0.097 F 
ATOM     12  F4  UNL d   1       0.007  -1.768  -3.385  0.00  0.00    -0.092 F 
ENDROOT
TORSDOF 0
ENDMDL
