MODEL 1
REMARK minimizedAffinity 13.8215389
REMARK minimizedRMSD -1
REMARK  0 active torsions:
REMARK  status: ('A' for Active; 'I' for Inactive)
ROOT
ATOM      1  C   UNL d   1       1.567   2.221   2.681  0.00  0.00     0.124 A 
ATOM      2  C1  UNL d   1       1.102   1.054   3.271  0.00  0.00     0.062 A 
ATOM      3  C2  UNL d   1       1.254  -0.168   2.621  0.00  0.00     0.162 A 
ATOM      4  C3  UNL d   1       1.875  -0.229   1.374  0.00  0.00    -0.034 A 
ATOM      5  C4  UNL d   1       2.339   0.949   0.786  0.00  0.00     0.162 A 
ATOM      6  C5  UNL d   1       2.185   2.168   1.440  0.00  0.00     0.062 A 
ATOM      7  F   UNL d   1       2.634   3.294   0.868  0.00  0.00    -0.097 F 
ATOM      8  F1  UNL d   1       2.940   0.927  -0.413  0.00  0.00    -0.096 F 
ATOM      9  I   UNL d   1       2.103  -2.053   0.399  0.00  0.00    -0.060 I 
ATOM     10  F2  UNL d   1       0.795  -1.280   3.215  0.00  0.00    -0.096 F 
ATOM     11  F3  UNL d   1       0.504   1.102   4.470  0.00  0.00    -0.097 F 
ATOM     12  F4  UNL d   1       1.419   3.395   3.308  0.00  0.00    -0.092 F 
ENDROOT
TORSDOF 0
ENDMDL
