MODEL 1
REMARK minimizedAffinity 21.5320415
REMARK minimizedRMSD -1
REMARK  0 active torsions:
REMARK  status: ('A' for Active; 'I' for Inactive)
ROOT
ATOM      1  C   UNL d   1       0.481   1.352   1.119  0.00  0.00     0.124 A 
ATOM      2  C1  UNL d   1       0.191   1.593  -0.217  0.00  0.00     0.062 A 
ATOM      3  C2  UNL d   1      -1.125   1.541  -0.668  0.00  0.00     0.162 A 
ATOM      4  C3  UNL d   1      -2.161   1.247   0.218  0.00  0.00    -0.034 A 
ATOM      5  C4  UNL d   1      -1.861   1.005   1.560  0.00  0.00     0.162 A 
ATOM      6  C5  UNL d   1      -0.545   1.058   2.006  0.00  0.00     0.062 A 
ATOM      7  F   UNL d   1      -0.266   0.825   3.297  0.00  0.00    -0.097 F 
ATOM      8  F1  UNL d   1      -2.834   0.719   2.439  0.00  0.00    -0.096 F 
ATOM      9  I   UNL d   1      -4.130   1.168  -0.452  0.00  0.00    -0.060 I 
ATOM     10  F2  UNL d   1      -1.376   1.778  -1.964  0.00  0.00    -0.096 F 
ATOM     11  F3  UNL d   1       1.181   1.877  -1.076  0.00  0.00    -0.097 F 
ATOM     12  F4  UNL d   1       1.748   1.402   1.550  0.00  0.00    -0.092 F 
ENDROOT
TORSDOF 0
ENDMDL
