MODEL 1
REMARK minimizedAffinity 15.5423708
REMARK minimizedRMSD -1
REMARK  0 active torsions:
REMARK  status: ('A' for Active; 'I' for Inactive)
ROOT
ATOM      1  C   UNL d   1      -3.134   0.941  -4.666  0.00  0.00     0.124 A 
ATOM      2  C1  UNL d   1      -2.258   0.383  -3.744  0.00  0.00     0.062 A 
ATOM      3  C2  UNL d   1      -2.638   0.244  -2.412  0.00  0.00     0.162 A 
ATOM      4  C3  UNL d   1      -3.901   0.663  -1.994  0.00  0.00    -0.034 A 
ATOM      5  C4  UNL d   1      -4.776   1.223  -2.926  0.00  0.00     0.162 A 
ATOM      6  C5  UNL d   1      -4.391   1.360  -4.256  0.00  0.00     0.062 A 
ATOM      7  F   UNL d   1      -5.239   1.899  -5.145  0.00  0.00    -0.097 F 
ATOM      8  F1  UNL d   1      -5.998   1.636  -2.558  0.00  0.00    -0.096 F 
ATOM      9  I   UNL d   1      -4.473   0.457  -0.003  0.00  0.00    -0.060 I 
ATOM     10  F2  UNL d   1      -1.772  -0.298  -1.544  0.00  0.00    -0.096 F 
ATOM     11  F3  UNL d   1      -1.042  -0.022  -4.137  0.00  0.00    -0.097 F 
ATOM     12  F4  UNL d   1      -2.765   1.074  -5.946  0.00  0.00    -0.092 F 
ENDROOT
TORSDOF 0
ENDMDL
