MODEL 1
REMARK minimizedAffinity 4.95191336
REMARK minimizedRMSD -1
REMARK  0 active torsions:
REMARK  status: ('A' for Active; 'I' for Inactive)
ROOT
ATOM      1  C   UNL d   1      -0.552   0.901  -0.333  0.00  0.00     0.020 A 
ATOM      2  C1  UNL d   1      -0.387   0.771   1.045  0.00  0.00     0.020 A 
ATOM      3  C2  UNL d   1       0.879   0.922   1.615  0.00  0.00     0.034 A 
ATOM      4  C3  UNL d   1       1.986   1.202   0.805  0.00  0.00     0.017 A 
ATOM      5  C4  UNL d   1       1.820   1.332  -0.579  0.00  0.00     0.017 A 
ATOM      6  C5  UNL d   1       0.550   1.180  -1.143  0.00  0.00     0.034 A 
ATOM      7 Cl   UNL d   1       3.138   1.677  -1.642  0.00  0.00    -0.070 Cl
ATOM      8 Cl1  UNL d   1       3.522   1.376   1.576  0.00  0.00    -0.070 Cl
ENDROOT
TORSDOF 0
ENDMDL
