MODEL 1
REMARK minimizedAffinity -4.6447525
REMARK minimizedRMSD -1
REMARK  0 active torsions:
REMARK  status: ('A' for Active; 'I' for Inactive)
ROOT
ATOM      1  C   UNL d   1       0.277   0.859   0.327  0.00  0.00     0.020 A 
ATOM      2  C1  UNL d   1       0.930   1.624  -0.638  0.00  0.00     0.020 A 
ATOM      3  C2  UNL d   1       1.503   1.003  -1.750  0.00  0.00     0.034 A 
ATOM      4  C3  UNL d   1       1.424  -0.386  -1.900  0.00  0.00     0.017 A 
ATOM      5  C4  UNL d   1       0.768  -1.153  -0.930  0.00  0.00     0.017 A 
ATOM      6  C5  UNL d   1       0.196  -0.527   0.182  0.00  0.00     0.034 A 
ATOM      7 Cl   UNL d   1       0.629  -2.872  -1.046  0.00  0.00    -0.070 Cl
ATOM      8 Cl1  UNL d   1       2.154  -1.087  -3.300  0.00  0.00    -0.070 Cl
ENDROOT
TORSDOF 0
ENDMDL
