MODEL 1
REMARK minimizedAffinity -2.04948425
REMARK minimizedRMSD -1
REMARK  0 active torsions:
REMARK  status: ('A' for Active; 'I' for Inactive)
ROOT
ATOM      1  C   UNL d   1       0.774   0.953   0.088  0.00  0.00     0.020 A 
ATOM      2  C1  UNL d   1      -0.050   0.573  -0.971  0.00  0.00     0.020 A 
ATOM      3  C2  UNL d   1      -1.392   0.268  -0.737  0.00  0.00     0.034 A 
ATOM      4  C3  UNL d   1      -1.915   0.343   0.559  0.00  0.00     0.017 A 
ATOM      5  C4  UNL d   1      -1.088   0.725   1.622  0.00  0.00     0.017 A 
ATOM      6  C5  UNL d   1       0.255   1.030   1.381  0.00  0.00     0.034 A 
ATOM      7 Cl   UNL d   1      -1.662   0.841   3.248  0.00  0.00    -0.070 Cl
ATOM      8 Cl1  UNL d   1      -3.585  -0.048   0.776  0.00  0.00    -0.070 Cl
ENDROOT
TORSDOF 0
ENDMDL
