MODEL 1
REMARK minimizedAffinity -5.23663139
REMARK minimizedRMSD -1
REMARK  0 active torsions:
REMARK  status: ('A' for Active; 'I' for Inactive)
ROOT
ATOM      1  C   UNL d   1       1.498   1.147  -2.393  0.00  0.00     0.020 A 
ATOM      2  C1  UNL d   1       2.162   0.114  -3.052  0.00  0.00     0.020 A 
ATOM      3  C2  UNL d   1       2.062  -1.196  -2.577  0.00  0.00     0.034 A 
ATOM      4  C3  UNL d   1       1.296  -1.474  -1.439  0.00  0.00     0.017 A 
ATOM      5  C4  UNL d   1       0.630  -0.436  -0.778  0.00  0.00     0.017 A 
ATOM      6  C5  UNL d   1       0.734   0.873  -1.259  0.00  0.00     0.034 A 
ATOM      7 Cl   UNL d   1      -0.334  -0.702   0.632  0.00  0.00    -0.070 Cl
ATOM      8 Cl1  UNL d   1       1.215  -3.116  -0.907  0.00  0.00    -0.070 Cl
ENDROOT
TORSDOF 0
ENDMDL
