MODEL 1
REMARK minimizedAffinity -5.39903212
REMARK minimizedRMSD -1
REMARK  0 active torsions:
REMARK  status: ('A' for Active; 'I' for Inactive)
ROOT
ATOM      1  C   UNL d   1       2.036  -0.670  -2.561  0.00  0.00     0.020 A 
ATOM      2  C1  UNL d   1       1.409  -1.806  -2.052  0.00  0.00     0.020 A 
ATOM      3  C2  UNL d   1       0.614  -1.711  -0.908  0.00  0.00     0.034 A 
ATOM      4  C3  UNL d   1       0.444  -0.478  -0.269  0.00  0.00     0.017 A 
ATOM      5  C4  UNL d   1       1.075   0.662  -0.781  0.00  0.00     0.017 A 
ATOM      6  C5  UNL d   1       1.870   0.561  -1.927  0.00  0.00     0.034 A 
ATOM      7 Cl   UNL d   1       0.913   2.219  -0.048  0.00  0.00    -0.070 Cl
ATOM      8 Cl1  UNL d   1      -0.553  -0.434   1.141  0.00  0.00    -0.070 Cl
ENDROOT
TORSDOF 0
ENDMDL
