MODEL 1
REMARK minimizedAffinity -2.29614449
REMARK minimizedRMSD -1
REMARK  0 active torsions:
REMARK  status: ('A' for Active; 'I' for Inactive)
ROOT
ATOM      1  C   UNL d   1      -1.169   0.373   1.462  0.00  0.00     0.020 A 
ATOM      2  C1  UNL d   1      -1.390  -0.963   1.796  0.00  0.00     0.020 A 
ATOM      3  C2  UNL d   1      -0.727  -1.975   1.101  0.00  0.00     0.034 A 
ATOM      4  C3  UNL d   1       0.160  -1.655   0.066  0.00  0.00     0.017 A 
ATOM      5  C4  UNL d   1       0.381  -0.314  -0.269  0.00  0.00     0.017 A 
ATOM      6  C5  UNL d   1      -0.286   0.696   0.431  0.00  0.00     0.034 A 
ATOM      7 Cl   UNL d   1       1.461   0.160  -1.533  0.00  0.00    -0.070 Cl
ATOM      8 Cl1  UNL d   1       0.946  -2.958  -0.751  0.00  0.00    -0.070 Cl
ENDROOT
TORSDOF 0
ENDMDL
