MODEL 1
REMARK minimizedAffinity -0.599791408
REMARK minimizedRMSD -1
REMARK  0 active torsions:
REMARK  status: ('A' for Active; 'I' for Inactive)
ROOT
ATOM      1  C   UNL d   1       1.656   1.407  -1.335  0.00  0.00     0.020 A 
ATOM      2  C1  UNL d   1       2.269   0.258  -1.833  0.00  0.00     0.020 A 
ATOM      3  C2  UNL d   1       1.860  -1.001  -1.387  0.00  0.00     0.034 A 
ATOM      4  C3  UNL d   1       0.836  -1.114  -0.441  0.00  0.00     0.017 A 
ATOM      5  C4  UNL d   1       0.221   0.040   0.059  0.00  0.00     0.017 A 
ATOM      6  C5  UNL d   1       0.634   1.298  -0.391  0.00  0.00     0.034 A 
ATOM      7 Cl   UNL d   1      -1.051  -0.019   1.228  0.00  0.00    -0.070 Cl
ATOM      8 Cl1  UNL d   1       0.381  -2.702   0.065  0.00  0.00    -0.070 Cl
ENDROOT
TORSDOF 0
ENDMDL
