MODEL 1
REMARK minimizedAffinity -2.24875593
REMARK minimizedRMSD -1
REMARK  0 active torsions:
REMARK  status: ('A' for Active; 'I' for Inactive)
ROOT
ATOM      1  C   UNL d   1      -0.661   0.127   0.712  0.00  0.00     0.020 A 
ATOM      2  C1  UNL d   1      -0.619  -1.253   0.906  0.00  0.00     0.020 A 
ATOM      3  C2  UNL d   1       0.298  -2.031   0.196  0.00  0.00     0.034 A 
ATOM      4  C3  UNL d   1       1.177  -1.429  -0.712  0.00  0.00     0.017 A 
ATOM      5  C4  UNL d   1       1.134  -0.044  -0.907  0.00  0.00     0.017 A 
ATOM      6  C5  UNL d   1       0.214   0.730  -0.193  0.00  0.00     0.034 A 
ATOM      7 Cl   UNL d   1       2.187   0.770  -2.010  0.00  0.00    -0.070 Cl
ATOM      8 Cl1  UNL d   1       2.285  -2.452  -1.556  0.00  0.00    -0.070 Cl
ENDROOT
TORSDOF 0
ENDMDL
