MODEL 1
REMARK minimizedAffinity -3.7850883
REMARK minimizedRMSD -1
REMARK  0 active torsions:
REMARK  status: ('A' for Active; 'I' for Inactive)
ROOT
ATOM      1  C   UNL d   1       1.820  -0.912  -2.988  0.00  0.00     0.020 A 
ATOM      2  C1  UNL d   1       2.179  -1.712  -1.903  0.00  0.00     0.020 A 
ATOM      3  C2  UNL d   1       1.497  -1.590  -0.690  0.00  0.00     0.034 A 
ATOM      4  C3  UNL d   1       0.453  -0.667  -0.559  0.00  0.00     0.017 A 
ATOM      5  C4  UNL d   1       0.094   0.135  -1.649  0.00  0.00     0.017 A 
ATOM      6  C5  UNL d   1       0.780   0.009  -2.861  0.00  0.00     0.034 A 
ATOM      7 Cl   UNL d   1      -1.183   1.296  -1.563  0.00  0.00    -0.070 Cl
ATOM      8 Cl1  UNL d   1      -0.347  -0.570   0.969  0.00  0.00    -0.070 Cl
ENDROOT
TORSDOF 0
ENDMDL
