MODEL 1
REMARK minimizedAffinity -4.82769012
REMARK minimizedRMSD -1
REMARK  0 active torsions:
REMARK  status: ('A' for Active; 'I' for Inactive)
ROOT
ATOM      1  C   UNL d   1       2.068   0.046  -2.265  0.00  0.00     0.020 A 
ATOM      2  C1  UNL d   1       1.603   1.139  -1.534  0.00  0.00     0.020 A 
ATOM      3  C2  UNL d   1       0.585   0.968  -0.594  0.00  0.00     0.034 A 
ATOM      4  C3  UNL d   1       0.029  -0.299  -0.381  0.00  0.00     0.017 A 
ATOM      5  C4  UNL d   1       0.496  -1.395  -1.116  0.00  0.00     0.017 A 
ATOM      6  C5  UNL d   1       1.516  -1.218  -2.056  0.00  0.00     0.034 A 
ATOM      7 Cl   UNL d   1      -0.141  -2.989  -0.909  0.00  0.00    -0.070 Cl
ATOM      8 Cl1  UNL d   1      -1.227  -0.438   0.798  0.00  0.00    -0.070 Cl
ENDROOT
TORSDOF 0
ENDMDL
