MODEL 1
REMARK minimizedAffinity -0.3152951
REMARK minimizedRMSD -1
REMARK  0 active torsions:
REMARK  status: ('A' for Active; 'I' for Inactive)
ROOT
ATOM      1  C   UNL d   1       1.030   1.688  -1.056  0.00  0.00     0.020 A 
ATOM      2  C1  UNL d   1       1.945   0.645  -1.189  0.00  0.00     0.020 A 
ATOM      3  C2  UNL d   1       1.615  -0.636  -0.740  0.00  0.00     0.034 A 
ATOM      4  C3  UNL d   1       0.367  -0.876  -0.155  0.00  0.00     0.017 A 
ATOM      5  C4  UNL d   1      -0.552   0.172  -0.021  0.00  0.00     0.017 A 
ATOM      6  C5  UNL d   1      -0.216   1.452  -0.473  0.00  0.00     0.034 A 
ATOM      7 Cl   UNL d   1      -2.112  -0.048   0.690  0.00  0.00    -0.070 Cl
ATOM      8 Cl1  UNL d   1       0.025  -2.484   0.378  0.00  0.00    -0.070 Cl
ENDROOT
TORSDOF 0
ENDMDL
