MODEL 1
REMARK minimizedAffinity -4.77160168
REMARK minimizedRMSD -1
REMARK  0 active torsions:
REMARK  status: ('A' for Active; 'I' for Inactive)
ROOT
ATOM      1  C   UNL d   1       2.129  -0.898  -1.996  0.00  0.00     0.020 A 
ATOM      2  C1  UNL d   1       1.426  -1.854  -1.264  0.00  0.00     0.020 A 
ATOM      3  C2  UNL d   1       0.609  -1.458  -0.203  0.00  0.00     0.034 A 
ATOM      4  C3  UNL d   1       0.492  -0.103   0.129  0.00  0.00     0.017 A 
ATOM      5  C4  UNL d   1       1.198   0.856  -0.607  0.00  0.00     0.017 A 
ATOM      6  C5  UNL d   1       2.015   0.454  -1.669  0.00  0.00     0.034 A 
ATOM      7 Cl   UNL d   1       1.105   2.546  -0.258  0.00  0.00    -0.070 Cl
ATOM      8 Cl1  UNL d   1      -0.537   0.315   1.453  0.00  0.00    -0.070 Cl
ENDROOT
TORSDOF 0
ENDMDL
