MODEL 1
REMARK minimizedAffinity -4.98952913
REMARK minimizedRMSD -1
REMARK  0 active torsions:
REMARK  status: ('A' for Active; 'I' for Inactive)
ROOT
ATOM      1  C   UNL d   1       2.017  -0.845  -2.673  0.00  0.00     0.020 A 
ATOM      2  C1  UNL d   1       1.347  -1.972  -2.196  0.00  0.00     0.020 A 
ATOM      3  C2  UNL d   1       0.534  -1.873  -1.066  0.00  0.00     0.034 A 
ATOM      4  C3  UNL d   1       0.388  -0.647  -0.408  0.00  0.00     0.017 A 
ATOM      5  C4  UNL d   1       1.061   0.483  -0.887  0.00  0.00     0.017 A 
ATOM      6  C5  UNL d   1       1.874   0.379  -2.020  0.00  0.00     0.034 A 
ATOM      7 Cl   UNL d   1       0.930   2.031  -0.129  0.00  0.00    -0.070 Cl
ATOM      8 Cl1  UNL d   1      -0.635  -0.598   0.984  0.00  0.00    -0.070 Cl
ENDROOT
TORSDOF 0
ENDMDL
