MODEL 1
REMARK minimizedAffinity -3.62120986
REMARK minimizedRMSD -1
REMARK  0 active torsions:
REMARK  status: ('A' for Active; 'I' for Inactive)
ROOT
ATOM      1  C   UNL d   1      -0.048   0.204   0.592  0.00  0.00     0.020 A 
ATOM      2  C1  UNL d   1      -0.639  -0.684  -0.306  0.00  0.00     0.020 A 
ATOM      3  C2  UNL d   1       0.019  -1.021  -1.490  0.00  0.00     0.034 A 
ATOM      4  C3  UNL d   1       1.272  -0.469  -1.781  0.00  0.00     0.017 A 
ATOM      5  C4  UNL d   1       1.864   0.423  -0.880  0.00  0.00     0.017 A 
ATOM      6  C5  UNL d   1       1.201   0.757   0.305  0.00  0.00     0.034 A 
ATOM      7 Cl   UNL d   1       3.408   1.145  -1.170  0.00  0.00    -0.070 Cl
ATOM      8 Cl1  UNL d   1       2.028  -0.930  -3.265  0.00  0.00    -0.070 Cl
ENDROOT
TORSDOF 0
ENDMDL
