MODEL 1
REMARK minimizedAffinity -6.00582218
REMARK minimizedRMSD -1
REMARK  0 active torsions:
REMARK  status: ('A' for Active; 'I' for Inactive)
ROOT
ATOM      1  C   UNL d   1       1.098   0.385  -2.344  0.00  0.00     0.020 A 
ATOM      2  C1  UNL d   1       1.446  -0.947  -2.565  0.00  0.00     0.020 A 
ATOM      3  C2  UNL d   1       1.157  -1.913  -1.598  0.00  0.00     0.034 A 
ATOM      4  C3  UNL d   1       0.519  -1.549  -0.407  0.00  0.00     0.017 A 
ATOM      5  C4  UNL d   1       0.170  -0.212  -0.187  0.00  0.00     0.017 A 
ATOM      6  C5  UNL d   1       0.461   0.752  -1.158  0.00  0.00     0.034 A 
ATOM      7 Cl   UNL d   1      -0.620   0.314   1.258  0.00  0.00    -0.070 Cl
ATOM      8 Cl1  UNL d   1       0.192  -2.796   0.743  0.00  0.00    -0.070 Cl
ENDROOT
TORSDOF 0
ENDMDL
