MODEL 1
REMARK minimizedAffinity -0.854787588
REMARK minimizedRMSD -1
REMARK  1 active torsions:
REMARK  status: ('A' for Active; 'I' for Inactive)
REMARK    1  A    between atoms: C1_2  and  C2_3 
ROOT
ATOM      1  C2  UNL d   1      -1.643   0.140  -2.034  0.00  0.00    -0.073 A 
ATOM      2  C3  UNL d   1      -0.313  -0.005  -2.443  0.00  0.00    -0.002 A 
ATOM      3  C4  UNL d   1       0.677  -0.339  -1.518  0.00  0.00     0.004 A 
ATOM      4  C5  UNL d   1       0.346  -0.537  -0.177  0.00  0.00    -0.004 A 
ATOM      5  C6  UNL d   1      -0.980  -0.409   0.249  0.00  0.00    -0.075 A 
ATOM      6  C7  UNL d   1      -1.352  -0.617   1.687  0.00  0.00     0.076 C 
ATOM      7  C8  UNL d   1      -1.968  -0.071  -0.686  0.00  0.00     0.001 A 
ENDROOT
BRANCH   1   8
ATOM      8  C1  UNL d   1      -2.717   0.494  -3.031  0.00  0.00     0.053 C 
ATOM      9  C   UNL d   1      -3.666   1.553  -2.494  0.00  0.00     0.018 C 
ENDBRANCH   1   8
TORSDOF 1
ENDMDL
