MODEL 1
REMARK minimizedAffinity 1.24079072
REMARK minimizedRMSD -1
REMARK  1 active torsions:
REMARK  status: ('A' for Active; 'I' for Inactive)
REMARK    1  A    between atoms: C1_2  and  C2_3 
ROOT
ATOM      1  C2  UNL d   1      -1.695   0.950  -1.498  0.00  0.00    -0.073 A 
ATOM      2  C3  UNL d   1      -2.907   0.392  -1.920  0.00  0.00    -0.002 A 
ATOM      3  C4  UNL d   1      -3.357   0.590  -3.226  0.00  0.00     0.004 A 
ATOM      4  C5  UNL d   1      -2.597   1.340  -4.124  0.00  0.00    -0.004 A 
ATOM      5  C6  UNL d   1      -1.378   1.895  -3.724  0.00  0.00    -0.075 A 
ATOM      6  C7  UNL d   1      -0.550   2.706  -4.677  0.00  0.00     0.076 C 
ATOM      7  C8  UNL d   1      -0.934   1.695  -2.410  0.00  0.00     0.001 A 
ENDROOT
BRANCH   1   8
ATOM      8  C1  UNL d   1      -1.203   0.734  -0.090  0.00  0.00     0.053 C 
ATOM      9  C   UNL d   1      -0.192  -0.399  -0.007  0.00  0.00     0.018 C 
ENDBRANCH   1   8
TORSDOF 1
ENDMDL
