MODEL 1
REMARK minimizedAffinity -2.91937494
REMARK minimizedRMSD -1
REMARK  1 active torsions:
REMARK  status: ('A' for Active; 'I' for Inactive)
REMARK    1  A    between atoms: C1_2  and  C2_3 
ROOT
ATOM      1  C2  UNL d   1      -1.864   1.226  -1.705  0.00  0.00    -0.073 A 
ATOM      2  C3  UNL d   1      -2.758   0.274  -2.209  0.00  0.00    -0.002 A 
ATOM      3  C4  UNL d   1      -3.092   0.269  -3.564  0.00  0.00     0.004 A 
ATOM      4  C5  UNL d   1      -2.532   1.209  -4.429  0.00  0.00    -0.004 A 
ATOM      5  C6  UNL d   1      -1.628   2.160  -3.946  0.00  0.00    -0.075 A 
ATOM      6  C7  UNL d   1      -1.019   3.180  -4.863  0.00  0.00     0.076 C 
ATOM      7  C8  UNL d   1      -1.299   2.161  -2.584  0.00  0.00     0.001 A 
ENDROOT
BRANCH   1   8
ATOM      8  C1  UNL d   1      -1.495   1.231  -0.244  0.00  0.00     0.053 C 
ATOM      9  C   UNL d   1      -0.716  -0.013   0.152  0.00  0.00     0.018 C 
ENDBRANCH   1   8
TORSDOF 1
ENDMDL
