MODEL 1
REMARK minimizedAffinity -4.47409391
REMARK minimizedRMSD -1
REMARK  1 active torsions:
REMARK  status: ('A' for Active; 'I' for Inactive)
REMARK    1  A    between atoms: C1_2  and  C2_3 
ROOT
ATOM      1  C2  UNL d   1       1.148   1.671  -0.065  0.00  0.00    -0.073 A 
ATOM      2  C3  UNL d   1       0.053   2.518   0.142  0.00  0.00    -0.002 A 
ATOM      3  C4  UNL d   1       0.251   3.869   0.430  0.00  0.00     0.004 A 
ATOM      4  C5  UNL d   1       1.544   4.387   0.508  0.00  0.00    -0.004 A 
ATOM      5  C6  UNL d   1       2.650   3.560   0.293  0.00  0.00    -0.075 A 
ATOM      6  C7  UNL d   1       4.047   4.102   0.375  0.00  0.00     0.076 C 
ATOM      7  C8  UNL d   1       2.443   2.204   0.006  0.00  0.00     0.001 A 
ENDROOT
BRANCH   1   8
ATOM      8  C1  UNL d   1       0.938   0.213  -0.384  0.00  0.00     0.053 C 
ATOM      9  C   UNL d   1      -0.478  -0.242  -0.067  0.00  0.00     0.018 C 
ENDBRANCH   1   8
TORSDOF 1
ENDMDL
