MODEL 1
REMARK minimizedAffinity -3.39186549
REMARK minimizedRMSD -1
REMARK  1 active torsions:
REMARK  status: ('A' for Active; 'I' for Inactive)
REMARK    1  A    between atoms: C1_2  and  C2_3 
ROOT
ATOM      1  C2  UNL d   1       1.243   1.771   0.028  0.00  0.00    -0.073 A 
ATOM      2  C3  UNL d   1       0.200   2.636   0.380  0.00  0.00    -0.002 A 
ATOM      3  C4  UNL d   1       0.458   3.983   0.637  0.00  0.00     0.004 A 
ATOM      4  C5  UNL d   1       1.757   4.480   0.540  0.00  0.00    -0.004 A 
ATOM      5  C6  UNL d   1       2.811   3.635   0.178  0.00  0.00    -0.075 A 
ATOM      6  C7  UNL d   1       4.215   4.154   0.071  0.00  0.00     0.076 C 
ATOM      7  C8  UNL d   1       2.544   2.282  -0.076  0.00  0.00     0.001 A 
ENDROOT
BRANCH   1   8
ATOM      8  C1  UNL d   1       0.969   0.317  -0.257  0.00  0.00     0.053 C 
ATOM      9  C   UNL d   1      -0.475   0.080  -0.673  0.00  0.00     0.018 C 
ENDBRANCH   1   8
TORSDOF 1
ENDMDL
