MODEL 1
REMARK minimizedAffinity -3.03030038
REMARK minimizedRMSD -1
REMARK  1 active torsions:
REMARK  status: ('A' for Active; 'I' for Inactive)
REMARK    1  A    between atoms: C1_2  and  C2_3 
ROOT
ATOM      1  C2  UNL d   1      -0.785  -0.322  -1.086  0.00  0.00    -0.073 A 
ATOM      2  C3  UNL d   1      -1.661  -1.298  -1.573  0.00  0.00    -0.002 A 
ATOM      3  C4  UNL d   1      -2.571  -0.987  -2.585  0.00  0.00     0.004 A 
ATOM      4  C5  UNL d   1      -2.610   0.299  -3.123  0.00  0.00    -0.004 A 
ATOM      5  C6  UNL d   1      -1.734   1.285  -2.658  0.00  0.00    -0.075 A 
ATOM      6  C7  UNL d   1      -1.764   2.674  -3.225  0.00  0.00     0.076 C 
ATOM      7  C8  UNL d   1      -0.825   0.966  -1.640  0.00  0.00     0.001 A 
ENDROOT
BRANCH   1   8
ATOM      8  C1  UNL d   1       0.203  -0.655   0.002  0.00  0.00     0.053 C 
ATOM      9  C   UNL d   1      -0.444  -1.418   1.146  0.00  0.00     0.018 C 
ENDBRANCH   1   8
TORSDOF 1
ENDMDL
