MODEL 1
REMARK minimizedAffinity -3.8569231
REMARK minimizedRMSD -1
REMARK  1 active torsions:
REMARK  status: ('A' for Active; 'I' for Inactive)
REMARK    1  A    between atoms: C1_2  and  C2_3 
ROOT
ATOM      1  C2  UNL d   1       1.931   0.373  -0.382  0.00  0.00    -0.073 A 
ATOM      2  C3  UNL d   1       0.583   0.742  -0.441  0.00  0.00    -0.002 A 
ATOM      3  C4  UNL d   1      -0.413  -0.163  -0.072  0.00  0.00     0.004 A 
ATOM      4  C5  UNL d   1      -0.072  -1.442   0.365  0.00  0.00    -0.004 A 
ATOM      5  C6  UNL d   1       1.271  -1.826   0.443  0.00  0.00    -0.075 A 
ATOM      6  C7  UNL d   1       1.655  -3.200   0.910  0.00  0.00     0.076 C 
ATOM      7  C8  UNL d   1       2.265  -0.912   0.068  0.00  0.00     0.001 A 
ENDROOT
BRANCH   1   8
ATOM      8  C1  UNL d   1       3.010   1.349  -0.773  0.00  0.00     0.053 C 
ATOM      9  C   UNL d   1       2.812   2.709  -0.122  0.00  0.00     0.018 C 
ENDBRANCH   1   8
TORSDOF 1
ENDMDL
