MODEL 1
REMARK minimizedAffinity -2.74289227
REMARK minimizedRMSD -1
REMARK  1 active torsions:
REMARK  status: ('A' for Active; 'I' for Inactive)
REMARK    1  A    between atoms: C1_2  and  C2_3 
ROOT
ATOM      1  C2  UNL d   1      -0.868   0.519  -0.074  0.00  0.00    -0.073 A 
ATOM      2  C3  UNL d   1      -1.923   0.579   0.844  0.00  0.00    -0.002 A 
ATOM      3  C4  UNL d   1      -2.038  -0.381   1.849  0.00  0.00     0.004 A 
ATOM      4  C5  UNL d   1      -1.098  -1.407   1.952  0.00  0.00    -0.004 A 
ATOM      5  C6  UNL d   1      -0.030  -1.477   1.052  0.00  0.00    -0.075 A 
ATOM      6  C7  UNL d   1       0.989  -2.575   1.148  0.00  0.00     0.076 C 
ATOM      7  C8  UNL d   1       0.078  -0.510   0.043  0.00  0.00     0.001 A 
ENDROOT
BRANCH   1   8
ATOM      8  C1  UNL d   1      -0.735   1.558  -1.157  0.00  0.00     0.053 C 
ATOM      9  C   UNL d   1      -1.926   1.549  -2.103  0.00  0.00     0.018 C 
ENDBRANCH   1   8
TORSDOF 1
ENDMDL
