MODEL 1
REMARK minimizedAffinity -3.43612862
REMARK minimizedRMSD -1
REMARK  1 active torsions:
REMARK  status: ('A' for Active; 'I' for Inactive)
REMARK    1  A    between atoms: C1_2  and  C2_3 
ROOT
ATOM      1  C2  UNL d   1       0.048  -0.167  -0.185  0.00  0.00    -0.073 A 
ATOM      2  C3  UNL d   1       1.249   0.081  -0.860  0.00  0.00    -0.002 A 
ATOM      3  C4  UNL d   1       2.363  -0.730  -0.637  0.00  0.00     0.004 A 
ATOM      4  C5  UNL d   1       2.285  -1.799   0.255  0.00  0.00    -0.004 A 
ATOM      5  C6  UNL d   1       1.091  -2.070   0.930  0.00  0.00    -0.075 A 
ATOM      6  C7  UNL d   1       0.992  -3.215   1.895  0.00  0.00     0.076 C 
ATOM      7  C8  UNL d   1      -0.023  -1.249   0.703  0.00  0.00     0.001 A 
ENDROOT
BRANCH   1   8
ATOM      8  C1  UNL d   1      -1.159   0.703  -0.427  0.00  0.00     0.053 C 
ATOM      9  C   UNL d   1      -1.560   0.726  -1.893  0.00  0.00     0.018 C 
ENDBRANCH   1   8
TORSDOF 1
ENDMDL
