MODEL 1
REMARK minimizedAffinity -5.42486382
REMARK minimizedRMSD -1
REMARK  1 active torsions:
REMARK  status: ('A' for Active; 'I' for Inactive)
REMARK    1  A    between atoms: C1_2  and  C2_3 
ROOT
ATOM      1  C2  UNL d   1       1.967   1.864  -0.064  0.00  0.00    -0.073 A 
ATOM      2  C3  UNL d   1       0.975   2.758   0.356  0.00  0.00    -0.002 A 
ATOM      3  C4  UNL d   1       1.259   4.119   0.478  0.00  0.00     0.004 A 
ATOM      4  C5  UNL d   1       2.533   4.601   0.177  0.00  0.00    -0.004 A 
ATOM      5  C6  UNL d   1       3.534   3.725  -0.256  0.00  0.00    -0.075 A 
ATOM      6  C7  UNL d   1       4.910   4.226  -0.582  0.00  0.00     0.076 C 
ATOM      7  C8  UNL d   1       3.242   2.359  -0.374  0.00  0.00     0.001 A 
ENDROOT
BRANCH   1   8
ATOM      8  C1  UNL d   1       1.663   0.395  -0.204  0.00  0.00     0.053 C 
ATOM      9  C   UNL d   1       0.167   0.123  -0.236  0.00  0.00     0.018 C 
ENDBRANCH   1   8
TORSDOF 1
ENDMDL
