MODEL 1
REMARK minimizedAffinity -3.66242695
REMARK minimizedRMSD -1
REMARK  1 active torsions:
REMARK  status: ('A' for Active; 'I' for Inactive)
REMARK    1  A    between atoms: C1_2  and  C2_3 
ROOT
ATOM      1  C2  UNL d   1       0.877   0.872  -0.412  0.00  0.00    -0.073 A 
ATOM      2  C3  UNL d   1       2.168   0.662  -0.907  0.00  0.00    -0.002 A 
ATOM      3  C4  UNL d   1       3.111   1.690  -0.875  0.00  0.00     0.004 A 
ATOM      4  C5  UNL d   1       2.776   2.934  -0.342  0.00  0.00    -0.004 A 
ATOM      5  C6  UNL d   1       1.493   3.160   0.169  0.00  0.00    -0.075 A 
ATOM      6  C7  UNL d   1       1.116   4.493   0.744  0.00  0.00     0.076 C 
ATOM      7  C8  UNL d   1       0.551   2.123   0.131  0.00  0.00     0.001 A 
ENDROOT
BRANCH   1   8
ATOM      8  C1  UNL d   1      -0.143  -0.237  -0.438  0.00  0.00     0.053 C 
ATOM      9  C   UNL d   1      -0.140  -1.046   0.849  0.00  0.00     0.018 C 
ENDBRANCH   1   8
TORSDOF 1
ENDMDL
