MODEL 1
REMARK minimizedAffinity 10.8028078
REMARK minimizedRMSD -1
REMARK  1 active torsions:
REMARK  status: ('A' for Active; 'I' for Inactive)
REMARK    1  A    between atoms: C1_2  and  C2_3 
ROOT
ATOM      1  C2  UNL d   1      -0.158  -2.735   2.547  0.00  0.00    -0.073 A 
ATOM      2  C3  UNL d   1       0.513  -3.586   1.662  0.00  0.00    -0.002 A 
ATOM      3  C4  UNL d   1      -0.203  -4.357   0.745  0.00  0.00     0.004 A 
ATOM      4  C5  UNL d   1      -1.595  -4.280   0.699  0.00  0.00    -0.004 A 
ATOM      5  C6  UNL d   1      -2.283  -3.427   1.568  0.00  0.00    -0.075 A 
ATOM      6  C7  UNL d   1      -3.780  -3.334   1.532  0.00  0.00     0.076 C 
ATOM      7  C8  UNL d   1      -1.557  -2.658   2.487  0.00  0.00     0.001 A 
ENDROOT
BRANCH   1   8
ATOM      8  C1  UNL d   1       0.611  -1.896   3.534  0.00  0.00     0.053 C 
ATOM      9  C   UNL d   1       1.713  -2.688   4.220  0.00  0.00     0.018 C 
ENDBRANCH   1   8
TORSDOF 1
ENDMDL
