MODEL 1
REMARK minimizedAffinity 11.0866346
REMARK minimizedRMSD -1
REMARK  1 active torsions:
REMARK  status: ('A' for Active; 'I' for Inactive)
REMARK    1  A    between atoms: C1_2  and  C2_3 
ROOT
ATOM      1  C2  UNL d   1      -5.787   2.270  -1.201  0.00  0.00    -0.073 A 
ATOM      2  C3  UNL d   1      -6.000   1.864  -2.523  0.00  0.00    -0.002 A 
ATOM      3  C4  UNL d   1      -5.807   0.532  -2.890  0.00  0.00     0.004 A 
ATOM      4  C5  UNL d   1      -5.408  -0.408  -1.940  0.00  0.00    -0.004 A 
ATOM      5  C6  UNL d   1      -5.202  -0.024  -0.611  0.00  0.00    -0.075 A 
ATOM      6  C7  UNL d   1      -4.770  -1.022   0.422  0.00  0.00     0.076 C 
ATOM      7  C8  UNL d   1      -5.395   1.317  -0.251  0.00  0.00     0.001 A 
ENDROOT
BRANCH   1   8
ATOM      8  C1  UNL d   1      -6.000   3.707  -0.798  0.00  0.00     0.053 C 
ATOM      9  C   UNL d   1      -4.941   4.626  -1.385  0.00  0.00     0.018 C 
ENDBRANCH   1   8
TORSDOF 1
ENDMDL
