MODEL 1
REMARK minimizedAffinity 12.3224468
REMARK minimizedRMSD -1
REMARK  1 active torsions:
REMARK  status: ('A' for Active; 'I' for Inactive)
REMARK    1  A    between atoms: C1_2  and  C2_3 
ROOT
ATOM      1  C2  UNL d   1       5.547   3.814  -0.049  0.00  0.00    -0.073 A 
ATOM      2  C3  UNL d   1       5.626   3.851   1.348  0.00  0.00    -0.002 A 
ATOM      3  C4  UNL d   1       5.222   2.752   2.106  0.00  0.00     0.004 A 
ATOM      4  C5  UNL d   1       4.742   1.603   1.477  0.00  0.00    -0.004 A 
ATOM      5  C6  UNL d   1       4.667   1.542   0.082  0.00  0.00    -0.075 A 
ATOM      6  C7  UNL d   1       4.151   0.314  -0.610  0.00  0.00     0.076 C 
ATOM      7  C8  UNL d   1       5.072   2.651  -0.673  0.00  0.00     0.001 A 
ENDROOT
BRANCH   1   8
ATOM      8  C1  UNL d   1       5.988   4.996  -0.873  0.00  0.00     0.053 C 
ATOM      9  C   UNL d   1       4.933   5.411  -1.885  0.00  0.00     0.018 C 
ENDBRANCH   1   8
TORSDOF 1
ENDMDL
