MODEL 1
REMARK minimizedAffinity 6.39509392
REMARK minimizedRMSD -1
REMARK  1 active torsions:
REMARK  status: ('A' for Active; 'I' for Inactive)
REMARK    1  A    between atoms: C1_2  and  C2_3 
ROOT
ATOM      1  C2  UNL d   1       4.905   4.392   1.018  0.00  0.00    -0.073 A 
ATOM      2  C3  UNL d   1       5.718   3.625   1.860  0.00  0.00    -0.002 A 
ATOM      3  C4  UNL d   1       5.350   2.322   2.201  0.00  0.00     0.004 A 
ATOM      4  C5  UNL d   1       4.171   1.772   1.699  0.00  0.00    -0.004 A 
ATOM      5  C6  UNL d   1       3.351   2.518   0.847  0.00  0.00    -0.075 A 
ATOM      6  C7  UNL d   1       2.078   1.942   0.301  0.00  0.00     0.076 C 
ATOM      7  C8  UNL d   1       3.726   3.826   0.512  0.00  0.00     0.001 A 
ENDROOT
BRANCH   1   8
ATOM      8  C1  UNL d   1       5.301   5.796   0.642  0.00  0.00     0.053 C 
ATOM      9  C   UNL d   1       5.608   5.924  -0.842  0.00  0.00     0.018 C 
ENDBRANCH   1   8
TORSDOF 1
ENDMDL
