MODEL 1
REMARK minimizedAffinity 22.7414799
REMARK minimizedRMSD -1
REMARK  1 active torsions:
REMARK  status: ('A' for Active; 'I' for Inactive)
REMARK    1  A    between atoms: C1_2  and  C2_3 
ROOT
ATOM      1  C2  UNL d   1      -0.356   4.841  -3.880  0.00  0.00    -0.073 A 
ATOM      2  C3  UNL d   1       0.019   5.970  -3.143  0.00  0.00    -0.002 A 
ATOM      3  C4  UNL d   1       1.072   5.898  -2.230  0.00  0.00     0.004 A 
ATOM      4  C5  UNL d   1       1.764   4.701  -2.050  0.00  0.00    -0.004 A 
ATOM      5  C6  UNL d   1       1.412   3.564  -2.786  0.00  0.00    -0.075 A 
ATOM      6  C7  UNL d   1       2.145   2.268  -2.602  0.00  0.00     0.076 C 
ATOM      7  C8  UNL d   1       0.351   3.644  -3.698  0.00  0.00     0.001 A 
ENDROOT
BRANCH   1   8
ATOM      8  C1  UNL d   1      -1.489   4.916  -4.871  0.00  0.00     0.053 C 
ATOM      9  C   UNL d   1      -1.263   5.999  -5.914  0.00  0.00     0.018 C 
ENDBRANCH   1   8
TORSDOF 1
ENDMDL
