MODEL 1
REMARK minimizedAffinity 13.8998413
REMARK minimizedRMSD -1
REMARK  1 active torsions:
REMARK  status: ('A' for Active; 'I' for Inactive)
REMARK    1  A    between atoms: C1_2  and  C2_3 
ROOT
ATOM      1  C2  UNL d   1      -5.837   2.166   3.397  0.00  0.00    -0.073 A 
ATOM      2  C3  UNL d   1      -5.601   1.313   4.481  0.00  0.00    -0.002 A 
ATOM      3  C4  UNL d   1      -5.486   1.830   5.772  0.00  0.00     0.004 A 
ATOM      4  C5  UNL d   1      -5.612   3.202   5.993  0.00  0.00    -0.004 A 
ATOM      5  C6  UNL d   1      -5.860   4.068   4.924  0.00  0.00    -0.075 A 
ATOM      6  C7  UNL d   1      -5.996   5.546   5.145  0.00  0.00     0.076 C 
ATOM      7  C8  UNL d   1      -5.972   3.542   3.630  0.00  0.00     0.001 A 
ENDROOT
BRANCH   1   8
ATOM      8  C1  UNL d   1      -5.969   1.611   2.002  0.00  0.00     0.053 C 
ATOM      9  C   UNL d   1      -4.617   1.273   1.393  0.00  0.00     0.018 C 
ENDBRANCH   1   8
TORSDOF 1
ENDMDL
