MODEL 1
REMARK minimizedAffinity 5.035182
REMARK minimizedRMSD -1
REMARK  1 active torsions:
REMARK  status: ('A' for Active; 'I' for Inactive)
REMARK    1  A    between atoms: C1_2  and  C2_3 
ROOT
ATOM      1  C2  UNL d   1       2.864   2.997  -3.505  0.00  0.00    -0.073 A 
ATOM      2  C3  UNL d   1       2.785   2.013  -2.513  0.00  0.00    -0.002 A 
ATOM      3  C4  UNL d   1       2.064   2.249  -1.341  0.00  0.00     0.004 A 
ATOM      4  C5  UNL d   1       1.411   3.467  -1.153  0.00  0.00    -0.004 A 
ATOM      5  C6  UNL d   1       1.468   4.458  -2.137  0.00  0.00    -0.075 A 
ATOM      6  C7  UNL d   1       0.772   5.774  -1.949  0.00  0.00     0.076 C 
ATOM      7  C8  UNL d   1       2.196   4.215  -3.310  0.00  0.00     0.001 A 
ENDROOT
BRANCH   1   8
ATOM      8  C1  UNL d   1       3.636   2.744  -4.774  0.00  0.00     0.053 C 
ATOM      9  C   UNL d   1       2.948   3.347  -5.989  0.00  0.00     0.018 C 
ENDBRANCH   1   8
TORSDOF 1
ENDMDL
