MODEL 1
REMARK minimizedAffinity 7.10577106
REMARK minimizedRMSD -1
REMARK  1 active torsions:
REMARK  status: ('A' for Active; 'I' for Inactive)
REMARK    1  A    between atoms: C1_2  and  C2_3 
ROOT
ATOM      1  C2  UNL d   1       3.457   2.735  -2.937  0.00  0.00    -0.073 A 
ATOM      2  C3  UNL d   1       4.104   2.633  -4.173  0.00  0.00    -0.002 A 
ATOM      3  C4  UNL d   1       5.305   3.308  -4.398  0.00  0.00     0.004 A 
ATOM      4  C5  UNL d   1       5.873   4.085  -3.389  0.00  0.00    -0.004 A 
ATOM      5  C6  UNL d   1       5.247   4.190  -2.143  0.00  0.00    -0.075 A 
ATOM      6  C7  UNL d   1       5.844   5.024  -1.048  0.00  0.00     0.076 C 
ATOM      7  C8  UNL d   1       4.040   3.512  -1.926  0.00  0.00     0.001 A 
ENDROOT
BRANCH   1   8
ATOM      8  C1  UNL d   1       2.164   2.003  -2.687  0.00  0.00     0.053 C 
ATOM      9  C   UNL d   1       0.952   2.897  -2.899  0.00  0.00     0.018 C 
ENDBRANCH   1   8
TORSDOF 1
ENDMDL
