MODEL 1
REMARK minimizedAffinity 7.56420946
REMARK minimizedRMSD -1
REMARK  1 active torsions:
REMARK  status: ('A' for Active; 'I' for Inactive)
REMARK    1  A    between atoms: C1_2  and  C2_3 
ROOT
ATOM      1  C2  UNL d   1      -2.858  -2.233   1.565  0.00  0.00    -0.073 A 
ATOM      2  C3  UNL d   1      -1.641  -2.794   1.162  0.00  0.00    -0.002 A 
ATOM      3  C4  UNL d   1      -0.437  -2.158   1.465  0.00  0.00     0.004 A 
ATOM      4  C5  UNL d   1      -0.436  -0.959   2.178  0.00  0.00    -0.004 A 
ATOM      5  C6  UNL d   1      -1.641  -0.388   2.599  0.00  0.00    -0.075 A 
ATOM      6  C7  UNL d   1      -1.658   0.902   3.365  0.00  0.00     0.076 C 
ATOM      7  C8  UNL d   1      -2.847  -1.032   2.289  0.00  0.00     0.001 A 
ENDROOT
BRANCH   1   8
ATOM      8  C1  UNL d   1      -4.161  -2.919   1.246  0.00  0.00     0.053 C 
ATOM      9  C   UNL d   1      -4.319  -4.225   2.009  0.00  0.00     0.018 C 
ENDBRANCH   1   8
TORSDOF 1
ENDMDL
