MODEL 1
REMARK minimizedAffinity 19.6235485
REMARK minimizedRMSD -1
REMARK  1 active torsions:
REMARK  status: ('A' for Active; 'I' for Inactive)
REMARK    1  A    between atoms: C1_2  and  C2_3 
ROOT
ATOM      1  C2  UNL d   1      -5.366   0.965  -0.220  0.00  0.00    -0.073 A 
ATOM      2  C3  UNL d   1      -5.534   2.341  -0.410  0.00  0.00    -0.002 A 
ATOM      3  C4  UNL d   1      -5.844   2.845  -1.675  0.00  0.00     0.004 A 
ATOM      4  C5  UNL d   1      -5.994   1.979  -2.758  0.00  0.00    -0.004 A 
ATOM      5  C6  UNL d   1      -5.841   0.600  -2.584  0.00  0.00    -0.075 A 
ATOM      6  C7  UNL d   1      -5.998  -0.345  -3.740  0.00  0.00     0.076 C 
ATOM      7  C8  UNL d   1      -5.528   0.102  -1.313  0.00  0.00     0.001 A 
ENDROOT
BRANCH   1   8
ATOM      8  C1  UNL d   1      -5.038   0.416   1.145  0.00  0.00     0.053 C 
ATOM      9  C   UNL d   1      -3.674   0.878   1.633  0.00  0.00     0.018 C 
ENDBRANCH   1   8
TORSDOF 1
ENDMDL
