MODEL 1
REMARK minimizedAffinity 12.4669819
REMARK minimizedRMSD -1
REMARK  1 active torsions:
REMARK  status: ('A' for Active; 'I' for Inactive)
REMARK    1  A    between atoms: C1_2  and  C2_3 
ROOT
ATOM      1  C2  UNL d   1       3.973   4.250  -2.118  0.00  0.00    -0.073 A 
ATOM      2  C3  UNL d   1       3.589   2.989  -2.586  0.00  0.00    -0.002 A 
ATOM      3  C4  UNL d   1       2.243   2.702  -2.815  0.00  0.00     0.004 A 
ATOM      4  C5  UNL d   1       1.269   3.674  -2.585  0.00  0.00    -0.004 A 
ATOM      5  C6  UNL d   1       1.634   4.944  -2.128  0.00  0.00    -0.075 A 
ATOM      6  C7  UNL d   1       0.599   6.000  -1.874  0.00  0.00     0.076 C 
ATOM      7  C8  UNL d   1       2.988   5.224  -1.898  0.00  0.00     0.001 A 
ENDROOT
BRANCH   1   8
ATOM      8  C1  UNL d   1       5.426   4.567  -1.875  0.00  0.00     0.053 C 
ATOM      9  C   UNL d   1       6.000   3.761  -0.720  0.00  0.00     0.018 C 
ENDBRANCH   1   8
TORSDOF 1
ENDMDL
