MODEL 1
REMARK minimizedAffinity 7.13884926
REMARK minimizedRMSD -1
REMARK  1 active torsions:
REMARK  status: ('A' for Active; 'I' for Inactive)
REMARK    1  A    between atoms: N_2  and  C1_3 
ROOT
ATOM      1  C1  UNL d   1       2.824   0.801  -2.556  0.00  0.00     0.143 A 
ATOM      2  C2  UNL d   1       2.791  -0.404  -1.845  0.00  0.00    -0.057 A 
ATOM      3  C3  UNL d   1       2.718  -0.420  -0.447  0.00  0.00     0.033 A 
ATOM      4  C4  UNL d   1       2.706   0.773   0.268  0.00  0.00    -0.042 A 
ATOM      5  C5  UNL d   1       2.764   1.982  -0.416  0.00  0.00     0.033 A 
ATOM      6  C6  UNL d   1       2.830   1.991  -1.812  0.00  0.00    -0.057 A 
ENDROOT
BRANCH   1   7
ATOM      7  N   UNL d   1       2.996   0.883  -3.940  0.00  0.00    -0.732 N 
ATOM      8  C   UNL d   1       1.859   0.789  -4.831  0.00  0.00     0.284 C 
ATOM      9  H3  UNL d   1       3.675   1.592  -4.206  0.00  0.00     0.395 HD
ENDBRANCH   1   7
TORSDOF 1
ENDMDL
