MODEL 1
REMARK minimizedAffinity 3.2157228
REMARK minimizedRMSD -1
REMARK  1 active torsions:
REMARK  status: ('A' for Active; 'I' for Inactive)
REMARK    1  A    between atoms: N_2  and  C1_3 
ROOT
ATOM      1  C1  UNL d   1       1.064  -0.287  -1.672  0.00  0.00     0.143 A 
ATOM      2  C2  UNL d   1       1.951   0.731  -2.038  0.00  0.00    -0.057 A 
ATOM      3  C3  UNL d   1       1.901   1.316  -3.310  0.00  0.00     0.033 A 
ATOM      4  C4  UNL d   1       0.979   0.870  -4.251  0.00  0.00    -0.042 A 
ATOM      5  C5  UNL d   1       0.104  -0.158  -3.918  0.00  0.00     0.033 A 
ATOM      6  C6  UNL d   1       0.155  -0.733  -2.644  0.00  0.00    -0.057 A 
ENDROOT
BRANCH   1   7
ATOM      7  N   UNL d   1       1.128  -0.975  -0.458  0.00  0.00    -0.732 N 
ATOM      8  C   UNL d   1       1.926  -0.466   0.636  0.00  0.00     0.284 C 
ATOM      9  H3  UNL d   1       0.225  -1.348  -0.176  0.00  0.00     0.395 HD
ENDBRANCH   1   7
TORSDOF 1
ENDMDL
