MODEL 1
REMARK minimizedAffinity 1.26394379
REMARK minimizedRMSD -1
REMARK  1 active torsions:
REMARK  status: ('A' for Active; 'I' for Inactive)
REMARK    1  A    between atoms: N_2  and  C1_3 
ROOT
ATOM      1  C1  UNL d   1       3.338  -0.790  -3.908  0.00  0.00     0.143 A 
ATOM      2  C2  UNL d   1       1.982  -0.715  -4.246  0.00  0.00    -0.057 A 
ATOM      3  C3  UNL d   1       1.165   0.305  -3.745  0.00  0.00     0.033 A 
ATOM      4  C4  UNL d   1       1.685   1.256  -2.872  0.00  0.00    -0.042 A 
ATOM      5  C5  UNL d   1       3.023   1.186  -2.503  0.00  0.00     0.033 A 
ATOM      6  C6  UNL d   1       3.836   0.168  -3.012  0.00  0.00    -0.057 A 
ENDROOT
BRANCH   1   7
ATOM      7  N   UNL d   1       4.179  -1.837  -4.294  0.00  0.00    -0.732 N 
ATOM      8  C   UNL d   1       5.157  -2.375  -3.373  0.00  0.00     0.284 C 
ATOM      9  H3  UNL d   1       3.694  -2.542  -4.845  0.00  0.00     0.395 HD
ENDBRANCH   1   7
TORSDOF 1
ENDMDL
