MODEL 1
REMARK minimizedAffinity -1.98560834
REMARK minimizedRMSD -1
REMARK  0 active torsions:
REMARK  status: ('A' for Active; 'I' for Inactive)
ROOT
ATOM      1  O1  BZF d   1      -0.082   1.908  -0.150  0.00  0.00    -0.204 OA
ATOM      2  C2  BZF d   1      -0.997   0.954  -0.552  0.00  0.00     0.174 A 
ATOM      3  C3  BZF d   1      -0.524  -0.288  -0.325  0.00  0.00    -0.012 A 
ATOM      4  C3A BZF d   1       0.729  -0.098   0.340  0.00  0.00    -0.107 A 
ATOM      5  C4  BZF d   1       1.667  -0.956   0.837  0.00  0.00     0.055 A 
ATOM      6  C5  BZF d   1       2.814  -0.450   1.363  0.00  0.00    -0.016 A 
ATOM      7  C6  BZF d   1       3.056   0.908   1.402  0.00  0.00     0.022 A 
ATOM      8  C7  BZF d   1       2.152   1.799   0.926  0.00  0.00     0.029 A 
ATOM      9  C7A BZF d   1       0.979   1.291   0.424  0.00  0.00     0.058 A 
ENDROOT
TORSDOF 0
ENDMDL
