MODEL 1
REMARK minimizedAffinity -3.36119318
REMARK minimizedRMSD -1
REMARK  0 active torsions:
REMARK  status: ('A' for Active; 'I' for Inactive)
ROOT
ATOM      1  O1  BZF d   1       0.141   0.771   0.780  0.00  0.00    -0.204 OA
ATOM      2  C2  BZF d   1      -1.115   0.674   0.214  0.00  0.00     0.174 A 
ATOM      3  C3  BZF d   1      -1.206  -0.423  -0.565  0.00  0.00    -0.012 A 
ATOM      4  C3A BZF d   1       0.044  -1.101  -0.408  0.00  0.00    -0.107 A 
ATOM      5  C4  BZF d   1       0.554  -2.261  -0.917  0.00  0.00     0.055 A 
ATOM      6  C5  BZF d   1       1.836  -2.604  -0.624  0.00  0.00    -0.016 A 
ATOM      7  C6  BZF d   1       2.637  -1.809   0.170  0.00  0.00     0.022 A 
ATOM      8  C7  BZF d   1       2.174  -0.652   0.702  0.00  0.00     0.029 A 
ATOM      9  C7A BZF d   1       0.869  -0.319   0.434  0.00  0.00     0.058 A 
ENDROOT
TORSDOF 0
ENDMDL
