MODEL 1
REMARK minimizedAffinity -3.37565303
REMARK minimizedRMSD -1
REMARK  0 active torsions:
REMARK  status: ('A' for Active; 'I' for Inactive)
ROOT
ATOM      1  O1  BZF d   1      -0.468   0.201  -1.186  0.00  0.00    -0.204 OA
ATOM      2  C2  BZF d   1      -0.281   1.394  -0.513  0.00  0.00     0.174 A 
ATOM      3  C3  BZF d   1       0.640   1.254   0.461  0.00  0.00    -0.012 A 
ATOM      4  C3A BZF d   1       1.123  -0.087   0.334  0.00  0.00    -0.107 A 
ATOM      5  C4  BZF d   1       2.061  -0.816   1.007  0.00  0.00     0.055 A 
ATOM      6  C5  BZF d   1       2.241  -2.123   0.681  0.00  0.00    -0.016 A 
ATOM      7  C6  BZF d   1       1.499  -2.734  -0.308  0.00  0.00     0.022 A 
ATOM      8  C7  BZF d   1       0.560  -2.051  -1.007  0.00  0.00     0.029 A 
ATOM      9  C7A BZF d   1       0.398  -0.721  -0.702  0.00  0.00     0.058 A 
ENDROOT
TORSDOF 0
ENDMDL
