MODEL 1
REMARK minimizedAffinity -3.46757555
REMARK minimizedRMSD -1
REMARK  0 active torsions:
REMARK  status: ('A' for Active; 'I' for Inactive)
ROOT
ATOM      1  O1  BZF d   1      -0.152   0.782   1.130  0.00  0.00    -0.204 OA
ATOM      2  C2  BZF d   1      -1.171   1.022   0.228  0.00  0.00     0.174 A 
ATOM      3  C3  BZF d   1      -1.022   0.262  -0.876  0.00  0.00    -0.012 A 
ATOM      4  C3A BZF d   1       0.114  -0.567  -0.611  0.00  0.00    -0.107 A 
ATOM      5  C4  BZF d   1       0.750  -1.543  -1.323  0.00  0.00     0.055 A 
ATOM      6  C5  BZF d   1       1.876  -2.108  -0.812  0.00  0.00    -0.016 A 
ATOM      7  C6  BZF d   1       2.395  -1.716   0.405  0.00  0.00     0.022 A 
ATOM      8  C7  BZF d   1       1.797  -0.755   1.150  0.00  0.00     0.029 A 
ATOM      9  C7A BZF d   1       0.641  -0.207   0.651  0.00  0.00     0.058 A 
ENDROOT
TORSDOF 0
ENDMDL
