MODEL 1
REMARK minimizedAffinity -5.08332872
REMARK minimizedRMSD -1
REMARK  0 active torsions:
REMARK  status: ('A' for Active; 'I' for Inactive)
ROOT
ATOM      1  O1  BZF d   1      -0.456   1.207  -0.290  0.00  0.00    -0.204 OA
ATOM      2  C2  BZF d   1      -1.285   0.466  -1.109  0.00  0.00     0.174 A 
ATOM      3  C3  BZF d   1      -0.823  -0.794  -1.245  0.00  0.00    -0.012 A 
ATOM      4  C3A BZF d   1       0.321  -0.869  -0.388  0.00  0.00    -0.107 A 
ATOM      5  C4  BZF d   1       1.199  -1.868  -0.080  0.00  0.00     0.055 A 
ATOM      6  C5  BZF d   1       2.250  -1.595   0.737  0.00  0.00    -0.016 A 
ATOM      7  C6  BZF d   1       2.456  -0.335   1.259  0.00  0.00     0.022 A 
ATOM      8  C7  BZF d   1       1.609   0.687   0.986  0.00  0.00     0.029 A 
ATOM      9  C7A BZF d   1       0.527   0.406   0.187  0.00  0.00     0.058 A 
ENDROOT
TORSDOF 0
ENDMDL
