MODEL 1
REMARK minimizedAffinity -4.00436449
REMARK minimizedRMSD -1
REMARK  1 active torsions:
REMARK  status: ('A' for Active; 'I' for Inactive)
REMARK    1  A    between atoms: C1_2  and  C2_3 
ROOT
ATOM      1  C2  UNL d   1      -0.769   0.382   0.433  0.00  0.00    -0.077 A 
ATOM      2  C3  UNL d   1      -0.986  -0.337   1.617  0.00  0.00     0.002 A 
ATOM      3  C4  UNL d   1      -2.088  -0.051   2.425  0.00  0.00     0.002 A 
ATOM      4  C5  UNL d   1      -2.983   0.951   2.056  0.00  0.00    -0.004 A 
ATOM      5  C6  UNL d   1      -2.774   1.673   0.881  0.00  0.00     0.002 A 
ATOM      6  C7  UNL d   1      -1.673   1.389   0.073  0.00  0.00     0.002 A 
ENDROOT
BRANCH   1   7
ATOM      7  C1  UNL d   1       0.392   0.041  -0.465  0.00  0.00     0.055 C 
ATOM      8  C   UNL d   1      -0.084  -0.405  -1.840  0.00  0.00     0.019 C 
ENDBRANCH   1   7
TORSDOF 1
ENDMDL
