MODEL 1
REMARK minimizedAffinity -2.55809617
REMARK minimizedRMSD -1
REMARK  1 active torsions:
REMARK  status: ('A' for Active; 'I' for Inactive)
REMARK    1  A    between atoms: C1_2  and  C2_3 
ROOT
ATOM      1  C2  UNL d   1       0.729   1.732   0.207  0.00  0.00    -0.077 A 
ATOM      2  C3  UNL d   1       0.068   2.928   0.519  0.00  0.00     0.002 A 
ATOM      3  C4  UNL d   1       0.795   4.056   0.907  0.00  0.00     0.002 A 
ATOM      4  C5  UNL d   1       2.185   3.999   0.982  0.00  0.00    -0.004 A 
ATOM      5  C6  UNL d   1       2.851   2.814   0.675  0.00  0.00     0.002 A 
ATOM      6  C7  UNL d   1       2.127   1.685   0.289  0.00  0.00     0.002 A 
ENDROOT
BRANCH   1   7
ATOM      7  C1  UNL d   1      -0.049   0.529  -0.259  0.00  0.00     0.055 C 
ATOM      8  C   UNL d   1       0.161   0.276  -1.745  0.00  0.00     0.019 C 
ENDBRANCH   1   7
TORSDOF 1
ENDMDL
