MODEL 1
REMARK minimizedAffinity -4.02762461
REMARK minimizedRMSD -1
REMARK  1 active torsions:
REMARK  status: ('A' for Active; 'I' for Inactive)
REMARK    1  A    between atoms: C1_2  and  C2_3 
ROOT
ATOM      1  C2  UNL d   1      -2.138   0.585   0.438  0.00  0.00    -0.077 A 
ATOM      2  C3  UNL d   1      -1.232   0.622  -0.631  0.00  0.00     0.002 A 
ATOM      3  C4  UNL d   1      -0.356  -0.442  -0.852  0.00  0.00     0.002 A 
ATOM      4  C5  UNL d   1      -0.379  -1.552  -0.010  0.00  0.00    -0.004 A 
ATOM      5  C6  UNL d   1      -1.275  -1.598   1.058  0.00  0.00     0.002 A 
ATOM      6  C7  UNL d   1      -2.151  -0.535   1.280  0.00  0.00     0.002 A 
ENDROOT
BRANCH   1   7
ATOM      7  C1  UNL d   1      -3.118   1.709   0.648  0.00  0.00     0.055 C 
ATOM      8  C   UNL d   1      -4.554   1.209   0.595  0.00  0.00     0.019 C 
ENDBRANCH   1   7
TORSDOF 1
ENDMDL
