MODEL 1
REMARK minimizedAffinity -3.3984046
REMARK minimizedRMSD -1
REMARK  1 active torsions:
REMARK  status: ('A' for Active; 'I' for Inactive)
REMARK    1  A    between atoms: C1_2  and  C2_3 
ROOT
ATOM      1  C2  UNL d   1      -1.568   1.534   0.261  0.00  0.00    -0.077 A 
ATOM      2  C3  UNL d   1      -2.596   0.731   0.774  0.00  0.00     0.002 A 
ATOM      3  C4  UNL d   1      -3.742   1.314   1.319  0.00  0.00     0.002 A 
ATOM      4  C5  UNL d   1      -3.871   2.701   1.352  0.00  0.00    -0.004 A 
ATOM      5  C6  UNL d   1      -2.853   3.508   0.847  0.00  0.00     0.002 A 
ATOM      6  C7  UNL d   1      -1.706   2.927   0.302  0.00  0.00     0.002 A 
ENDROOT
BRANCH   1   7
ATOM      7  C1  UNL d   1      -0.353   0.906  -0.372  0.00  0.00     0.055 C 
ATOM      8  C   UNL d   1      -0.017  -0.428   0.278  0.00  0.00     0.019 C 
ENDBRANCH   1   7
TORSDOF 1
ENDMDL
