MODEL 1
REMARK minimizedAffinity -4.6304388
REMARK minimizedRMSD -1
REMARK  1 active torsions:
REMARK  status: ('A' for Active; 'I' for Inactive)
REMARK    1  A    between atoms: C1_2  and  C2_3 
ROOT
ATOM      1  C2  UNL d   1      -1.243  -0.738   1.042  0.00  0.00    -0.077 A 
ATOM      2  C3  UNL d   1      -0.898  -2.096   1.020  0.00  0.00     0.002 A 
ATOM      3  C4  UNL d   1       0.080  -2.562   0.139  0.00  0.00     0.002 A 
ATOM      4  C5  UNL d   1       0.723  -1.676  -0.723  0.00  0.00    -0.004 A 
ATOM      5  C6  UNL d   1       0.385  -0.323  -0.710  0.00  0.00     0.002 A 
ATOM      6  C7  UNL d   1      -0.592   0.144   0.170  0.00  0.00     0.002 A 
ENDROOT
BRANCH   1   7
ATOM      7  C1  UNL d   1      -2.262  -0.225   2.026  0.00  0.00     0.055 C 
ATOM      8  C   UNL d   1      -3.201   0.780   1.377  0.00  0.00     0.019 C 
ENDBRANCH   1   7
TORSDOF 1
ENDMDL
