MODEL 1
REMARK minimizedAffinity -2.26498055
REMARK minimizedRMSD -1
REMARK  1 active torsions:
REMARK  status: ('A' for Active; 'I' for Inactive)
REMARK    1  A    between atoms: C1_2  and  C2_3 
ROOT
ATOM      1  C2  UNL d   1       1.004   4.280   1.088  0.00  0.00    -0.077 A 
ATOM      2  C3  UNL d   1       2.231   4.209   1.763  0.00  0.00     0.002 A 
ATOM      3  C4  UNL d   1       3.349   3.652   1.140  0.00  0.00     0.002 A 
ATOM      4  C5  UNL d   1       3.252   3.166  -0.162  0.00  0.00    -0.004 A 
ATOM      5  C6  UNL d   1       2.036   3.230  -0.841  0.00  0.00     0.002 A 
ATOM      6  C7  UNL d   1       0.917   3.785  -0.219  0.00  0.00     0.002 A 
ENDROOT
BRANCH   1   7
ATOM      7  C1  UNL d   1      -0.191   4.925   1.741  0.00  0.00     0.055 C 
ATOM      8  C   UNL d   1       0.229   5.841   2.882  0.00  0.00     0.019 C 
ENDBRANCH   1   7
TORSDOF 1
ENDMDL
