MODEL 1
REMARK minimizedAffinity -4.06804132
REMARK minimizedRMSD -1
REMARK  1 active torsions:
REMARK  status: ('A' for Active; 'I' for Inactive)
REMARK    1  A    between atoms: C1_2  and  C2_3 
ROOT
ATOM      1  C2  UNL d   1       0.076  -0.356  -0.003  0.00  0.00    -0.077 A 
ATOM      2  C3  UNL d   1       0.873  -1.196  -0.793  0.00  0.00     0.002 A 
ATOM      3  C4  UNL d   1       0.840  -2.580  -0.609  0.00  0.00     0.002 A 
ATOM      4  C5  UNL d   1       0.009  -3.135   0.362  0.00  0.00    -0.004 A 
ATOM      5  C6  UNL d   1      -0.785  -2.308   1.155  0.00  0.00     0.002 A 
ATOM      6  C7  UNL d   1      -0.753  -0.925   0.972  0.00  0.00     0.002 A 
ENDROOT
BRANCH   1   7
ATOM      7  C1  UNL d   1       0.073   1.132  -0.234  0.00  0.00     0.055 C 
ATOM      8  C   UNL d   1       1.458   1.728  -0.026  0.00  0.00     0.019 C 
ENDBRANCH   1   7
TORSDOF 1
ENDMDL
