MODEL 1
REMARK minimizedAffinity 3.18229198
REMARK minimizedRMSD -1
REMARK  1 active torsions:
REMARK  status: ('A' for Active; 'I' for Inactive)
REMARK    1  A    between atoms: C1_2  and  C2_3 
ROOT
ATOM      1  C2  UNL d   1       0.258   2.674   2.007  0.00  0.00    -0.077 A 
ATOM      2  C3  UNL d   1      -0.228   3.209   0.806  0.00  0.00     0.002 A 
ATOM      3  C4  UNL d   1      -1.106   2.473   0.009  0.00  0.00     0.002 A 
ATOM      4  C5  UNL d   1      -1.510   1.200   0.406  0.00  0.00    -0.004 A 
ATOM      5  C6  UNL d   1      -1.030   0.658   1.598  0.00  0.00     0.002 A 
ATOM      6  C7  UNL d   1      -0.151   1.392   2.395  0.00  0.00     0.002 A 
ENDROOT
BRANCH   1   7
ATOM      7  C1  UNL d   1       1.167   3.486   2.893  0.00  0.00     0.055 C 
ATOM      8  C   UNL d   1       0.401   4.588   3.610  0.00  0.00     0.019 C 
ENDBRANCH   1   7
TORSDOF 1
ENDMDL
