MODEL 1
REMARK minimizedAffinity 4.54029322
REMARK minimizedRMSD -1
REMARK  1 active torsions:
REMARK  status: ('A' for Active; 'I' for Inactive)
REMARK    1  A    between atoms: C1_2  and  C2_3 
ROOT
ATOM      1  C2  UNL d   1       2.109   4.233   1.522  0.00  0.00    -0.077 A 
ATOM      2  C3  UNL d   1       1.810   3.005   0.916  0.00  0.00     0.002 A 
ATOM      3  C4  UNL d   1       2.681   2.451  -0.024  0.00  0.00     0.002 A 
ATOM      4  C5  UNL d   1       3.858   3.115  -0.363  0.00  0.00    -0.004 A 
ATOM      5  C6  UNL d   1       4.163   4.338   0.233  0.00  0.00     0.002 A 
ATOM      6  C7  UNL d   1       3.293   4.894   1.172  0.00  0.00     0.002 A 
ENDROOT
BRANCH   1   7
ATOM      7  C1  UNL d   1       1.194   4.808   2.572  0.00  0.00     0.055 C 
ATOM      8  C   UNL d   1      -0.018   5.479   1.943  0.00  0.00     0.019 C 
ENDBRANCH   1   7
TORSDOF 1
ENDMDL
