MODEL 1
REMARK minimizedAffinity 1.67471635
REMARK minimizedRMSD -1
REMARK  1 active torsions:
REMARK  status: ('A' for Active; 'I' for Inactive)
REMARK    1  A    between atoms: C1_2  and  C2_3 
ROOT
ATOM      1  C2  UNL d   1      -1.184   2.716   1.402  0.00  0.00    -0.077 A 
ATOM      2  C3  UNL d   1       0.082   2.116   1.360  0.00  0.00     0.002 A 
ATOM      3  C4  UNL d   1       1.107   2.571   2.192  0.00  0.00     0.002 A 
ATOM      4  C5  UNL d   1       0.875   3.624   3.074  0.00  0.00    -0.004 A 
ATOM      5  C6  UNL d   1      -0.380   4.229   3.122  0.00  0.00     0.002 A 
ATOM      6  C7  UNL d   1      -1.406   3.776   2.290  0.00  0.00     0.002 A 
ENDROOT
BRANCH   1   7
ATOM      7  C1  UNL d   1      -2.305   2.194   0.541  0.00  0.00     0.055 C 
ATOM      8  C   UNL d   1      -3.456   1.672   1.388  0.00  0.00     0.019 C 
ENDBRANCH   1   7
TORSDOF 1
ENDMDL
