MODEL 1
REMARK minimizedAffinity 5.7717557
REMARK minimizedRMSD -1
REMARK  1 active torsions:
REMARK  status: ('A' for Active; 'I' for Inactive)
REMARK    1  A    between atoms: C1_2  and  C2_3 
ROOT
ATOM      1  C2  UNL d   1      -2.974  -3.837  -1.470  0.00  0.00    -0.077 A 
ATOM      2  C3  UNL d   1      -2.158  -2.701  -1.372  0.00  0.00     0.002 A 
ATOM      3  C4  UNL d   1      -0.888  -2.692  -1.951  0.00  0.00     0.002 A 
ATOM      4  C5  UNL d   1      -0.424  -3.814  -2.635  0.00  0.00    -0.004 A 
ATOM      5  C6  UNL d   1      -1.227  -4.949  -2.736  0.00  0.00     0.002 A 
ATOM      6  C7  UNL d   1      -2.496  -4.961  -2.157  0.00  0.00     0.002 A 
ENDROOT
BRANCH   1   7
ATOM      7  C1  UNL d   1      -4.363  -3.831  -0.888  0.00  0.00     0.055 C 
ATOM      8  C   UNL d   1      -4.551  -2.677   0.086  0.00  0.00     0.019 C 
ENDBRANCH   1   7
TORSDOF 1
ENDMDL
