MODEL 1
REMARK minimizedAffinity 0.103356197
REMARK minimizedRMSD -1
REMARK  1 active torsions:
REMARK  status: ('A' for Active; 'I' for Inactive)
REMARK    1  A    between atoms: C1_2  and  C2_3 
ROOT
ATOM      1  C2  UNL d   1       3.548  -3.248   4.846  0.00  0.00    -0.077 A 
ATOM      2  C3  UNL d   1       4.621  -2.346   4.853  0.00  0.00     0.002 A 
ATOM      3  C4  UNL d   1       5.841  -2.705   5.430  0.00  0.00     0.002 A 
ATOM      4  C5  UNL d   1       6.000  -3.966   6.000  0.00  0.00    -0.004 A 
ATOM      5  C6  UNL d   1       4.938  -4.870   6.000  0.00  0.00     0.002 A 
ATOM      6  C7  UNL d   1       3.718  -4.513   5.424  0.00  0.00     0.002 A 
ENDROOT
BRANCH   1   7
ATOM      7  C1  UNL d   1       2.247  -2.882   4.181  0.00  0.00     0.055 C 
ATOM      8  C   UNL d   1       2.053  -3.652   2.882  0.00  0.00     0.019 C 
ENDBRANCH   1   7
TORSDOF 1
ENDMDL
