MODEL 1
REMARK minimizedAffinity -2.7905817
REMARK minimizedRMSD -1
REMARK  1 active torsions:
REMARK  status: ('A' for Active; 'I' for Inactive)
REMARK    1  A    between atoms: C1_2  and  C2_3 
ROOT
ATOM      1  C2  UNL d   1      -0.425  -0.061   0.004  0.00  0.00    -0.077 A 
ATOM      2  C3  UNL d   1      -0.618  -0.898   1.111  0.00  0.00     0.002 A 
ATOM      3  C4  UNL d   1      -0.040  -2.169   1.146  0.00  0.00     0.002 A 
ATOM      4  C5  UNL d   1       0.737  -2.611   0.077  0.00  0.00    -0.004 A 
ATOM      5  C6  UNL d   1       0.934  -1.787  -1.030  0.00  0.00     0.002 A 
ATOM      6  C7  UNL d   1       0.356  -0.517  -1.066  0.00  0.00     0.002 A 
ENDROOT
BRANCH   1   7
ATOM      7  C1  UNL d   1      -1.006   1.329  -0.014  0.00  0.00     0.055 C 
ATOM      8  C   UNL d   1      -2.505   1.305   0.247  0.00  0.00     0.019 C 
ENDBRANCH   1   7
TORSDOF 1
ENDMDL
