MODEL 1
REMARK minimizedAffinity -4.17049599
REMARK minimizedRMSD -1
REMARK  0 active torsions:
REMARK  status: ('A' for Active; 'I' for Inactive)
ROOT
ATOM      1  C   UNL d   1       0.736   0.202   0.679  0.00  0.00     0.172 C 
ATOM      2  N   UNL d   1      -0.415   0.055   1.539  0.00  0.00    -0.070 N 
ATOM      3  C1  UNL d   1      -1.717  -0.024   1.122  0.00  0.00    -0.004 A 
ATOM      4  C2  UNL d   1      -2.510  -0.159   2.241  0.00  0.00    -0.047 A 
ATOM      5  C3  UNL d   1      -1.656  -0.159   3.369  0.00  0.00    -0.047 A 
ATOM      6  C4  UNL d   1      -0.364  -0.025   2.905  0.00  0.00    -0.004 A 
ENDROOT
TORSDOF 0
ENDMDL
