MODEL 1
REMARK minimizedAffinity -3.24793601
REMARK minimizedRMSD -1
REMARK  0 active torsions:
REMARK  status: ('A' for Active; 'I' for Inactive)
ROOT
ATOM      1  C   UNL d   1       2.021   4.500  -5.996  0.00  0.00     0.172 C 
ATOM      2  N   UNL d   1       3.105   3.649  -5.564  0.00  0.00    -0.070 N 
ATOM      3  C1  UNL d   1       3.005   2.624  -4.662  0.00  0.00    -0.004 A 
ATOM      4  C2  UNL d   1       4.255   2.062  -4.521  0.00  0.00    -0.047 A 
ATOM      5  C3  UNL d   1       5.138   2.775  -5.366  0.00  0.00    -0.047 A 
ATOM      6  C4  UNL d   1       4.400   3.752  -6.000  0.00  0.00    -0.004 A 
ENDROOT
TORSDOF 0
ENDMDL
