MODEL 1
REMARK minimizedAffinity -2.2927959
REMARK minimizedRMSD -1
REMARK  0 active torsions:
REMARK  status: ('A' for Active; 'I' for Inactive)
ROOT
ATOM      1  C   UNL d   1      -0.674  -0.633   2.243  0.00  0.00     0.172 C 
ATOM      2  N   UNL d   1      -0.544  -0.160   0.885  0.00  0.00    -0.070 N 
ATOM      3  C1  UNL d   1       0.636   0.092   0.238  0.00  0.00    -0.004 A 
ATOM      4  C2  UNL d   1       0.335   0.524  -1.036  0.00  0.00    -0.047 A 
ATOM      5  C3  UNL d   1      -1.075   0.534  -1.157  0.00  0.00    -0.047 A 
ATOM      6  C4  UNL d   1      -1.594   0.106   0.046  0.00  0.00    -0.004 A 
ENDROOT
TORSDOF 0
ENDMDL
