MODEL 1
REMARK minimizedAffinity -1.58657503
REMARK minimizedRMSD -1
REMARK  0 active torsions:
REMARK  status: ('A' for Active; 'I' for Inactive)
ROOT
ATOM      1  C   UNL d   1       0.013   0.737  -1.837  0.00  0.00     0.172 C 
ATOM      2  N   UNL d   1       0.213   0.438  -0.438  0.00  0.00    -0.070 N 
ATOM      3  C1  UNL d   1      -0.688  -0.189   0.380  0.00  0.00    -0.004 A 
ATOM      4  C2  UNL d   1      -0.123  -0.286   1.634  0.00  0.00    -0.047 A 
ATOM      5  C3  UNL d   1       1.161   0.304   1.566  0.00  0.00    -0.047 A 
ATOM      6  C4  UNL d   1       1.343   0.744   0.272  0.00  0.00    -0.004 A 
ENDROOT
TORSDOF 0
ENDMDL
