MODEL 1
REMARK minimizedAffinity -3.52664399
REMARK minimizedRMSD -1
REMARK  0 active torsions:
REMARK  status: ('A' for Active; 'I' for Inactive)
ROOT
ATOM      1  C   UNL d   1       0.563   0.436  -1.142  0.00  0.00     0.172 C 
ATOM      2  N   UNL d   1      -0.312   0.401   0.005  0.00  0.00    -0.070 N 
ATOM      3  C1  UNL d   1       0.080   0.208   1.303  0.00  0.00    -0.004 A 
ATOM      4  C2  UNL d   1      -1.048   0.242   2.095  0.00  0.00    -0.047 A 
ATOM      5  C3  UNL d   1      -2.156   0.462   1.243  0.00  0.00    -0.047 A 
ATOM      6  C4  UNL d   1      -1.672   0.557  -0.045  0.00  0.00    -0.004 A 
ENDROOT
TORSDOF 0
ENDMDL
