MODEL 1
REMARK minimizedAffinity -2.93568397
REMARK minimizedRMSD -1
REMARK  0 active torsions:
REMARK  status: ('A' for Active; 'I' for Inactive)
ROOT
ATOM      1  C   UNL d   1       0.948   0.400  -0.296  0.00  0.00     0.172 C 
ATOM      2  N   UNL d   1       0.831  -0.131  -1.633  0.00  0.00    -0.070 N 
ATOM      3  C1  UNL d   1       0.168   0.464  -2.673  0.00  0.00    -0.004 A 
ATOM      4  C2  UNL d   1       0.288  -0.355  -3.775  0.00  0.00    -0.047 A 
ATOM      5  C3  UNL d   1       1.049  -1.482  -3.383  0.00  0.00    -0.047 A 
ATOM      6  C4  UNL d   1       1.372  -1.318  -2.053  0.00  0.00    -0.004 A 
ENDROOT
TORSDOF 0
ENDMDL
