MODEL 1
REMARK minimizedAffinity -4.1901269
REMARK minimizedRMSD -1
REMARK  0 active torsions:
REMARK  status: ('A' for Active; 'I' for Inactive)
ROOT
ATOM      1  C   UNL d   1      -0.018   0.183  -0.609  0.00  0.00     0.172 C 
ATOM      2  N   UNL d   1      -0.329  -0.030   0.785  0.00  0.00    -0.070 N 
ATOM      3  C1  UNL d   1      -1.581  -0.234   1.302  0.00  0.00    -0.004 A 
ATOM      4  C2  UNL d   1      -1.454  -0.396   2.665  0.00  0.00    -0.047 A 
ATOM      5  C3  UNL d   1      -0.078  -0.285   2.978  0.00  0.00    -0.047 A 
ATOM      6  C4  UNL d   1       0.595  -0.059   1.796  0.00  0.00    -0.004 A 
ENDROOT
TORSDOF 0
ENDMDL
