MODEL 1
REMARK minimizedAffinity -2.55552316
REMARK minimizedRMSD -1
REMARK  0 active torsions:
REMARK  status: ('A' for Active; 'I' for Inactive)
ROOT
ATOM      1  C   UNL d   1      -0.424  -0.376   2.899  0.00  0.00     0.172 C 
ATOM      2  N   UNL d   1      -0.296  -0.096   1.488  0.00  0.00    -0.070 N 
ATOM      3  C1  UNL d   1       0.880   0.115   0.820  0.00  0.00    -0.004 A 
ATOM      4  C2  UNL d   1       0.577   0.348  -0.504  0.00  0.00    -0.047 A 
ATOM      5  C3  UNL d   1      -0.830   0.277  -0.636  0.00  0.00    -0.047 A 
ATOM      6  C4  UNL d   1      -1.346   0.001   0.613  0.00  0.00    -0.004 A 
ENDROOT
TORSDOF 0
ENDMDL
