MODEL 1
REMARK minimizedAffinity -3.6628387
REMARK minimizedRMSD -1
REMARK  0 active torsions:
REMARK  status: ('A' for Active; 'I' for Inactive)
ROOT
ATOM      1  C   UNL d   1      -0.244  -0.058  -0.455  0.00  0.00     0.172 C 
ATOM      2  N   UNL d   1      -0.890  -0.116   0.836  0.00  0.00    -0.070 N 
ATOM      3  C1  UNL d   1      -2.222   0.094   1.072  0.00  0.00    -0.004 A 
ATOM      4  C2  UNL d   1      -2.439  -0.051   2.425  0.00  0.00    -0.047 A 
ATOM      5  C3  UNL d   1      -1.194  -0.359   3.023  0.00  0.00    -0.047 A 
ATOM      6  C4  UNL d   1      -0.252  -0.393   2.016  0.00  0.00    -0.004 A 
ENDROOT
TORSDOF 0
ENDMDL
