MODEL 1
REMARK minimizedAffinity -3.69246554
REMARK minimizedRMSD -1
REMARK  0 active torsions:
REMARK  status: ('A' for Active; 'I' for Inactive)
ROOT
ATOM      1  C   UNL d   1      -0.371   0.414  -1.084  0.00  0.00     0.172 C 
ATOM      2  N   UNL d   1      -1.083   0.134   0.140  0.00  0.00    -0.070 N 
ATOM      3  C1  UNL d   1      -0.530  -0.362   1.291  0.00  0.00    -0.004 A 
ATOM      4  C2  UNL d   1      -1.537  -0.486   2.224  0.00  0.00    -0.047 A 
ATOM      5  C3  UNL d   1      -2.737  -0.051   1.613  0.00  0.00    -0.047 A 
ATOM      6  C4  UNL d   1      -2.427   0.328   0.323  0.00  0.00    -0.004 A 
ENDROOT
TORSDOF 0
ENDMDL
