MODEL 1
REMARK minimizedAffinity -2.5840137
REMARK minimizedRMSD -1
REMARK  0 active torsions:
REMARK  status: ('A' for Active; 'I' for Inactive)
ROOT
ATOM      1  C   UNL d   1      -0.097  -0.595   0.035  0.00  0.00     0.172 C 
ATOM      2  N   UNL d   1      -1.017  -0.284   1.104  0.00  0.00    -0.070 N 
ATOM      3  C1  UNL d   1      -0.746  -0.379   2.443  0.00  0.00    -0.004 A 
ATOM      4  C2  UNL d   1      -1.876   0.004   3.131  0.00  0.00    -0.047 A 
ATOM      5  C3  UNL d   1      -2.862   0.341   2.172  0.00  0.00    -0.047 A 
ATOM      6  C4  UNL d   1      -2.303   0.153   0.926  0.00  0.00    -0.004 A 
ENDROOT
TORSDOF 0
ENDMDL
