MODEL 1
REMARK minimizedAffinity -3.13683891
REMARK minimizedRMSD -1
REMARK  0 active torsions:
REMARK  status: ('A' for Active; 'I' for Inactive)
ROOT
ATOM      1  C   UNL d   1       1.195   0.170   0.778  0.00  0.00     0.172 C 
ATOM      2  N   UNL d   1      -0.009  -0.108   1.526  0.00  0.00    -0.070 N 
ATOM      3  C1  UNL d   1      -1.211  -0.488   0.991  0.00  0.00    -0.004 A 
ATOM      4  C2  UNL d   1      -2.101  -0.656   2.031  0.00  0.00    -0.047 A 
ATOM      5  C3  UNL d   1      -1.410  -0.366   3.231  0.00  0.00    -0.047 A 
ATOM      6  C4  UNL d   1      -0.117  -0.030   2.889  0.00  0.00    -0.004 A 
ENDROOT
TORSDOF 0
ENDMDL
