MODEL 1
REMARK minimizedAffinity -3.47978592
REMARK minimizedRMSD -1
REMARK  0 active torsions:
REMARK  status: ('A' for Active; 'I' for Inactive)
ROOT
ATOM      1  C   UNL d   1       0.004  -0.034  -0.526  0.00  0.00     0.172 C 
ATOM      2  N   UNL d   1      -0.564  -0.066   0.801  0.00  0.00    -0.070 N 
ATOM      3  C1  UNL d   1       0.141  -0.199   1.968  0.00  0.00    -0.004 A 
ATOM      4  C2  UNL d   1      -0.761  -0.183   3.010  0.00  0.00    -0.047 A 
ATOM      5  C3  UNL d   1      -2.053  -0.037   2.449  0.00  0.00    -0.047 A 
ATOM      6  C4  UNL d   1      -1.901   0.034   1.081  0.00  0.00    -0.004 A 
ENDROOT
TORSDOF 0
ENDMDL
