MODEL 1
REMARK minimizedAffinity 8.31568336
REMARK minimizedRMSD -1
REMARK  0 active torsions:
REMARK  status: ('A' for Active; 'I' for Inactive)
ROOT
ATOM      1  C2' OXE d   1       2.629   1.326   0.683  0.00  0.00     0.078 C 
ATOM      2  C1' OXE d   1       1.019   3.545   0.079  0.00  0.00     0.078 C 
ATOM      3  C1  OXE d   1       0.372   2.183   0.070  0.00  0.00    -0.078 A 
ATOM      4  C2  OXE d   1       1.178   1.098   0.321  0.00  0.00    -0.078 A 
ATOM      5  C3  OXE d   1       0.620  -0.176   0.378  0.00  0.00     0.003 A 
ATOM      6  C4  OXE d   1      -0.721  -0.379   0.032  0.00  0.00    -0.002 A 
ATOM      7  C5  OXE d   1      -1.550   0.707  -0.266  0.00  0.00    -0.002 A 
ATOM      8  C6  OXE d   1      -1.030   1.996  -0.210  0.00  0.00     0.003 A 
ENDROOT
TORSDOF 0
ENDMDL
