MODEL 1
REMARK minimizedAffinity 5.83609295
REMARK minimizedRMSD -1
REMARK  0 active torsions:
REMARK  status: ('A' for Active; 'I' for Inactive)
ROOT
ATOM      1  C2' OXE d   1       3.581  -5.916  -1.841  0.00  0.00     0.078 C 
ATOM      2  C1' OXE d   1       1.621  -5.947  -3.850  0.00  0.00     0.078 C 
ATOM      3  C1  OXE d   1       3.067  -5.952  -4.278  0.00  0.00    -0.078 A 
ATOM      4  C2  OXE d   1       4.019  -5.890  -3.290  0.00  0.00    -0.078 A 
ATOM      5  C3  OXE d   1       5.368  -5.947  -3.628  0.00  0.00     0.003 A 
ATOM      6  C4  OXE d   1       5.765  -5.913  -4.970  0.00  0.00    -0.002 A 
ATOM      7  C5  OXE d   1       4.811  -5.936  -5.993  0.00  0.00    -0.002 A 
ATOM      8  C6  OXE d   1       3.461  -5.999  -5.665  0.00  0.00     0.003 A 
ENDROOT
TORSDOF 0
ENDMDL
