MODEL 1
REMARK minimizedAffinity -2.9394536
REMARK minimizedRMSD -1
REMARK  0 active torsions:
REMARK  status: ('A' for Active; 'I' for Inactive)
ROOT
ATOM      1  C2' OXE d   1       5.150  -5.661  -6.000  0.00  0.00     0.078 C 
ATOM      2  C1' OXE d   1       2.355  -5.767  -5.751  0.00  0.00     0.078 C 
ATOM      3  C1  OXE d   1       3.177  -5.818  -4.487  0.00  0.00    -0.078 A 
ATOM      4  C2  OXE d   1       4.544  -5.812  -4.621  0.00  0.00    -0.078 A 
ATOM      5  C3  OXE d   1       5.348  -5.802  -3.485  0.00  0.00     0.003 A 
ATOM      6  C4  OXE d   1       4.781  -5.952  -2.214  0.00  0.00    -0.002 A 
ATOM      7  C5  OXE d   1       3.391  -6.000  -2.057  0.00  0.00    -0.002 A 
ATOM      8  C6  OXE d   1       2.576  -5.891  -3.178  0.00  0.00     0.003 A 
ENDROOT
TORSDOF 0
ENDMDL
