MODEL 1
REMARK minimizedAffinity 1.15861094
REMARK minimizedRMSD -1
REMARK  0 active torsions:
REMARK  status: ('A' for Active; 'I' for Inactive)
ROOT
ATOM      1  C2' OXE d   1       2.815  -5.999  -5.998  0.00  0.00     0.078 C 
ATOM      2  C1' OXE d   1       5.588  -5.981  -5.562  0.00  0.00     0.078 C 
ATOM      3  C1  OXE d   1       4.685  -5.981  -4.353  0.00  0.00    -0.078 A 
ATOM      4  C2  OXE d   1       3.330  -5.943  -4.576  0.00  0.00    -0.078 A 
ATOM      5  C3  OXE d   1       2.452  -5.996  -3.497  0.00  0.00     0.003 A 
ATOM      6  C4  OXE d   1       2.937  -5.934  -2.185  0.00  0.00    -0.002 A 
ATOM      7  C5  OXE d   1       4.314  -5.932  -1.936  0.00  0.00    -0.002 A 
ATOM      8  C6  OXE d   1       5.200  -5.998  -3.006  0.00  0.00     0.003 A 
ENDROOT
TORSDOF 0
ENDMDL
