MODEL 1
REMARK minimizedAffinity 5.0922718
REMARK minimizedRMSD -1
REMARK  0 active torsions:
REMARK  status: ('A' for Active; 'I' for Inactive)
ROOT
ATOM      1  C2' OXE d   1       3.047  -6.000  -5.070  0.00  0.00     0.078 C 
ATOM      2  C1' OXE d   1       5.748  -5.981  -4.303  0.00  0.00     0.078 C 
ATOM      3  C1  OXE d   1       4.706  -5.982  -3.212  0.00  0.00    -0.078 A 
ATOM      4  C2  OXE d   1       3.388  -5.944  -3.596  0.00  0.00    -0.078 A 
ATOM      5  C3  OXE d   1       2.386  -5.998  -2.631  0.00  0.00     0.003 A 
ATOM      6  C4  OXE d   1       2.710  -5.937  -1.270  0.00  0.00    -0.002 A 
ATOM      7  C5  OXE d   1       4.046  -5.935  -0.857  0.00  0.00    -0.002 A 
ATOM      8  C6  OXE d   1       5.055  -6.000  -1.812  0.00  0.00     0.003 A 
ENDROOT
TORSDOF 0
ENDMDL
