MODEL 1
REMARK minimizedAffinity 6.84230518
REMARK minimizedRMSD -1
REMARK  0 active torsions:
REMARK  status: ('A' for Active; 'I' for Inactive)
ROOT
ATOM      1  C2' OXE d   1       5.948  -5.929   0.877  0.00  0.00     0.078 C 
ATOM      2  C1' OXE d   1       5.393  -5.973  -1.874  0.00  0.00     0.078 C 
ATOM      3  C1  OXE d   1       4.224  -5.961  -0.921  0.00  0.00    -0.078 A 
ATOM      4  C2  OXE d   1       4.505  -5.987   0.424  0.00  0.00    -0.078 A 
ATOM      5  C3  OXE d   1       3.465  -5.922   1.347  0.00  0.00     0.003 A 
ATOM      6  C4  OXE d   1       2.133  -5.985   0.920  0.00  0.00    -0.002 A 
ATOM      7  C5  OXE d   1       1.825  -6.000  -0.445  0.00  0.00    -0.002 A 
ATOM      8  C6  OXE d   1       2.856  -5.945  -1.376  0.00  0.00     0.003 A 
ENDROOT
TORSDOF 0
ENDMDL
