MODEL 1
REMARK minimizedAffinity 0.546791375
REMARK minimizedRMSD -1
REMARK  0 active torsions:
REMARK  status: ('A' for Active; 'I' for Inactive)
ROOT
ATOM      1  C2' OXE d   1       2.330  -5.882  -5.989  0.00  0.00     0.078 C 
ATOM      2  C1' OXE d   1       5.136  -5.828  -5.997  0.00  0.00     0.078 C 
ATOM      3  C1  OXE d   1       4.438  -5.901  -4.662  0.00  0.00    -0.078 A 
ATOM      4  C2  OXE d   1       3.064  -5.880  -4.665  0.00  0.00    -0.078 A 
ATOM      5  C3  OXE d   1       2.370  -6.000  -3.465  0.00  0.00     0.003 A 
ATOM      6  C4  OXE d   1       3.057  -5.987  -2.245  0.00  0.00    -0.002 A 
ATOM      7  C5  OXE d   1       4.456  -5.968  -2.217  0.00  0.00    -0.002 A 
ATOM      8  C6  OXE d   1       5.161  -5.969  -3.416  0.00  0.00     0.003 A 
ENDROOT
TORSDOF 0
ENDMDL
