MODEL 1
REMARK minimizedAffinity 9.26792526
REMARK minimizedRMSD -1
REMARK  0 active torsions:
REMARK  status: ('A' for Active; 'I' for Inactive)
ROOT
ATOM      1  C2' OXE d   1       3.073  -5.652  -1.580  0.00  0.00     0.078 C 
ATOM      2  C1' OXE d   1       5.351  -5.914  -3.199  0.00  0.00     0.078 C 
ATOM      3  C1  OXE d   1       4.005  -5.883  -3.879  0.00  0.00    -0.078 A 
ATOM      4  C2  OXE d   1       2.893  -5.802  -3.076  0.00  0.00    -0.078 A 
ATOM      5  C3  OXE d   1       1.630  -5.715  -3.654  0.00  0.00     0.003 A 
ATOM      6  C4  OXE d   1       1.472  -5.865  -5.037  0.00  0.00    -0.002 A 
ATOM      7  C5  OXE d   1       2.589  -5.989  -5.870  0.00  0.00    -0.002 A 
ATOM      8  C6  OXE d   1       3.862  -5.957  -5.312  0.00  0.00     0.003 A 
ENDROOT
TORSDOF 0
ENDMDL
