MODEL 1
REMARK minimizedAffinity 2.08868957
REMARK minimizedRMSD -1
REMARK  0 active torsions:
REMARK  status: ('A' for Active; 'I' for Inactive)
ROOT
ATOM      1  C2' OXE d   1       4.226  -5.999  -0.014  0.00  0.00     0.078 C 
ATOM      2  C1' OXE d   1       1.421  -6.000  -0.118  0.00  0.00     0.078 C 
ATOM      3  C1  OXE d   1       2.173  -5.986  -1.425  0.00  0.00    -0.078 A 
ATOM      4  C2  OXE d   1       3.545  -5.939  -1.364  0.00  0.00    -0.078 A 
ATOM      5  C3  OXE d   1       4.289  -5.980  -2.540  0.00  0.00     0.003 A 
ATOM      6  C4  OXE d   1       3.652  -5.913  -3.785  0.00  0.00    -0.002 A 
ATOM      7  C5  OXE d   1       2.255  -5.921  -3.869  0.00  0.00    -0.002 A 
ATOM      8  C6  OXE d   1       1.503  -6.000  -2.702  0.00  0.00     0.003 A 
ENDROOT
TORSDOF 0
ENDMDL
