MODEL 1
REMARK minimizedAffinity -4.74907684
REMARK minimizedRMSD -1
REMARK  0 active torsions:
REMARK  status: ('A' for Active; 'I' for Inactive)
ROOT
ATOM      1  C   UNL d   1       3.372   1.518   0.090  0.00  0.00     0.077 C 
ATOM      2  C1  UNL d   1       2.241   0.548  -0.081  0.00  0.00    -0.074 A 
ATOM      3  C2  UNL d   1       2.479  -0.829  -0.149  0.00  0.00    -0.005 A 
ATOM      4  C3  UNL d   1       1.416  -1.719  -0.299  0.00  0.00     0.006 A 
ATOM      5  C4  UNL d   1       0.107  -1.243  -0.381  0.00  0.00    -0.005 A 
ATOM      6  C5  UNL d   1      -0.150   0.130  -0.314  0.00  0.00    -0.074 A 
ATOM      7  C6  UNL d   1      -1.552   0.657  -0.392  0.00  0.00     0.077 C 
ATOM      8  C7  UNL d   1       0.923   1.018  -0.157  0.00  0.00    -0.001 A 
ENDROOT
TORSDOF 0
ENDMDL
