MODEL 1
REMARK minimizedAffinity -3.84247875
REMARK minimizedRMSD -1
REMARK  0 active torsions:
REMARK  status: ('A' for Active; 'I' for Inactive)
ROOT
ATOM      1  C   UNL d   1       3.163   0.236  -0.218  0.00  0.00     0.077 C 
ATOM      2  C1  UNL d   1       1.823  -0.436  -0.207  0.00  0.00    -0.074 A 
ATOM      3  C2  UNL d   1       1.717  -1.830  -0.227  0.00  0.00    -0.005 A 
ATOM      4  C3  UNL d   1       0.463  -2.441  -0.206  0.00  0.00     0.006 A 
ATOM      5  C4  UNL d   1      -0.696  -1.665  -0.165  0.00  0.00    -0.005 A 
ATOM      6  C5  UNL d   1      -0.610  -0.270  -0.144  0.00  0.00    -0.074 A 
ATOM      7  C6  UNL d   1      -1.846   0.579  -0.090  0.00  0.00     0.077 C 
ATOM      8  C7  UNL d   1       0.654   0.337  -0.158  0.00  0.00    -0.001 A 
ENDROOT
TORSDOF 0
ENDMDL
