MODEL 1
REMARK minimizedAffinity -4.69676161
REMARK minimizedRMSD -1
REMARK  0 active torsions:
REMARK  status: ('A' for Active; 'I' for Inactive)
ROOT
ATOM      1  C   UNL d   1       3.178  -2.273   0.306  0.00  0.00     0.077 C 
ATOM      2  C1  UNL d   1       2.607  -0.896   0.138  0.00  0.00    -0.074 A 
ATOM      3  C2  UNL d   1       3.436   0.230   0.122  0.00  0.00    -0.005 A 
ATOM      4  C3  UNL d   1       2.891   1.503  -0.044  0.00  0.00     0.006 A 
ATOM      5  C4  UNL d   1       1.513   1.663  -0.195  0.00  0.00    -0.005 A 
ATOM      6  C5  UNL d   1       0.668   0.549  -0.182  0.00  0.00    -0.074 A 
ATOM      7  C6  UNL d   1      -0.814   0.702  -0.353  0.00  0.00     0.077 C 
ATOM      8  C7  UNL d   1       1.224  -0.728  -0.022  0.00  0.00    -0.001 A 
ENDROOT
TORSDOF 0
ENDMDL
