MODEL 1
REMARK minimizedAffinity -4.90405941
REMARK minimizedRMSD -1
REMARK  1 active torsions:
REMARK  status: ('A' for Active; 'I' for Inactive)
REMARK    1  A    between atoms: C3_4  and  O_7 
ROOT
ATOM      1  C   UNL d   1       1.850  -2.027   2.482  0.00  0.00    -0.033 A 
ATOM      2  C1  UNL d   1       2.450  -2.181   1.231  0.00  0.00     0.039 A 
ATOM      3  C2  UNL d   1       1.933  -1.511   0.120  0.00  0.00    -0.080 A 
ATOM      4  C3  UNL d   1       0.819  -0.691   0.274  0.00  0.00     0.150 A 
ATOM      5  C4  UNL d   1       0.218  -0.530   1.518  0.00  0.00    -0.007 A 
ATOM      6  C5  UNL d   1       0.735  -1.201   2.626  0.00  0.00     0.039 A 
ENDROOT
BRANCH   4   7
ATOM      7  O   UNL d   1       0.276  -0.021  -0.782  0.00  0.00    -0.526 OA
ATOM      8  H5  UNL d   1       0.777  -0.250  -1.582  0.00  0.00     0.418 HD
ENDBRANCH   4   7
TORSDOF 1
ENDMDL
