MODEL 1
REMARK minimizedAffinity -1.76616621
REMARK minimizedRMSD -1
REMARK  1 active torsions:
REMARK  status: ('A' for Active; 'I' for Inactive)
REMARK    1  A    between atoms: C3_4  and  O_7 
ROOT
ATOM      1  C   UNL d   1      -0.577  -0.996   2.185  0.00  0.00    -0.033 A 
ATOM      2  C1  UNL d   1      -0.045  -1.231   0.915  0.00  0.00     0.039 A 
ATOM      3  C2  UNL d   1      -0.023  -0.209  -0.035  0.00  0.00    -0.080 A 
ATOM      4  C3  UNL d   1      -0.534   1.043   0.297  0.00  0.00     0.150 A 
ATOM      5  C4  UNL d   1      -1.061   1.286   1.561  0.00  0.00    -0.007 A 
ATOM      6  C5  UNL d   1      -1.084   0.263   2.508  0.00  0.00     0.039 A 
ENDROOT
BRANCH   4   7
ATOM      7  O   UNL d   1      -0.538   2.071  -0.599  0.00  0.00    -0.526 OA
ATOM      8  H5  UNL d   1      -0.169   1.749  -1.438  0.00  0.00     0.418 HD
ENDBRANCH   4   7
TORSDOF 1
ENDMDL
