MODEL 1
REMARK minimizedAffinity -3.75148678
REMARK minimizedRMSD -1
REMARK  1 active torsions:
REMARK  status: ('A' for Active; 'I' for Inactive)
REMARK    1  A    between atoms: C3_4  and  O_7 
ROOT
ATOM      1  C   UNL d   1       1.688  -2.654   2.074  0.00  0.00    -0.033 A 
ATOM      2  C1  UNL d   1       2.269  -2.625   0.805  0.00  0.00     0.039 A 
ATOM      3  C2  UNL d   1       1.680  -1.880  -0.218  0.00  0.00    -0.080 A 
ATOM      4  C3  UNL d   1       0.512  -1.168   0.041  0.00  0.00     0.150 A 
ATOM      5  C4  UNL d   1      -0.071  -1.189   1.304  0.00  0.00    -0.007 A 
ATOM      6  C5  UNL d   1       0.519  -1.935   2.324  0.00  0.00     0.039 A 
ENDROOT
BRANCH   4   7
ATOM      7  O   UNL d   1      -0.103  -0.430  -0.927  0.00  0.00    -0.526 OA
ATOM      8  H5  UNL d   1       0.396  -0.532  -1.755  0.00  0.00     0.418 HD
ENDBRANCH   4   7
TORSDOF 1
ENDMDL
