MODEL 1
REMARK minimizedAffinity -2.58471823
REMARK minimizedRMSD -1
REMARK  1 active torsions:
REMARK  status: ('A' for Active; 'I' for Inactive)
REMARK    1  A    between atoms: C3_4  and  O_7 
ROOT
ATOM      1  C   UNL d   1      -0.872  -0.278   1.644  0.00  0.00    -0.033 A 
ATOM      2  C1  UNL d   1       0.024  -1.096   2.335  0.00  0.00     0.039 A 
ATOM      3  C2  UNL d   1       1.105  -1.672   1.666  0.00  0.00    -0.080 A 
ATOM      4  C3  UNL d   1       1.281  -1.421   0.308  0.00  0.00     0.150 A 
ATOM      5  C4  UNL d   1       0.395  -0.603  -0.386  0.00  0.00    -0.007 A 
ATOM      6  C5  UNL d   1      -0.685  -0.030   0.284  0.00  0.00     0.039 A 
ENDROOT
BRANCH   4   7
ATOM      7  O   UNL d   1       2.319  -1.965  -0.389  0.00  0.00    -0.526 OA
ATOM      8  H5  UNL d   1       2.831  -2.529   0.213  0.00  0.00     0.418 HD
ENDBRANCH   4   7
TORSDOF 1
ENDMDL
