MODEL 1
REMARK minimizedAffinity -2.9820621
REMARK minimizedRMSD -1
REMARK  1 active torsions:
REMARK  status: ('A' for Active; 'I' for Inactive)
REMARK    1  A    between atoms: C3_4  and  O_7 
ROOT
ATOM      1  C   UNL d   1       0.169  -1.448   2.104  0.00  0.00    -0.033 A 
ATOM      2  C1  UNL d   1      -0.749  -0.408   2.259  0.00  0.00     0.039 A 
ATOM      3  C2  UNL d   1      -1.045   0.431   1.183  0.00  0.00    -0.080 A 
ATOM      4  C3  UNL d   1      -0.418   0.218  -0.042  0.00  0.00     0.150 A 
ATOM      5  C4  UNL d   1       0.495  -0.819  -0.205  0.00  0.00    -0.007 A 
ATOM      6  C5  UNL d   1       0.790  -1.655   0.871  0.00  0.00     0.039 A 
ENDROOT
BRANCH   4   7
ATOM      7  O   UNL d   1      -0.671   1.014  -1.120  0.00  0.00    -0.526 OA
ATOM      8  H5  UNL d   1      -1.299   1.705  -0.851  0.00  0.00     0.418 HD
ENDBRANCH   4   7
TORSDOF 1
ENDMDL
