MODEL 1
REMARK minimizedAffinity -1.64852679
REMARK minimizedRMSD -1
REMARK  1 active torsions:
REMARK  status: ('A' for Active; 'I' for Inactive)
REMARK    1  A    between atoms: C3_4  and  O_7 
ROOT
ATOM      1  C   UNL d   1      -0.694  -0.210   1.191  0.00  0.00    -0.033 A 
ATOM      2  C1  UNL d   1      -0.466   0.154  -0.138  0.00  0.00     0.039 A 
ATOM      3  C2  UNL d   1       0.572  -0.441  -0.857  0.00  0.00    -0.080 A 
ATOM      4  C3  UNL d   1       1.373  -1.397  -0.238  0.00  0.00     0.150 A 
ATOM      5  C4  UNL d   1       1.148  -1.767   1.084  0.00  0.00    -0.007 A 
ATOM      6  C5  UNL d   1       0.112  -1.172   1.801  0.00  0.00     0.039 A 
ENDROOT
BRANCH   4   7
ATOM      7  O   UNL d   1       2.401  -2.001  -0.899  0.00  0.00    -0.526 OA
ATOM      8  H5  UNL d   1       2.455  -1.626  -1.793  0.00  0.00     0.418 HD
ENDBRANCH   4   7
TORSDOF 1
ENDMDL
