MODEL 1
REMARK minimizedAffinity 0.161903173
REMARK minimizedRMSD -1
REMARK  0 active torsions:
REMARK  status: ('A' for Active; 'I' for Inactive)
ROOT
ATOM      1  C   UNL d   1      -1.592  -5.991   1.687  0.00  0.00     0.078 C 
ATOM      2  C1  UNL d   1      -3.090  -5.926   1.737  0.00  0.00    -0.077 A 
ATOM      3  C2  UNL d   1      -3.774  -5.989   2.957  0.00  0.00    -0.001 A 
ATOM      4  C3  UNL d   1      -5.168  -5.937   2.988  0.00  0.00     0.003 A 
ATOM      5  C4  UNL d   1      -5.891  -5.822   1.802  0.00  0.00    -0.005 A 
ATOM      6  C5  UNL d   1      -5.219  -5.760   0.583  0.00  0.00     0.003 A 
ATOM      7  C6  UNL d   1      -3.824  -5.812   0.550  0.00  0.00    -0.001 A 
ENDROOT
TORSDOF 0
ENDMDL
