MODEL 1
REMARK minimizedAffinity 4.34315443
REMARK minimizedRMSD -1
REMARK  0 active torsions:
REMARK  status: ('A' for Active; 'I' for Inactive)
ROOT
ATOM      1  C   UNL d   1      -5.319  -1.050   5.507  0.00  0.00     0.078 C 
ATOM      2  C1  UNL d   1      -4.949  -1.403   4.097  0.00  0.00    -0.077 A 
ATOM      3  C2  UNL d   1      -5.924  -1.795   3.172  0.00  0.00    -0.001 A 
ATOM      4  C3  UNL d   1      -5.564  -2.131   1.866  0.00  0.00     0.003 A 
ATOM      5  C4  UNL d   1      -4.229  -2.077   1.473  0.00  0.00    -0.005 A 
ATOM      6  C5  UNL d   1      -3.251  -1.690   2.387  0.00  0.00     0.003 A 
ATOM      7  C6  UNL d   1      -3.609  -1.354   3.693  0.00  0.00    -0.001 A 
ENDROOT
TORSDOF 0
ENDMDL
