MODEL 1
REMARK minimizedAffinity 2.3295722
REMARK minimizedRMSD -1
REMARK  0 active torsions:
REMARK  status: ('A' for Active; 'I' for Inactive)
ROOT
ATOM      1  C   UNL d   1       0.625  -5.818   2.300  0.00  0.00     0.078 C 
ATOM      2  C1  UNL d   1      -0.269  -4.614   2.289  0.00  0.00    -0.077 A 
ATOM      3  C2  UNL d   1      -1.349  -4.526   1.402  0.00  0.00    -0.001 A 
ATOM      4  C3  UNL d   1      -2.166  -3.395   1.395  0.00  0.00     0.003 A 
ATOM      5  C4  UNL d   1      -1.912  -2.342   2.272  0.00  0.00    -0.005 A 
ATOM      6  C5  UNL d   1      -0.839  -2.420   3.157  0.00  0.00     0.003 A 
ATOM      7  C6  UNL d   1      -0.020  -3.550   3.165  0.00  0.00    -0.001 A 
ENDROOT
TORSDOF 0
ENDMDL
