MODEL 1
REMARK minimizedAffinity -0.90886265
REMARK minimizedRMSD -1
REMARK  0 active torsions:
REMARK  status: ('A' for Active; 'I' for Inactive)
ROOT
ATOM      1  C   UNL d   1       0.141   0.754  -0.355  0.00  0.00     0.078 C 
ATOM      2  C1  UNL d   1      -0.749  -0.238  -1.043  0.00  0.00    -0.077 A 
ATOM      3  C2  UNL d   1      -1.482   0.119  -2.181  0.00  0.00    -0.001 A 
ATOM      4  C3  UNL d   1      -2.314  -0.812  -2.805  0.00  0.00     0.003 A 
ATOM      5  C4  UNL d   1      -2.422  -2.105  -2.298  0.00  0.00    -0.005 A 
ATOM      6  C5  UNL d   1      -1.698  -2.469  -1.164  0.00  0.00     0.003 A 
ATOM      7  C6  UNL d   1      -0.865  -1.539  -0.538  0.00  0.00    -0.001 A 
ENDROOT
TORSDOF 0
ENDMDL
