MODEL 1
REMARK minimizedAffinity 15.5627518
REMARK minimizedRMSD -1
REMARK  0 active torsions:
REMARK  status: ('A' for Active; 'I' for Inactive)
ROOT
ATOM      1  C   UNL d   1       4.952  -4.399   3.352  0.00  0.00     0.078 C 
ATOM      2  C1  UNL d   1       4.377  -3.538   2.268  0.00  0.00    -0.077 A 
ATOM      3  C2  UNL d   1       3.215  -3.917   1.586  0.00  0.00    -0.001 A 
ATOM      4  C3  UNL d   1       2.696  -3.111   0.572  0.00  0.00     0.003 A 
ATOM      5  C4  UNL d   1       3.334  -1.920   0.230  0.00  0.00    -0.005 A 
ATOM      6  C5  UNL d   1       4.492  -1.535   0.902  0.00  0.00     0.003 A 
ATOM      7  C6  UNL d   1       5.012  -2.341   1.916  0.00  0.00    -0.001 A 
ENDROOT
TORSDOF 0
ENDMDL
