MODEL 1
REMARK minimizedAffinity 5.3245821
REMARK minimizedRMSD -1
REMARK  0 active torsions:
REMARK  status: ('A' for Active; 'I' for Inactive)
ROOT
ATOM      1  C   UNL d   1      -2.681  -3.008   1.191  0.00  0.00     0.078 C 
ATOM      2  C1  UNL d   1      -3.711  -2.252   1.975  0.00  0.00    -0.077 A 
ATOM      3  C2  UNL d   1      -3.387  -1.645   3.194  0.00  0.00    -0.001 A 
ATOM      4  C3  UNL d   1      -4.359  -0.953   3.918  0.00  0.00     0.003 A 
ATOM      5  C4  UNL d   1      -5.662  -0.861   3.431  0.00  0.00    -0.005 A 
ATOM      6  C5  UNL d   1      -5.994  -1.463   2.220  0.00  0.00     0.003 A 
ATOM      7  C6  UNL d   1      -5.023  -2.156   1.494  0.00  0.00    -0.001 A 
ENDROOT
TORSDOF 0
ENDMDL
