MODEL 1
REMARK minimizedAffinity 2.96869683
REMARK minimizedRMSD -1
REMARK  0 active torsions:
REMARK  status: ('A' for Active; 'I' for Inactive)
ROOT
ATOM      1  C   UNL d   1      -1.259  -5.945   3.237  0.00  0.00     0.078 C 
ATOM      2  C1  UNL d   1       0.060  -5.972   3.950  0.00  0.00    -0.077 A 
ATOM      3  C2  UNL d   1       0.123  -5.980   5.349  0.00  0.00    -0.001 A 
ATOM      4  C3  UNL d   1       1.358  -5.994   6.000  0.00  0.00     0.003 A 
ATOM      5  C4  UNL d   1       2.539  -6.000   5.260  0.00  0.00    -0.005 A 
ATOM      6  C5  UNL d   1       2.486  -5.989   3.868  0.00  0.00     0.003 A 
ATOM      7  C6  UNL d   1       1.252  -5.975   3.215  0.00  0.00    -0.001 A 
ENDROOT
TORSDOF 0
ENDMDL
