MODEL 1
REMARK minimizedAffinity 0.767236769
REMARK minimizedRMSD -1
REMARK  0 active torsions:
REMARK  status: ('A' for Active; 'I' for Inactive)
ROOT
ATOM      1  C   UNL d   1       5.965  -4.088   5.989  0.00  0.00     0.078 C 
ATOM      2  C1  UNL d   1       5.682  -3.046   4.949  0.00  0.00    -0.077 A 
ATOM      3  C2  UNL d   1       5.115  -3.392   3.716  0.00  0.00    -0.001 A 
ATOM      4  C3  UNL d   1       4.866  -2.412   2.754  0.00  0.00     0.003 A 
ATOM      5  C4  UNL d   1       5.182  -1.080   3.013  0.00  0.00    -0.005 A 
ATOM      6  C5  UNL d   1       5.749  -0.726   4.235  0.00  0.00     0.003 A 
ATOM      7  C6  UNL d   1       5.999  -1.704   5.199  0.00  0.00    -0.001 A 
ENDROOT
TORSDOF 0
ENDMDL
