MODEL 1
REMARK minimizedAffinity 0.878782213
REMARK minimizedRMSD -1
REMARK  0 active torsions:
REMARK  status: ('A' for Active; 'I' for Inactive)
ROOT
ATOM      1  C   UNL d   1       0.407   1.127   1.439  0.00  0.00     0.078 C 
ATOM      2  C1  UNL d   1      -0.363  -0.062   0.947  0.00  0.00    -0.077 A 
ATOM      3  C2  UNL d   1      -0.331  -0.434  -0.402  0.00  0.00    -0.001 A 
ATOM      4  C3  UNL d   1      -1.060  -1.537  -0.848  0.00  0.00     0.003 A 
ATOM      5  C4  UNL d   1      -1.828  -2.278   0.049  0.00  0.00    -0.005 A 
ATOM      6  C5  UNL d   1      -1.867  -1.915   1.393  0.00  0.00     0.003 A 
ATOM      7  C6  UNL d   1      -1.139  -0.811   1.841  0.00  0.00    -0.001 A 
ENDROOT
TORSDOF 0
ENDMDL
