MODEL 1
REMARK minimizedAffinity 3.18235779
REMARK minimizedRMSD -1
REMARK  0 active torsions:
REMARK  status: ('A' for Active; 'I' for Inactive)
ROOT
ATOM      1  C   UNL d   1       0.112   0.405   0.092  0.00  0.00     0.078 C 
ATOM      2  C1  UNL d   1      -0.534  -0.619  -0.793  0.00  0.00    -0.077 A 
ATOM      3  C2  UNL d   1       0.116  -1.098  -1.936  0.00  0.00    -0.001 A 
ATOM      4  C3  UNL d   1      -0.502  -2.043  -2.756  0.00  0.00     0.003 A 
ATOM      5  C4  UNL d   1      -1.774  -2.517  -2.442  0.00  0.00    -0.005 A 
ATOM      6  C5  UNL d   1      -2.430  -2.045  -1.307  0.00  0.00     0.003 A 
ATOM      7  C6  UNL d   1      -1.814  -1.099  -0.486  0.00  0.00    -0.001 A 
ENDROOT
TORSDOF 0
ENDMDL
