MODEL 1
REMARK minimizedAffinity 0.0752839446
REMARK minimizedRMSD -1
REMARK  0 active torsions:
REMARK  status: ('A' for Active; 'I' for Inactive)
ROOT
ATOM      1  C   UNL d   1      -1.942  -2.354  -0.545  0.00  0.00     0.078 C 
ATOM      2  C1  UNL d   1      -1.175  -1.229   0.084  0.00  0.00    -0.077 A 
ATOM      3  C2  UNL d   1      -1.014  -1.154   1.473  0.00  0.00    -0.001 A 
ATOM      4  C3  UNL d   1      -0.306  -0.096   2.045  0.00  0.00     0.003 A 
ATOM      5  C4  UNL d   1       0.246   0.896   1.236  0.00  0.00    -0.005 A 
ATOM      6  C5  UNL d   1       0.089   0.830  -0.147  0.00  0.00     0.003 A 
ATOM      7  C6  UNL d   1      -0.619  -0.227  -0.721  0.00  0.00    -0.001 A 
ENDROOT
TORSDOF 0
ENDMDL
