MODEL 1
REMARK minimizedAffinity 10.0437927
REMARK minimizedRMSD -1
REMARK  0 active torsions:
REMARK  status: ('A' for Active; 'I' for Inactive)
ROOT
ATOM      1  C   UNL d   1      -1.936  -5.348  -2.256  0.00  0.00     0.078 C 
ATOM      2  C1  UNL d   1      -2.377  -3.924  -2.416  0.00  0.00    -0.077 A 
ATOM      3  C2  UNL d   1      -2.490  -3.075  -1.308  0.00  0.00    -0.001 A 
ATOM      4  C3  UNL d   1      -2.911  -1.754  -1.471  0.00  0.00     0.003 A 
ATOM      5  C4  UNL d   1      -3.223  -1.270  -2.740  0.00  0.00    -0.005 A 
ATOM      6  C5  UNL d   1      -3.115  -2.108  -3.848  0.00  0.00     0.003 A 
ATOM      7  C6  UNL d   1      -2.695  -3.429  -3.687  0.00  0.00    -0.001 A 
ENDROOT
TORSDOF 0
ENDMDL
