MODEL 1
REMARK minimizedAffinity 1.4529115
REMARK minimizedRMSD -1
REMARK  0 active torsions:
REMARK  status: ('A' for Active; 'I' for Inactive)
ROOT
ATOM      1  C   UNL d   1      -1.471  -2.885   0.319  0.00  0.00     0.078 C 
ATOM      2  C1  UNL d   1      -0.798  -1.609   0.731  0.00  0.00    -0.077 A 
ATOM      3  C2  UNL d   1      -1.090  -1.004   1.959  0.00  0.00    -0.001 A 
ATOM      4  C3  UNL d   1      -0.464   0.188   2.326  0.00  0.00     0.003 A 
ATOM      5  C4  UNL d   1       0.458   0.786   1.468  0.00  0.00    -0.005 A 
ATOM      6  C5  UNL d   1       0.753   0.193   0.243  0.00  0.00     0.003 A 
ATOM      7  C6  UNL d   1       0.128  -0.999  -0.125  0.00  0.00    -0.001 A 
ENDROOT
TORSDOF 0
ENDMDL
