MODEL 1
REMARK minimizedAffinity 1.8371681
REMARK minimizedRMSD -1
REMARK  0 active torsions:
REMARK  status: ('A' for Active; 'I' for Inactive)
ROOT
ATOM      1  C   UNL d   1       0.449   0.454  -0.139  0.00  0.00     0.078 C 
ATOM      2  C1  UNL d   1      -0.592  -0.452  -0.725  0.00  0.00    -0.077 A 
ATOM      3  C2  UNL d   1      -1.346  -0.060  -1.837  0.00  0.00    -0.001 A 
ATOM      4  C3  UNL d   1      -2.319  -0.910  -2.366  0.00  0.00     0.003 A 
ATOM      5  C4  UNL d   1      -2.546  -2.158  -1.789  0.00  0.00    -0.005 A 
ATOM      6  C5  UNL d   1      -1.802  -2.556  -0.680  0.00  0.00     0.003 A 
ATOM      7  C6  UNL d   1      -0.829  -1.707  -0.150  0.00  0.00    -0.001 A 
ENDROOT
TORSDOF 0
ENDMDL
