MODEL 1
REMARK minimizedAffinity 8.53900528
REMARK minimizedRMSD -1
REMARK  0 active torsions:
REMARK  status: ('A' for Active; 'I' for Inactive)
ROOT
ATOM      1  C   UNL d   1      -5.205  -1.051   3.185  0.00  0.00     0.078 C 
ATOM      2  C1  UNL d   1      -4.203  -1.825   2.382  0.00  0.00    -0.077 A 
ATOM      3  C2  UNL d   1      -2.876  -1.948   2.811  0.00  0.00    -0.001 A 
ATOM      4  C3  UNL d   1      -1.951  -2.663   2.049  0.00  0.00     0.003 A 
ATOM      5  C4  UNL d   1      -2.343  -3.261   0.853  0.00  0.00    -0.005 A 
ATOM      6  C5  UNL d   1      -3.661  -3.143   0.417  0.00  0.00     0.003 A 
ATOM      7  C6  UNL d   1      -4.587  -2.427   1.178  0.00  0.00    -0.001 A 
ENDROOT
TORSDOF 0
ENDMDL
