MODEL 1
REMARK minimizedAffinity 15.004159
REMARK minimizedRMSD -1
REMARK  0 active torsions:
REMARK  status: ('A' for Active; 'I' for Inactive)
ROOT
ATOM      1  O1  BZF d   1       5.278   1.180  -1.891  0.00  0.00    -0.204 OA
ATOM      2  C2  BZF d   1       5.073   0.018  -1.173  0.00  0.00     0.174 A 
ATOM      3  C3  BZF d   1       5.213   0.242   0.150  0.00  0.00    -0.012 A 
ATOM      4  C3A BZF d   1       5.434   1.650   0.272  0.00  0.00    -0.107 A 
ATOM      5  C4  BZF d   1       5.630   2.481   1.338  0.00  0.00     0.055 A 
ATOM      6  C5  BZF d   1       5.890   3.796   1.112  0.00  0.00    -0.016 A 
ATOM      7  C6  BZF d   1       5.966   4.311  -0.165  0.00  0.00     0.022 A 
ATOM      8  C7  BZF d   1       5.774   3.528  -1.254  0.00  0.00     0.029 A 
ATOM      9  C7A BZF d   1       5.479   2.205  -1.028  0.00  0.00     0.058 A 
ENDROOT
TORSDOF 0
ENDMDL
