MODEL 1
REMARK minimizedAffinity 9.32140923
REMARK minimizedRMSD -1
REMARK  0 active torsions:
REMARK  status: ('A' for Active; 'I' for Inactive)
ROOT
ATOM      1  O1  BZF d   1       4.685   2.193  -0.693  0.00  0.00    -0.204 OA
ATOM      2  C2  BZF d   1       5.982   1.717  -0.709  0.00  0.00     0.174 A 
ATOM      3  C3  BZF d   1       6.000   0.372  -0.619  0.00  0.00    -0.012 A 
ATOM      4  C3A BZF d   1       4.625  -0.024  -0.635  0.00  0.00    -0.107 A 
ATOM      5  C4  BZF d   1       3.997  -1.236  -0.589  0.00  0.00     0.055 A 
ATOM      6  C5  BZF d   1       2.639  -1.275  -0.548  0.00  0.00    -0.016 A 
ATOM      7  C6  BZF d   1       1.879  -0.123  -0.547  0.00  0.00     0.022 A 
ATOM      8  C7  BZF d   1       2.458   1.102  -0.597  0.00  0.00     0.029 A 
ATOM      9  C7A BZF d   1       3.828   1.143  -0.672  0.00  0.00     0.058 A 
ENDROOT
TORSDOF 0
ENDMDL
