MODEL 1
REMARK minimizedAffinity 16.7667274
REMARK minimizedRMSD -1
REMARK  0 active torsions:
REMARK  status: ('A' for Active; 'I' for Inactive)
ROOT
ATOM      1  O1  BZF d   1      -5.148   1.261  -5.571  0.00  0.00    -0.204 OA
ATOM      2  C2  BZF d   1      -5.677   0.023  -5.260  0.00  0.00     0.174 A 
ATOM      3  C3  BZF d   1      -5.997  -0.045  -3.952  0.00  0.00    -0.012 A 
ATOM      4  C3A BZF d   1      -5.732   1.261  -3.431  0.00  0.00    -0.107 A 
ATOM      5  C4  BZF d   1      -5.867   1.823  -2.193  0.00  0.00     0.055 A 
ATOM      6  C5  BZF d   1      -5.450   3.102  -2.000  0.00  0.00    -0.016 A 
ATOM      7  C6  BZF d   1      -4.890   3.845  -3.019  0.00  0.00     0.022 A 
ATOM      8  C7  BZF d   1      -4.741   3.331  -4.265  0.00  0.00     0.029 A 
ATOM      9  C7A BZF d   1      -5.191   2.051  -4.471  0.00  0.00     0.058 A 
ENDROOT
TORSDOF 0
ENDMDL
