MODEL 1
REMARK minimizedAffinity 10.5395241
REMARK minimizedRMSD -1
REMARK  0 active torsions:
REMARK  status: ('A' for Active; 'I' for Inactive)
ROOT
ATOM      1  O1  BZF d   1       3.852   1.118  -1.503  0.00  0.00    -0.204 OA
ATOM      2  C2  BZF d   1       4.996   1.887  -1.588  0.00  0.00     0.174 A 
ATOM      3  C3  BZF d   1       6.000   1.332  -0.879  0.00  0.00    -0.012 A 
ATOM      4  C3A BZF d   1       5.475   0.094  -0.391  0.00  0.00    -0.107 A 
ATOM      5  C4  BZF d   1       6.000  -0.915   0.365  0.00  0.00     0.055 A 
ATOM      6  C5  BZF d   1       5.200  -1.953   0.728  0.00  0.00    -0.016 A 
ATOM      7  C6  BZF d   1       3.873  -2.011   0.358  0.00  0.00     0.022 A 
ATOM      8  C7  BZF d   1       3.309  -1.036  -0.397  0.00  0.00     0.029 A 
ATOM      9  C7A BZF d   1       4.123  -0.003  -0.793  0.00  0.00     0.058 A 
ENDROOT
TORSDOF 0
ENDMDL
