MODEL 1
REMARK minimizedAffinity 10.1605387
REMARK minimizedRMSD -1
REMARK  0 active torsions:
REMARK  status: ('A' for Active; 'I' for Inactive)
ROOT
ATOM      1  O1  BZF d   1       3.579  -1.206  -2.364  0.00  0.00    -0.204 OA
ATOM      2  C2  BZF d   1       2.966  -1.951  -1.375  0.00  0.00     0.174 A 
ATOM      3  C3  BZF d   1       3.251  -1.453  -0.155  0.00  0.00    -0.012 A 
ATOM      4  C3A BZF d   1       4.019  -0.271  -0.401  0.00  0.00    -0.107 A 
ATOM      5  C4  BZF d   1       4.583   0.669   0.414  0.00  0.00     0.055 A 
ATOM      6  C5  BZF d   1       5.332   1.659  -0.139  0.00  0.00    -0.016 A 
ATOM      7  C6  BZF d   1       5.541   1.736  -1.501  0.00  0.00     0.022 A 
ATOM      8  C7  BZF d   1       4.998   0.830  -2.349  0.00  0.00     0.029 A 
ATOM      9  C7A BZF d   1       4.214  -0.153  -1.796  0.00  0.00     0.058 A 
ENDROOT
TORSDOF 0
ENDMDL
