MODEL 1
REMARK minimizedAffinity 12.5443125
REMARK minimizedRMSD -1
REMARK  0 active torsions:
REMARK  status: ('A' for Active; 'I' for Inactive)
ROOT
ATOM      1  O1  BZF d   1       4.756  -0.351  -2.245  0.00  0.00    -0.204 OA
ATOM      2  C2  BZF d   1       4.671   0.276  -1.016  0.00  0.00     0.174 A 
ATOM      3  C3  BZF d   1       3.831  -0.389  -0.198  0.00  0.00    -0.012 A 
ATOM      4  C3A BZF d   1       3.433  -1.552  -0.930  0.00  0.00    -0.107 A 
ATOM      5  C4  BZF d   1       2.618  -2.609  -0.643  0.00  0.00     0.055 A 
ATOM      6  C5  BZF d   1       2.381  -3.541  -1.604  0.00  0.00    -0.016 A 
ATOM      7  C6  BZF d   1       2.937  -3.443  -2.863  0.00  0.00     0.022 A 
ATOM      8  C7  BZF d   1       3.756  -2.415  -3.193  0.00  0.00     0.029 A 
ATOM      9  C7A BZF d   1       4.024  -1.490  -2.214  0.00  0.00     0.058 A 
ENDROOT
TORSDOF 0
ENDMDL
