MODEL 1
REMARK minimizedAffinity 6.58453369
REMARK minimizedRMSD -1
REMARK  0 active torsions:
REMARK  status: ('A' for Active; 'I' for Inactive)
ROOT
ATOM      1  O1  BZF d   1       3.539   5.996   5.409  0.00  0.00    -0.204 OA
ATOM      2  C2  BZF d   1       2.560   5.999   4.434  0.00  0.00     0.174 A 
ATOM      3  C3  BZF d   1       2.678   4.920   3.634  0.00  0.00    -0.012 A 
ATOM      4  C3A BZF d   1       3.744   4.149   4.197  0.00  0.00    -0.107 A 
ATOM      5  C4  BZF d   1       4.323   2.959   3.858  0.00  0.00     0.055 A 
ATOM      6  C5  BZF d   1       5.392   2.519   4.572  0.00  0.00    -0.016 A 
ATOM      7  C6  BZF d   1       5.912   3.244   5.624  0.00  0.00     0.022 A 
ATOM      8  C7  BZF d   1       5.369   4.427   6.000  0.00  0.00     0.029 A 
ATOM      9  C7A BZF d   1       4.267   4.859   5.302  0.00  0.00     0.058 A 
ENDROOT
TORSDOF 0
ENDMDL
