MODEL 1
REMARK minimizedAffinity 1.59740472
REMARK minimizedRMSD -1
REMARK  0 active torsions:
REMARK  status: ('A' for Active; 'I' for Inactive)
ROOT
ATOM      1  O1  BZF d   1       5.718  -1.006  -3.452  0.00  0.00    -0.204 OA
ATOM      2  C2  BZF d   1       6.000   0.089  -2.658  0.00  0.00     0.174 A 
ATOM      3  C3  BZF d   1       5.224   0.092  -1.555  0.00  0.00    -0.012 A 
ATOM      4  C3A BZF d   1       4.470  -1.123  -1.621  0.00  0.00    -0.107 A 
ATOM      5  C4  BZF d   1       3.537  -1.695  -0.805  0.00  0.00     0.055 A 
ATOM      6  C5  BZF d   1       2.939  -2.851  -1.194  0.00  0.00    -0.016 A 
ATOM      7  C6  BZF d   1       3.246  -3.459  -2.393  0.00  0.00     0.022 A 
ATOM      8  C7  BZF d   1       4.168  -2.932  -3.235  0.00  0.00     0.029 A 
ATOM      9  C7A BZF d   1       4.798  -1.781  -2.829  0.00  0.00     0.058 A 
ENDROOT
TORSDOF 0
ENDMDL
