MODEL 1
REMARK minimizedAffinity 2.10485125
REMARK minimizedRMSD -1
REMARK  0 active torsions:
REMARK  status: ('A' for Active; 'I' for Inactive)
ROOT
ATOM      1  O1  BZF d   1      -1.787  -4.601  -3.753  0.00  0.00    -0.204 OA
ATOM      2  C2  BZF d   1      -2.188  -3.949  -4.903  0.00  0.00     0.174 A 
ATOM      3  C3  BZF d   1      -2.022  -2.616  -4.779  0.00  0.00    -0.012 A 
ATOM      4  C3A BZF d   1      -1.398  -2.431  -3.505  0.00  0.00    -0.107 A 
ATOM      5  C4  BZF d   1      -0.968  -1.330  -2.821  0.00  0.00     0.055 A 
ATOM      6  C5  BZF d   1      -0.469  -1.485  -1.567  0.00  0.00    -0.016 A 
ATOM      7  C6  BZF d   1      -0.391  -2.723  -0.964  0.00  0.00     0.022 A 
ATOM      8  C7  BZF d   1      -0.801  -3.845  -1.605  0.00  0.00     0.029 A 
ATOM      9  C7A BZF d   1      -1.275  -3.696  -2.885  0.00  0.00     0.058 A 
ENDROOT
TORSDOF 0
ENDMDL
