MODEL 1
REMARK minimizedAffinity 17.0924702
REMARK minimizedRMSD -1
REMARK  0 active torsions:
REMARK  status: ('A' for Active; 'I' for Inactive)
ROOT
ATOM      1  O1  BZF d   1       2.209  -2.776  -1.444  0.00  0.00    -0.204 OA
ATOM      2  C2  BZF d   1       2.373  -3.129  -2.770  0.00  0.00     0.174 A 
ATOM      3  C3  BZF d   1       3.046  -2.172  -3.441  0.00  0.00    -0.012 A 
ATOM      4  C3A BZF d   1       3.401  -1.199  -2.453  0.00  0.00    -0.107 A 
ATOM      5  C4  BZF d   1       4.093  -0.023  -2.500  0.00  0.00     0.055 A 
ATOM      6  C5  BZF d   1       4.201   0.726  -1.371  0.00  0.00    -0.016 A 
ATOM      7  C6  BZF d   1       3.626   0.331  -0.181  0.00  0.00     0.022 A 
ATOM      8  C7  BZF d   1       2.935  -0.831  -0.084  0.00  0.00     0.029 A 
ATOM      9  C7A BZF d   1       2.852  -1.605  -1.215  0.00  0.00     0.058 A 
ENDROOT
TORSDOF 0
ENDMDL
