MODEL 1
REMARK minimizedAffinity 8.8719101
REMARK minimizedRMSD -1
REMARK  1 active torsions:
REMARK  status: ('A' for Active; 'I' for Inactive)
REMARK    1  A    between atoms: C1_2  and  C2_3 
ROOT
ATOM      1  C2  UNL d   1      -2.453  -2.241  -2.291  0.00  0.00    -0.073 A 
ATOM      2  C3  UNL d   1      -3.454  -3.209  -2.154  0.00  0.00    -0.002 A 
ATOM      3  C4  UNL d   1      -3.871  -3.954  -3.258  0.00  0.00     0.004 A 
ATOM      4  C5  UNL d   1      -3.288  -3.743  -4.507  0.00  0.00    -0.004 A 
ATOM      5  C6  UNL d   1      -2.277  -2.788  -4.662  0.00  0.00    -0.075 A 
ATOM      6  C7  UNL d   1      -1.641  -2.548  -6.000  0.00  0.00     0.076 C 
ATOM      7  C8  UNL d   1      -1.866  -2.043  -3.549  0.00  0.00     0.001 A 
ENDROOT
BRANCH   1   8
ATOM      8  C1  UNL d   1      -1.996  -1.439  -1.100  0.00  0.00     0.053 C 
ATOM      9  C   UNL d   1      -3.040  -1.413   0.005  0.00  0.00     0.018 C 
ENDBRANCH   1   8
TORSDOF 1
ENDMDL
