MODEL 1
REMARK minimizedAffinity 3.69370508
REMARK minimizedRMSD -1
REMARK  1 active torsions:
REMARK  status: ('A' for Active; 'I' for Inactive)
REMARK    1  A    between atoms: C1_2  and  C2_3 
ROOT
ATOM      1  C2  UNL d   1       2.931   1.399  -1.866  0.00  0.00    -0.073 A 
ATOM      2  C3  UNL d   1       3.958   0.476  -1.635  0.00  0.00    -0.002 A 
ATOM      3  C4  UNL d   1       4.122  -0.093  -0.372  0.00  0.00     0.004 A 
ATOM      4  C5  UNL d   1       3.259   0.247   0.670  0.00  0.00    -0.004 A 
ATOM      5  C6  UNL d   1       2.219   1.157   0.456  0.00  0.00    -0.075 A 
ATOM      6  C7  UNL d   1       1.284   1.535   1.566  0.00  0.00     0.076 C 
ATOM      7  C8  UNL d   1       2.062   1.727  -0.815  0.00  0.00     0.001 A 
ENDROOT
BRANCH   1   8
ATOM      8  C1  UNL d   1       2.745   2.012  -3.230  0.00  0.00     0.053 C 
ATOM      9  C   UNL d   1       1.345   2.575  -3.416  0.00  0.00     0.018 C 
ENDBRANCH   1   8
TORSDOF 1
ENDMDL
