MODEL 1
REMARK minimizedAffinity 16.7245159
REMARK minimizedRMSD -1
REMARK  1 active torsions:
REMARK  status: ('A' for Active; 'I' for Inactive)
REMARK    1  A    between atoms: C1_2  and  C2_3 
ROOT
ATOM      1  C2  UNL d   1      -1.781  -2.954   3.703  0.00  0.00    -0.073 A 
ATOM      2  C3  UNL d   1      -0.813  -3.961   3.608  0.00  0.00    -0.002 A 
ATOM      3  C4  UNL d   1      -1.049  -5.220   4.160  0.00  0.00     0.004 A 
ATOM      4  C5  UNL d   1      -2.255  -5.488   4.807  0.00  0.00    -0.004 A 
ATOM      5  C6  UNL d   1      -3.239  -4.500   4.902  0.00  0.00    -0.075 A 
ATOM      6  C7  UNL d   1      -4.541  -4.771   5.597  0.00  0.00     0.076 C 
ATOM      7  C8  UNL d   1      -2.994  -3.236   4.347  0.00  0.00     0.001 A 
ENDROOT
BRANCH   1   8
ATOM      8  C1  UNL d   1      -1.533  -1.595   3.103  0.00  0.00     0.053 C 
ATOM      9  C   UNL d   1      -0.302  -0.926   3.693  0.00  0.00     0.018 C 
ENDBRANCH   1   8
TORSDOF 1
ENDMDL
