MODEL 1
REMARK minimizedAffinity 19.0252571
REMARK minimizedRMSD -1
REMARK  1 active torsions:
REMARK  status: ('A' for Active; 'I' for Inactive)
REMARK    1  A    between atoms: C1_2  and  C2_3 
ROOT
ATOM      1  C2  UNL d   1      -1.097  -0.654   3.142  0.00  0.00    -0.073 A 
ATOM      2  C3  UNL d   1       0.028   0.179   3.146  0.00  0.00    -0.002 A 
ATOM      3  C4  UNL d   1      -0.120   1.563   3.245  0.00  0.00     0.004 A 
ATOM      4  C5  UNL d   1      -1.391   2.127   3.347  0.00  0.00    -0.004 A 
ATOM      5  C6  UNL d   1      -2.527   1.311   3.356  0.00  0.00    -0.075 A 
ATOM      6  C7  UNL d   1      -3.901   1.903   3.463  0.00  0.00     0.076 C 
ATOM      7  C8  UNL d   1      -2.370  -0.078   3.254  0.00  0.00     0.001 A 
ENDROOT
BRANCH   1   8
ATOM      8  C1  UNL d   1      -0.942  -2.149   3.042  0.00  0.00     0.053 C 
ATOM      9  C   UNL d   1      -1.946  -2.886   3.914  0.00  0.00     0.018 C 
ENDBRANCH   1   8
TORSDOF 1
ENDMDL
