MODEL 1
REMARK minimizedAffinity 11.9468832
REMARK minimizedRMSD -1
REMARK  1 active torsions:
REMARK  status: ('A' for Active; 'I' for Inactive)
REMARK    1  A    between atoms: C1_2  and  C2_3 
ROOT
ATOM      1  C2  UNL d   1      -0.146   0.123   3.301  0.00  0.00    -0.073 A 
ATOM      2  C3  UNL d   1      -0.438   1.317   2.632  0.00  0.00    -0.002 A 
ATOM      3  C4  UNL d   1       0.593   2.142   2.181  0.00  0.00     0.004 A 
ATOM      4  C5  UNL d   1       1.924   1.780   2.387  0.00  0.00    -0.004 A 
ATOM      5  C6  UNL d   1       2.236   0.584   3.043  0.00  0.00    -0.075 A 
ATOM      6  C7  UNL d   1       3.662   0.181   3.274  0.00  0.00     0.076 C 
ATOM      7  C8  UNL d   1       1.195  -0.238   3.495  0.00  0.00     0.001 A 
ENDROOT
BRANCH   1   8
ATOM      8  C1  UNL d   1      -1.256  -0.775   3.785  0.00  0.00     0.053 C 
ATOM      9  C   UNL d   1      -1.366  -2.043   2.954  0.00  0.00     0.018 C 
ENDBRANCH   1   8
TORSDOF 1
ENDMDL
