MODEL 1
REMARK minimizedAffinity 20.0019836
REMARK minimizedRMSD -1
REMARK  1 active torsions:
REMARK  status: ('A' for Active; 'I' for Inactive)
REMARK    1  A    between atoms: C1_2  and  C2_3 
ROOT
ATOM      1  C2  UNL d   1      -1.415  -4.864  -3.975  0.00  0.00    -0.073 A 
ATOM      2  C3  UNL d   1      -1.204  -4.462  -5.299  0.00  0.00    -0.002 A 
ATOM      3  C4  UNL d   1      -2.207  -3.791  -6.000  0.00  0.00     0.004 A 
ATOM      4  C5  UNL d   1      -3.427  -3.510  -5.384  0.00  0.00    -0.004 A 
ATOM      5  C6  UNL d   1      -3.652  -3.893  -4.058  0.00  0.00    -0.075 A 
ATOM      6  C7  UNL d   1      -4.959  -3.600  -3.382  0.00  0.00     0.076 C 
ATOM      7  C8  UNL d   1      -2.641  -4.568  -3.361  0.00  0.00     0.001 A 
ENDROOT
BRANCH   1   8
ATOM      8  C1  UNL d   1      -0.333  -5.582  -3.211  0.00  0.00     0.053 C 
ATOM      9  C   UNL d   1      -0.753  -5.894  -1.784  0.00  0.00     0.018 C 
ENDBRANCH   1   8
TORSDOF 1
ENDMDL
