MODEL 1
REMARK minimizedAffinity 14.5845404
REMARK minimizedRMSD -1
REMARK  1 active torsions:
REMARK  status: ('A' for Active; 'I' for Inactive)
REMARK    1  A    between atoms: C1_2  and  C2_3 
ROOT
ATOM      1  C2  UNL d   1       2.811  -1.827  -5.907  0.00  0.00    -0.073 A 
ATOM      2  C3  UNL d   1       3.382  -3.102  -5.974  0.00  0.00    -0.002 A 
ATOM      3  C4  UNL d   1       4.766  -3.261  -5.882  0.00  0.00     0.004 A 
ATOM      4  C5  UNL d   1       5.590  -2.148  -5.716  0.00  0.00    -0.004 A 
ATOM      5  C6  UNL d   1       5.037  -0.866  -5.635  0.00  0.00    -0.075 A 
ATOM      6  C7  UNL d   1       5.910   0.341  -5.458  0.00  0.00     0.076 C 
ATOM      7  C8  UNL d   1       3.647  -0.715  -5.730  0.00  0.00     0.001 A 
ENDROOT
BRANCH   1   8
ATOM      8  C1  UNL d   1       1.317  -1.651  -5.999  0.00  0.00     0.053 C 
ATOM      9  C   UNL d   1       0.585  -2.983  -5.983  0.00  0.00     0.018 C 
ENDBRANCH   1   8
TORSDOF 1
ENDMDL
