MODEL 1
REMARK minimizedAffinity 20.922575
REMARK minimizedRMSD -1
REMARK  1 active torsions:
REMARK  status: ('A' for Active; 'I' for Inactive)
REMARK    1  A    between atoms: C1_2  and  C2_3 
ROOT
ATOM      1  C2  UNL d   1      -3.563  -2.833  -5.701  0.00  0.00    -0.073 A 
ATOM      2  C3  UNL d   1      -3.875  -4.192  -5.822  0.00  0.00    -0.002 A 
ATOM      3  C4  UNL d   1      -2.859  -5.137  -5.974  0.00  0.00     0.004 A 
ATOM      4  C5  UNL d   1      -1.524  -4.735  -5.998  0.00  0.00    -0.004 A 
ATOM      5  C6  UNL d   1      -1.192  -3.383  -5.867  0.00  0.00    -0.075 A 
ATOM      6  C7  UNL d   1       0.239  -2.933  -5.894  0.00  0.00     0.076 C 
ATOM      7  C8  UNL d   1      -2.217  -2.439  -5.718  0.00  0.00     0.001 A 
ENDROOT
BRANCH   1   8
ATOM      8  C1  UNL d   1      -4.656  -1.809  -5.531  0.00  0.00     0.053 C 
ATOM      9  C   UNL d   1      -4.222  -0.429  -5.998  0.00  0.00     0.018 C 
ENDBRANCH   1   8
TORSDOF 1
ENDMDL
