MODEL 1
REMARK minimizedAffinity 4.27038336
REMARK minimizedRMSD -1
REMARK  1 active torsions:
REMARK  status: ('A' for Active; 'I' for Inactive)
REMARK    1  A    between atoms: C1_2  and  C2_3 
ROOT
ATOM      1  C2  UNL d   1       0.075  -4.098   0.894  0.00  0.00    -0.073 A 
ATOM      2  C3  UNL d   1      -0.082  -2.713   1.021  0.00  0.00    -0.002 A 
ATOM      3  C4  UNL d   1      -0.677  -2.173   2.163  0.00  0.00     0.004 A 
ATOM      4  C5  UNL d   1      -1.114  -3.009   3.189  0.00  0.00    -0.004 A 
ATOM      5  C6  UNL d   1      -0.955  -4.395   3.086  0.00  0.00    -0.075 A 
ATOM      6  C7  UNL d   1      -1.422  -5.309   4.181  0.00  0.00     0.076 C 
ATOM      7  C8  UNL d   1      -0.359  -4.930   1.936  0.00  0.00     0.001 A 
ENDROOT
BRANCH   1   8
ATOM      8  C1  UNL d   1       0.722  -4.685  -0.333  0.00  0.00     0.053 C 
ATOM      9  C   UNL d   1      -0.298  -5.027  -1.408  0.00  0.00     0.018 C 
ENDBRANCH   1   8
TORSDOF 1
ENDMDL
