MODEL 1
REMARK minimizedAffinity 10.1145201
REMARK minimizedRMSD -1
REMARK  1 active torsions:
REMARK  status: ('A' for Active; 'I' for Inactive)
REMARK    1  A    between atoms: C1_2  and  C2_3 
ROOT
ATOM      1  C2  UNL d   1       1.973   2.451   1.201  0.00  0.00    -0.073 A 
ATOM      2  C3  UNL d   1       2.247   1.702   0.051  0.00  0.00    -0.002 A 
ATOM      3  C4  UNL d   1       2.679   0.380   0.157  0.00  0.00     0.004 A 
ATOM      4  C5  UNL d   1       2.834  -0.210   1.411  0.00  0.00    -0.004 A 
ATOM      5  C6  UNL d   1       2.554   0.518   2.572  0.00  0.00    -0.075 A 
ATOM      6  C7  UNL d   1       2.718  -0.101   3.929  0.00  0.00     0.076 C 
ATOM      7  C8  UNL d   1       2.123   1.847   2.458  0.00  0.00     0.001 A 
ENDROOT
BRANCH   1   8
ATOM      8  C1  UNL d   1       1.501   3.877   1.092  0.00  0.00     0.053 C 
ATOM      9  C   UNL d   1       2.646   4.837   0.811  0.00  0.00     0.018 C 
ENDBRANCH   1   8
TORSDOF 1
ENDMDL
