MODEL 1
REMARK minimizedAffinity 10.4301329
REMARK minimizedRMSD -1
REMARK  1 active torsions:
REMARK  status: ('A' for Active; 'I' for Inactive)
REMARK    1  A    between atoms: C1_2  and  C2_3 
ROOT
ATOM      1  C2  UNL d   1       1.601   1.513   2.131  0.00  0.00    -0.073 A 
ATOM      2  C3  UNL d   1       2.068   2.651   1.463  0.00  0.00    -0.002 A 
ATOM      3  C4  UNL d   1       1.182   3.661   1.087  0.00  0.00     0.004 A 
ATOM      4  C5  UNL d   1      -0.177   3.548   1.380  0.00  0.00    -0.004 A 
ATOM      5  C6  UNL d   1      -0.661   2.424   2.058  0.00  0.00    -0.075 A 
ATOM      6  C7  UNL d   1      -2.120   2.286   2.378  0.00  0.00     0.076 C 
ATOM      7  C8  UNL d   1       0.235   1.412   2.430  0.00  0.00     0.001 A 
ENDROOT
BRANCH   1   8
ATOM      8  C1  UNL d   1       2.555   0.423   2.545  0.00  0.00     0.053 C 
ATOM      9  C   UNL d   1       2.873   0.477   4.031  0.00  0.00     0.018 C 
ENDBRANCH   1   8
TORSDOF 1
ENDMDL
