MODEL 1
REMARK minimizedAffinity 11.4250498
REMARK minimizedRMSD -1
REMARK  1 active torsions:
REMARK  status: ('A' for Active; 'I' for Inactive)
REMARK    1  A    between atoms: C1_2  and  C2_3 
ROOT
ATOM      1  C2  UNL d   1       1.386   1.459   2.722  0.00  0.00    -0.073 A 
ATOM      2  C3  UNL d   1       2.171   1.994   1.694  0.00  0.00    -0.002 A 
ATOM      3  C4  UNL d   1       1.644   2.960   0.835  0.00  0.00     0.004 A 
ATOM      4  C5  UNL d   1       0.332   3.404   0.999  0.00  0.00    -0.004 A 
ATOM      5  C6  UNL d   1      -0.464   2.890   2.027  0.00  0.00    -0.075 A 
ATOM      6  C7  UNL d   1      -1.878   3.356   2.215  0.00  0.00     0.076 C 
ATOM      7  C8  UNL d   1       0.071   1.918   2.884  0.00  0.00     0.001 A 
ENDROOT
BRANCH   1   8
ATOM      8  C1  UNL d   1       1.953   0.421   3.656  0.00  0.00     0.053 C 
ATOM      9  C   UNL d   1       3.442   0.209   3.437  0.00  0.00     0.018 C 
ENDBRANCH   1   8
TORSDOF 1
ENDMDL
