MODEL 1
REMARK minimizedAffinity -5.40825272
REMARK minimizedRMSD -1
REMARK  1 active torsions:
REMARK  status: ('A' for Active; 'I' for Inactive)
REMARK    1  A    between atoms: C1_2  and  C2_3 
ROOT
ATOM      1  C2  UNL d   1      -0.067   0.008   0.215  0.00  0.00    -0.077 A 
ATOM      2  C3  UNL d   1       1.311   0.183   0.024  0.00  0.00     0.002 A 
ATOM      3  C4  UNL d   1       2.184  -0.900   0.141  0.00  0.00     0.002 A 
ATOM      4  C5  UNL d   1       1.688  -2.166   0.445  0.00  0.00    -0.004 A 
ATOM      5  C6  UNL d   1       0.320  -2.350   0.639  0.00  0.00     0.002 A 
ATOM      6  C7  UNL d   1      -0.554  -1.269   0.523  0.00  0.00     0.002 A 
ENDROOT
BRANCH   1   7
ATOM      7  C1  UNL d   1      -1.015   1.165   0.041  0.00  0.00     0.055 C 
ATOM      8  C   UNL d   1      -1.598   1.197  -1.365  0.00  0.00     0.019 C 
ENDBRANCH   1   7
TORSDOF 1
ENDMDL
