MODEL 1
REMARK minimizedAffinity -5.042377
REMARK minimizedRMSD -1
REMARK  1 active torsions:
REMARK  status: ('A' for Active; 'I' for Inactive)
REMARK    1  A    between atoms: C1_2  and  C2_3 
ROOT
ATOM      1  C2  UNL d   1      -0.245   0.255  -0.048  0.00  0.00    -0.077 A 
ATOM      2  C3  UNL d   1       0.979   0.861  -0.368  0.00  0.00     0.002 A 
ATOM      3  C4  UNL d   1       2.179   0.178  -0.164  0.00  0.00     0.002 A 
ATOM      4  C5  UNL d   1       2.168  -1.115   0.357  0.00  0.00    -0.004 A 
ATOM      5  C6  UNL d   1       0.956  -1.724   0.680  0.00  0.00     0.002 A 
ATOM      6  C7  UNL d   1      -0.244  -1.043   0.478  0.00  0.00     0.002 A 
ENDROOT
BRANCH   1   7
ATOM      7  C1  UNL d   1      -1.543   0.971  -0.313  0.00  0.00     0.055 C 
ATOM      8  C   UNL d   1      -1.861   1.009  -1.801  0.00  0.00     0.019 C 
ENDBRANCH   1   7
TORSDOF 1
ENDMDL
