MODEL 1
REMARK minimizedAffinity -4.04606628
REMARK minimizedRMSD -1
REMARK  1 active torsions:
REMARK  status: ('A' for Active; 'I' for Inactive)
REMARK    1  A    between atoms: C1_2  and  C2_3 
ROOT
ATOM      1  C2  UNL d   1      -0.025   0.047   0.159  0.00  0.00    -0.077 A 
ATOM      2  C3  UNL d   1      -0.657  -1.204   0.178  0.00  0.00     0.002 A 
ATOM      3  C4  UNL d   1       0.064  -2.355   0.502  0.00  0.00     0.002 A 
ATOM      4  C5  UNL d   1       1.419  -2.266   0.812  0.00  0.00    -0.004 A 
ATOM      5  C6  UNL d   1       2.057  -1.026   0.794  0.00  0.00     0.002 A 
ATOM      6  C7  UNL d   1       1.338   0.125   0.470  0.00  0.00     0.002 A 
ENDROOT
BRANCH   1   7
ATOM      7  C1  UNL d   1      -0.812   1.296  -0.142  0.00  0.00     0.055 C 
ATOM      8  C   UNL d   1      -1.559   1.175  -1.462  0.00  0.00     0.019 C 
ENDBRANCH   1   7
TORSDOF 1
ENDMDL
