MODEL 1
REMARK minimizedAffinity -5.69817924
REMARK minimizedRMSD -1
REMARK  1 active torsions:
REMARK  status: ('A' for Active; 'I' for Inactive)
REMARK    1  A    between atoms: C1_2  and  C2_3 
ROOT
ATOM      1  C2  UNL d   1      -0.538   0.446  -0.026  0.00  0.00    -0.077 A 
ATOM      2  C3  UNL d   1       0.454  -0.364  -0.595  0.00  0.00     0.002 A 
ATOM      3  C4  UNL d   1       0.829  -1.560   0.020  0.00  0.00     0.002 A 
ATOM      4  C5  UNL d   1       0.214  -1.957   1.206  0.00  0.00    -0.004 A 
ATOM      5  C6  UNL d   1      -0.772  -1.157   1.781  0.00  0.00     0.002 A 
ATOM      6  C7  UNL d   1      -1.147   0.039   1.168  0.00  0.00     0.002 A 
ENDROOT
BRANCH   1   7
ATOM      7  C1  UNL d   1      -0.979   1.712  -0.714  0.00  0.00     0.055 C 
ATOM      8  C   UNL d   1      -1.832   1.409  -1.937  0.00  0.00     0.019 C 
ENDBRANCH   1   7
TORSDOF 1
ENDMDL
