MODEL 1
REMARK minimizedAffinity -5.02371025
REMARK minimizedRMSD -1
REMARK  1 active torsions:
REMARK  status: ('A' for Active; 'I' for Inactive)
REMARK    1  A    between atoms: C1_2  and  C2_3 
ROOT
ATOM      1  C2  UNL d   1       1.260  -0.932   0.357  0.00  0.00    -0.077 A 
ATOM      2  C3  UNL d   1      -0.077  -0.681   0.697  0.00  0.00     0.002 A 
ATOM      3  C4  UNL d   1      -0.741   0.431   0.177  0.00  0.00     0.002 A 
ATOM      4  C5  UNL d   1      -0.079   1.299  -0.689  0.00  0.00    -0.004 A 
ATOM      5  C6  UNL d   1       1.251   1.059  -1.032  0.00  0.00     0.002 A 
ATOM      6  C7  UNL d   1       1.917  -0.051  -0.512  0.00  0.00     0.002 A 
ENDROOT
BRANCH   1   7
ATOM      7  C1  UNL d   1       1.963  -2.158   0.877  0.00  0.00     0.055 C 
ATOM      8  C   UNL d   1       1.073  -3.388   0.784  0.00  0.00     0.019 C 
ENDBRANCH   1   7
TORSDOF 1
ENDMDL
