MODEL 1
REMARK minimizedAffinity -4.69380665
REMARK minimizedRMSD -1
REMARK  1 active torsions:
REMARK  status: ('A' for Active; 'I' for Inactive)
REMARK    1  A    between atoms: C1_2  and  C2_3 
ROOT
ATOM      1  C2  UNL d   1      -0.241   0.498   0.036  0.00  0.00    -0.077 A 
ATOM      2  C3  UNL d   1      -0.555  -0.779   0.524  0.00  0.00     0.002 A 
ATOM      3  C4  UNL d   1       0.447  -1.738   0.686  0.00  0.00     0.002 A 
ATOM      4  C5  UNL d   1       1.768  -1.430   0.368  0.00  0.00    -0.004 A 
ATOM      5  C6  UNL d   1       2.089  -0.164  -0.119  0.00  0.00     0.002 A 
ATOM      6  C7  UNL d   1       1.090   0.796  -0.283  0.00  0.00     0.002 A 
ENDROOT
BRANCH   1   7
ATOM      7  C1  UNL d   1      -1.311   1.550  -0.093  0.00  0.00     0.055 C 
ATOM      8  C   UNL d   1      -1.764   1.703  -1.538  0.00  0.00     0.019 C 
ENDBRANCH   1   7
TORSDOF 1
ENDMDL
