MODEL 1
REMARK minimizedAffinity -4.55420637
REMARK minimizedRMSD -1
REMARK  1 active torsions:
REMARK  status: ('A' for Active; 'I' for Inactive)
REMARK    1  A    between atoms: C1_2  and  C2_3 
ROOT
ATOM      1  C2  UNL d   1      -0.054   0.188  -0.057  0.00  0.00    -0.077 A 
ATOM      2  C3  UNL d   1      -0.670  -0.825   0.691  0.00  0.00     0.002 A 
ATOM      3  C4  UNL d   1       0.017  -2.005   0.982  0.00  0.00     0.002 A 
ATOM      4  C5  UNL d   1       1.324  -2.181   0.534  0.00  0.00    -0.004 A 
ATOM      5  C6  UNL d   1       1.945  -1.180  -0.212  0.00  0.00     0.002 A 
ATOM      6  C7  UNL d   1       1.260  -0.001  -0.505  0.00  0.00     0.002 A 
ENDROOT
BRANCH   1   7
ATOM      7  C1  UNL d   1      -0.775   1.482  -0.330  0.00  0.00     0.055 C 
ATOM      8  C   UNL d   1      -1.656   1.374  -1.566  0.00  0.00     0.019 C 
ENDBRANCH   1   7
TORSDOF 1
ENDMDL
