MODEL 1
REMARK minimizedAffinity -4.39783812
REMARK minimizedRMSD -1
REMARK  1 active torsions:
REMARK  status: ('A' for Active; 'I' for Inactive)
REMARK    1  A    between atoms: C1_2  and  C2_3 
ROOT
ATOM      1  C2  UNL d   1       1.120  -0.868   0.128  0.00  0.00    -0.077 A 
ATOM      2  C3  UNL d   1       1.435   0.221  -0.696  0.00  0.00     0.002 A 
ATOM      3  C4  UNL d   1       0.493   1.224  -0.933  0.00  0.00     0.002 A 
ATOM      4  C5  UNL d   1      -0.768   1.150  -0.346  0.00  0.00    -0.004 A 
ATOM      5  C6  UNL d   1      -1.093   0.070   0.474  0.00  0.00     0.002 A 
ATOM      6  C7  UNL d   1      -0.152  -0.934   0.711  0.00  0.00     0.002 A 
ENDROOT
BRANCH   1   7
ATOM      7  C1  UNL d   1       2.151  -1.925   0.425  0.00  0.00     0.055 C 
ATOM      8  C   UNL d   1       1.515  -3.162   1.042  0.00  0.00     0.019 C 
ENDBRANCH   1   7
TORSDOF 1
ENDMDL
