MODEL 1
REMARK minimizedAffinity -5.94987535
REMARK minimizedRMSD -1
REMARK  1 active torsions:
REMARK  status: ('A' for Active; 'I' for Inactive)
REMARK    1  A    between atoms: C1_2  and  C2_3 
ROOT
ATOM      1  C2  UNL d   1      -0.239   0.045  -0.100  0.00  0.00    -0.077 A 
ATOM      2  C3  UNL d   1       1.046  -0.069  -0.648  0.00  0.00     0.002 A 
ATOM      3  C4  UNL d   1       1.821  -1.204  -0.402  0.00  0.00     0.002 A 
ATOM      4  C5  UNL d   1       1.318  -2.235   0.388  0.00  0.00    -0.004 A 
ATOM      5  C6  UNL d   1       0.042  -2.131   0.939  0.00  0.00     0.002 A 
ATOM      6  C7  UNL d   1      -0.734  -0.997   0.696  0.00  0.00     0.002 A 
ENDROOT
BRANCH   1   7
ATOM      7  C1  UNL d   1      -1.095   1.246  -0.404  0.00  0.00     0.055 C 
ATOM      8  C   UNL d   1      -1.874   1.057  -1.698  0.00  0.00     0.019 C 
ENDBRANCH   1   7
TORSDOF 1
ENDMDL
