MODEL 1
REMARK minimizedAffinity -4.85508108
REMARK minimizedRMSD -1
REMARK  1 active torsions:
REMARK  status: ('A' for Active; 'I' for Inactive)
REMARK    1  A    between atoms: C1_2  and  C2_3 
ROOT
ATOM      1  C2  UNL d   1       0.072  -1.338   0.646  0.00  0.00    -0.077 A 
ATOM      2  C3  UNL d   1       0.355  -0.334  -0.290  0.00  0.00     0.002 A 
ATOM      3  C4  UNL d   1      -0.287   0.904  -0.214  0.00  0.00     0.002 A 
ATOM      4  C5  UNL d   1      -1.212   1.150   0.799  0.00  0.00    -0.004 A 
ATOM      5  C6  UNL d   1      -1.502   0.157   1.733  0.00  0.00     0.002 A 
ATOM      6  C7  UNL d   1      -0.862  -1.081   1.658  0.00  0.00     0.002 A 
ENDROOT
BRANCH   1   7
ATOM      7  C1  UNL d   1       0.799  -2.657   0.595  0.00  0.00     0.055 C 
ATOM      8  C   UNL d   1       2.173  -2.556   1.241  0.00  0.00     0.019 C 
ENDBRANCH   1   7
TORSDOF 1
ENDMDL
