MODEL 1
REMARK minimizedAffinity -1.09650576
REMARK minimizedRMSD -1
REMARK  1 active torsions:
REMARK  status: ('A' for Active; 'I' for Inactive)
REMARK    1  A    between atoms: C1_2  and  C2_3 
ROOT
ATOM      1  C2  UNL d   1       1.169  -0.921   1.095  0.00  0.00    -0.077 A 
ATOM      2  C3  UNL d   1       1.236  -0.110  -0.047  0.00  0.00     0.002 A 
ATOM      3  C4  UNL d   1       0.152   0.691  -0.409  0.00  0.00     0.002 A 
ATOM      4  C5  UNL d   1      -1.006   0.692   0.367  0.00  0.00    -0.004 A 
ATOM      5  C6  UNL d   1      -1.083  -0.113   1.503  0.00  0.00     0.002 A 
ATOM      6  C7  UNL d   1      -0.001  -0.915   1.866  0.00  0.00     0.002 A 
ENDROOT
BRANCH   1   7
ATOM      7  C1  UNL d   1       2.356  -1.749   1.515  0.00  0.00     0.055 C 
ATOM      8  C   UNL d   1       1.982  -3.216   1.666  0.00  0.00     0.019 C 
ENDBRANCH   1   7
TORSDOF 1
ENDMDL
