MODEL 1
REMARK minimizedAffinity -4.46301985
REMARK minimizedRMSD -1
REMARK  1 active torsions:
REMARK  status: ('A' for Active; 'I' for Inactive)
REMARK    1  A    between atoms: C1_2  and  C2_3 
ROOT
ATOM      1  C2  UNL d   1      -0.094   0.194  -0.335  0.00  0.00    -0.077 A 
ATOM      2  C3  UNL d   1      -0.498  -0.735   0.634  0.00  0.00     0.002 A 
ATOM      3  C4  UNL d   1       0.372  -1.744   1.050  0.00  0.00     0.002 A 
ATOM      4  C5  UNL d   1       1.652  -1.832   0.505  0.00  0.00    -0.004 A 
ATOM      5  C6  UNL d   1       2.062  -0.914  -0.461  0.00  0.00     0.002 A 
ATOM      6  C7  UNL d   1       1.193   0.095  -0.879  0.00  0.00     0.002 A 
ENDROOT
BRANCH   1   7
ATOM      7  C1  UNL d   1      -1.014   1.314  -0.749  0.00  0.00     0.055 C 
ATOM      8  C   UNL d   1      -1.665   1.027  -2.094  0.00  0.00     0.019 C 
ENDBRANCH   1   7
TORSDOF 1
ENDMDL
