MODEL 1
REMARK minimizedAffinity -3.09807754
REMARK minimizedRMSD -1
REMARK  1 active torsions:
REMARK  status: ('A' for Active; 'I' for Inactive)
REMARK    1  A    between atoms: C1_2  and  C2_3 
ROOT
ATOM      1  C2  UNL d   1      -0.103   0.144  -0.043  0.00  0.00    -0.077 A 
ATOM      2  C3  UNL d   1       1.273   0.408   0.002  0.00  0.00     0.002 A 
ATOM      3  C4  UNL d   1       2.181  -0.620   0.259  0.00  0.00     0.002 A 
ATOM      4  C5  UNL d   1       1.724  -1.919   0.469  0.00  0.00    -0.004 A 
ATOM      5  C6  UNL d   1       0.357  -2.192   0.429  0.00  0.00     0.002 A 
ATOM      6  C7  UNL d   1      -0.552  -1.165   0.174  0.00  0.00     0.002 A 
ENDROOT
BRANCH   1   7
ATOM      7  C1  UNL d   1      -1.081   1.243  -0.369  0.00  0.00     0.055 C 
ATOM      8  C   UNL d   1      -1.856   0.935  -1.642  0.00  0.00     0.019 C 
ENDBRANCH   1   7
TORSDOF 1
ENDMDL
