MODEL 1
REMARK minimizedAffinity -3.15922713
REMARK minimizedRMSD -1
REMARK  1 active torsions:
REMARK  status: ('A' for Active; 'I' for Inactive)
REMARK    1  A    between atoms: C1_2  and  C2_3 
ROOT
ATOM      1  C2  UNL d   1      -0.413   0.780  -0.494  0.00  0.00    -0.077 A 
ATOM      2  C3  UNL d   1       0.886   0.500  -0.941  0.00  0.00     0.002 A 
ATOM      3  C4  UNL d   1       1.609  -0.561  -0.392  0.00  0.00     0.002 A 
ATOM      4  C5  UNL d   1       1.039  -1.353   0.603  0.00  0.00    -0.004 A 
ATOM      5  C6  UNL d   1      -0.251  -1.082   1.055  0.00  0.00     0.002 A 
ATOM      6  C7  UNL d   1      -0.975  -0.021   0.509  0.00  0.00     0.002 A 
ENDROOT
BRANCH   1   7
ATOM      7  C1  UNL d   1      -1.212   1.893  -1.119  0.00  0.00     0.055 C 
ATOM      8  C   UNL d   1      -1.880   1.438  -2.409  0.00  0.00     0.019 C 
ENDBRANCH   1   7
TORSDOF 1
ENDMDL
