MODEL 1
REMARK minimizedAffinity -1.74438131
REMARK minimizedRMSD -1
REMARK  0 active torsions:
REMARK  status: ('A' for Active; 'I' for Inactive)
ROOT
ATOM      1  C4' PXY d   1      -5.698   1.864  -1.504  0.00  0.00     0.077 C 
ATOM      2  C1' PXY d   1      -5.840   5.497  -5.998  0.00  0.00     0.077 C 
ATOM      3  C1  PXY d   1      -5.795   4.553  -4.813  0.00  0.00    -0.082 A 
ATOM      4  C2  PXY d   1      -5.999   3.259  -5.000  0.00  0.00     0.003 A 
ATOM      5  C3  PXY d   1      -5.994   2.395  -3.935  0.00  0.00     0.003 A 
ATOM      6  C4  PXY d   1      -5.725   2.853  -2.673  0.00  0.00    -0.082 A 
ATOM      7  C5  PXY d   1      -5.506   4.170  -2.476  0.00  0.00     0.003 A 
ATOM      8  C6  PXY d   1      -5.556   5.036  -3.564  0.00  0.00     0.003 A 
ENDROOT
TORSDOF 0
ENDMDL
