MODEL 1
REMARK minimizedAffinity -4.01563263
REMARK minimizedRMSD -1
REMARK  0 active torsions:
REMARK  status: ('A' for Active; 'I' for Inactive)
ROOT
ATOM      1  C4' PXY d   1      -6.000   5.629  -6.000  0.00  0.00     0.077 C 
ATOM      2  C1' PXY d   1      -4.063   2.340  -1.659  0.00  0.00     0.077 C 
ATOM      3  C1  PXY d   1      -4.560   3.200  -2.804  0.00  0.00    -0.082 A 
ATOM      4  C2  PXY d   1      -5.436   4.163  -2.567  0.00  0.00     0.003 A 
ATOM      5  C3  PXY d   1      -5.921   4.929  -3.596  0.00  0.00     0.003 A 
ATOM      6  C4  PXY d   1      -5.463   4.743  -4.873  0.00  0.00    -0.082 A 
ATOM      7  C5  PXY d   1      -4.561   3.770  -5.121  0.00  0.00     0.003 A 
ATOM      8  C6  PXY d   1      -4.113   2.976  -4.069  0.00  0.00     0.003 A 
ENDROOT
TORSDOF 0
ENDMDL
