MODEL 1
REMARK minimizedAffinity -2.21463346
REMARK minimizedRMSD -1
REMARK  0 active torsions:
REMARK  status: ('A' for Active; 'I' for Inactive)
ROOT
ATOM      1  C4' PXY d   1      -3.757   4.875  -6.000  0.00  0.00     0.077 C 
ATOM      2  C1' PXY d   1      -5.998   2.170  -1.409  0.00  0.00     0.077 C 
ATOM      3  C1  PXY d   1      -5.422   2.885  -2.615  0.00  0.00    -0.082 A 
ATOM      4  C2  PXY d   1      -4.351   2.393  -3.217  0.00  0.00     0.003 A 
ATOM      5  C3  PXY d   1      -3.798   3.045  -4.289  0.00  0.00     0.003 A 
ATOM      6  C4  PXY d   1      -4.378   4.182  -4.784  0.00  0.00    -0.082 A 
ATOM      7  C5  PXY d   1      -5.478   4.683  -4.183  0.00  0.00     0.003 A 
ATOM      8  C6  PXY d   1      -6.000   4.030  -3.070  0.00  0.00     0.003 A 
ENDROOT
TORSDOF 0
ENDMDL
