MODEL 1
REMARK minimizedAffinity 3.35094905
REMARK minimizedRMSD -1
REMARK  0 active torsions:
REMARK  status: ('A' for Active; 'I' for Inactive)
ROOT
ATOM      1  C4' PXY d   1      -0.050  -5.872  -1.386  0.00  0.00     0.077 C 
ATOM      2  C1' PXY d   1       0.648  -0.150  -0.966  0.00  0.00     0.077 C 
ATOM      3  C1  PXY d   1       0.452  -1.649  -1.078  0.00  0.00    -0.082 A 
ATOM      4  C2  PXY d   1       1.345  -2.466  -0.544  0.00  0.00     0.003 A 
ATOM      5  C3  PXY d   1       1.200  -3.825  -0.663  0.00  0.00     0.003 A 
ATOM      6  C4  PXY d   1       0.102  -4.352  -1.289  0.00  0.00    -0.082 A 
ATOM      7  C5  PXY d   1      -0.819  -3.524  -1.827  0.00  0.00     0.003 A 
ATOM      8  C6  PXY d   1      -0.632  -2.148  -1.731  0.00  0.00     0.003 A 
ENDROOT
TORSDOF 0
ENDMDL
