MODEL 1
REMARK minimizedAffinity -3.51715207
REMARK minimizedRMSD -1
REMARK  0 active torsions:
REMARK  status: ('A' for Active; 'I' for Inactive)
ROOT
ATOM      1  C4' PXY d   1      -5.503   5.969  -5.297  0.00  0.00     0.077 C 
ATOM      2  C1' PXY d   1      -5.438   2.107  -0.997  0.00  0.00     0.077 C 
ATOM      3  C1  PXY d   1      -5.455   3.130  -2.116  0.00  0.00    -0.082 A 
ATOM      4  C2  PXY d   1      -5.998   2.816  -3.281  0.00  0.00     0.003 A 
ATOM      5  C3  PXY d   1      -5.993   3.717  -4.314  0.00  0.00     0.003 A 
ATOM      6  C4  PXY d   1      -5.473   4.972  -4.136  0.00  0.00    -0.082 A 
ATOM      7  C5  PXY d   1      -4.926   5.303  -2.947  0.00  0.00     0.003 A 
ATOM      8  C6  PXY d   1      -4.905   4.359  -1.924  0.00  0.00     0.003 A 
ENDROOT
TORSDOF 0
ENDMDL
