MODEL 1
REMARK minimizedAffinity -1.84494674
REMARK minimizedRMSD -1
REMARK  0 active torsions:
REMARK  status: ('A' for Active; 'I' for Inactive)
ROOT
ATOM      1  C4' PXY d   1      -6.000  -0.548  -5.245  0.00  0.00     0.077 C 
ATOM      2  C1' PXY d   1      -3.386   4.538  -4.396  0.00  0.00     0.077 C 
ATOM      3  C1  PXY d   1      -4.065   3.203  -4.629  0.00  0.00    -0.082 A 
ATOM      4  C2  PXY d   1      -5.250   2.967  -4.089  0.00  0.00     0.003 A 
ATOM      5  C3  PXY d   1      -5.863   1.754  -4.264  0.00  0.00     0.003 A 
ATOM      6  C4  PXY d   1      -5.282   0.790  -5.044  0.00  0.00    -0.082 A 
ATOM      7  C5  PXY d   1      -4.078   1.026  -5.607  0.00  0.00     0.003 A 
ATOM      8  C6  PXY d   1      -3.453   2.249  -5.383  0.00  0.00     0.003 A 
ENDROOT
TORSDOF 0
ENDMDL
