MODEL 1
REMARK minimizedAffinity -3.551754
REMARK minimizedRMSD -1
REMARK  0 active torsions:
REMARK  status: ('A' for Active; 'I' for Inactive)
ROOT
ATOM      1  C4' PXY d   1      -6.000   5.298  -4.155  0.00  0.00     0.077 C 
ATOM      2  C1' PXY d   1      -3.492   0.199  -5.215  0.00  0.00     0.077 C 
ATOM      3  C1  PXY d   1      -4.160   1.530  -4.933  0.00  0.00    -0.082 A 
ATOM      4  C2  PXY d   1      -3.742   2.618  -5.560  0.00  0.00     0.003 A 
ATOM      5  C3  PXY d   1      -4.315   3.835  -5.293  0.00  0.00     0.003 A 
ATOM      6  C4  PXY d   1      -5.361   3.931  -4.415  0.00  0.00    -0.082 A 
ATOM      7  C5  PXY d   1      -5.800   2.825  -3.779  0.00  0.00     0.003 A 
ATOM      8  C6  PXY d   1      -5.178   1.605  -4.033  0.00  0.00     0.003 A 
ENDROOT
TORSDOF 0
ENDMDL
