MODEL 1
REMARK minimizedAffinity -3.43585515
REMARK minimizedRMSD -1
REMARK  0 active torsions:
REMARK  status: ('A' for Active; 'I' for Inactive)
ROOT
ATOM      1  N1  IND d   1      -5.646   3.612   2.271  0.00  0.00    -0.196 N 
ATOM      2  C2  IND d   1      -5.604   4.756   1.523  0.00  0.00     0.054 A 
ATOM      3  C3  IND d   1      -5.719   5.843   2.319  0.00  0.00    -0.031 A 
ATOM      4  C4  IND d   1      -5.886   5.982   4.884  0.00  0.00     0.051 A 
ATOM      5  C5  IND d   1      -6.000   5.201   6.000  0.00  0.00    -0.031 A 
ATOM      6  C6  IND d   1      -5.999   3.823   5.929  0.00  0.00     0.015 A 
ATOM      7  C7  IND d   1      -5.872   3.171   4.735  0.00  0.00    -0.016 A 
ATOM      8  C8  IND d   1      -5.763   3.961   3.599  0.00  0.00    -0.047 A 
ATOM      9  C9  IND d   1      -5.806   5.360   3.660  0.00  0.00    -0.096 A 
ATOM     10  HN1 IND d   1      -5.607   2.810   1.964  0.00  0.00     0.298 HD
ENDROOT
TORSDOF 0
ENDMDL
