MODEL 1
REMARK minimizedAffinity -0.892084479
REMARK minimizedRMSD -1
REMARK  0 active torsions:
REMARK  status: ('A' for Active; 'I' for Inactive)
ROOT
ATOM      1  N1  IND d   1      -5.594   3.916   2.042  0.00  0.00    -0.196 N 
ATOM      2  C2  IND d   1      -5.997   5.222   2.072  0.00  0.00     0.054 A 
ATOM      3  C3  IND d   1      -6.000   5.685   3.343  0.00  0.00    -0.031 A 
ATOM      4  C4  IND d   1      -5.283   4.504   5.515  0.00  0.00     0.051 A 
ATOM      5  C5  IND d   1      -4.875   3.292   5.998  0.00  0.00    -0.031 A 
ATOM      6  C6  IND d   1      -4.680   2.205   5.170  0.00  0.00     0.015 A 
ATOM      7  C7  IND d   1      -4.875   2.293   3.821  0.00  0.00    -0.016 A 
ATOM      8  C8  IND d   1      -5.295   3.520   3.328  0.00  0.00    -0.047 A 
ATOM      9  C9  IND d   1      -5.536   4.615   4.168  0.00  0.00    -0.096 A 
ATOM     10  HN1 IND d   1      -5.537   3.425   1.339  0.00  0.00     0.298 HD
ENDROOT
TORSDOF 0
ENDMDL
