MODEL 1
REMARK minimizedAffinity 12.1146355
REMARK minimizedRMSD -1
REMARK  0 active torsions:
REMARK  status: ('A' for Active; 'I' for Inactive)
ROOT
ATOM      1  N1  IND d   1       0.814  -1.095   0.675  0.00  0.00    -0.196 N 
ATOM      2  C2  IND d   1       0.969  -0.662   1.962  0.00  0.00     0.054 A 
ATOM      3  C3  IND d   1      -0.224  -0.302   2.485  0.00  0.00    -0.031 A 
ATOM      4  C4  IND d   1      -2.574  -0.439   1.442  0.00  0.00     0.051 A 
ATOM      5  C5  IND d   1      -3.219  -0.736   0.274  0.00  0.00    -0.031 A 
ATOM      6  C6  IND d   1      -2.539  -1.179  -0.842  0.00  0.00     0.015 A 
ATOM      7  C7  IND d   1      -1.184  -1.354  -0.827  0.00  0.00    -0.016 A 
ATOM      8  C8  IND d   1      -0.525  -1.047   0.355  0.00  0.00    -0.047 A 
ATOM      9  C9  IND d   1      -1.205  -0.556   1.477  0.00  0.00    -0.096 A 
ATOM     10  HN1 IND d   1       1.446  -1.355   0.153  0.00  0.00     0.298 HD
ENDROOT
TORSDOF 0
ENDMDL
