MODEL 1
REMARK minimizedAffinity -2.19416571
REMARK minimizedRMSD -1
REMARK  0 active torsions:
REMARK  status: ('A' for Active; 'I' for Inactive)
ROOT
ATOM      1  N1  IND d   1      -5.819   3.948   3.111  0.00  0.00    -0.196 N 
ATOM      2  C2  IND d   1      -5.075   4.434   2.072  0.00  0.00     0.054 A 
ATOM      3  C3  IND d   1      -3.757   4.255   2.314  0.00  0.00    -0.031 A 
ATOM      4  C4  IND d   1      -2.600   3.097   4.301  0.00  0.00     0.051 A 
ATOM      5  C5  IND d   1      -2.860   2.527   5.515  0.00  0.00    -0.031 A 
ATOM      6  C6  IND d   1      -4.146   2.396   5.999  0.00  0.00     0.015 A 
ATOM      7  C7  IND d   1      -5.225   2.822   5.278  0.00  0.00    -0.016 A 
ATOM      8  C8  IND d   1      -4.965   3.408   4.048  0.00  0.00    -0.047 A 
ATOM      9  C9  IND d   1      -3.659   3.582   3.570  0.00  0.00    -0.096 A 
ATOM     10  HN1 IND d   1      -6.677   3.975   3.170  0.00  0.00     0.298 HD
ENDROOT
TORSDOF 0
ENDMDL
