MODEL 1
REMARK minimizedAffinity -3.72756577
REMARK minimizedRMSD -1
REMARK  0 active torsions:
REMARK  status: ('A' for Active; 'I' for Inactive)
ROOT
ATOM      1  N1  IND d   1      -5.809   2.250   4.724  0.00  0.00    -0.196 N 
ATOM      2  C2  IND d   1      -5.627   2.705   6.000  0.00  0.00     0.054 A 
ATOM      3  C3  IND d   1      -5.267   4.008   5.988  0.00  0.00    -0.031 A 
ATOM      4  C4  IND d   1      -5.016   5.618   3.995  0.00  0.00     0.051 A 
ATOM      5  C5  IND d   1      -5.043   5.653   2.629  0.00  0.00    -0.031 A 
ATOM      6  C6  IND d   1      -5.336   4.534   1.877  0.00  0.00     0.015 A 
ATOM      7  C7  IND d   1      -5.624   3.335   2.465  0.00  0.00    -0.016 A 
ATOM      8  C8  IND d   1      -5.590   3.294   3.851  0.00  0.00    -0.047 A 
ATOM      9  C9  IND d   1      -5.253   4.416   4.619  0.00  0.00    -0.096 A 
ATOM     10  HN1 IND d   1      -6.023   1.447   4.503  0.00  0.00     0.298 HD
ENDROOT
TORSDOF 0
ENDMDL
