MODEL 1
REMARK minimizedAffinity -3.35442162
REMARK minimizedRMSD -1
REMARK  0 active torsions:
REMARK  status: ('A' for Active; 'I' for Inactive)
ROOT
ATOM      1  N1  IND d   1      -5.623   2.624   4.769  0.00  0.00    -0.196 N 
ATOM      2  C2  IND d   1      -5.916   3.199   5.975  0.00  0.00     0.054 A 
ATOM      3  C3  IND d   1      -6.000   4.542   5.846  0.00  0.00    -0.031 A 
ATOM      4  C4  IND d   1      -5.794   6.000   3.734  0.00  0.00     0.051 A 
ATOM      5  C5  IND d   1      -5.495   5.931   2.403  0.00  0.00    -0.031 A 
ATOM      6  C6  IND d   1      -5.220   4.731   1.779  0.00  0.00     0.015 A 
ATOM      7  C7  IND d   1      -5.245   3.549   2.464  0.00  0.00    -0.016 A 
ATOM      8  C8  IND d   1      -5.542   3.617   3.818  0.00  0.00    -0.047 A 
ATOM      9  C9  IND d   1      -5.780   4.836   4.466  0.00  0.00    -0.096 A 
ATOM     10  HN1 IND d   1      -5.508   1.783   4.629  0.00  0.00     0.298 HD
ENDROOT
TORSDOF 0
ENDMDL
