MODEL 1
REMARK minimizedAffinity -2.99986959
REMARK minimizedRMSD -1
REMARK  0 active torsions:
REMARK  status: ('A' for Active; 'I' for Inactive)
ROOT
ATOM      1  N1  IND d   1      -5.895   3.755   2.389  0.00  0.00    -0.196 N 
ATOM      2  C2  IND d   1      -5.997   4.927   1.692  0.00  0.00     0.054 A 
ATOM      3  C3  IND d   1      -5.682   5.975   2.486  0.00  0.00    -0.031 A 
ATOM      4  C4  IND d   1      -4.875   5.991   4.930  0.00  0.00     0.051 A 
ATOM      5  C5  IND d   1      -4.661   5.167   5.999  0.00  0.00    -0.031 A 
ATOM      6  C6  IND d   1      -4.848   3.802   5.917  0.00  0.00     0.015 A 
ATOM      7  C7  IND d   1      -5.248   3.207   4.754  0.00  0.00    -0.016 A 
ATOM      8  C8  IND d   1      -5.473   4.041   3.669  0.00  0.00    -0.047 A 
ATOM      9  C9  IND d   1      -5.325   5.431   3.758  0.00  0.00    -0.096 A 
ATOM     10  HN1 IND d   1      -6.066   2.971   2.080  0.00  0.00     0.298 HD
ENDROOT
TORSDOF 0
ENDMDL
