MODEL 1
REMARK minimizedAffinity -2.40649843
REMARK minimizedRMSD -1
REMARK  0 active torsions:
REMARK  status: ('A' for Active; 'I' for Inactive)
ROOT
ATOM      1  N1  IND d   1      -5.489   5.891   2.418  0.00  0.00    -0.196 N 
ATOM      2  C2  IND d   1      -5.039   4.903   1.588  0.00  0.00     0.054 A 
ATOM      3  C3  IND d   1      -4.835   3.761   2.282  0.00  0.00    -0.031 A 
ATOM      4  C4  IND d   1      -5.270   3.260   4.770  0.00  0.00     0.051 A 
ATOM      5  C5  IND d   1      -5.646   3.859   5.939  0.00  0.00    -0.031 A 
ATOM      6  C6  IND d   1      -5.999   5.191   5.996  0.00  0.00     0.015 A 
ATOM      7  C7  IND d   1      -6.000   5.976   4.877  0.00  0.00    -0.016 A 
ATOM      8  C8  IND d   1      -5.612   5.373   3.689  0.00  0.00    -0.047 A 
ATOM      9  C9  IND d   1      -5.212   4.032   3.634  0.00  0.00    -0.096 A 
ATOM     10  HN1 IND d   1      -5.666   6.700   2.186  0.00  0.00     0.298 HD
ENDROOT
TORSDOF 0
ENDMDL
