MODEL 1
REMARK minimizedAffinity -3.25000358
REMARK minimizedRMSD -1
REMARK  0 active torsions:
REMARK  status: ('A' for Active; 'I' for Inactive)
ROOT
ATOM      1  N1  IND d   1      -5.999   3.890   2.327  0.00  0.00    -0.196 N 
ATOM      2  C2  IND d   1      -5.868   5.118   1.740  0.00  0.00     0.054 A 
ATOM      3  C3  IND d   1      -5.326   6.000   2.610  0.00  0.00    -0.031 A 
ATOM      4  C4  IND d   1      -4.487   5.620   5.014  0.00  0.00     0.051 A 
ATOM      5  C5  IND d   1      -4.429   4.674   5.998  0.00  0.00    -0.031 A 
ATOM      6  C6  IND d   1      -4.899   3.391   5.804  0.00  0.00     0.015 A 
ATOM      7  C7  IND d   1      -5.436   3.002   4.610  0.00  0.00    -0.016 A 
ATOM      8  C8  IND d   1      -5.503   3.962   3.610  0.00  0.00    -0.047 A 
ATOM      9  C9  IND d   1      -5.067   5.278   3.815  0.00  0.00    -0.096 A 
ATOM     10  HN1 IND d   1      -6.336   3.191   1.958  0.00  0.00     0.298 HD
ENDROOT
TORSDOF 0
ENDMDL
