MODEL 1
REMARK minimizedAffinity -3.08368039
REMARK minimizedRMSD -1
REMARK  0 active torsions:
REMARK  status: ('A' for Active; 'I' for Inactive)
ROOT
ATOM      1  N1  IND d   1      -5.247   3.713   2.091  0.00  0.00    -0.196 N 
ATOM      2  C2  IND d   1      -5.639   4.874   1.485  0.00  0.00     0.054 A 
ATOM      3  C3  IND d   1      -5.997   5.791   2.412  0.00  0.00    -0.031 A 
ATOM      4  C4  IND d   1      -5.923   5.635   4.981  0.00  0.00     0.051 A 
ATOM      5  C5  IND d   1      -5.671   4.760   6.000  0.00  0.00    -0.031 A 
ATOM      6  C6  IND d   1      -5.253   3.466   5.764  0.00  0.00     0.015 A 
ATOM      7  C7  IND d   1      -5.061   3.000   4.494  0.00  0.00    -0.016 A 
ATOM      8  C8  IND d   1      -5.323   3.884   3.456  0.00  0.00    -0.047 A 
ATOM      9  C9  IND d   1      -5.787   5.185   3.689  0.00  0.00    -0.096 A 
ATOM     10  HN1 IND d   1      -4.996   2.996   1.688  0.00  0.00     0.298 HD
ENDROOT
TORSDOF 0
ENDMDL
