MODEL 1
REMARK minimizedAffinity 6.53058147
REMARK minimizedRMSD -1
REMARK  0 active torsions:
REMARK  status: ('A' for Active; 'I' for Inactive)
ROOT
ATOM      1  N1  IND d   1      -4.976   3.850   3.332  0.00  0.00    -0.196 N 
ATOM      2  C2  IND d   1      -5.199   4.984   4.062  0.00  0.00     0.054 A 
ATOM      3  C3  IND d   1      -5.572   6.000   3.251  0.00  0.00    -0.031 A 
ATOM      4  C4  IND d   1      -5.979   5.999   0.709  0.00  0.00     0.051 A 
ATOM      5  C5  IND d   1      -5.871   5.206  -0.398  0.00  0.00    -0.031 A 
ATOM      6  C6  IND d   1      -5.453   3.893  -0.318  0.00  0.00     0.015 A 
ATOM      7  C7  IND d   1      -5.137   3.319   0.881  0.00  0.00    -0.016 A 
ATOM      8  C8  IND d   1      -5.239   4.123   2.007  0.00  0.00    -0.047 A 
ATOM      9  C9  IND d   1      -5.622   5.468   1.926  0.00  0.00    -0.096 A 
ATOM     10  HN1 IND d   1      -4.715   3.094   3.647  0.00  0.00     0.298 HD
ENDROOT
TORSDOF 0
ENDMDL
