MODEL 1
REMARK minimizedAffinity -0.393858492
REMARK minimizedRMSD -1
REMARK  0 active torsions:
REMARK  status: ('A' for Active; 'I' for Inactive)
ROOT
ATOM      1  N1  IND d   1      -5.576   2.627   2.324  0.00  0.00    -0.196 N 
ATOM      2  C2  IND d   1      -5.766   3.722   1.528  0.00  0.00     0.054 A 
ATOM      3  C3  IND d   1      -5.989   4.821   2.284  0.00  0.00    -0.031 A 
ATOM      4  C4  IND d   1      -5.985   5.071   4.846  0.00  0.00     0.051 A 
ATOM      5  C5  IND d   1      -5.895   4.343   5.999  0.00  0.00    -0.031 A 
ATOM      6  C6  IND d   1      -5.686   2.979   5.986  0.00  0.00     0.015 A 
ATOM      7  C7  IND d   1      -5.549   2.291   4.814  0.00  0.00    -0.016 A 
ATOM      8  C8  IND d   1      -5.647   3.025   3.641  0.00  0.00    -0.047 A 
ATOM      9  C9  IND d   1      -5.901   4.403   3.647  0.00  0.00    -0.096 A 
ATOM     10  HN1 IND d   1      -5.436   1.825   2.049  0.00  0.00     0.298 HD
ENDROOT
TORSDOF 0
ENDMDL
