MODEL 1
REMARK minimizedAffinity -2.53008914
REMARK minimizedRMSD -1
REMARK  0 active torsions:
REMARK  status: ('A' for Active; 'I' for Inactive)
ROOT
ATOM      1  N1  IND d   1      -5.249   3.776   2.252  0.00  0.00    -0.196 N 
ATOM      2  C2  IND d   1      -5.490   4.957   1.608  0.00  0.00     0.054 A 
ATOM      3  C3  IND d   1      -5.316   5.998   2.453  0.00  0.00    -0.031 A 
ATOM      4  C4  IND d   1      -4.537   6.000   4.906  0.00  0.00     0.051 A 
ATOM      5  C5  IND d   1      -4.231   5.159   5.940  0.00  0.00    -0.031 A 
ATOM      6  C6  IND d   1      -4.247   3.787   5.793  0.00  0.00     0.015 A 
ATOM      7  C7  IND d   1      -4.559   3.202   4.599  0.00  0.00    -0.016 A 
ATOM      8  C8  IND d   1      -4.877   4.052   3.549  0.00  0.00    -0.047 A 
ATOM      9  C9  IND d   1      -4.905   5.444   3.704  0.00  0.00    -0.096 A 
ATOM     10  HN1 IND d   1      -5.319   2.992   1.905  0.00  0.00     0.298 HD
ENDROOT
TORSDOF 0
ENDMDL
