MODEL 1
REMARK minimizedAffinity -1.27265918
REMARK minimizedRMSD -1
REMARK  0 active torsions:
REMARK  status: ('A' for Active; 'I' for Inactive)
ROOT
ATOM      1  N1  IND d   1      -5.404   3.718   2.248  0.00  0.00    -0.196 N 
ATOM      2  C2  IND d   1      -5.677   4.833   1.504  0.00  0.00     0.054 A 
ATOM      3  C3  IND d   1      -5.983   5.873   2.311  0.00  0.00    -0.031 A 
ATOM      4  C4  IND d   1      -5.999   6.000   4.882  0.00  0.00     0.051 A 
ATOM      5  C5  IND d   1      -5.854   5.226   5.999  0.00  0.00    -0.031 A 
ATOM      6  C6  IND d   1      -5.542   3.885   5.922  0.00  0.00     0.015 A 
ATOM      7  C7  IND d   1      -5.352   3.266   4.719  0.00  0.00    -0.016 A 
ATOM      8  C8  IND d   1      -5.506   4.046   3.582  0.00  0.00    -0.047 A 
ATOM      9  C9  IND d   1      -5.864   5.398   3.653  0.00  0.00    -0.096 A 
ATOM     10  HN1 IND d   1      -5.203   2.943   1.935  0.00  0.00     0.298 HD
ENDROOT
TORSDOF 0
ENDMDL
