MODEL 1
REMARK minimizedAffinity -3.26684022
REMARK minimizedRMSD -1
REMARK  0 active torsions:
REMARK  status: ('A' for Active; 'I' for Inactive)
ROOT
ATOM      1  N1  IND d   1      -4.472   4.080   2.276  0.00  0.00    -0.196 N 
ATOM      2  C2  IND d   1      -4.968   5.115   1.534  0.00  0.00     0.054 A 
ATOM      3  C3  IND d   1      -5.609   6.000   2.330  0.00  0.00    -0.031 A 
ATOM      4  C4  IND d   1      -5.879   6.000   4.890  0.00  0.00     0.051 A 
ATOM      5  C5  IND d   1      -5.627   5.242   6.000  0.00  0.00    -0.031 A 
ATOM      6  C6  IND d   1      -4.962   4.036   5.924  0.00  0.00     0.015 A 
ATOM      7  C7  IND d   1      -4.512   3.545   4.731  0.00  0.00    -0.016 A 
ATOM      8  C8  IND d   1      -4.771   4.308   3.601  0.00  0.00    -0.047 A 
ATOM      9  C9  IND d   1      -5.483   5.513   3.667  0.00  0.00    -0.096 A 
ATOM     10  HN1 IND d   1      -4.045   3.401   1.967  0.00  0.00     0.298 HD
ENDROOT
TORSDOF 0
ENDMDL
