MODEL 1
REMARK minimizedAffinity -3.13076472
REMARK minimizedRMSD -1
REMARK  0 active torsions:
REMARK  status: ('A' for Active; 'I' for Inactive)
ROOT
ATOM      1  N1  IND d   1      -4.871   4.444   2.126  0.00  0.00    -0.196 N 
ATOM      2  C2  IND d   1      -5.444   5.685   2.072  0.00  0.00     0.054 A 
ATOM      3  C3  IND d   1      -6.000   5.997   3.265  0.00  0.00    -0.031 A 
ATOM      4  C4  IND d   1      -5.999   4.667   5.469  0.00  0.00     0.051 A 
ATOM      5  C5  IND d   1      -5.632   3.463   6.000  0.00  0.00    -0.031 A 
ATOM      6  C6  IND d   1      -4.977   2.506   5.252  0.00  0.00     0.015 A 
ATOM      7  C7  IND d   1      -4.653   2.723   3.943  0.00  0.00    -0.016 A 
ATOM      8  C8  IND d   1      -5.031   3.942   3.398  0.00  0.00    -0.047 A 
ATOM      9  C9  IND d   1      -5.733   4.900   4.140  0.00  0.00    -0.096 A 
ATOM     10  HN1 IND d   1      -4.478   4.045   1.474  0.00  0.00     0.298 HD
ENDROOT
TORSDOF 0
ENDMDL
