MODEL 1
REMARK minimizedAffinity -3.15204549
REMARK minimizedRMSD -1
REMARK  0 active torsions:
REMARK  status: ('A' for Active; 'I' for Inactive)
ROOT
ATOM      1  N1  IND d   1      -5.078   3.872   2.230  0.00  0.00    -0.196 N 
ATOM      2  C2  IND d   1      -5.370   4.998   1.512  0.00  0.00     0.054 A 
ATOM      3  C3  IND d   1      -5.796   5.983   2.335  0.00  0.00    -0.031 A 
ATOM      4  C4  IND d   1      -5.995   5.999   4.902  0.00  0.00     0.051 A 
ATOM      5  C5  IND d   1      -5.876   5.189   5.996  0.00  0.00    -0.031 A 
ATOM      6  C6  IND d   1      -5.475   3.873   5.889  0.00  0.00     0.015 A 
ATOM      7  C7  IND d   1      -5.165   3.318   4.680  0.00  0.00    -0.016 A 
ATOM      8  C8  IND d   1      -5.291   4.136   3.565  0.00  0.00    -0.047 A 
ATOM      9  C9  IND d   1      -5.738   5.460   3.663  0.00  0.00    -0.096 A 
ATOM     10  HN1 IND d   1      -4.807   3.125   1.903  0.00  0.00     0.298 HD
ENDROOT
TORSDOF 0
ENDMDL
