MODEL 1
REMARK minimizedAffinity -5.3184309
REMARK minimizedRMSD -1
REMARK  0 active torsions:
REMARK  status: ('A' for Active; 'I' for Inactive)
ROOT
ATOM      1  O1  BZF d   1      -0.132   1.324  -0.164  0.00  0.00    -0.204 OA
ATOM      2  C2  BZF d   1      -1.020   0.297  -0.421  0.00  0.00     0.174 A 
ATOM      3  C3  BZF d   1      -0.392  -0.896  -0.395  0.00  0.00    -0.012 A 
ATOM      4  C3A BZF d   1       0.955  -0.604  -0.012  0.00  0.00    -0.107 A 
ATOM      5  C4  BZF d   1       2.060  -1.378   0.202  0.00  0.00     0.055 A 
ATOM      6  C5  BZF d   1       3.242  -0.775   0.495  0.00  0.00    -0.016 A 
ATOM      7  C6  BZF d   1       3.357   0.597   0.577  0.00  0.00     0.022 A 
ATOM      8  C7  BZF d   1       2.288   1.406   0.378  0.00  0.00     0.029 A 
ATOM      9  C7A BZF d   1       1.085   0.799   0.115  0.00  0.00     0.058 A 
ENDROOT
TORSDOF 0
ENDMDL
