MODEL 1
REMARK minimizedAffinity -6.14209223
REMARK minimizedRMSD -1
REMARK  0 active torsions:
REMARK  status: ('A' for Active; 'I' for Inactive)
ROOT
ATOM      1  O1  BZF d   1      -0.029   1.519  -0.439  0.00  0.00    -0.204 OA
ATOM      2  C2  BZF d   1      -0.936   0.499  -0.652  0.00  0.00     0.174 A 
ATOM      3  C3  BZF d   1      -0.358  -0.704  -0.458  0.00  0.00    -0.012 A 
ATOM      4  C3A BZF d   1       0.971  -0.415  -0.012  0.00  0.00    -0.107 A 
ATOM      5  C4  BZF d   1       2.027  -1.197   0.358  0.00  0.00     0.055 A 
ATOM      6  C5  BZF d   1       3.210  -0.604   0.671  0.00  0.00    -0.016 A 
ATOM      7  C6  BZF d   1       3.372   0.765   0.620  0.00  0.00     0.022 A 
ATOM      8  C7  BZF d   1       2.351   1.582   0.263  0.00  0.00     0.029 A 
ATOM      9  C7A BZF d   1       1.145   0.988  -0.022  0.00  0.00     0.058 A 
ENDROOT
TORSDOF 0
ENDMDL
