MODEL 1
REMARK minimizedAffinity -3.75430489
REMARK minimizedRMSD -1
REMARK  0 active torsions:
REMARK  status: ('A' for Active; 'I' for Inactive)
ROOT
ATOM      1  O1  BZF d   1      -0.090   1.028   1.353  0.00  0.00    -0.204 OA
ATOM      2  C2  BZF d   1      -1.266   1.081   0.630  0.00  0.00     0.174 A 
ATOM      3  C3  BZF d   1      -1.230   0.218  -0.406  0.00  0.00    -0.012 A 
ATOM      4  C3A BZF d   1       0.012  -0.480  -0.271  0.00  0.00    -0.107 A 
ATOM      5  C4  BZF d   1       0.613  -1.474  -0.989  0.00  0.00     0.055 A 
ATOM      6  C5  BZF d   1       1.859  -1.883  -0.636  0.00  0.00    -0.016 A 
ATOM      7  C6  BZF d   1       2.535  -1.318   0.426  0.00  0.00     0.022 A 
ATOM      8  C7  BZF d   1       1.978  -0.333   1.171  0.00  0.00     0.029 A 
ATOM      9  C7A BZF d   1       0.705   0.060   0.837  0.00  0.00     0.058 A 
ENDROOT
TORSDOF 0
ENDMDL
