MODEL 1
REMARK minimizedAffinity -2.52509689
REMARK minimizedRMSD -1
REMARK  0 active torsions:
REMARK  status: ('A' for Active; 'I' for Inactive)
ROOT
ATOM      1  O1  BZF d   1       1.754  -2.425  -0.674  0.00  0.00    -0.204 OA
ATOM      2  C2  BZF d   1       0.467  -2.263  -1.150  0.00  0.00     0.174 A 
ATOM      3  C3  BZF d   1      -0.088  -1.138  -0.656  0.00  0.00    -0.012 A 
ATOM      4  C3A BZF d   1       0.947  -0.512   0.108  0.00  0.00    -0.107 A 
ATOM      5  C4  BZF d   1       1.012   0.646   0.830  0.00  0.00     0.055 A 
ATOM      6  C5  BZF d   1       2.148   0.932   1.518  0.00  0.00    -0.016 A 
ATOM      7  C6  BZF d   1       3.234   0.082   1.512  0.00  0.00     0.022 A 
ATOM      8  C7  BZF d   1       3.219  -1.075   0.806  0.00  0.00     0.029 A 
ATOM      9  C7A BZF d   1       2.084  -1.351   0.083  0.00  0.00     0.058 A 
ENDROOT
TORSDOF 0
ENDMDL
