MODEL 1
REMARK minimizedAffinity -5.29682112
REMARK minimizedRMSD -1
REMARK  0 active torsions:
REMARK  status: ('A' for Active; 'I' for Inactive)
ROOT
ATOM      1  O1  BZF d   1      -0.165   0.692   0.070  0.00  0.00    -0.204 OA
ATOM      2  C2  BZF d   1      -0.921  -0.387  -0.347  0.00  0.00     0.174 A 
ATOM      3  C3  BZF d   1      -0.146  -1.477  -0.517  0.00  0.00    -0.012 A 
ATOM      4  C3A BZF d   1       1.162  -1.079  -0.096  0.00  0.00    -0.107 A 
ATOM      5  C4  BZF d   1       2.361  -1.728  -0.015  0.00  0.00     0.055 A 
ATOM      6  C5  BZF d   1       3.464  -1.032   0.368  0.00  0.00    -0.016 A 
ATOM      7  C6  BZF d   1       3.405   0.312   0.671  0.00  0.00     0.022 A 
ATOM      8  C7  BZF d   1       2.238   0.998   0.611  0.00  0.00     0.029 A 
ATOM      9  C7A BZF d   1       1.115   0.290   0.256  0.00  0.00     0.058 A 
ENDROOT
TORSDOF 0
ENDMDL
