MODEL 1
REMARK minimizedAffinity -1.45495236
REMARK minimizedRMSD -1
REMARK  0 active torsions:
REMARK  status: ('A' for Active; 'I' for Inactive)
ROOT
ATOM      1  O1  BZF d   1      -0.104   1.289  -0.260  0.00  0.00    -0.204 OA
ATOM      2  C2  BZF d   1      -1.270   0.677  -0.677  0.00  0.00     0.174 A 
ATOM      3  C3  BZF d   1      -1.147  -0.666  -0.636  0.00  0.00    -0.012 A 
ATOM      4  C3A BZF d   1       0.147  -0.907  -0.075  0.00  0.00    -0.107 A 
ATOM      5  C4  BZF d   1       0.840  -2.043   0.232  0.00  0.00     0.055 A 
ATOM      6  C5  BZF d   1       2.112  -1.935   0.699  0.00  0.00    -0.016 A 
ATOM      7  C6  BZF d   1       2.722  -0.710   0.866  0.00  0.00     0.022 A 
ATOM      8  C7  BZF d   1       2.073   0.445   0.580  0.00  0.00     0.029 A 
ATOM      9  C7A BZF d   1       0.777   0.341   0.139  0.00  0.00     0.058 A 
ENDROOT
TORSDOF 0
ENDMDL
