MODEL 1
REMARK minimizedAffinity -2.28185439
REMARK minimizedRMSD -1
REMARK  0 active torsions:
REMARK  status: ('A' for Active; 'I' for Inactive)
ROOT
ATOM      1  C1  DEN d   1       0.987   0.097   1.662  0.00  0.00     0.130 A 
ATOM      2  C2  DEN d   1       0.829  -0.686   0.440  0.00  0.00    -0.031 A 
ATOM      3  C3  DEN d   1       1.625  -0.040  -0.622  0.00  0.00     0.027 A 
ATOM      4  C4  DEN d   1       3.084   2.084  -0.493  0.00  0.00     0.027 A 
ATOM      5  C5  DEN d   1       3.519   3.098   0.331  0.00  0.00    -0.003 A 
ATOM      6  C6  DEN d   1       3.117   3.201   1.637  0.00  0.00     0.001 A 
ATOM      7  C7  DEN d   1       2.290   2.249   2.170  0.00  0.00     0.017 A 
ATOM      8  C8  DEN d   1       1.841   1.227   1.343  0.00  0.00    -0.094 A 
ATOM      9  C9  DEN d   1       2.268   1.133   0.029  0.00  0.00    -0.072 A 
ENDROOT
TORSDOF 0
ENDMDL
