MODEL 1
REMARK minimizedAffinity -3.30442691
REMARK minimizedRMSD -1
REMARK  0 active torsions:
REMARK  status: ('A' for Active; 'I' for Inactive)
ROOT
ATOM      1  C1  DEN d   1      -2.064  -2.428   0.331  0.00  0.00     0.130 A 
ATOM      2  C2  DEN d   1      -1.409  -3.132   1.430  0.00  0.00    -0.031 A 
ATOM      3  C3  DEN d   1      -0.118  -2.466   1.695  0.00  0.00     0.027 A 
ATOM      4  C4  DEN d   1       0.922  -0.419   0.518  0.00  0.00     0.027 A 
ATOM      5  C5  DEN d   1       0.744   0.511  -0.482  0.00  0.00    -0.003 A 
ATOM      6  C6  DEN d   1      -0.357   0.507  -1.296  0.00  0.00     0.001 A 
ATOM      7  C7  DEN d   1      -1.346  -0.420  -1.095  0.00  0.00     0.017 A 
ATOM      8  C8  DEN d   1      -1.170  -1.367  -0.094  0.00  0.00    -0.094 A 
ATOM      9  C9  DEN d   1      -0.055  -1.338   0.726  0.00  0.00    -0.072 A 
ENDROOT
TORSDOF 0
ENDMDL
