MODEL 1
REMARK minimizedAffinity -2.02542949
REMARK minimizedRMSD -1
REMARK  0 active torsions:
REMARK  status: ('A' for Active; 'I' for Inactive)
ROOT
ATOM      1  C1  DEN d   1      -0.517   1.456  -0.551  0.00  0.00     0.130 A 
ATOM      2  C2  DEN d   1      -0.601   0.075  -1.018  0.00  0.00    -0.031 A 
ATOM      3  C3  DEN d   1       0.625  -0.627  -0.588  0.00  0.00     0.027 A 
ATOM      4  C4  DEN d   1       2.632   0.284   0.752  0.00  0.00     0.027 A 
ATOM      5  C5  DEN d   1       3.162   1.401   1.359  0.00  0.00    -0.003 A 
ATOM      6  C6  DEN d   1       2.524   2.613   1.344  0.00  0.00     0.001 A 
ATOM      7  C7  DEN d   1       1.296   2.726   0.746  0.00  0.00     0.017 A 
ATOM      8  C8  DEN d   1       0.759   1.606   0.125  0.00  0.00    -0.094 A 
ATOM      9  C9  DEN d   1       1.414   0.387   0.162  0.00  0.00    -0.072 A 
ENDROOT
TORSDOF 0
ENDMDL
