MODEL 1
REMARK minimizedAffinity -2.40628338
REMARK minimizedRMSD -1
REMARK  0 active torsions:
REMARK  status: ('A' for Active; 'I' for Inactive)
ROOT
ATOM      1  C1  DEN d   1       1.627   0.126  -0.311  0.00  0.00     0.130 A 
ATOM      2  C2  DEN d   1       0.168   0.079  -0.266  0.00  0.00    -0.031 A 
ATOM      3  C3  DEN d   1      -0.302   1.243   0.511  0.00  0.00     0.027 A 
ATOM      4  C4  DEN d   1       1.079   3.107   1.639  0.00  0.00     0.027 A 
ATOM      5  C5  DEN d   1       2.354   3.567   1.884  0.00  0.00    -0.003 A 
ATOM      6  C6  DEN d   1       3.468   2.900   1.447  0.00  0.00     0.001 A 
ATOM      7  C7  DEN d   1       3.327   1.759   0.703  0.00  0.00     0.017 A 
ATOM      8  C8  DEN d   1       2.045   1.284   0.458  0.00  0.00    -0.094 A 
ATOM      9  C9  DEN d   1       0.931   1.980   0.898  0.00  0.00    -0.072 A 
ENDROOT
TORSDOF 0
ENDMDL
