MODEL 1
REMARK minimizedAffinity -3.78856373
REMARK minimizedRMSD -1
REMARK  0 active torsions:
REMARK  status: ('A' for Active; 'I' for Inactive)
ROOT
ATOM      1  C1  DEN d   1       0.163   0.197   0.093  0.00  0.00     0.130 A 
ATOM      2  C2  DEN d   1      -0.310   0.932  -1.077  0.00  0.00    -0.031 A 
ATOM      3  C3  DEN d   1      -1.463   0.201  -1.640  0.00  0.00     0.027 A 
ATOM      4  C4  DEN d   1      -2.560  -1.983  -0.814  0.00  0.00     0.027 A 
ATOM      5  C5  DEN d   1      -2.501  -2.980   0.134  0.00  0.00    -0.003 A 
ATOM      6  C6  DEN d   1      -1.537  -3.006   1.107  0.00  0.00     0.001 A 
ATOM      7  C7  DEN d   1      -0.620  -1.991   1.181  0.00  0.00     0.017 A 
ATOM      8  C8  DEN d   1      -0.668  -0.987   0.224  0.00  0.00    -0.094 A 
ATOM      9  C9  DEN d   1      -1.657  -0.972  -0.745  0.00  0.00    -0.072 A 
ENDROOT
TORSDOF 0
ENDMDL
