MODEL 1
REMARK minimizedAffinity -2.28012323
REMARK minimizedRMSD -1
REMARK  0 active torsions:
REMARK  status: ('A' for Active; 'I' for Inactive)
ROOT
ATOM      1  C1  DEN d   1       1.544   0.962  -0.829  0.00  0.00     0.130 A 
ATOM      2  C2  DEN d   1       2.125   0.157   0.242  0.00  0.00    -0.031 A 
ATOM      3  C3  DEN d   1       1.101  -0.805   0.696  0.00  0.00     0.027 A 
ATOM      4  C4  DEN d   1      -1.313  -1.128  -0.154  0.00  0.00     0.027 A 
ATOM      5  C5  DEN d   1      -2.261  -0.670  -1.043  0.00  0.00    -0.003 A 
ATOM      6  C6  DEN d   1      -2.020   0.377  -1.892  0.00  0.00     0.001 A 
ATOM      7  C7  DEN d   1      -0.787   0.973  -1.902  0.00  0.00     0.017 A 
ATOM      8  C8  DEN d   1       0.172   0.522  -1.004  0.00  0.00    -0.094 A 
ATOM      9  C9  DEN d   1      -0.087  -0.546  -0.162  0.00  0.00    -0.072 A 
ENDROOT
TORSDOF 0
ENDMDL
