MODEL 1
REMARK minimizedAffinity -1.13857019
REMARK minimizedRMSD -1
REMARK  0 active torsions:
REMARK  status: ('A' for Active; 'I' for Inactive)
ROOT
ATOM      1  C1  DEN d   1      -0.207   1.350  -1.861  0.00  0.00     0.130 A 
ATOM      2  C2  DEN d   1      -1.155   0.244  -1.757  0.00  0.00    -0.031 A 
ATOM      3  C3  DEN d   1      -0.692  -0.654  -0.681  0.00  0.00     0.027 A 
ATOM      4  C4  DEN d   1       1.386  -0.439   0.832  0.00  0.00     0.027 A 
ATOM      5  C5  DEN d   1       2.497   0.326   1.110  0.00  0.00    -0.003 A 
ATOM      6  C6  DEN d   1       2.801   1.458   0.402  0.00  0.00     0.001 A 
ATOM      7  C7  DEN d   1       1.959   1.883  -0.592  0.00  0.00     0.017 A 
ATOM      8  C8  DEN d   1       0.841   1.113  -0.884  0.00  0.00    -0.094 A 
ATOM      9  C9  DEN d   1       0.545  -0.022  -0.148  0.00  0.00    -0.072 A 
ENDROOT
TORSDOF 0
ENDMDL
