MODEL 1
REMARK minimizedAffinity -4.38117838
REMARK minimizedRMSD -1
REMARK  0 active torsions:
REMARK  status: ('A' for Active; 'I' for Inactive)
ROOT
ATOM      1  C1  DEN d   1      -0.046   0.523  -0.728  0.00  0.00     0.130 A 
ATOM      2  C2  DEN d   1       1.130   0.379   0.125  0.00  0.00    -0.031 A 
ATOM      3  C3  DEN d   1       0.913  -0.783   1.010  0.00  0.00     0.027 A 
ATOM      4  C4  DEN d   1      -1.117  -2.369   1.137  0.00  0.00     0.027 A 
ATOM      5  C5  DEN d   1      -2.364  -2.639   0.618  0.00  0.00    -0.003 A 
ATOM      6  C6  DEN d   1      -2.935  -1.861  -0.353  0.00  0.00     0.001 A 
ATOM      7  C7  DEN d   1      -2.239  -0.800  -0.870  0.00  0.00     0.017 A 
ATOM      8  C8  DEN d   1      -0.985  -0.517  -0.347  0.00  0.00    -0.094 A 
ATOM      9  C9  DEN d   1      -0.419  -1.322   0.627  0.00  0.00    -0.072 A 
ENDROOT
TORSDOF 0
ENDMDL
