MODEL 1
REMARK minimizedAffinity -0.700280249
REMARK minimizedRMSD -1
REMARK  0 active torsions:
REMARK  status: ('A' for Active; 'I' for Inactive)
ROOT
ATOM      1  C1  DEN d   1      -0.277  -2.416   1.360  0.00  0.00     0.130 A 
ATOM      2  C2  DEN d   1      -1.182  -3.554   1.223  0.00  0.00    -0.031 A 
ATOM      3  C3  DEN d   1      -2.041  -3.314   0.046  0.00  0.00     0.027 A 
ATOM      4  C4  DEN d   1      -2.055  -1.304  -1.571  0.00  0.00     0.027 A 
ATOM      5  C5  DEN d   1      -1.476  -0.086  -1.853  0.00  0.00    -0.003 A 
ATOM      6  C6  DEN d   1      -0.489   0.452  -1.070  0.00  0.00     0.001 A 
ATOM      7  C7  DEN d   1      -0.019  -0.251   0.008  0.00  0.00     0.017 A 
ATOM      8  C8  DEN d   1      -0.602  -1.476   0.302  0.00  0.00    -0.094 A 
ATOM      9  C9  DEN d   1      -1.590  -2.009  -0.508  0.00  0.00    -0.072 A 
ENDROOT
TORSDOF 0
ENDMDL
