MODEL 1
REMARK minimizedAffinity -0.535283446
REMARK minimizedRMSD -1
REMARK  0 active torsions:
REMARK  status: ('A' for Active; 'I' for Inactive)
ROOT
ATOM      1  C1  DEN d   1      -1.086  -2.113   0.362  0.00  0.00     0.130 A 
ATOM      2  C2  DEN d   1      -2.250  -2.282   1.228  0.00  0.00    -0.031 A 
ATOM      3  C3  DEN d   1      -3.308  -1.367   0.754  0.00  0.00     0.027 A 
ATOM      4  C4  DEN d   1      -3.259   0.281  -1.230  0.00  0.00     0.027 A 
ATOM      5  C5  DEN d   1      -2.484   0.785  -2.251  0.00  0.00    -0.003 A 
ATOM      6  C6  DEN d   1      -1.189   0.387  -2.451  0.00  0.00     0.001 A 
ATOM      7  C7  DEN d   1      -0.644  -0.576  -1.644  0.00  0.00     0.017 A 
ATOM      8  C8  DEN d   1      -1.416  -1.084  -0.607  0.00  0.00    -0.094 A 
ATOM      9  C9  DEN d   1      -2.727  -0.677  -0.430  0.00  0.00    -0.072 A 
ENDROOT
TORSDOF 0
ENDMDL
