MODEL 1
REMARK minimizedAffinity 0.661697567
REMARK minimizedRMSD -1
REMARK  0 active torsions:
REMARK  status: ('A' for Active; 'I' for Inactive)
ROOT
ATOM      1  C1  DEN d   1       2.261   1.497   1.972  0.00  0.00     0.130 A 
ATOM      2  C2  DEN d   1       3.058   2.394   1.141  0.00  0.00    -0.031 A 
ATOM      3  C3  DEN d   1       2.653   2.195  -0.265  0.00  0.00     0.027 A 
ATOM      4  C4  DEN d   1       0.873   0.596  -1.229  0.00  0.00     0.027 A 
ATOM      5  C5  DEN d   1      -0.055  -0.372  -0.915  0.00  0.00    -0.003 A 
ATOM      6  C6  DEN d   1      -0.251  -0.805   0.370  0.00  0.00     0.001 A 
ATOM      7  C7  DEN d   1       0.460  -0.237   1.394  0.00  0.00     0.017 A 
ATOM      8  C8  DEN d   1       1.403   0.734   1.083  0.00  0.00    -0.094 A 
ATOM      9  C9  DEN d   1       1.578   1.167  -0.220  0.00  0.00    -0.072 A 
ENDROOT
TORSDOF 0
ENDMDL
