MODEL 1
REMARK minimizedAffinity 0.403272867
REMARK minimizedRMSD -1
REMARK  0 active torsions:
REMARK  status: ('A' for Active; 'I' for Inactive)
ROOT
ATOM      1  C1  DEN d   1       1.255   0.150   1.061  0.00  0.00     0.130 A 
ATOM      2  C2  DEN d   1       1.952   1.170   0.281  0.00  0.00    -0.031 A 
ATOM      3  C3  DEN d   1       1.153   1.443  -0.930  0.00  0.00     0.027 A 
ATOM      4  C4  DEN d   1      -1.086   0.396  -1.668  0.00  0.00     0.027 A 
ATOM      5  C5  DEN d   1      -2.058  -0.522  -1.338  0.00  0.00    -0.003 A 
ATOM      6  C6  DEN d   1      -1.978  -1.299  -0.213  0.00  0.00     0.001 A 
ATOM      7  C7  DEN d   1      -0.925  -1.139   0.648  0.00  0.00     0.017 A 
ATOM      8  C8  DEN d   1       0.063  -0.220   0.319  0.00  0.00    -0.094 A 
ATOM      9  C9  DEN d   1      -0.042   0.564  -0.817  0.00  0.00    -0.072 A 
ENDROOT
TORSDOF 0
ENDMDL
