MODEL 1
REMARK minimizedAffinity -5.25789738
REMARK minimizedRMSD -1
REMARK  0 active torsions:
REMARK  status: ('A' for Active; 'I' for Inactive)
ROOT
ATOM      1  C   UNL d   1       0.916   0.237  -1.611  0.00  0.00     0.077 C 
ATOM      2  C1  UNL d   1      -0.269   0.233  -0.691  0.00  0.00    -0.074 A 
ATOM      3  C2  UNL d   1      -1.518   0.688  -1.126  0.00  0.00    -0.005 A 
ATOM      4  C3  UNL d   1      -2.613   0.669  -0.263  0.00  0.00     0.006 A 
ATOM      5  C4  UNL d   1      -2.470   0.196   1.043  0.00  0.00    -0.005 A 
ATOM      6  C5  UNL d   1      -1.229  -0.263   1.495  0.00  0.00    -0.074 A 
ATOM      7  C6  UNL d   1      -1.061  -0.784   2.891  0.00  0.00     0.077 C 
ATOM      8  C7  UNL d   1      -0.135  -0.248   0.619  0.00  0.00    -0.001 A 
ENDROOT
TORSDOF 0
ENDMDL
