MODEL 1
REMARK minimizedAffinity -2.89249396
REMARK minimizedRMSD -1
REMARK  0 active torsions:
REMARK  status: ('A' for Active; 'I' for Inactive)
ROOT
ATOM      1  C   UNL d   1       1.030   0.647  -1.776  0.00  0.00     0.077 C 
ATOM      2  C1  UNL d   1      -0.090   0.642  -0.779  0.00  0.00    -0.074 A 
ATOM      3  C2  UNL d   1      -1.411   0.865  -1.181  0.00  0.00    -0.005 A 
ATOM      4  C3  UNL d   1      -2.444   0.848  -0.243  0.00  0.00     0.006 A 
ATOM      5  C4  UNL d   1      -2.166   0.608   1.103  0.00  0.00    -0.005 A 
ATOM      6  C5  UNL d   1      -0.852   0.383   1.523  0.00  0.00    -0.074 A 
ATOM      7  C6  UNL d   1      -0.538   0.114   2.965  0.00  0.00     0.077 C 
ATOM      8  C7  UNL d   1       0.180   0.394   0.574  0.00  0.00    -0.001 A 
ENDROOT
TORSDOF 0
ENDMDL
