MODEL 1
REMARK minimizedAffinity -5.32707405
REMARK minimizedRMSD -1
REMARK  0 active torsions:
REMARK  status: ('A' for Active; 'I' for Inactive)
ROOT
ATOM      1  C   UNL d   1      -3.022   1.390   2.219  0.00  0.00     0.077 C 
ATOM      2  C1  UNL d   1      -1.707   0.889   1.701  0.00  0.00    -0.074 A 
ATOM      3  C2  UNL d   1      -0.608   0.741   2.553  0.00  0.00    -0.005 A 
ATOM      4  C3  UNL d   1       0.606   0.265   2.058  0.00  0.00     0.006 A 
ATOM      5  C4  UNL d   1       0.733  -0.068   0.709  0.00  0.00    -0.005 A 
ATOM      6  C5  UNL d   1      -0.355   0.072  -0.158  0.00  0.00    -0.074 A 
ATOM      7  C6  UNL d   1      -0.239  -0.290  -1.609  0.00  0.00     0.077 C 
ATOM      8  C7  UNL d   1      -1.574   0.545   0.348  0.00  0.00    -0.001 A 
ENDROOT
TORSDOF 0
ENDMDL
