MODEL 1
REMARK minimizedAffinity -2.23436928
REMARK minimizedRMSD -1
REMARK  0 active torsions:
REMARK  status: ('A' for Active; 'I' for Inactive)
ROOT
ATOM      1  C   UNL d   1      -1.231  -1.466   3.077  0.00  0.00     0.077 C 
ATOM      2  C1  UNL d   1      -0.488  -0.491   2.212  0.00  0.00    -0.074 A 
ATOM      3  C2  UNL d   1       0.445   0.393   2.764  0.00  0.00    -0.005 A 
ATOM      4  C3  UNL d   1       1.135   1.287   1.946  0.00  0.00     0.006 A 
ATOM      5  C4  UNL d   1       0.900   1.307   0.570  0.00  0.00    -0.005 A 
ATOM      6  C5  UNL d   1      -0.028   0.429   0.001  0.00  0.00    -0.074 A 
ATOM      7  C6  UNL d   1      -0.285   0.430  -1.477  0.00  0.00     0.077 C 
ATOM      8  C7  UNL d   1      -0.713  -0.471   0.829  0.00  0.00    -0.001 A 
ENDROOT
TORSDOF 0
ENDMDL
