MODEL 1
REMARK minimizedAffinity -5.16367292
REMARK minimizedRMSD -1
REMARK  0 active torsions:
REMARK  status: ('A' for Active; 'I' for Inactive)
ROOT
ATOM      1  C   UNL d   1      -3.261  -0.443   1.530  0.00  0.00     0.077 C 
ATOM      2  C1  UNL d   1      -1.788  -0.159   1.510  0.00  0.00    -0.074 A 
ATOM      3  C2  UNL d   1      -1.090   0.104   2.693  0.00  0.00    -0.005 A 
ATOM      4  C3  UNL d   1       0.281   0.357   2.659  0.00  0.00     0.006 A 
ATOM      5  C4  UNL d   1       0.967   0.348   1.444  0.00  0.00    -0.005 A 
ATOM      6  C5  UNL d   1       0.286   0.086   0.251  0.00  0.00    -0.074 A 
ATOM      7  C6  UNL d   1       1.011   0.063  -1.062  0.00  0.00     0.077 C 
ATOM      8  C7  UNL d   1      -1.090  -0.174   0.294  0.00  0.00    -0.001 A 
ENDROOT
TORSDOF 0
ENDMDL
