MODEL 1
REMARK minimizedAffinity -3.33289433
REMARK minimizedRMSD -1
REMARK  0 active torsions:
REMARK  status: ('A' for Active; 'I' for Inactive)
ROOT
ATOM      1  C   UNL d   1      -3.163   1.194   2.158  0.00  0.00     0.077 C 
ATOM      2  C1  UNL d   1      -1.742   0.919   1.767  0.00  0.00    -0.074 A 
ATOM      3  C2  UNL d   1      -0.766   0.664   2.735  0.00  0.00    -0.005 A 
ATOM      4  C3  UNL d   1       0.550   0.400   2.356  0.00  0.00     0.006 A 
ATOM      5  C4  UNL d   1       0.903   0.388   1.006  0.00  0.00    -0.005 A 
ATOM      6  C5  UNL d   1      -0.059   0.640   0.023  0.00  0.00    -0.074 A 
ATOM      7  C6  UNL d   1       0.301   0.622  -1.433  0.00  0.00     0.077 C 
ATOM      8  C7  UNL d   1      -1.381   0.898   0.412  0.00  0.00    -0.001 A 
ENDROOT
TORSDOF 0
ENDMDL
