MODEL 1
REMARK minimizedAffinity -5.20869637
REMARK minimizedRMSD -1
REMARK  0 active torsions:
REMARK  status: ('A' for Active; 'I' for Inactive)
ROOT
ATOM      1  C   UNL d   1      -0.086   0.154  -1.416  0.00  0.00     0.077 C 
ATOM      2  C1  UNL d   1      -0.365   0.224   0.056  0.00  0.00    -0.074 A 
ATOM      3  C2  UNL d   1       0.680   0.316   0.982  0.00  0.00    -0.005 A 
ATOM      4  C3  UNL d   1       0.405   0.390   2.347  0.00  0.00     0.006 A 
ATOM      5  C4  UNL d   1      -0.915   0.373   2.800  0.00  0.00    -0.005 A 
ATOM      6  C5  UNL d   1      -1.972   0.283   1.890  0.00  0.00    -0.074 A 
ATOM      7  C6  UNL d   1      -3.397   0.273   2.359  0.00  0.00     0.077 C 
ATOM      8  C7  UNL d   1      -1.688   0.215   0.519  0.00  0.00    -0.001 A 
ENDROOT
TORSDOF 0
ENDMDL
