MODEL 1
REMARK minimizedAffinity 0.986575603
REMARK minimizedRMSD -1
REMARK  0 active torsions:
REMARK  status: ('A' for Active; 'I' for Inactive)
ROOT
ATOM      1  C   UNL d   1       0.248   0.255  -1.442  0.00  0.00     0.077 C 
ATOM      2  C1  UNL d   1      -0.065   0.556  -0.006  0.00  0.00    -0.074 A 
ATOM      3  C2  UNL d   1       0.946   0.583   0.960  0.00  0.00    -0.005 A 
ATOM      4  C3  UNL d   1       0.640   0.874   2.289  0.00  0.00     0.006 A 
ATOM      5  C4  UNL d   1      -0.677   1.141   2.665  0.00  0.00    -0.005 A 
ATOM      6  C5  UNL d   1      -1.700   1.120   1.713  0.00  0.00    -0.074 A 
ATOM      7  C6  UNL d   1      -3.120   1.415   2.099  0.00  0.00     0.077 C 
ATOM      8  C7  UNL d   1      -1.385   0.833   0.378  0.00  0.00    -0.001 A 
ENDROOT
TORSDOF 0
ENDMDL
