MODEL 1
REMARK minimizedAffinity -1.54283357
REMARK minimizedRMSD -1
REMARK  0 active torsions:
REMARK  status: ('A' for Active; 'I' for Inactive)
ROOT
ATOM      1  C   UNL d   1       1.816   0.611   2.876  0.00  0.00     0.077 C 
ATOM      2  C1  UNL d   1       0.629   0.231   2.042  0.00  0.00    -0.074 A 
ATOM      3  C2  UNL d   1      -0.499  -0.357   2.623  0.00  0.00    -0.005 A 
ATOM      4  C3  UNL d   1      -1.599  -0.697   1.836  0.00  0.00     0.006 A 
ATOM      5  C4  UNL d   1      -1.582  -0.453   0.462  0.00  0.00    -0.005 A 
ATOM      6  C5  UNL d   1      -0.463   0.135  -0.136  0.00  0.00    -0.074 A 
ATOM      7  C6  UNL d   1      -0.433   0.413  -1.610  0.00  0.00     0.077 C 
ATOM      8  C7  UNL d   1       0.635   0.480   0.662  0.00  0.00    -0.001 A 
ENDROOT
TORSDOF 0
ENDMDL
