MODEL 1
REMARK minimizedAffinity -4.96376324
REMARK minimizedRMSD -1
REMARK  0 active torsions:
REMARK  status: ('A' for Active; 'I' for Inactive)
ROOT
ATOM      1  C   UNL d   1      -0.027  -0.071  -1.000  0.00  0.00     0.077 C 
ATOM      2  C1  UNL d   1       0.018   0.018   0.497  0.00  0.00    -0.074 A 
ATOM      3  C2  UNL d   1       1.172   0.452   1.156  0.00  0.00    -0.005 A 
ATOM      4  C3  UNL d   1       1.196   0.539   2.548  0.00  0.00     0.006 A 
ATOM      5  C4  UNL d   1       0.068   0.194   3.293  0.00  0.00    -0.005 A 
ATOM      6  C5  UNL d   1      -1.095  -0.242   2.651  0.00  0.00    -0.074 A 
ATOM      7  C6  UNL d   1      -2.319  -0.608   3.436  0.00  0.00     0.077 C 
ATOM      8  C7  UNL d   1      -1.114  -0.320   1.252  0.00  0.00    -0.001 A 
ENDROOT
TORSDOF 0
ENDMDL
