MODEL 1
REMARK minimizedAffinity -3.41953158
REMARK minimizedRMSD -1
REMARK  0 active torsions:
REMARK  status: ('A' for Active; 'I' for Inactive)
ROOT
ATOM      1  C   UNL d   1       0.635   1.429   3.698  0.00  0.00     0.077 C 
ATOM      2  C1  UNL d   1      -0.131   0.738   2.609  0.00  0.00    -0.074 A 
ATOM      3  C2  UNL d   1      -1.388   0.178   2.858  0.00  0.00    -0.005 A 
ATOM      4  C3  UNL d   1      -2.092  -0.453   1.832  0.00  0.00     0.006 A 
ATOM      5  C4  UNL d   1      -1.548  -0.531   0.550  0.00  0.00    -0.005 A 
ATOM      6  C5  UNL d   1      -0.292   0.024   0.282  0.00  0.00    -0.074 A 
ATOM      7  C6  UNL d   1       0.303  -0.042  -1.093  0.00  0.00     0.077 C 
ATOM      8  C7  UNL d   1       0.406   0.663   1.316  0.00  0.00    -0.001 A 
ENDROOT
TORSDOF 0
ENDMDL
