MODEL 1
REMARK minimizedAffinity -3.7485168
REMARK minimizedRMSD -1
REMARK  0 active torsions:
REMARK  status: ('A' for Active; 'I' for Inactive)
ROOT
ATOM      1  C   UNL d   1       0.777   1.486   3.400  0.00  0.00     0.077 C 
ATOM      2  C1  UNL d   1       0.214   0.461   2.461  0.00  0.00    -0.074 A 
ATOM      3  C2  UNL d   1      -0.742  -0.463   2.894  0.00  0.00    -0.005 A 
ATOM      4  C3  UNL d   1      -1.264  -1.404   2.006  0.00  0.00     0.006 A 
ATOM      5  C4  UNL d   1      -0.836  -1.430   0.678  0.00  0.00    -0.005 A 
ATOM      6  C5  UNL d   1       0.118  -0.513   0.227  0.00  0.00    -0.074 A 
ATOM      7  C6  UNL d   1       0.581  -0.521  -1.200  0.00  0.00     0.077 C 
ATOM      8  C7  UNL d   1       0.632   0.434   1.123  0.00  0.00    -0.001 A 
ENDROOT
TORSDOF 0
ENDMDL
