MODEL 1
REMARK minimizedAffinity -4.6390357
REMARK minimizedRMSD -1
REMARK  0 active torsions:
REMARK  status: ('A' for Active; 'I' for Inactive)
ROOT
ATOM      1  C   UNL d   1      -0.302  -1.063   3.182  0.00  0.00     0.077 C 
ATOM      2  C1  UNL d   1      -0.928  -0.517   1.933  0.00  0.00    -0.074 A 
ATOM      3  C2  UNL d   1      -2.309  -0.311   1.852  0.00  0.00    -0.005 A 
ATOM      4  C3  UNL d   1      -2.876   0.206   0.688  0.00  0.00     0.006 A 
ATOM      5  C4  UNL d   1      -2.069   0.523  -0.406  0.00  0.00    -0.005 A 
ATOM      6  C5  UNL d   1      -0.686   0.325  -0.343  0.00  0.00    -0.074 A 
ATOM      7  C6  UNL d   1       0.196   0.669  -1.506  0.00  0.00     0.077 C 
ATOM      8  C7  UNL d   1      -0.123  -0.189   0.833  0.00  0.00    -0.001 A 
ENDROOT
TORSDOF 0
ENDMDL
