MODEL 1
REMARK minimizedAffinity -2.53343081
REMARK minimizedRMSD -1
REMARK  0 active torsions:
REMARK  status: ('A' for Active; 'I' for Inactive)
ROOT
ATOM      1  C   UNL d   1       1.455   0.214  -1.714  0.00  0.00     0.077 C 
ATOM      2  C1  UNL d   1       0.873   0.198  -0.332  0.00  0.00    -0.074 A 
ATOM      3  C2  UNL d   1       1.629   0.607   0.771  0.00  0.00    -0.005 A 
ATOM      4  C3  UNL d   1       1.070   0.595   2.049  0.00  0.00     0.006 A 
ATOM      5  C4  UNL d   1      -0.247   0.175   2.237  0.00  0.00    -0.005 A 
ATOM      6  C5  UNL d   1      -1.018  -0.237   1.146  0.00  0.00    -0.074 A 
ATOM      7  C6  UNL d   1      -2.439  -0.682   1.328  0.00  0.00     0.077 C 
ATOM      8  C7  UNL d   1      -0.452  -0.216  -0.137  0.00  0.00    -0.001 A 
ENDROOT
TORSDOF 0
ENDMDL
