MODEL 1
REMARK minimizedAffinity -3.80261445
REMARK minimizedRMSD -1
REMARK  0 active torsions:
REMARK  status: ('A' for Active; 'I' for Inactive)
ROOT
ATOM      1  C   UNL d   1       0.601   0.313  -1.725  0.00  0.00     0.077 C 
ATOM      2  C1  UNL d   1      -0.364   0.196  -0.582  0.00  0.00    -0.074 A 
ATOM      3  C2  UNL d   1      -1.697   0.595  -0.724  0.00  0.00    -0.005 A 
ATOM      4  C3  UNL d   1      -2.585   0.472   0.345  0.00  0.00     0.006 A 
ATOM      5  C4  UNL d   1      -2.150  -0.051   1.563  0.00  0.00    -0.005 A 
ATOM      6  C5  UNL d   1      -0.821  -0.456   1.723  0.00  0.00    -0.074 A 
ATOM      7  C6  UNL d   1      -0.339  -1.029   3.023  0.00  0.00     0.077 C 
ATOM      8  C7  UNL d   1       0.064  -0.335   0.642  0.00  0.00    -0.001 A 
ENDROOT
TORSDOF 0
ENDMDL
