MODEL 1
REMARK minimizedAffinity -3.90791464
REMARK minimizedRMSD -1
REMARK  0 active torsions:
REMARK  status: ('A' for Active; 'I' for Inactive)
ROOT
ATOM      1  C   UNL d   1       4.486   0.683  -3.263  0.00  0.00     0.077 C 
ATOM      2  C1  UNL d   1       3.174  -0.035  -3.142  0.00  0.00    -0.074 A 
ATOM      3  C2  UNL d   1       2.886  -1.146  -3.941  0.00  0.00    -0.005 A 
ATOM      4  C3  UNL d   1       1.666  -1.808  -3.810  0.00  0.00     0.006 A 
ATOM      5  C4  UNL d   1       0.722  -1.367  -2.881  0.00  0.00    -0.005 A 
ATOM      6  C5  UNL d   1       0.993  -0.259  -2.073  0.00  0.00    -0.074 A 
ATOM      7  C6  UNL d   1      -0.006   0.223  -1.063  0.00  0.00     0.077 C 
ATOM      8  C7  UNL d   1       2.224   0.398  -2.206  0.00  0.00    -0.001 A 
ENDROOT
TORSDOF 0
ENDMDL
