MODEL 1
REMARK minimizedAffinity -3.32243943
REMARK minimizedRMSD -1
REMARK  0 active torsions:
REMARK  status: ('A' for Active; 'I' for Inactive)
ROOT
ATOM      1  C   UNL d   1      -2.250   0.663  -1.057  0.00  0.00     0.077 C 
ATOM      2  C1  UNL d   1      -1.078   0.404  -0.157  0.00  0.00    -0.074 A 
ATOM      3  C2  UNL d   1       0.231   0.471  -0.645  0.00  0.00    -0.005 A 
ATOM      4  C3  UNL d   1       1.311   0.237   0.207  0.00  0.00     0.006 A 
ATOM      5  C4  UNL d   1       1.093  -0.065   1.551  0.00  0.00    -0.005 A 
ATOM      6  C5  UNL d   1      -0.209  -0.136   2.056  0.00  0.00    -0.074 A 
ATOM      7  C6  UNL d   1      -0.460  -0.450   3.501  0.00  0.00     0.077 C 
ATOM      8  C7  UNL d   1      -1.289   0.107   1.196  0.00  0.00    -0.001 A 
ENDROOT
TORSDOF 0
ENDMDL
