MODEL 1
REMARK minimizedAffinity -0.928563535
REMARK minimizedRMSD -1
REMARK  2 active torsions:
REMARK  status: ('A' for Active; 'I' for Inactive)
REMARK    1  A    between atoms: C2'_3  and  C1'_4 
REMARK    2  A    between atoms: C1'_4  and  C1_5 
ROOT
ATOM      1  C1  I4B d   1       0.488  -0.356  -0.159  0.00  0.00    -0.075 A 
ATOM      2  C2  I4B d   1       0.006   0.857  -0.584  0.00  0.00     0.003 A 
ATOM      3  C3  I4B d   1      -0.850   1.615   0.251  0.00  0.00     0.002 A 
ATOM      4  C4  I4B d   1      -1.236   1.103   1.473  0.00  0.00    -0.004 A 
ATOM      5  C5  I4B d   1      -0.728  -0.116   1.911  0.00  0.00     0.002 A 
ATOM      6  C6  I4B d   1       0.149  -0.845   1.095  0.00  0.00     0.003 A 
ENDROOT
BRANCH   1   7
ATOM      7  C1' I4B d   1       1.364  -1.145  -1.080  0.00  0.00     0.060 C 
BRANCH   7   8
ATOM      8  C2' I4B d   1       0.642  -2.433  -1.421  0.00  0.00    -0.013 C 
ATOM      9  C4' I4B d   1       0.504  -2.603  -2.911  0.00  0.00     0.013 C 
ATOM     10  C3' I4B d   1       1.411  -3.569  -0.815  0.00  0.00     0.013 C 
ENDBRANCH   7   8
ENDBRANCH   1   7
TORSDOF 2
ENDMDL
