MODEL 1
REMARK minimizedAffinity -2.74701643
REMARK minimizedRMSD -1
REMARK  2 active torsions:
REMARK  status: ('A' for Active; 'I' for Inactive)
REMARK    1  A    between atoms: C2'_3  and  C1'_4 
REMARK    2  A    between atoms: C1'_4  and  C1_5 
ROOT
ATOM      1  C1  I4B d   1       0.119  -0.064  -0.052  0.00  0.00    -0.075 A 
ATOM      2  C2  I4B d   1       0.069  -0.452   1.264  0.00  0.00     0.003 A 
ATOM      3  C3  I4B d   1      -0.560   0.373   2.227  0.00  0.00     0.002 A 
ATOM      4  C4  I4B d   1      -1.079   1.593   1.842  0.00  0.00    -0.004 A 
ATOM      5  C5  I4B d   1      -1.049   1.974   0.504  0.00  0.00     0.002 A 
ATOM      6  C6  I4B d   1      -0.457   1.135  -0.452  0.00  0.00     0.003 A 
ENDROOT
BRANCH   1   7
ATOM      7  C1' I4B d   1       0.820  -0.945  -1.037  0.00  0.00     0.060 C 
BRANCH   7   8
ATOM      8  C2' I4B d   1      -0.072  -2.137  -1.315  0.00  0.00    -0.013 C 
ATOM      9  C4' I4B d   1      -0.663  -2.065  -2.698  0.00  0.00     0.013 C 
ATOM     10  C3' I4B d   1       0.749  -3.380  -1.142  0.00  0.00     0.013 C 
ENDBRANCH   7   8
ENDBRANCH   1   7
TORSDOF 2
ENDMDL
