MODEL 1
REMARK minimizedAffinity -4.05074263
REMARK minimizedRMSD -1
REMARK  2 active torsions:
REMARK  status: ('A' for Active; 'I' for Inactive)
REMARK    1  A    between atoms: C2'_3  and  C1'_4 
REMARK    2  A    between atoms: C1'_4  and  C1_5 
ROOT
ATOM      1  C1  I4B d   1       0.147  -0.126  -0.161  0.00  0.00    -0.075 A 
ATOM      2  C2  I4B d   1      -0.141  -0.579   1.102  0.00  0.00     0.003 A 
ATOM      3  C3  I4B d   1      -0.983   0.174   1.955  0.00  0.00     0.002 A 
ATOM      4  C4  I4B d   1      -1.472   1.391   1.526  0.00  0.00    -0.004 A 
ATOM      5  C5  I4B d   1      -1.197   1.839   0.237  0.00  0.00     0.002 A 
ATOM      6  C6  I4B d   1      -0.393   1.070  -0.617  0.00  0.00     0.003 A 
ENDROOT
BRANCH   1   7
ATOM      7  C1' I4B d   1       1.067  -0.930  -1.023  0.00  0.00     0.060 C 
BRANCH   7   8
ATOM      8  C2' I4B d   1       0.352  -2.213  -1.398  0.00  0.00    -0.013 C 
ATOM      9  C4' I4B d   1      -0.332  -2.086  -2.733  0.00  0.00     0.013 C 
ATOM     10  C3' I4B d   1       1.364  -3.320  -1.412  0.00  0.00     0.013 C 
ENDBRANCH   7   8
ENDBRANCH   1   7
TORSDOF 2
ENDMDL
