MODEL 1
REMARK minimizedAffinity -0.164594233
REMARK minimizedRMSD -1
REMARK  2 active torsions:
REMARK  status: ('A' for Active; 'I' for Inactive)
REMARK    1  A    between atoms: C2'_3  and  C1'_4 
REMARK    2  A    between atoms: C1'_4  and  C1_5 
ROOT
ATOM      1  C1  I4B d   1       0.818  -0.080  -0.985  0.00  0.00    -0.075 A 
ATOM      2  C2  I4B d   1       0.670   1.124  -1.627  0.00  0.00     0.003 A 
ATOM      3  C3  I4B d   1      -0.299   2.055  -1.181  0.00  0.00     0.002 A 
ATOM      4  C4  I4B d   1      -1.126   1.723  -0.127  0.00  0.00    -0.004 A 
ATOM      5  C5  I4B d   1      -0.958   0.512   0.537  0.00  0.00     0.002 A 
ATOM      6  C6  I4B d   1       0.028  -0.391   0.114  0.00  0.00     0.003 A 
ENDROOT
BRANCH   1   7
ATOM      7  C1' I4B d   1       1.828  -1.054  -1.504  0.00  0.00     0.060 C 
BRANCH   7   8
ATOM      8  C2' I4B d   1       1.095  -2.318  -1.906  0.00  0.00    -0.013 C 
ATOM      9  C4' I4B d   1       0.895  -2.382  -3.397  0.00  0.00     0.013 C 
ATOM     10  C3' I4B d   1       1.890  -3.490  -1.414  0.00  0.00     0.013 C 
ENDBRANCH   7   8
ENDBRANCH   1   7
TORSDOF 2
ENDMDL
