MODEL 1
REMARK minimizedAffinity -0.792863131
REMARK minimizedRMSD -1
REMARK  2 active torsions:
REMARK  status: ('A' for Active; 'I' for Inactive)
REMARK    1  A    between atoms: C2'_3  and  C1'_4 
REMARK    2  A    between atoms: C1'_4  and  C1_5 
ROOT
ATOM      1  C1  I4B d   1       0.017   0.128   0.043  0.00  0.00    -0.075 A 
ATOM      2  C2  I4B d   1      -0.006   1.460   0.371  0.00  0.00     0.003 A 
ATOM      3  C3  I4B d   1      -0.561   1.881   1.604  0.00  0.00     0.002 A 
ATOM      4  C4  I4B d   1      -1.124   0.947   2.450  0.00  0.00    -0.004 A 
ATOM      5  C5  I4B d   1      -1.079  -0.406   2.126  0.00  0.00     0.002 A 
ATOM      6  C6  I4B d   1      -0.494  -0.820   0.920  0.00  0.00     0.003 A 
ENDROOT
BRANCH   1   7
ATOM      7  C1' I4B d   1       0.581  -0.278  -1.282  0.00  0.00     0.060 C 
BRANCH   7   8
ATOM      8  C2' I4B d   1      -0.156  -1.519  -1.743  0.00  0.00    -0.013 C 
ATOM      9  C4' I4B d   1      -0.656  -1.363  -3.155  0.00  0.00     0.013 C 
ATOM     10  C3' I4B d   1       0.780  -2.685  -1.625  0.00  0.00     0.013 C 
ENDBRANCH   7   8
ENDBRANCH   1   7
TORSDOF 2
ENDMDL
