MODEL 1
REMARK minimizedAffinity -4.60757256
REMARK minimizedRMSD -1
REMARK  2 active torsions:
REMARK  status: ('A' for Active; 'I' for Inactive)
REMARK    1  A    between atoms: C2'_3  and  C1'_4 
REMARK    2  A    between atoms: C1'_4  and  C1_5 
ROOT
ATOM      1  C1  I4B d   1       0.143   0.014  -0.130  0.00  0.00    -0.075 A 
ATOM      2  C2  I4B d   1      -0.098  -0.457   1.136  0.00  0.00     0.003 A 
ATOM      3  C3  I4B d   1      -0.935   0.268   2.019  0.00  0.00     0.002 A 
ATOM      4  C4  I4B d   1      -1.465   1.476   1.615  0.00  0.00    -0.004 A 
ATOM      5  C5  I4B d   1      -1.238   1.941   0.323  0.00  0.00     0.002 A 
ATOM      6  C6  I4B d   1      -0.439   1.199  -0.560  0.00  0.00     0.003 A 
ENDROOT
BRANCH   1   7
ATOM      7  C1' I4B d   1       1.057  -0.761  -1.025  0.00  0.00     0.060 C 
BRANCH   7   8
ATOM      8  C2' I4B d   1       0.459  -2.139  -1.224  0.00  0.00    -0.013 C 
ATOM      9  C4' I4B d   1      -0.156  -2.274  -2.592  0.00  0.00     0.013 C 
ATOM     10  C3' I4B d   1       1.547  -3.150  -1.018  0.00  0.00     0.013 C 
ENDBRANCH   7   8
ENDBRANCH   1   7
TORSDOF 2
ENDMDL
