MODEL 1
REMARK minimizedAffinity -4.97359514
REMARK minimizedRMSD -1
REMARK  2 active torsions:
REMARK  status: ('A' for Active; 'I' for Inactive)
REMARK    1  A    between atoms: C2'_3  and  C1'_4 
REMARK    2  A    between atoms: C1'_4  and  C1_5 
ROOT
ATOM      1  C1  I4B d   1      -0.504   0.351   0.704  0.00  0.00    -0.075 A 
ATOM      2  C2  I4B d   1      -1.116   0.369   1.932  0.00  0.00     0.003 A 
ATOM      3  C3  I4B d   1      -1.895   1.484   2.324  0.00  0.00     0.002 A 
ATOM      4  C4  I4B d   1      -1.993   2.574   1.483  0.00  0.00    -0.004 A 
ATOM      5  C5  I4B d   1      -1.391   2.545   0.229  0.00  0.00     0.002 A 
ATOM      6  C6  I4B d   1      -0.651   1.421  -0.169  0.00  0.00     0.003 A 
ENDROOT
BRANCH   1   7
ATOM      7  C1' I4B d   1       0.339  -0.829   0.336  0.00  0.00     0.060 C 
BRANCH   7   8
ATOM      8  C2' I4B d   1       0.571  -0.788  -1.161  0.00  0.00    -0.013 C 
ATOM      9  C4' I4B d   1       1.790   0.028  -1.502  0.00  0.00     0.013 C 
ATOM     10  C3' I4B d   1       0.711  -2.200  -1.647  0.00  0.00     0.013 C 
ENDBRANCH   7   8
ENDBRANCH   1   7
TORSDOF 2
ENDMDL
