MODEL 1
REMARK minimizedAffinity -3.77330112
REMARK minimizedRMSD -1
REMARK  2 active torsions:
REMARK  status: ('A' for Active; 'I' for Inactive)
REMARK    1  A    between atoms: C2'_3  and  C1'_4 
REMARK    2  A    between atoms: C1'_4  and  C1_5 
ROOT
ATOM      1  C1  I4B d   1       0.308  -0.267  -0.434  0.00  0.00    -0.075 A 
ATOM      2  C2  I4B d   1      -0.363  -0.452   0.749  0.00  0.00     0.003 A 
ATOM      3  C3  I4B d   1      -1.219   0.559   1.249  0.00  0.00     0.002 A 
ATOM      4  C4  I4B d   1      -1.336   1.751   0.563  0.00  0.00    -0.004 A 
ATOM      5  C5  I4B d   1      -0.673   1.928  -0.648  0.00  0.00     0.002 A 
ATOM      6  C6  I4B d   1       0.144   0.908  -1.156  0.00  0.00     0.003 A 
ENDROOT
BRANCH   1   7
ATOM      7  C1' I4B d   1       1.230  -1.342  -0.915  0.00  0.00     0.060 C 
BRANCH   7   8
ATOM      8  C2' I4B d   1       0.391  -2.412  -1.583  0.00  0.00    -0.013 C 
ATOM      9  C4' I4B d   1       0.134  -2.081  -3.029  0.00  0.00     0.013 C 
ATOM     10  C3' I4B d   1       1.113  -3.719  -1.447  0.00  0.00     0.013 C 
ENDBRANCH   7   8
ENDBRANCH   1   7
TORSDOF 2
ENDMDL
