MODEL 1
REMARK minimizedAffinity -1.34094727
REMARK minimizedRMSD -1
REMARK  2 active torsions:
REMARK  status: ('A' for Active; 'I' for Inactive)
REMARK    1  A    between atoms: C2'_3  and  C1'_4 
REMARK    2  A    between atoms: C1'_4  and  C1_5 
ROOT
ATOM      1  C1  I4B d   1       0.697  -0.516  -0.592  0.00  0.00    -0.075 A 
ATOM      2  C2  I4B d   1       0.159   0.550  -1.268  0.00  0.00     0.003 A 
ATOM      3  C3  I4B d   1      -0.703   1.455  -0.602  0.00  0.00     0.002 A 
ATOM      4  C4  I4B d   1      -1.037   1.229   0.717  0.00  0.00    -0.004 A 
ATOM      5  C5  I4B d   1      -0.472   0.160   1.408  0.00  0.00     0.002 A 
ATOM      6  C6  I4B d   1       0.410  -0.711   0.752  0.00  0.00     0.003 A 
ENDROOT
BRANCH   1   7
ATOM      7  C1' I4B d   1       1.577  -1.471  -1.336  0.00  0.00     0.060 C 
BRANCH   7   8
ATOM      8  C2' I4B d   1       0.899  -2.826  -1.336  0.00  0.00    -0.013 C 
ATOM      9  C4' I4B d   1       0.454  -3.213  -2.722  0.00  0.00     0.013 C 
ATOM     10  C3' I4B d   1       1.867  -3.828  -0.779  0.00  0.00     0.013 C 
ENDBRANCH   7   8
ENDBRANCH   1   7
TORSDOF 2
ENDMDL
