MODEL 1
REMARK minimizedAffinity -4.38546419
REMARK minimizedRMSD -1
REMARK  2 active torsions:
REMARK  status: ('A' for Active; 'I' for Inactive)
REMARK    1  A    between atoms: C2'_3  and  C1'_4 
REMARK    2  A    between atoms: C1'_4  and  C1_5 
ROOT
ATOM      1  C1  I4B d   1      -0.052  -0.064  -0.034  0.00  0.00    -0.075 A 
ATOM      2  C2  I4B d   1      -0.542   1.211  -0.173  0.00  0.00     0.003 A 
ATOM      3  C3  I4B d   1      -1.385   1.763   0.822  0.00  0.00     0.002 A 
ATOM      4  C4  I4B d   1      -1.751   0.992   1.907  0.00  0.00    -0.004 A 
ATOM      5  C5  I4B d   1      -1.235  -0.292   2.058  0.00  0.00     0.002 A 
ATOM      6  C6  I4B d   1      -0.370  -0.819   1.087  0.00  0.00     0.003 A 
ENDROOT
BRANCH   1   7
ATOM      7  C1' I4B d   1       0.809  -0.628  -1.120  0.00  0.00     0.060 C 
BRANCH   7   8
ATOM      8  C2' I4B d   1       0.266  -1.995  -1.483  0.00  0.00    -0.013 C 
ATOM      9  C4' I4B d   1      -0.273  -2.011  -2.890  0.00  0.00     0.013 C 
ATOM     10  C3' I4B d   1       1.373  -2.992  -1.316  0.00  0.00     0.013 C 
ENDBRANCH   7   8
ENDBRANCH   1   7
TORSDOF 2
ENDMDL
