MODEL 1
REMARK minimizedAffinity -5.79568863
REMARK minimizedRMSD -1
REMARK  2 active torsions:
REMARK  status: ('A' for Active; 'I' for Inactive)
REMARK    1  A    between atoms: C2'_3  and  C1'_4 
REMARK    2  A    between atoms: C1'_4  and  C1_5 
ROOT
ATOM      1  C1  I4B d   1       0.058  -0.038  -0.003  0.00  0.00    -0.075 A 
ATOM      2  C2  I4B d   1      -0.527   1.117  -0.456  0.00  0.00     0.003 A 
ATOM      3  C3  I4B d   1      -1.494   1.784   0.335  0.00  0.00     0.002 A 
ATOM      4  C4  I4B d   1      -1.880   1.237   1.541  0.00  0.00    -0.004 A 
ATOM      5  C5  I4B d   1      -1.268   0.078   2.010  0.00  0.00     0.002 A 
ATOM      6  C6  I4B d   1      -0.284  -0.558   1.239  0.00  0.00     0.003 A 
ENDROOT
BRANCH   1   7
ATOM      7  C1' I4B d   1       1.051  -0.735  -0.879  0.00  0.00     0.060 C 
BRANCH   7   8
ATOM      8  C2' I4B d   1       0.665  -2.198  -0.951  0.00  0.00    -0.013 C 
ATOM      9  C4' I4B d   1      -0.065  -2.506  -2.232  0.00  0.00     0.013 C 
ATOM     10  C3' I4B d   1       1.917  -3.014  -0.831  0.00  0.00     0.013 C 
ENDBRANCH   7   8
ENDBRANCH   1   7
TORSDOF 2
ENDMDL
