MODEL 1
REMARK minimizedAffinity 5.70852804
REMARK minimizedRMSD -1
REMARK  0 active torsions:
REMARK  status: ('A' for Active; 'I' for Inactive)
ROOT
ATOM      1  C1  BNZ d   1      -0.820  -0.534   1.041  0.00  0.00     0.000 A 
ATOM      2  C2  BNZ d   1      -1.601   0.329   1.763  0.00  0.00     0.000 A 
ATOM      3  C3  BNZ d   1      -2.639  -0.134   2.522  0.00  0.00     0.000 A 
ATOM      4  C4  BNZ d   1      -2.920  -1.453   2.526  0.00  0.00     0.000 A 
ATOM      5  C5  BNZ d   1      -2.147  -2.335   1.796  0.00  0.00     0.000 A 
ATOM      6  C6  BNZ d   1      -1.079  -1.869   1.064  0.00  0.00     0.000 A 
ENDROOT
TORSDOF 0
ENDMDL
