MODEL 1
REMARK minimizedAffinity 0.63082099
REMARK minimizedRMSD -1
REMARK  0 active torsions:
REMARK  status: ('A' for Active; 'I' for Inactive)
ROOT
ATOM      1  C1  BNZ d   1      -5.657  -5.997   3.921  0.00  0.00     0.000 A 
ATOM      2  C2  BNZ d   1      -5.997  -5.976   5.248  0.00  0.00     0.000 A 
ATOM      3  C3  BNZ d   1      -5.813  -4.850   6.000  0.00  0.00     0.000 A 
ATOM      4  C4  BNZ d   1      -5.253  -3.760   5.436  0.00  0.00     0.000 A 
ATOM      5  C5  BNZ d   1      -4.896  -3.769   4.103  0.00  0.00     0.000 A 
ATOM      6  C6  BNZ d   1      -5.119  -4.891   3.339  0.00  0.00     0.000 A 
ENDROOT
TORSDOF 0
ENDMDL
