MODEL 1
REMARK minimizedAffinity 6.12564182
REMARK minimizedRMSD -1
REMARK  0 active torsions:
REMARK  status: ('A' for Active; 'I' for Inactive)
ROOT
ATOM      1  C1  BNZ d   1       2.360   5.934  -2.621  0.00  0.00     0.000 A 
ATOM      2  C2  BNZ d   1       1.786   4.805  -3.140  0.00  0.00     0.000 A 
ATOM      3  C3  BNZ d   1       2.553   3.728  -3.490  0.00  0.00     0.000 A 
ATOM      4  C4  BNZ d   1       3.893   3.797  -3.358  0.00  0.00     0.000 A 
ATOM      5  C5  BNZ d   1       4.487   4.933  -2.845  0.00  0.00     0.000 A 
ATOM      6  C6  BNZ d   1       3.709   6.000  -2.457  0.00  0.00     0.000 A 
ENDROOT
TORSDOF 0
ENDMDL
