MODEL 1
REMARK minimizedAffinity 7.01137686
REMARK minimizedRMSD -1
REMARK  0 active torsions:
REMARK  status: ('A' for Active; 'I' for Inactive)
ROOT
ATOM      1  C1  BNZ d   1       5.607   4.599  -4.627  0.00  0.00     0.000 A 
ATOM      2  C2  BNZ d   1       4.547   3.820  -5.008  0.00  0.00     0.000 A 
ATOM      3  C3  BNZ d   1       3.659   3.347  -4.082  0.00  0.00     0.000 A 
ATOM      4  C4  BNZ d   1       3.853   3.620  -2.776  0.00  0.00     0.000 A 
ATOM      5  C5  BNZ d   1       4.923   4.397  -2.376  0.00  0.00     0.000 A 
ATOM      6  C6  BNZ d   1       5.793   4.903  -3.314  0.00  0.00     0.000 A 
ENDROOT
TORSDOF 0
ENDMDL
