MODEL 1
REMARK minimizedAffinity 4.96536684
REMARK minimizedRMSD -1
REMARK  0 active torsions:
REMARK  status: ('A' for Active; 'I' for Inactive)
ROOT
ATOM      1  C1  BNZ d   1      -4.877  -4.931   3.391  0.00  0.00     0.000 A 
ATOM      2  C2  BNZ d   1      -5.575  -5.995   3.898  0.00  0.00     0.000 A 
ATOM      3  C3  BNZ d   1      -5.999  -5.999   5.197  0.00  0.00     0.000 A 
ATOM      4  C4  BNZ d   1      -5.689  -4.960   5.999  0.00  0.00     0.000 A 
ATOM      5  C5  BNZ d   1      -4.978  -3.885   5.506  0.00  0.00     0.000 A 
ATOM      6  C6  BNZ d   1      -4.587  -3.866   4.187  0.00  0.00     0.000 A 
ENDROOT
TORSDOF 0
ENDMDL
