MODEL 1
REMARK minimizedAffinity 3.16623425
REMARK minimizedRMSD -1
REMARK  0 active torsions:
REMARK  status: ('A' for Active; 'I' for Inactive)
ROOT
ATOM      1  C1  BNZ d   1      -2.196  -5.993  -4.485  0.00  0.00     0.000 A 
ATOM      2  C2  BNZ d   1      -2.296  -5.152  -3.409  0.00  0.00     0.000 A 
ATOM      3  C3  BNZ d   1      -1.274  -4.304  -3.085  0.00  0.00     0.000 A 
ATOM      4  C4  BNZ d   1      -0.139  -4.327  -3.813  0.00  0.00     0.000 A 
ATOM      5  C5  BNZ d   1      -0.019  -5.175  -4.896  0.00  0.00     0.000 A 
ATOM      6  C6  BNZ d   1      -1.065  -5.999  -5.242  0.00  0.00     0.000 A 
ENDROOT
TORSDOF 0
ENDMDL
