MODEL 1
REMARK minimizedAffinity 5.41785765
REMARK minimizedRMSD -1
REMARK  0 active torsions:
REMARK  status: ('A' for Active; 'I' for Inactive)
ROOT
ATOM      1  C1  BNZ d   1      -2.954  -5.979  -5.199  0.00  0.00     0.000 A 
ATOM      2  C2  BNZ d   1      -2.982  -5.172  -4.093  0.00  0.00     0.000 A 
ATOM      3  C3  BNZ d   1      -1.918  -4.372  -3.783  0.00  0.00     0.000 A 
ATOM      4  C4  BNZ d   1      -0.813  -4.409  -4.556  0.00  0.00     0.000 A 
ATOM      5  C5  BNZ d   1      -0.766  -5.225  -5.669  0.00  0.00     0.000 A 
ATOM      6  C6  BNZ d   1      -1.854  -6.000  -6.000  0.00  0.00     0.000 A 
ENDROOT
TORSDOF 0
ENDMDL
