MODEL 1
REMARK minimizedAffinity 4.80108452
REMARK minimizedRMSD -1
REMARK  0 active torsions:
REMARK  status: ('A' for Active; 'I' for Inactive)
ROOT
ATOM      1  C1  BNZ d   1      -0.040  -4.146  -3.532  0.00  0.00     0.000 A 
ATOM      2  C2  BNZ d   1      -1.114  -4.256  -2.689  0.00  0.00     0.000 A 
ATOM      3  C3  BNZ d   1      -2.085  -5.192  -2.911  0.00  0.00     0.000 A 
ATOM      4  C4  BNZ d   1      -2.003  -5.988  -3.996  0.00  0.00     0.000 A 
ATOM      5  C5  BNZ d   1      -0.931  -5.883  -4.861  0.00  0.00     0.000 A 
ATOM      6  C6  BNZ d   1       0.065  -4.967  -4.613  0.00  0.00     0.000 A 
ENDROOT
TORSDOF 0
ENDMDL
