MODEL 1
REMARK minimizedAffinity 5.98868895
REMARK minimizedRMSD -1
REMARK  0 active torsions:
REMARK  status: ('A' for Active; 'I' for Inactive)
ROOT
ATOM      1  C1  BNZ d   1      -2.027  -0.823   1.978  0.00  0.00     0.000 A 
ATOM      2  C2  BNZ d   1      -1.431  -0.438   3.150  0.00  0.00     0.000 A 
ATOM      3  C3  BNZ d   1      -1.957   0.575   3.902  0.00  0.00     0.000 A 
ATOM      4  C4  BNZ d   1      -3.053   1.227   3.463  0.00  0.00     0.000 A 
ATOM      5  C5  BNZ d   1      -3.659   0.857   2.279  0.00  0.00     0.000 A 
ATOM      6  C6  BNZ d   1      -3.150  -0.188   1.544  0.00  0.00     0.000 A 
ENDROOT
TORSDOF 0
ENDMDL
