MODEL 1
REMARK minimizedAffinity 7.75824833
REMARK minimizedRMSD -1
REMARK  0 active torsions:
REMARK  status: ('A' for Active; 'I' for Inactive)
ROOT
ATOM      1  C1  BNZ d   1      -1.121  -1.890   1.202  0.00  0.00     0.000 A 
ATOM      2  C2  BNZ d   1      -0.492  -0.811   1.765  0.00  0.00     0.000 A 
ATOM      3  C3  BNZ d   1      -1.168   0.037   2.597  0.00  0.00     0.000 A 
ATOM      4  C4  BNZ d   1      -2.480  -0.170   2.832  0.00  0.00     0.000 A 
ATOM      5  C5  BNZ d   1      -3.130  -1.247   2.265  0.00  0.00     0.000 A 
ATOM      6  C6  BNZ d   1      -2.437  -2.122   1.459  0.00  0.00     0.000 A 
ENDROOT
TORSDOF 0
ENDMDL
