MODEL 1
REMARK minimizedAffinity 3.05560184
REMARK minimizedRMSD -1
REMARK  0 active torsions:
REMARK  status: ('A' for Active; 'I' for Inactive)
ROOT
ATOM      1  C1  BNZ d   1       4.133   1.146   1.563  0.00  0.00     0.000 A 
ATOM      2  C2  BNZ d   1       3.095   0.636   0.830  0.00  0.00     0.000 A 
ATOM      3  C3  BNZ d   1       2.247   1.464   0.148  0.00  0.00     0.000 A 
ATOM      4  C4  BNZ d   1       2.414   2.800   0.233  0.00  0.00     0.000 A 
ATOM      5  C5  BNZ d   1       3.451   3.329   0.975  0.00  0.00     0.000 A 
ATOM      6  C6  BNZ d   1       4.325   2.491   1.628  0.00  0.00     0.000 A 
ENDROOT
TORSDOF 0
ENDMDL
