MODEL 1
REMARK minimizedAffinity 6.07231331
REMARK minimizedRMSD -1
REMARK  0 active torsions:
REMARK  status: ('A' for Active; 'I' for Inactive)
ROOT
ATOM      1  C1  BNZ d   1      -0.779  -1.757   1.469  0.00  0.00     0.000 A 
ATOM      2  C2  BNZ d   1      -1.894  -1.108   1.008  0.00  0.00     0.000 A 
ATOM      3  C3  BNZ d   1      -2.460  -0.094   1.728  0.00  0.00     0.000 A 
ATOM      4  C4  BNZ d   1      -1.937   0.244   2.924  0.00  0.00     0.000 A 
ATOM      5  C5  BNZ d   1      -0.819  -0.407   3.406  0.00  0.00     0.000 A 
ATOM      6  C6  BNZ d   1      -0.228  -1.401   2.661  0.00  0.00     0.000 A 
ENDROOT
TORSDOF 0
ENDMDL
