MODEL 1
REMARK minimizedAffinity 0.480041653
REMARK minimizedRMSD -1
REMARK  0 active torsions:
REMARK  status: ('A' for Active; 'I' for Inactive)
ROOT
ATOM      1  C1  BNZ d   1       3.234  -3.472   0.418  0.00  0.00     0.000 A 
ATOM      2  C2  BNZ d   1       2.116  -4.256   0.317  0.00  0.00     0.000 A 
ATOM      3  C3  BNZ d   1       0.905  -3.808   0.766  0.00  0.00     0.000 A 
ATOM      4  C4  BNZ d   1       0.822  -2.596   1.351  0.00  0.00     0.000 A 
ATOM      5  C5  BNZ d   1       1.943  -1.798   1.469  0.00  0.00     0.000 A 
ATOM      6  C6  BNZ d   1       3.152  -2.236   0.980  0.00  0.00     0.000 A 
ENDROOT
TORSDOF 0
ENDMDL
