MODEL 1
REMARK minimizedAffinity -0.122021966
REMARK minimizedRMSD -1
REMARK  0 active torsions:
REMARK  status: ('A' for Active; 'I' for Inactive)
ROOT
ATOM      1  C1  BNZ d   1       0.772  -3.035   0.797  0.00  0.00     0.000 A 
ATOM      2  C2  BNZ d   1       1.525  -3.925   0.078  0.00  0.00     0.000 A 
ATOM      3  C3  BNZ d   1       2.818  -3.637  -0.257  0.00  0.00     0.000 A 
ATOM      4  C4  BNZ d   1       3.344  -2.445   0.091  0.00  0.00     0.000 A 
ATOM      5  C5  BNZ d   1       2.595  -1.533   0.807  0.00  0.00     0.000 A 
ATOM      6  C6  BNZ d   1       1.306  -1.842   1.177  0.00  0.00     0.000 A 
ENDROOT
TORSDOF 0
ENDMDL
