MODEL 1
REMARK minimizedAffinity 0.256611168
REMARK minimizedRMSD -1
REMARK  0 active torsions:
REMARK  status: ('A' for Active; 'I' for Inactive)
ROOT
ATOM      1  C1  BNZ d   1       3.413  -4.048   0.079  0.00  0.00     0.000 A 
ATOM      2  C2  BNZ d   1       2.267  -4.792  -0.004  0.00  0.00     0.000 A 
ATOM      3  C3  BNZ d   1       1.044  -4.223   0.221  0.00  0.00     0.000 A 
ATOM      4  C4  BNZ d   1       0.973  -2.922   0.568  0.00  0.00     0.000 A 
ATOM      5  C5  BNZ d   1       2.120  -2.160   0.665  0.00  0.00     0.000 A 
ATOM      6  C6  BNZ d   1       3.346  -2.727   0.399  0.00  0.00     0.000 A 
ENDROOT
TORSDOF 0
ENDMDL
