MODEL 1
REMARK minimizedAffinity -2.16742849
REMARK minimizedRMSD -1
REMARK  1 active torsions:
REMARK  status: ('A' for Active; 'I' for Inactive)
REMARK    1  A    between atoms: N_2  and  C1_3 
ROOT
ATOM      1  C1  UNL d   1       0.443   0.731  -0.873  0.00  0.00     0.143 A 
ATOM      2  C2  UNL d   1       1.005  -0.518  -0.587  0.00  0.00    -0.057 A 
ATOM      3  C3  UNL d   1       0.635  -1.236   0.557  0.00  0.00     0.033 A 
ATOM      4  C4  UNL d   1      -0.286  -0.703   1.452  0.00  0.00    -0.042 A 
ATOM      5  C5  UNL d   1      -0.840   0.547   1.201  0.00  0.00     0.033 A 
ATOM      6  C6  UNL d   1      -0.471   1.256   0.054  0.00  0.00    -0.057 A 
ENDROOT
BRANCH   1   7
ATOM      7  N   UNL d   1       0.842   1.537  -1.941  0.00  0.00    -0.732 N 
ATOM      8  C   UNL d   1       0.351   2.893  -2.066  0.00  0.00     0.284 C 
ATOM      9  H3  UNL d   1       1.830   1.432  -2.160  0.00  0.00     0.395 HD
ENDBRANCH   1   7
TORSDOF 1
ENDMDL
