MODEL 1
REMARK minimizedAffinity -1.78974688
REMARK minimizedRMSD -1
REMARK  1 active torsions:
REMARK  status: ('A' for Active; 'I' for Inactive)
REMARK    1  A    between atoms: N_2  and  C1_3 
ROOT
ATOM      1  C1  UNL d   1       0.222   1.216  -0.241  0.00  0.00     0.143 A 
ATOM      2  C2  UNL d   1       0.412  -0.003   0.420  0.00  0.00    -0.057 A 
ATOM      3  C3  UNL d   1      -0.303  -0.318   1.582  0.00  0.00     0.033 A 
ATOM      4  C4  UNL d   1      -1.204   0.596   2.121  0.00  0.00    -0.042 A 
ATOM      5  C5  UNL d   1      -1.390   1.823   1.494  0.00  0.00     0.033 A 
ATOM      6  C6  UNL d   1      -0.677   2.129   0.331  0.00  0.00    -0.057 A 
ENDROOT
BRANCH   1   7
ATOM      7  N   UNL d   1       0.975   1.628  -1.343  0.00  0.00    -0.732 N 
ATOM      8  C   UNL d   1       0.433   2.576  -2.292  0.00  0.00     0.284 C 
ATOM      9  H3  UNL d   1       1.952   1.786  -1.109  0.00  0.00     0.395 HD
ENDBRANCH   1   7
TORSDOF 1
ENDMDL
