MODEL 1
REMARK minimizedAffinity -4.07811594
REMARK minimizedRMSD -1
REMARK  1 active torsions:
REMARK  status: ('A' for Active; 'I' for Inactive)
REMARK    1  A    between atoms: N_2  and  C1_3 
ROOT
ATOM      1  C1  UNL d   1       0.207  -0.077  -0.276  0.00  0.00     0.143 A 
ATOM      2  C2  UNL d   1      -0.305  -0.448   0.972  0.00  0.00    -0.057 A 
ATOM      3  C3  UNL d   1      -1.170   0.395   1.681  0.00  0.00     0.033 A 
ATOM      4  C4  UNL d   1      -1.516   1.640   1.166  0.00  0.00    -0.042 A 
ATOM      5  C5  UNL d   1      -0.998   2.039  -0.061  0.00  0.00     0.033 A 
ATOM      6  C6  UNL d   1      -0.141   1.191  -0.768  0.00  0.00    -0.057 A 
ENDROOT
BRANCH   1   7
ATOM      7  N   UNL d   1       1.149  -0.828  -0.984  0.00  0.00    -0.732 N 
ATOM      8  C   UNL d   1       0.779  -2.087  -1.595  0.00  0.00     0.284 C 
ATOM      9  H3  UNL d   1       1.754  -0.248  -1.561  0.00  0.00     0.395 HD
ENDBRANCH   1   7
TORSDOF 1
ENDMDL
