MODEL 1
REMARK minimizedAffinity -3.26386929
REMARK minimizedRMSD -1
REMARK  1 active torsions:
REMARK  status: ('A' for Active; 'I' for Inactive)
REMARK    1  A    between atoms: N_2  and  C1_3 
ROOT
ATOM      1  C1  UNL d   1       0.690  -0.284  -0.400  0.00  0.00     0.143 A 
ATOM      2  C2  UNL d   1       0.067  -0.554   0.823  0.00  0.00    -0.057 A 
ATOM      3  C3  UNL d   1      -0.588   0.453   1.542  0.00  0.00     0.033 A 
ATOM      4  C4  UNL d   1      -0.606   1.759   1.063  0.00  0.00    -0.042 A 
ATOM      5  C5  UNL d   1       0.029   2.055  -0.138  0.00  0.00     0.033 A 
ATOM      6  C6  UNL d   1       0.676   1.044  -0.855  0.00  0.00    -0.057 A 
ENDROOT
BRANCH   1   7
ATOM      7  N   UNL d   1       1.442  -1.221  -1.114  0.00  0.00    -0.732 N 
ATOM      8  C   UNL d   1       1.008  -2.599  -1.205  0.00  0.00     0.284 C 
ATOM      9  H3  UNL d   1       1.810  -0.843  -1.984  0.00  0.00     0.395 HD
ENDBRANCH   1   7
TORSDOF 1
ENDMDL
