MODEL 1
REMARK minimizedAffinity 1.943344
REMARK minimizedRMSD -1
REMARK  1 active torsions:
REMARK  status: ('A' for Active; 'I' for Inactive)
REMARK    1  A    between atoms: N_2  and  C1_3 
ROOT
ATOM      1  C1  UNL d   1       4.930  -1.813  -4.549  0.00  0.00     0.143 A 
ATOM      2  C2  UNL d   1       3.824  -2.648  -4.359  0.00  0.00    -0.057 A 
ATOM      3  C3  UNL d   1       3.735  -3.494  -3.246  0.00  0.00     0.033 A 
ATOM      4  C4  UNL d   1       4.768  -3.540  -2.316  0.00  0.00    -0.042 A 
ATOM      5  C5  UNL d   1       5.888  -2.736  -2.498  0.00  0.00     0.033 A 
ATOM      6  C6  UNL d   1       5.968  -1.889  -3.607  0.00  0.00    -0.057 A 
ENDROOT
BRANCH   1   7
ATOM      7  N   UNL d   1       5.122  -1.023  -5.685  0.00  0.00    -0.732 N 
ATOM      8  C   UNL d   1       5.999   0.128  -5.643  0.00  0.00     0.284 C 
ATOM      9  H3  UNL d   1       5.203  -1.577  -6.534  0.00  0.00     0.395 HD
ENDBRANCH   1   7
TORSDOF 1
ENDMDL
