MODEL 1
REMARK minimizedAffinity -0.728840649
REMARK minimizedRMSD -1
REMARK  1 active torsions:
REMARK  status: ('A' for Active; 'I' for Inactive)
REMARK    1  A    between atoms: N_2  and  C1_3 
ROOT
ATOM      1  C1  UNL d   1       0.050   0.274   0.317  0.00  0.00     0.143 A 
ATOM      2  C2  UNL d   1       1.199  -0.179   0.975  0.00  0.00    -0.057 A 
ATOM      3  C3  UNL d   1       1.147  -0.630   2.299  0.00  0.00     0.033 A 
ATOM      4  C4  UNL d   1      -0.054  -0.609   3.001  0.00  0.00    -0.042 A 
ATOM      5  C5  UNL d   1      -1.203  -0.139   2.376  0.00  0.00     0.033 A 
ATOM      6  C6  UNL d   1      -1.146   0.304   1.051  0.00  0.00    -0.057 A 
ENDROOT
BRANCH   1   7
ATOM      7  N   UNL d   1       0.056   0.827  -0.966  0.00  0.00    -0.732 N 
ATOM      8  C   UNL d   1       0.643   2.128  -1.205  0.00  0.00     0.284 C 
ATOM      9  H3  UNL d   1       0.264   0.138  -1.685  0.00  0.00     0.395 HD
ENDBRANCH   1   7
TORSDOF 1
ENDMDL
