MODEL 1
REMARK minimizedAffinity -5.46344995
REMARK minimizedRMSD -1
REMARK  1 active torsions:
REMARK  status: ('A' for Active; 'I' for Inactive)
REMARK    1  A    between atoms: N_2  and  C1_3 
ROOT
ATOM      1  C1  UNL d   1      -0.393   0.520   0.394  0.00  0.00     0.143 A 
ATOM      2  C2  UNL d   1      -1.269   1.327  -0.339  0.00  0.00    -0.057 A 
ATOM      3  C3  UNL d   1      -2.092   2.267   0.294  0.00  0.00     0.033 A 
ATOM      4  C4  UNL d   1      -2.074   2.395   1.679  0.00  0.00    -0.042 A 
ATOM      5  C5  UNL d   1      -1.228   1.586   2.430  0.00  0.00     0.033 A 
ATOM      6  C6  UNL d   1      -0.404   0.654   1.791  0.00  0.00    -0.057 A 
ENDROOT
BRANCH   1   7
ATOM      7  N   UNL d   1       0.379  -0.500  -0.168  0.00  0.00    -0.732 N 
ATOM      8  C   UNL d   1       1.536  -0.188  -0.979  0.00  0.00     0.284 C 
ATOM      9  H3  UNL d   1       0.517  -1.279   0.472  0.00  0.00     0.395 HD
ENDBRANCH   1   7
TORSDOF 1
ENDMDL
