MODEL 1
REMARK minimizedAffinity -5.45219851
REMARK minimizedRMSD -1
REMARK  1 active torsions:
REMARK  status: ('A' for Active; 'I' for Inactive)
REMARK    1  A    between atoms: N_2  and  C1_3 
ROOT
ATOM      1  C1  UNL d   1      -0.143   1.894  -0.288  0.00  0.00     0.143 A 
ATOM      2  C2  UNL d   1      -1.126   2.850  -0.008  0.00  0.00    -0.057 A 
ATOM      3  C3  UNL d   1      -2.198   2.560   0.844  0.00  0.00     0.033 A 
ATOM      4  C4  UNL d   1      -2.322   1.296   1.411  0.00  0.00    -0.042 A 
ATOM      5  C5  UNL d   1      -1.370   0.323   1.127  0.00  0.00     0.033 A 
ATOM      6  C6  UNL d   1      -0.298   0.620   0.280  0.00  0.00    -0.057 A 
ENDROOT
BRANCH   1   7
ATOM      7  N   UNL d   1       0.893   2.090  -1.205  0.00  0.00    -0.732 N 
ATOM      8  C   UNL d   1       1.662   0.968  -1.699  0.00  0.00     0.284 C 
ATOM      9  H3  UNL d   1       0.657   2.777  -1.917  0.00  0.00     0.395 HD
ENDBRANCH   1   7
TORSDOF 1
ENDMDL
