MODEL 1
REMARK minimizedAffinity -4.11786604
REMARK minimizedRMSD -1
REMARK  1 active torsions:
REMARK  status: ('A' for Active; 'I' for Inactive)
REMARK    1  A    between atoms: N_2  and  C1_3 
ROOT
ATOM      1  C1  UNL d   1      -0.080   0.090   0.078  0.00  0.00     0.143 A 
ATOM      2  C2  UNL d   1       0.133  -0.399   1.371  0.00  0.00    -0.057 A 
ATOM      3  C3  UNL d   1      -0.567   0.118   2.468  0.00  0.00     0.033 A 
ATOM      4  C4  UNL d   1      -1.475   1.158   2.293  0.00  0.00    -0.042 A 
ATOM      5  C5  UNL d   1      -1.684   1.677   1.020  0.00  0.00     0.033 A 
ATOM      6  C6  UNL d   1      -0.986   1.151  -0.072  0.00  0.00    -0.057 A 
ENDROOT
BRANCH   1   7
ATOM      7  N   UNL d   1       0.657  -0.315  -1.038  0.00  0.00    -0.732 N 
ATOM      8  C   UNL d   1       0.581  -1.679  -1.516  0.00  0.00     0.284 C 
ATOM      9  H3  UNL d   1       0.660   0.384  -1.776  0.00  0.00     0.395 HD
ENDBRANCH   1   7
TORSDOF 1
ENDMDL
