MODEL 1
REMARK minimizedAffinity -4.02924347
REMARK minimizedRMSD -1
REMARK  1 active torsions:
REMARK  status: ('A' for Active; 'I' for Inactive)
REMARK    1  A    between atoms: N_2  and  C1_3 
ROOT
ATOM      1  C1  UNL d   1       0.067  -0.336   0.247  0.00  0.00     0.143 A 
ATOM      2  C2  UNL d   1      -0.727  -0.814   1.296  0.00  0.00    -0.057 A 
ATOM      3  C3  UNL d   1      -1.398   0.064   2.156  0.00  0.00     0.033 A 
ATOM      4  C4  UNL d   1      -1.264   1.440   1.999  0.00  0.00    -0.042 A 
ATOM      5  C5  UNL d   1      -0.460   1.936   0.979  0.00  0.00     0.033 A 
ATOM      6  C6  UNL d   1       0.202   1.055   0.120  0.00  0.00    -0.057 A 
ENDROOT
BRANCH   1   7
ATOM      7  N   UNL d   1       0.838  -1.157  -0.580  0.00  0.00    -0.732 N 
ATOM      8  C   UNL d   1       0.209  -2.011  -1.564  0.00  0.00     0.284 C 
ATOM      9  H3  UNL d   1       1.681  -0.692  -0.911  0.00  0.00     0.395 HD
ENDBRANCH   1   7
TORSDOF 1
ENDMDL
