MODEL 1
REMARK minimizedAffinity 1.30951011
REMARK minimizedRMSD -1
REMARK  1 active torsions:
REMARK  status: ('A' for Active; 'I' for Inactive)
REMARK    1  A    between atoms: N_2  and  C1_3 
ROOT
ATOM      1  C1  UNL d   1      -0.777   0.119   0.625  0.00  0.00     0.143 A 
ATOM      2  C2  UNL d   1      -2.130   0.243   0.289  0.00  0.00    -0.057 A 
ATOM      3  C3  UNL d   1      -2.525   0.702  -0.973  0.00  0.00     0.033 A 
ATOM      4  C4  UNL d   1      -1.572   1.075  -1.914  0.00  0.00    -0.042 A 
ATOM      5  C5  UNL d   1      -0.222   0.983  -1.594  0.00  0.00     0.033 A 
ATOM      6  C6  UNL d   1       0.167   0.517  -0.334  0.00  0.00    -0.057 A 
ENDROOT
BRANCH   1   7
ATOM      7  N   UNL d   1      -0.321  -0.238   1.896  0.00  0.00    -0.732 N 
ATOM      8  C   UNL d   1       0.994  -0.816   2.072  0.00  0.00     0.284 C 
ATOM      9  H3  UNL d   1      -0.573   0.446   2.606  0.00  0.00     0.395 HD
ENDBRANCH   1   7
TORSDOF 1
ENDMDL
