MODEL 1
REMARK minimizedAffinity 2.39411545
REMARK minimizedRMSD -1
REMARK  0 active torsions:
REMARK  status: ('A' for Active; 'I' for Inactive)
ROOT
ATOM      1  C   UNL d   1       0.914  -0.171   0.696  0.00  0.00    -0.002 A 
ATOM      2  C1  UNL d   1       0.105  -0.986   1.475  0.00  0.00     0.010 A 
ATOM      3  C2  UNL d   1      -0.999  -0.457   2.148  0.00  0.00     0.041 A 
ATOM      4  C3  UNL d   1      -1.279   0.918   2.022  0.00  0.00    -0.075 A 
ATOM      5  S   UNL d   1      -2.576   1.786   2.754  0.00  0.00     0.015 SA
ATOM      6  C4  UNL d   1      -2.087   3.259   2.049  0.00  0.00     0.022 A 
ATOM      7  C5  UNL d   1      -0.963   3.110   1.272  0.00  0.00     0.026 A 
ATOM      8  C6  UNL d   1      -0.479   1.759   1.243  0.00  0.00    -0.082 A 
ATOM      9  C7  UNL d   1       0.633   1.193   0.574  0.00  0.00     0.045 A 
ENDROOT
TORSDOF 0
ENDMDL
