MODEL 1
REMARK minimizedAffinity -4.05983067
REMARK minimizedRMSD -1
REMARK  0 active torsions:
REMARK  status: ('A' for Active; 'I' for Inactive)
ROOT
ATOM      1  C   UNL d   1       0.502   3.146   1.154  0.00  0.00    -0.002 A 
ATOM      2  C1  UNL d   1       1.245   2.140   0.552  0.00  0.00     0.010 A 
ATOM      3  C2  UNL d   1       0.823   0.811   0.615  0.00  0.00     0.041 A 
ATOM      4  C3  UNL d   1      -0.372   0.507   1.298  0.00  0.00    -0.075 A 
ATOM      5  S   UNL d   1      -1.084  -1.050   1.503  0.00  0.00     0.015 SA
ATOM      6  C4  UNL d   1      -2.392  -0.416   2.393  0.00  0.00     0.022 A 
ATOM      7  C5  UNL d   1      -2.303   0.948   2.540  0.00  0.00     0.026 A 
ATOM      8  C6  UNL d   1      -1.137   1.503   1.911  0.00  0.00    -0.082 A 
ATOM      9  C7  UNL d   1      -0.682   2.841   1.830  0.00  0.00     0.045 A 
ENDROOT
TORSDOF 0
ENDMDL
