MODEL 1
REMARK minimizedAffinity 10.6342239
REMARK minimizedRMSD -1
REMARK  0 active torsions:
REMARK  status: ('A' for Active; 'I' for Inactive)
ROOT
ATOM      1  C   UNL d   1      -3.185   0.463   2.554  0.00  0.00    -0.002 A 
ATOM      2  C1  UNL d   1      -2.635   1.737   2.582  0.00  0.00     0.010 A 
ATOM      3  C2  UNL d   1      -3.120   2.701   3.469  0.00  0.00     0.041 A 
ATOM      4  C3  UNL d   1      -4.175   2.359   4.337  0.00  0.00    -0.075 A 
ATOM      5  S   UNL d   1      -4.929   3.375   5.507  0.00  0.00     0.015 SA
ATOM      6  C4  UNL d   1      -5.999   2.143   5.999  0.00  0.00     0.022 A 
ATOM      7  C5  UNL d   1      -5.799   0.977   5.297  0.00  0.00     0.026 A 
ATOM      8  C6  UNL d   1      -4.745   1.082   4.328  0.00  0.00    -0.082 A 
ATOM      9  C7  UNL d   1      -4.232   0.128   3.417  0.00  0.00     0.045 A 
ENDROOT
TORSDOF 0
ENDMDL
