MODEL 1
REMARK minimizedAffinity -3.86088014
REMARK minimizedRMSD -1
REMARK  0 active torsions:
REMARK  status: ('A' for Active; 'I' for Inactive)
ROOT
ATOM      1  C   UNL d   1       1.221   1.151   0.914  0.00  0.00    -0.002 A 
ATOM      2  C1  UNL d   1       0.694   2.362   1.340  0.00  0.00     0.010 A 
ATOM      3  C2  UNL d   1      -0.631   2.448   1.772  0.00  0.00     0.041 A 
ATOM      4  C3  UNL d   1      -1.424   1.284   1.770  0.00  0.00    -0.075 A 
ATOM      5  S   UNL d   1      -3.073   1.149   2.257  0.00  0.00     0.015 SA
ATOM      6  C4  UNL d   1      -3.116  -0.520   1.911  0.00  0.00     0.022 A 
ATOM      7  C5  UNL d   1      -1.911  -0.979   1.435  0.00  0.00     0.026 A 
ATOM      8  C6  UNL d   1      -0.916   0.053   1.347  0.00  0.00    -0.082 A 
ATOM      9  C7  UNL d   1       0.431  -0.001   0.914  0.00  0.00     0.045 A 
ENDROOT
TORSDOF 0
ENDMDL
