MODEL 1
REMARK minimizedAffinity 6.00330782
REMARK minimizedRMSD -1
REMARK  0 active torsions:
REMARK  status: ('A' for Active; 'I' for Inactive)
ROOT
ATOM      1  C   UNL d   1       0.772  -0.935   0.831  0.00  0.00    -0.002 A 
ATOM      2  C1  UNL d   1       1.185   0.198   0.144  0.00  0.00     0.010 A 
ATOM      3  C2  UNL d   1       0.556   1.426   0.357  0.00  0.00     0.041 A 
ATOM      4  C3  UNL d   1      -0.504   1.498   1.282  0.00  0.00    -0.075 A 
ATOM      5  S   UNL d   1      -1.421   2.895   1.705  0.00  0.00     0.015 SA
ATOM      6  C4  UNL d   1      -2.382   2.022   2.809  0.00  0.00     0.022 A 
ATOM      7  C5  UNL d   1      -2.026   0.695   2.865  0.00  0.00     0.026 A 
ATOM      8  C6  UNL d   1      -0.937   0.372   1.987  0.00  0.00    -0.082 A 
ATOM      9  C7  UNL d   1      -0.280  -0.860   1.748  0.00  0.00     0.045 A 
ENDROOT
TORSDOF 0
ENDMDL
