MODEL 1
REMARK minimizedAffinity 12.9526625
REMARK minimizedRMSD -1
REMARK  0 active torsions:
REMARK  status: ('A' for Active; 'I' for Inactive)
ROOT
ATOM      1  C   UNL d   1      -0.056   0.479   0.659  0.00  0.00    -0.002 A 
ATOM      2  C1  UNL d   1      -0.835  -0.439   1.348  0.00  0.00     0.010 A 
ATOM      3  C2  UNL d   1      -1.914  -0.014   2.125  0.00  0.00     0.041 A 
ATOM      4  C3  UNL d   1      -2.202   1.364   2.196  0.00  0.00    -0.075 A 
ATOM      5  S   UNL d   1      -3.474   2.115   3.083  0.00  0.00     0.015 SA
ATOM      6  C4  UNL d   1      -3.014   3.673   2.568  0.00  0.00     0.022 A 
ATOM      7  C5  UNL d   1      -1.918   3.639   1.739  0.00  0.00     0.026 A 
ATOM      8  C6  UNL d   1      -1.432   2.308   1.510  0.00  0.00    -0.082 A 
ATOM      9  C7  UNL d   1      -0.344   1.845   0.732  0.00  0.00     0.045 A 
ENDROOT
TORSDOF 0
ENDMDL
