MODEL 1
REMARK minimizedAffinity -2.92986488
REMARK minimizedRMSD -1
REMARK  0 active torsions:
REMARK  status: ('A' for Active; 'I' for Inactive)
ROOT
ATOM      1  C   UNL d   1      -1.478   1.359   1.955  0.00  0.00    -0.002 A 
ATOM      2  C1  UNL d   1      -1.450  -0.027   2.004  0.00  0.00     0.010 A 
ATOM      3  C2  UNL d   1      -0.373  -0.735   1.466  0.00  0.00     0.041 A 
ATOM      4  C3  UNL d   1       0.686  -0.019   0.874  0.00  0.00    -0.075 A 
ATOM      5  S   UNL d   1       2.108  -0.675   0.153  0.00  0.00     0.015 SA
ATOM      6  C4  UNL d   1       2.713   0.871  -0.236  0.00  0.00     0.022 A 
ATOM      7  C5  UNL d   1       1.863   1.873   0.167  0.00  0.00     0.026 A 
ATOM      8  C6  UNL d   1       0.681   1.377   0.814  0.00  0.00    -0.082 A 
ATOM      9  C7  UNL d   1      -0.425   2.066   1.367  0.00  0.00     0.045 A 
ENDROOT
TORSDOF 0
ENDMDL
