MODEL 1
REMARK minimizedAffinity -0.904759407
REMARK minimizedRMSD -1
REMARK  0 active torsions:
REMARK  status: ('A' for Active; 'I' for Inactive)
ROOT
ATOM      1  C   UNL d   1      -3.324   1.104   2.616  0.00  0.00    -0.002 A 
ATOM      2  C1  UNL d   1      -2.778   2.369   2.452  0.00  0.00     0.010 A 
ATOM      3  C2  UNL d   1      -1.500   2.526   1.912  0.00  0.00     0.041 A 
ATOM      4  C3  UNL d   1      -0.773   1.380   1.535  0.00  0.00    -0.075 A 
ATOM      5  S   UNL d   1       0.809   1.330   0.852  0.00  0.00     0.015 SA
ATOM      6  C4  UNL d   1       0.797  -0.372   0.760  0.00  0.00     0.022 A 
ATOM      7  C5  UNL d   1      -0.378  -0.905   1.236  0.00  0.00     0.026 A 
ATOM      8  C6  UNL d   1      -1.302   0.095   1.689  0.00  0.00    -0.082 A 
ATOM      9  C7  UNL d   1      -2.600  -0.031   2.240  0.00  0.00     0.045 A 
ENDROOT
TORSDOF 0
ENDMDL
