MODEL 1
REMARK minimizedAffinity 1.26732481
REMARK minimizedRMSD -1
REMARK  0 active torsions:
REMARK  status: ('A' for Active; 'I' for Inactive)
ROOT
ATOM      1  C   UNL d   1       0.359  -0.845   1.617  0.00  0.00    -0.002 A 
ATOM      2  C1  UNL d   1       1.238   0.114   1.133  0.00  0.00     0.010 A 
ATOM      3  C2  UNL d   1       0.856   1.455   1.060  0.00  0.00     0.041 A 
ATOM      4  C3  UNL d   1      -0.436   1.820   1.488  0.00  0.00    -0.075 A 
ATOM      5  S   UNL d   1      -1.121   3.402   1.492  0.00  0.00     0.015 SA
ATOM      6  C4  UNL d   1      -2.596   2.842   2.137  0.00  0.00     0.022 A 
ATOM      7  C5  UNL d   1      -2.584   1.484   2.350  0.00  0.00     0.026 A 
ATOM      8  C6  UNL d   1      -1.338   0.873   1.980  0.00  0.00    -0.082 A 
ATOM      9  C7  UNL d   1      -0.922  -0.479   2.040  0.00  0.00     0.045 A 
ENDROOT
TORSDOF 0
ENDMDL
