MODEL 1
REMARK minimizedAffinity 7.3112936
REMARK minimizedRMSD -1
REMARK  0 active torsions:
REMARK  status: ('A' for Active; 'I' for Inactive)
ROOT
ATOM      1  C2' OXE d   1      -0.094   4.571   0.362  0.00  0.00     0.078 C 
ATOM      2  C1' OXE d   1      -0.678   2.285   1.883  0.00  0.00     0.078 C 
ATOM      3  C1  OXE d   1      -0.247   2.086   0.452  0.00  0.00    -0.078 A 
ATOM      4  C2  OXE d   1      -0.008   3.212  -0.299  0.00  0.00    -0.078 A 
ATOM      5  C3  OXE d   1       0.446   3.084  -1.609  0.00  0.00     0.003 A 
ATOM      6  C4  OXE d   1       0.513   1.824  -2.216  0.00  0.00    -0.002 A 
ATOM      7  C5  OXE d   1       0.235   0.667  -1.481  0.00  0.00    -0.002 A 
ATOM      8  C6  OXE d   1      -0.104   0.777  -0.137  0.00  0.00     0.003 A 
ENDROOT
TORSDOF 0
ENDMDL
