MODEL 1
REMARK minimizedAffinity 2.76825404
REMARK minimizedRMSD -1
REMARK  0 active torsions:
REMARK  status: ('A' for Active; 'I' for Inactive)
ROOT
ATOM      1  C2' OXE d   1       0.545   0.849  -0.690  0.00  0.00     0.078 C 
ATOM      2  C1' OXE d   1      -1.358   1.420   1.294  0.00  0.00     0.078 C 
ATOM      3  C1  OXE d   1      -0.844   2.567   0.460  0.00  0.00    -0.078 A 
ATOM      4  C2  OXE d   1       0.121   2.286  -0.476  0.00  0.00    -0.078 A 
ATOM      5  C3  OXE d   1       0.590   3.298  -1.309  0.00  0.00     0.003 A 
ATOM      6  C4  OXE d   1       0.200   4.627  -1.098  0.00  0.00    -0.002 A 
ATOM      7  C5  OXE d   1      -0.752   4.941  -0.123  0.00  0.00    -0.002 A 
ATOM      8  C6  OXE d   1      -1.315   3.919   0.634  0.00  0.00     0.003 A 
ENDROOT
TORSDOF 0
ENDMDL
