MODEL 1
REMARK minimizedAffinity 4.41609287
REMARK minimizedRMSD -1
REMARK  0 active torsions:
REMARK  status: ('A' for Active; 'I' for Inactive)
ROOT
ATOM      1  C2' OXE d   1       0.115   1.122   2.246  0.00  0.00     0.078 C 
ATOM      2  C1' OXE d   1      -2.609   1.217   2.918  0.00  0.00     0.078 C 
ATOM      3  C1  OXE d   1      -2.057   2.326   2.057  0.00  0.00    -0.078 A 
ATOM      4  C2  OXE d   1      -0.713   2.296   1.772  0.00  0.00    -0.078 A 
ATOM      5  C3  OXE d   1      -0.164   3.265   0.938  0.00  0.00     0.003 A 
ATOM      6  C4  OXE d   1      -0.934   4.354   0.512  0.00  0.00    -0.002 A 
ATOM      7  C5  OXE d   1      -2.296   4.425   0.824  0.00  0.00    -0.002 A 
ATOM      8  C6  OXE d   1      -2.881   3.399   1.559  0.00  0.00     0.003 A 
ENDROOT
TORSDOF 0
ENDMDL
