MODEL 1
REMARK minimizedAffinity 7.54232597
REMARK minimizedRMSD -1
REMARK  0 active torsions:
REMARK  status: ('A' for Active; 'I' for Inactive)
ROOT
ATOM      1  C2' OXE d   1       0.760   4.029  -1.716  0.00  0.00     0.078 C 
ATOM      2  C1' OXE d   1       1.007   1.274  -1.238  0.00  0.00     0.078 C 
ATOM      3  C1  OXE d   1      -0.022   2.036  -0.442  0.00  0.00    -0.078 A 
ATOM      4  C2  OXE d   1      -0.104   3.392  -0.649  0.00  0.00    -0.078 A 
ATOM      5  C3  OXE d   1      -1.074   4.134   0.019  0.00  0.00     0.003 A 
ATOM      6  C4  OXE d   1      -1.863   3.540   1.011  0.00  0.00    -0.002 A 
ATOM      7  C5  OXE d   1      -1.768   2.167   1.266  0.00  0.00    -0.002 A 
ATOM      8  C6  OXE d   1      -0.885   1.395   0.520  0.00  0.00     0.003 A 
ENDROOT
TORSDOF 0
ENDMDL
