MODEL 1
REMARK minimizedAffinity 0.730050683
REMARK minimizedRMSD -1
REMARK  0 active torsions:
REMARK  status: ('A' for Active; 'I' for Inactive)
ROOT
ATOM      1  C2' OXE d   1       0.812   0.906   0.385  0.00  0.00     0.078 C 
ATOM      2  C1' OXE d   1       0.144   3.241  -1.022  0.00  0.00     0.078 C 
ATOM      3  C1  OXE d   1      -0.759   2.819   0.110  0.00  0.00    -0.078 A 
ATOM      4  C2  OXE d   1      -0.450   1.650   0.763  0.00  0.00    -0.078 A 
ATOM      5  C3  OXE d   1      -1.218   1.245   1.851  0.00  0.00     0.003 A 
ATOM      6  C4  OXE d   1      -2.390   1.934   2.187  0.00  0.00    -0.002 A 
ATOM      7  C5  OXE d   1      -2.744   3.105   1.509  0.00  0.00    -0.002 A 
ATOM      8  C6  OXE d   1      -1.918   3.584   0.498  0.00  0.00     0.003 A 
ENDROOT
TORSDOF 0
ENDMDL
