MODEL 1
REMARK minimizedAffinity 5.76959753
REMARK minimizedRMSD -1
REMARK  0 active torsions:
REMARK  status: ('A' for Active; 'I' for Inactive)
ROOT
ATOM      1  C2' OXE d   1       1.208  -0.367   1.548  0.00  0.00     0.078 C 
ATOM      2  C1' OXE d   1      -1.087  -1.188   2.942  0.00  0.00     0.078 C 
ATOM      3  C1  OXE d   1      -1.146   0.124   2.200  0.00  0.00    -0.078 A 
ATOM      4  C2  OXE d   1      -0.004   0.540   1.560  0.00  0.00    -0.078 A 
ATOM      5  C3  OXE d   1      -0.020   1.716   0.815  0.00  0.00     0.003 A 
ATOM      6  C4  OXE d   1      -1.141   2.555   0.839  0.00  0.00    -0.002 A 
ATOM      7  C5  OXE d   1      -2.302   2.169   1.517  0.00  0.00    -0.002 A 
ATOM      8  C6  OXE d   1      -2.335   0.939   2.166  0.00  0.00     0.003 A 
ENDROOT
TORSDOF 0
ENDMDL
