MODEL 1
REMARK minimizedAffinity 3.90640426
REMARK minimizedRMSD -1
REMARK  0 active torsions:
REMARK  status: ('A' for Active; 'I' for Inactive)
ROOT
ATOM      1  C2' OXE d   1       0.377   0.252   0.651  0.00  0.00     0.078 C 
ATOM      2  C1' OXE d   1      -1.821   0.759   2.322  0.00  0.00     0.078 C 
ATOM      3  C1  OXE d   1      -1.454   1.810   1.304  0.00  0.00    -0.078 A 
ATOM      4  C2  OXE d   1      -0.348   1.574   0.522  0.00  0.00    -0.078 A 
ATOM      5  C3  OXE d   1       0.002   2.485  -0.469  0.00  0.00     0.003 A 
ATOM      6  C4  OXE d   1      -0.669   3.710  -0.575  0.00  0.00    -0.002 A 
ATOM      7  C5  OXE d   1      -1.773   3.987   0.238  0.00  0.00    -0.002 A 
ATOM      8  C6  OXE d   1      -2.203   3.032   1.152  0.00  0.00     0.003 A 
ENDROOT
TORSDOF 0
ENDMDL
