MODEL 1
REMARK minimizedAffinity 3.24790406
REMARK minimizedRMSD -1
REMARK  0 active torsions:
REMARK  status: ('A' for Active; 'I' for Inactive)
ROOT
ATOM      1  C2' OXE d   1      -2.502  -2.618   6.000  0.00  0.00     0.078 C 
ATOM      2  C1' OXE d   1      -2.240  -2.817   3.212  0.00  0.00     0.078 C 
ATOM      3  C1  OXE d   1      -3.578  -3.159   3.819  0.00  0.00    -0.078 A 
ATOM      4  C2  OXE d   1      -3.683  -3.103   5.188  0.00  0.00    -0.078 A 
ATOM      5  C3  OXE d   1      -4.910  -3.356   5.796  0.00  0.00     0.003 A 
ATOM      6  C4  OXE d   1      -5.995  -3.814   5.039  0.00  0.00    -0.002 A 
ATOM      7  C5  OXE d   1      -5.897  -3.915   3.647  0.00  0.00    -0.002 A 
ATOM      8  C6  OXE d   1      -4.711  -3.552   3.019  0.00  0.00     0.003 A 
ENDROOT
TORSDOF 0
ENDMDL
