MODEL 1
REMARK minimizedAffinity 2.31221914
REMARK minimizedRMSD -1
REMARK  0 active torsions:
REMARK  status: ('A' for Active; 'I' for Inactive)
ROOT
ATOM      1  C2' OXE d   1      -0.649  -2.234   3.132  0.00  0.00     0.078 C 
ATOM      2  C1' OXE d   1       1.569  -1.025   1.907  0.00  0.00     0.078 C 
ATOM      3  C1  OXE d   1       0.274  -0.252   1.937  0.00  0.00    -0.078 A 
ATOM      4  C2  OXE d   1      -0.818  -0.870   2.497  0.00  0.00    -0.078 A 
ATOM      5  C3  OXE d   1      -2.023  -0.181   2.599  0.00  0.00     0.003 A 
ATOM      6  C4  OXE d   1      -2.174   1.076   2.000  0.00  0.00    -0.002 A 
ATOM      7  C5  OXE d   1      -1.085   1.707   1.390  0.00  0.00    -0.002 A 
ATOM      8  C6  OXE d   1       0.154   1.076   1.387  0.00  0.00     0.003 A 
ENDROOT
TORSDOF 0
ENDMDL
