MODEL 1
REMARK minimizedAffinity 9.60800266
REMARK minimizedRMSD -1
REMARK  0 active torsions:
REMARK  status: ('A' for Active; 'I' for Inactive)
ROOT
ATOM      1  C2' OXE d   1       0.566   1.022  -1.198  0.00  0.00     0.078 C 
ATOM      2  C1' OXE d   1       0.503  -0.973  -3.171  0.00  0.00     0.078 C 
ATOM      3  C1  OXE d   1      -0.798  -0.602  -2.504  0.00  0.00    -0.078 A 
ATOM      4  C2  OXE d   1      -0.750   0.342  -1.507  0.00  0.00    -0.078 A 
ATOM      5  C3  OXE d   1      -1.929   0.761  -0.897  0.00  0.00     0.003 A 
ATOM      6  C4  OXE d   1      -3.141   0.120  -1.182  0.00  0.00    -0.002 A 
ATOM      7  C5  OXE d   1      -3.205  -0.872  -2.167  0.00  0.00    -0.002 A 
ATOM      8  C6  OXE d   1      -2.052  -1.214  -2.865  0.00  0.00     0.003 A 
ENDROOT
TORSDOF 0
ENDMDL
