MODEL 1
REMARK minimizedAffinity 6.05921936
REMARK minimizedRMSD -1
REMARK  0 active torsions:
REMARK  status: ('A' for Active; 'I' for Inactive)
ROOT
ATOM      1  C2' OXE d   1       0.399  -0.389  -0.806  0.00  0.00     0.078 C 
ATOM      2  C1' OXE d   1       1.190   1.922  -2.189  0.00  0.00     0.078 C 
ATOM      3  C1  OXE d   1       0.261   2.090  -1.013  0.00  0.00    -0.078 A 
ATOM      4  C2  OXE d   1      -0.158   0.949  -0.370  0.00  0.00    -0.078 A 
ATOM      5  C3  OXE d   1      -0.971   1.051   0.755  0.00  0.00     0.003 A 
ATOM      6  C4  OXE d   1      -1.490   2.292   1.145  0.00  0.00    -0.002 A 
ATOM      7  C5  OXE d   1      -1.107   3.462   0.480  0.00  0.00    -0.002 A 
ATOM      8  C6  OXE d   1      -0.201   3.383  -0.572  0.00  0.00     0.003 A 
ENDROOT
TORSDOF 0
ENDMDL
