MODEL 1
REMARK minimizedAffinity 6.80023384
REMARK minimizedRMSD -1
REMARK  0 active torsions:
REMARK  status: ('A' for Active; 'I' for Inactive)
ROOT
ATOM      1  C2' OXE d   1       0.037   2.774  -1.528  0.00  0.00     0.078 C 
ATOM      2  C1' OXE d   1      -2.209   2.560  -3.198  0.00  0.00     0.078 C 
ATOM      3  C1  OXE d   1      -1.390   1.316  -2.957  0.00  0.00    -0.078 A 
ATOM      4  C2  OXE d   1      -0.266   1.441  -2.177  0.00  0.00    -0.078 A 
ATOM      5  C3  OXE d   1       0.494   0.314  -1.878  0.00  0.00     0.003 A 
ATOM      6  C4  OXE d   1       0.212  -0.914  -2.490  0.00  0.00    -0.002 A 
ATOM      7  C5  OXE d   1      -0.905  -1.053  -3.320  0.00  0.00    -0.002 A 
ATOM      8  C6  OXE d   1      -1.739   0.039  -3.530  0.00  0.00     0.003 A 
ENDROOT
TORSDOF 0
ENDMDL
