MODEL 1
REMARK minimizedAffinity 11.5302639
REMARK minimizedRMSD -1
REMARK  0 active torsions:
REMARK  status: ('A' for Active; 'I' for Inactive)
ROOT
ATOM      1  C2' OXE d   1      -0.150   2.828  -2.110  0.00  0.00     0.078 C 
ATOM      2  C1' OXE d   1      -2.596   2.259  -3.363  0.00  0.00     0.078 C 
ATOM      3  C1  OXE d   1      -1.752   1.095  -2.908  0.00  0.00    -0.078 A 
ATOM      4  C2  OXE d   1      -0.535   1.382  -2.338  0.00  0.00    -0.078 A 
ATOM      5  C3  OXE d   1       0.259   0.347  -1.851  0.00  0.00     0.003 A 
ATOM      6  C4  OXE d   1      -0.099  -0.987  -2.076  0.00  0.00    -0.002 A 
ATOM      7  C5  OXE d   1      -1.316  -1.302  -2.690  0.00  0.00    -0.002 A 
ATOM      8  C6  OXE d   1      -2.172  -0.275  -3.073  0.00  0.00     0.003 A 
ENDROOT
TORSDOF 0
ENDMDL
