MODEL 1
REMARK minimizedAffinity 7.80951262
REMARK minimizedRMSD -1
REMARK  0 active torsions:
REMARK  status: ('A' for Active; 'I' for Inactive)
ROOT
ATOM      1  C2' OXE d   1      -1.391   2.235   1.849  0.00  0.00     0.078 C 
ATOM      2  C1' OXE d   1      -1.364   4.833   0.786  0.00  0.00     0.078 C 
ATOM      3  C1  OXE d   1      -0.737   3.731  -0.032  0.00  0.00    -0.078 A 
ATOM      4  C2  OXE d   1      -0.713   2.472   0.517  0.00  0.00    -0.078 A 
ATOM      5  C3  OXE d   1      -0.196   1.409  -0.219  0.00  0.00     0.003 A 
ATOM      6  C4  OXE d   1       0.438   1.639  -1.446  0.00  0.00    -0.002 A 
ATOM      7  C5  OXE d   1       0.460   2.921  -2.005  0.00  0.00    -0.002 A 
ATOM      8  C6  OXE d   1      -0.159   3.969  -1.332  0.00  0.00     0.003 A 
ENDROOT
TORSDOF 0
ENDMDL
