MODEL 1
REMARK minimizedAffinity 8.52812862
REMARK minimizedRMSD -1
REMARK  0 active torsions:
REMARK  status: ('A' for Active; 'I' for Inactive)
ROOT
ATOM      1  C2' OXE d   1       0.292   0.729  -3.374  0.00  0.00     0.078 C 
ATOM      2  C1' OXE d   1      -2.022  -0.364  -2.221  0.00  0.00     0.078 C 
ATOM      3  C1  OXE d   1      -1.318   0.740  -1.473  0.00  0.00    -0.078 A 
ATOM      4  C2  OXE d   1      -0.160   1.237  -2.021  0.00  0.00    -0.078 A 
ATOM      5  C3  OXE d   1       0.499   2.293  -1.400  0.00  0.00     0.003 A 
ATOM      6  C4  OXE d   1       0.080   2.750  -0.145  0.00  0.00    -0.002 A 
ATOM      7  C5  OXE d   1      -1.074   2.231   0.451  0.00  0.00    -0.002 A 
ATOM      8  C6  OXE d   1      -1.807   1.257  -0.218  0.00  0.00     0.003 A 
ENDROOT
TORSDOF 0
ENDMDL
