MODEL 1
REMARK minimizedAffinity 4.65068054
REMARK minimizedRMSD -1
REMARK  0 active torsions:
REMARK  status: ('A' for Active; 'I' for Inactive)
ROOT
ATOM      1  C2' OXE d   1      -0.496   1.678   0.919  0.00  0.00     0.078 C 
ATOM      2  C1' OXE d   1       0.102   0.554  -1.582  0.00  0.00     0.078 C 
ATOM      3  C1  OXE d   1       0.075   2.058  -1.475  0.00  0.00    -0.078 A 
ATOM      4  C2  OXE d   1      -0.265   2.599  -0.259  0.00  0.00    -0.078 A 
ATOM      5  C3  OXE d   1      -0.252   3.981  -0.091  0.00  0.00     0.003 A 
ATOM      6  C4  OXE d   1      -0.047   4.826  -1.189  0.00  0.00    -0.002 A 
ATOM      7  C5  OXE d   1       0.262   4.295  -2.446  0.00  0.00    -0.002 A 
ATOM      8  C6  OXE d   1       0.368   2.917  -2.596  0.00  0.00     0.003 A 
ENDROOT
TORSDOF 0
ENDMDL
