MODEL 1
REMARK minimizedAffinity 2.93980289
REMARK minimizedRMSD -1
REMARK  0 active torsions:
REMARK  status: ('A' for Active; 'I' for Inactive)
ROOT
ATOM      1  C2' OXE d   1      -0.319   2.965   3.301  0.00  0.00     0.078 C 
ATOM      2  C1' OXE d   1      -0.001   4.935   1.326  0.00  0.00     0.078 C 
ATOM      3  C1  OXE d   1      -0.169   3.506   0.874  0.00  0.00    -0.078 A 
ATOM      4  C2  OXE d   1      -0.277   2.543   1.848  0.00  0.00    -0.078 A 
ATOM      5  C3  OXE d   1      -0.488   1.216   1.485  0.00  0.00     0.003 A 
ATOM      6  C4  OXE d   1      -0.438   0.833   0.139  0.00  0.00    -0.002 A 
ATOM      7  C5  OXE d   1      -0.289   1.793  -0.868  0.00  0.00    -0.002 A 
ATOM      8  C6  OXE d   1      -0.196   3.136  -0.520  0.00  0.00     0.003 A 
ENDROOT
TORSDOF 0
ENDMDL
