MODEL 1
REMARK minimizedAffinity 9.15199375
REMARK minimizedRMSD -1
REMARK  0 active torsions:
REMARK  status: ('A' for Active; 'I' for Inactive)
ROOT
ATOM      1  C2' OXE d   1      -1.906   2.194   2.071  0.00  0.00     0.078 C 
ATOM      2  C1' OXE d   1      -0.441   2.486   4.447  0.00  0.00     0.078 C 
ATOM      3  C1  OXE d   1       0.150   1.627   3.358  0.00  0.00    -0.078 A 
ATOM      4  C2  OXE d   1      -0.595   1.452   2.217  0.00  0.00    -0.078 A 
ATOM      5  C3  OXE d   1      -0.073   0.714   1.159  0.00  0.00     0.003 A 
ATOM      6  C4  OXE d   1       1.136   0.022   1.305  0.00  0.00    -0.002 A 
ATOM      7  C5  OXE d   1       1.892   0.155   2.474  0.00  0.00    -0.002 A 
ATOM      8  C6  OXE d   1       1.435   0.986   3.491  0.00  0.00     0.003 A 
ENDROOT
TORSDOF 0
ENDMDL
