MODEL 1
REMARK minimizedAffinity 5.24868917
REMARK minimizedRMSD -1
REMARK  0 active torsions:
REMARK  status: ('A' for Active; 'I' for Inactive)
ROOT
ATOM      1  C2' OXE d   1      -0.126   4.451   0.310  0.00  0.00     0.078 C 
ATOM      2  C1' OXE d   1      -0.655   2.054   1.673  0.00  0.00     0.078 C 
ATOM      3  C1  OXE d   1      -0.158   1.961   0.252  0.00  0.00    -0.078 A 
ATOM      4  C2  OXE d   1       0.054   3.139  -0.423  0.00  0.00    -0.078 A 
ATOM      5  C3  OXE d   1       0.565   3.110  -1.717  0.00  0.00     0.003 A 
ATOM      6  C4  OXE d   1       0.719   1.893  -2.391  0.00  0.00    -0.002 A 
ATOM      7  C5  OXE d   1       0.472   0.682  -1.736  0.00  0.00    -0.002 A 
ATOM      8  C6  OXE d   1       0.074   0.697  -0.403  0.00  0.00     0.003 A 
ENDROOT
TORSDOF 0
ENDMDL
