MODEL 1
REMARK minimizedAffinity 0.845689058
REMARK minimizedRMSD -1
REMARK  1 active torsions:
REMARK  status: ('A' for Active; 'I' for Inactive)
REMARK    1  A    between atoms: C1_2  and  C2_3 
ROOT
ATOM      1  C2  UNL d   1       1.101   0.901   0.266  0.00  0.00    -0.076 A 
ATOM      2  C3  UNL d   1      -0.124   1.588   0.321  0.00  0.00     0.004 A 
ATOM      3  C4  UNL d   1      -1.214   1.058   1.010  0.00  0.00    -0.003 A 
ATOM      4  C5  UNL d   1      -1.096  -0.167   1.656  0.00  0.00     0.000 A 
ATOM      5  C6  UNL d   1       0.117  -0.855   1.627  0.00  0.00     0.000 A 
ATOM      6  C7  UNL d   1       1.231  -0.327   0.951  0.00  0.00    -0.073 A 
ATOM      7  C8  UNL d   1       2.513  -1.113   0.947  0.00  0.00     0.078 C 
ENDROOT
BRANCH   1   8
ATOM      8  C1  UNL d   1       2.240   1.512  -0.519  0.00  0.00     0.053 C 
ATOM      9  C   UNL d   1       2.619   0.683  -1.736  0.00  0.00     0.018 C 
ENDBRANCH   1   8
TORSDOF 1
ENDMDL
