MODEL 1
REMARK minimizedAffinity -0.501659334
REMARK minimizedRMSD -1
REMARK  1 active torsions:
REMARK  status: ('A' for Active; 'I' for Inactive)
REMARK    1  A    between atoms: C1_2  and  C2_3 
ROOT
ATOM      1  C2  UNL d   1      -4.387  -3.746  -0.657  0.00  0.00    -0.076 A 
ATOM      2  C3  UNL d   1      -5.581  -3.759   0.085  0.00  0.00     0.004 A 
ATOM      3  C4  UNL d   1      -5.950  -4.877   0.831  0.00  0.00    -0.003 A 
ATOM      4  C5  UNL d   1      -5.130  -5.999   0.849  0.00  0.00     0.000 A 
ATOM      5  C6  UNL d   1      -3.933  -5.997   0.133  0.00  0.00     0.000 A 
ATOM      6  C7  UNL d   1      -3.539  -4.873  -0.612  0.00  0.00    -0.073 A 
ATOM      7  C8  UNL d   1      -2.241  -4.928  -1.370  0.00  0.00     0.078 C 
ENDROOT
BRANCH   1   8
ATOM      8  C1  UNL d   1      -4.053  -2.515  -1.470  0.00  0.00     0.053 C 
ATOM      9  C   UNL d   1      -4.141  -2.765  -2.968  0.00  0.00     0.018 C 
ENDBRANCH   1   8
TORSDOF 1
ENDMDL
