MODEL 1
REMARK minimizedAffinity 11.7229176
REMARK minimizedRMSD -1
REMARK  1 active torsions:
REMARK  status: ('A' for Active; 'I' for Inactive)
REMARK    1  A    between atoms: C1_2  and  C2_3 
ROOT
ATOM      1  C2  UNL d   1      -0.207   1.374   1.737  0.00  0.00    -0.076 A 
ATOM      2  C3  UNL d   1      -1.397   1.312   2.484  0.00  0.00     0.004 A 
ATOM      3  C4  UNL d   1      -2.391   2.276   2.332  0.00  0.00    -0.003 A 
ATOM      4  C5  UNL d   1      -2.213   3.318   1.429  0.00  0.00     0.000 A 
ATOM      5  C6  UNL d   1      -1.048   3.386   0.666  0.00  0.00     0.000 A 
ATOM      6  C7  UNL d   1      -0.042   2.413   0.797  0.00  0.00    -0.073 A 
ATOM      7  C8  UNL d   1       1.198   2.539  -0.046  0.00  0.00     0.078 C 
ENDROOT
BRANCH   1   8
ATOM      8  C1  UNL d   1       0.848   0.316   1.965  0.00  0.00     0.053 C 
ATOM      9  C   UNL d   1       0.350  -0.824   2.841  0.00  0.00     0.018 C 
ENDBRANCH   1   8
TORSDOF 1
ENDMDL
