MODEL 1
REMARK minimizedAffinity -4.38780355
REMARK minimizedRMSD -1
REMARK  1 active torsions:
REMARK  status: ('A' for Active; 'I' for Inactive)
REMARK    1  A    between atoms: C1_2  and  C2_3 
ROOT
ATOM      1  C2  UNL d   1       0.747   0.544   2.247  0.00  0.00    -0.076 A 
ATOM      2  C3  UNL d   1       0.002  -0.629   2.032  0.00  0.00     0.004 A 
ATOM      3  C4  UNL d   1      -1.115  -0.626   1.199  0.00  0.00    -0.003 A 
ATOM      4  C5  UNL d   1      -1.505   0.549   0.566  0.00  0.00     0.000 A 
ATOM      5  C6  UNL d   1      -0.767   1.717   0.754  0.00  0.00     0.000 A 
ATOM      6  C7  UNL d   1       0.371   1.728   1.578  0.00  0.00    -0.073 A 
ATOM      7  C8  UNL d   1       1.126   3.018   1.750  0.00  0.00     0.078 C 
ENDROOT
BRANCH   1   8
ATOM      8  C1  UNL d   1       1.934   0.487   3.183  0.00  0.00     0.053 C 
ATOM      9  C   UNL d   1       1.539   0.697   4.637  0.00  0.00     0.018 C 
ENDBRANCH   1   8
TORSDOF 1
ENDMDL
