MODEL 1
REMARK minimizedAffinity 0.061197482
REMARK minimizedRMSD -1
REMARK  1 active torsions:
REMARK  status: ('A' for Active; 'I' for Inactive)
REMARK    1  A    between atoms: C1_2  and  C2_3 
ROOT
ATOM      1  C2  UNL d   1      -1.100   1.062   1.164  0.00  0.00    -0.076 A 
ATOM      2  C3  UNL d   1      -1.694   2.237   1.657  0.00  0.00     0.004 A 
ATOM      3  C4  UNL d   1      -2.886   2.191   2.378  0.00  0.00    -0.003 A 
ATOM      4  C5  UNL d   1      -3.504   0.968   2.618  0.00  0.00     0.000 A 
ATOM      5  C6  UNL d   1      -2.920  -0.209   2.152  0.00  0.00     0.000 A 
ATOM      6  C7  UNL d   1      -1.710  -0.182   1.438  0.00  0.00    -0.073 A 
ATOM      7  C8  UNL d   1      -1.128  -1.481   0.953  0.00  0.00     0.078 C 
ENDROOT
BRANCH   1   8
ATOM      8  C1  UNL d   1       0.178   1.176   0.366  0.00  0.00     0.053 C 
ATOM      9  C   UNL d   1       1.420   1.095   1.240  0.00  0.00     0.018 C 
ENDBRANCH   1   8
TORSDOF 1
ENDMDL
