MODEL 1
REMARK minimizedAffinity 0.500141263
REMARK minimizedRMSD -1
REMARK  1 active torsions:
REMARK  status: ('A' for Active; 'I' for Inactive)
REMARK    1  A    between atoms: C1_2  and  C2_3 
ROOT
ATOM      1  C2  UNL d   1      -0.876   0.205   2.015  0.00  0.00    -0.076 A 
ATOM      2  C3  UNL d   1      -2.113   0.151   2.681  0.00  0.00     0.004 A 
ATOM      3  C4  UNL d   1      -2.918   1.284   2.791  0.00  0.00    -0.003 A 
ATOM      4  C5  UNL d   1      -2.500   2.489   2.237  0.00  0.00     0.000 A 
ATOM      5  C6  UNL d   1      -1.284   2.556   1.558  0.00  0.00     0.000 A 
ATOM      6  C7  UNL d   1      -0.467   1.420   1.424  0.00  0.00    -0.073 A 
ATOM      7  C8  UNL d   1       0.837   1.551   0.687  0.00  0.00     0.078 C 
ENDROOT
BRANCH   1   8
ATOM      8  C1  UNL d   1      -0.033  -1.048   1.951  0.00  0.00     0.053 C 
ATOM      9  C   UNL d   1       0.737  -1.299   3.238  0.00  0.00     0.018 C 
ENDBRANCH   1   8
TORSDOF 1
ENDMDL
