MODEL 1
REMARK minimizedAffinity -0.334694922
REMARK minimizedRMSD -1
REMARK  1 active torsions:
REMARK  status: ('A' for Active; 'I' for Inactive)
REMARK    1  A    between atoms: C1_2  and  C2_3 
ROOT
ATOM      1  C2  UNL d   1      -0.383   0.690   1.430  0.00  0.00    -0.076 A 
ATOM      2  C3  UNL d   1      -1.679   0.184   1.629  0.00  0.00     0.004 A 
ATOM      3  C4  UNL d   1      -2.739   1.031   1.948  0.00  0.00    -0.003 A 
ATOM      4  C5  UNL d   1      -2.520   2.398   2.072  0.00  0.00     0.000 A 
ATOM      5  C6  UNL d   1      -1.245   2.920   1.861  0.00  0.00     0.000 A 
ATOM      6  C7  UNL d   1      -0.168   2.082   1.523  0.00  0.00    -0.073 A 
ATOM      7  C8  UNL d   1       1.188   2.698   1.312  0.00  0.00     0.078 C 
ENDROOT
BRANCH   1   8
ATOM      8  C1  UNL d   1       0.733  -0.280   1.113  0.00  0.00     0.053 C 
ATOM      9  C   UNL d   1       1.317  -0.924   2.361  0.00  0.00     0.018 C 
ENDBRANCH   1   8
TORSDOF 1
ENDMDL
