MODEL 1
REMARK minimizedAffinity 3.76483488
REMARK minimizedRMSD -1
REMARK  1 active torsions:
REMARK  status: ('A' for Active; 'I' for Inactive)
REMARK    1  A    between atoms: C1_2  and  C2_3 
ROOT
ATOM      1  C2  UNL d   1       0.829  -0.089   0.679  0.00  0.00    -0.076 A 
ATOM      2  C3  UNL d   1       0.347   1.107   0.117  0.00  0.00     0.004 A 
ATOM      3  C4  UNL d   1      -0.919   1.592   0.440  0.00  0.00    -0.003 A 
ATOM      4  C5  UNL d   1      -1.724   0.890   1.331  0.00  0.00     0.000 A 
ATOM      5  C6  UNL d   1      -1.255  -0.288   1.911  0.00  0.00     0.000 A 
ATOM      6  C7  UNL d   1       0.025  -0.783   1.608  0.00  0.00    -0.073 A 
ATOM      7  C8  UNL d   1       0.477  -2.062   2.258  0.00  0.00     0.078 C 
ENDROOT
BRANCH   1   8
ATOM      8  C1  UNL d   1       2.199  -0.581   0.270  0.00  0.00     0.053 C 
ATOM      9  C   UNL d   1       2.839   0.297  -0.795  0.00  0.00     0.018 C 
ENDBRANCH   1   8
TORSDOF 1
ENDMDL
