MODEL 1
REMARK minimizedAffinity 1.34780669
REMARK minimizedRMSD -1
REMARK  1 active torsions:
REMARK  status: ('A' for Active; 'I' for Inactive)
REMARK    1  A    between atoms: C1_2  and  C2_3 
ROOT
ATOM      1  C2  UNL d   1      -0.447  -0.395   1.736  0.00  0.00    -0.076 A 
ATOM      2  C3  UNL d   1       0.583   0.281   1.059  0.00  0.00     0.004 A 
ATOM      3  C4  UNL d   1       0.334   1.475   0.384  0.00  0.00    -0.003 A 
ATOM      4  C5  UNL d   1      -0.948   2.013   0.376  0.00  0.00     0.000 A 
ATOM      5  C6  UNL d   1      -1.978   1.364   1.057  0.00  0.00     0.000 A 
ATOM      6  C7  UNL d   1      -1.740   0.168   1.756  0.00  0.00    -0.073 A 
ATOM      7  C8  UNL d   1      -2.889  -0.491   2.469  0.00  0.00     0.078 C 
ENDROOT
BRANCH   1   8
ATOM      8  C1  UNL d   1      -0.123  -1.700   2.427  0.00  0.00     0.053 C 
ATOM      9  C   UNL d   1       0.474  -1.494   3.811  0.00  0.00     0.018 C 
ENDBRANCH   1   8
TORSDOF 1
ENDMDL
