MODEL 1
REMARK minimizedAffinity 1.33703089
REMARK minimizedRMSD -1
REMARK  1 active torsions:
REMARK  status: ('A' for Active; 'I' for Inactive)
REMARK    1  A    between atoms: C1_2  and  C2_3 
ROOT
ATOM      1  C2  UNL d   1       0.072   0.187   1.345  0.00  0.00    -0.076 A 
ATOM      2  C3  UNL d   1       1.261   0.049   2.083  0.00  0.00     0.004 A 
ATOM      3  C4  UNL d   1       1.470  -1.055   2.908  0.00  0.00    -0.003 A 
ATOM      4  C5  UNL d   1       0.493  -2.040   3.008  0.00  0.00     0.000 A 
ATOM      5  C6  UNL d   1      -0.685  -1.928   2.270  0.00  0.00     0.000 A 
ATOM      6  C7  UNL d   1      -0.904  -0.829   1.421  0.00  0.00    -0.073 A 
ATOM      7  C8  UNL d   1      -2.195  -0.757   0.653  0.00  0.00     0.078 C 
ENDROOT
BRANCH   1   8
ATOM      8  C1  UNL d   1      -0.109   1.419   0.488  0.00  0.00     0.053 C 
ATOM      9  C   UNL d   1      -0.531   2.635   1.298  0.00  0.00     0.018 C 
ENDBRANCH   1   8
TORSDOF 1
ENDMDL
