MODEL 1
REMARK minimizedAffinity 4.39279318
REMARK minimizedRMSD -1
REMARK  1 active torsions:
REMARK  status: ('A' for Active; 'I' for Inactive)
REMARK    1  A    between atoms: C1_2  and  C2_3 
ROOT
ATOM      1  C2  UNL d   1       1.661   0.799   0.827  0.00  0.00    -0.076 A 
ATOM      2  C3  UNL d   1       1.342   1.934   0.062  0.00  0.00     0.004 A 
ATOM      3  C4  UNL d   1       0.297   2.778   0.432  0.00  0.00    -0.003 A 
ATOM      4  C5  UNL d   1      -0.446   2.501   1.574  0.00  0.00     0.000 A 
ATOM      5  C6  UNL d   1      -0.132   1.389   2.355  0.00  0.00     0.000 A 
ATOM      6  C7  UNL d   1       0.929   0.537   2.005  0.00  0.00    -0.073 A 
ATOM      7  C8  UNL d   1       1.220  -0.651   2.880  0.00  0.00     0.078 C 
ENDROOT
BRANCH   1   8
ATOM      8  C1  UNL d   1       2.788  -0.095   0.361  0.00  0.00     0.053 C 
ATOM      9  C   UNL d   1       2.874  -0.183  -1.155  0.00  0.00     0.018 C 
ENDBRANCH   1   8
TORSDOF 1
ENDMDL
