MODEL 1
REMARK minimizedAffinity 6.40347385
REMARK minimizedRMSD -1
REMARK  1 active torsions:
REMARK  status: ('A' for Active; 'I' for Inactive)
REMARK    1  A    between atoms: C1_2  and  C2_3 
ROOT
ATOM      1  C2  UNL d   1      -1.314   1.687   1.902  0.00  0.00    -0.076 A 
ATOM      2  C3  UNL d   1      -0.097   2.141   1.366  0.00  0.00     0.004 A 
ATOM      3  C4  UNL d   1       1.018   1.306   1.305  0.00  0.00    -0.003 A 
ATOM      4  C5  UNL d   1       0.933   0.002   1.781  0.00  0.00     0.000 A 
ATOM      5  C6  UNL d   1      -0.272  -0.471   2.300  0.00  0.00     0.000 A 
ATOM      6  C7  UNL d   1      -1.409   0.353   2.353  0.00  0.00    -0.073 A 
ATOM      7  C8  UNL d   1      -2.680  -0.208   2.929  0.00  0.00     0.078 C 
ENDROOT
BRANCH   1   8
ATOM      8  C1  UNL d   1      -2.480   2.646   1.967  0.00  0.00     0.053 C 
ATOM      9  C   UNL d   1      -3.283   2.502   3.251  0.00  0.00     0.018 C 
ENDBRANCH   1   8
TORSDOF 1
ENDMDL
