MODEL 1
REMARK minimizedAffinity 2.23244882
REMARK minimizedRMSD -1
REMARK  1 active torsions:
REMARK  status: ('A' for Active; 'I' for Inactive)
REMARK    1  A    between atoms: C1_2  and  C2_3 
ROOT
ATOM      1  C2  UNL d   1      -0.890   1.292   1.931  0.00  0.00    -0.076 A 
ATOM      2  C3  UNL d   1      -1.471   2.562   1.772  0.00  0.00     0.004 A 
ATOM      3  C4  UNL d   1      -2.794   2.796   2.142  0.00  0.00    -0.003 A 
ATOM      4  C5  UNL d   1      -3.558   1.765   2.677  0.00  0.00     0.000 A 
ATOM      5  C6  UNL d   1      -2.992   0.503   2.858  0.00  0.00     0.000 A 
ATOM      6  C7  UNL d   1      -1.654   0.254   2.505  0.00  0.00    -0.073 A 
ATOM      7  C8  UNL d   1      -1.097  -1.127   2.716  0.00  0.00     0.078 C 
ENDROOT
BRANCH   1   8
ATOM      8  C1  UNL d   1       0.542   1.090   1.487  0.00  0.00     0.053 C 
ATOM      9  C   UNL d   1       0.975   2.103   0.438  0.00  0.00     0.018 C 
ENDBRANCH   1   8
TORSDOF 1
ENDMDL
