MODEL 1
REMARK minimizedAffinity -1.40322554
REMARK minimizedRMSD -1
REMARK  1 active torsions:
REMARK  status: ('A' for Active; 'I' for Inactive)
REMARK    1  A    between atoms: C1_2  and  C2_3 
ROOT
ATOM      1  C2  UNL d   1       0.568   0.919   1.482  0.00  0.00    -0.076 A 
ATOM      2  C3  UNL d   1       0.493   0.558   2.838  0.00  0.00     0.004 A 
ATOM      3  C4  UNL d   1       1.584  -0.016   3.489  0.00  0.00    -0.003 A 
ATOM      4  C5  UNL d   1       2.768  -0.236   2.795  0.00  0.00     0.000 A 
ATOM      5  C6  UNL d   1       2.866   0.132   1.453  0.00  0.00     0.000 A 
ATOM      6  C7  UNL d   1       1.781   0.726   0.786  0.00  0.00    -0.073 A 
ATOM      7  C8  UNL d   1       1.940   1.098  -0.662  0.00  0.00     0.078 C 
ENDROOT
BRANCH   1   8
ATOM      8  C1  UNL d   1      -0.656   1.512   0.822  0.00  0.00     0.053 C 
ATOM      9  C   UNL d   1      -1.730   1.900   1.826  0.00  0.00     0.018 C 
ENDBRANCH   1   8
TORSDOF 1
ENDMDL
