MODEL 1
REMARK minimizedAffinity -2.36295772
REMARK minimizedRMSD -1
REMARK  2 active torsions:
REMARK  status: ('A' for Active; 'I' for Inactive)
REMARK    1  A    between atoms: C2'_3  and  C1'_4 
REMARK    2  A    between atoms: C1'_4  and  C1_5 
ROOT
ATOM      1  C1  I4B d   1       0.761  -1.625  -1.439  0.00  0.00    -0.075 A 
ATOM      2  C2  I4B d   1       0.999  -2.848  -0.863  0.00  0.00     0.003 A 
ATOM      3  C3  I4B d   1       0.647  -4.037  -1.545  0.00  0.00     0.002 A 
ATOM      4  C4  I4B d   1       0.018  -3.958  -2.771  0.00  0.00    -0.004 A 
ATOM      5  C5  I4B d   1      -0.202  -2.717  -3.364  0.00  0.00     0.002 A 
ATOM      6  C6  I4B d   1       0.183  -1.544  -2.699  0.00  0.00     0.003 A 
ENDROOT
BRANCH   1   7
ATOM      7  C1' I4B d   1       1.115  -0.388  -0.676  0.00  0.00     0.060 C 
BRANCH   7   8
ATOM      8  C2' I4B d   1       0.005  -0.119   0.319  0.00  0.00    -0.013 C 
ATOM      9  C4' I4B d   1       0.410  -0.528   1.711  0.00  0.00     0.013 C 
ATOM     10  C3' I4B d   1      -0.328   1.342   0.259  0.00  0.00     0.013 C 
ENDBRANCH   7   8
ENDBRANCH   1   7
TORSDOF 2
ENDMDL
