MODEL 1
REMARK minimizedAffinity -1.63774896
REMARK minimizedRMSD -1
REMARK  2 active torsions:
REMARK  status: ('A' for Active; 'I' for Inactive)
REMARK    1  A    between atoms: C2'_3  and  C1'_4 
REMARK    2  A    between atoms: C1'_4  and  C1_5 
ROOT
ATOM      1  C1  I4B d   1       0.750  -0.750  -0.374  0.00  0.00    -0.075 A 
ATOM      2  C2  I4B d   1       0.980   0.476  -0.946  0.00  0.00     0.003 A 
ATOM      3  C3  I4B d   1       0.427   1.646  -0.370  0.00  0.00     0.002 A 
ATOM      4  C4  I4B d   1      -0.384   1.538   0.741  0.00  0.00    -0.004 A 
ATOM      5  C5  I4B d   1      -0.597   0.297   1.333  0.00  0.00     0.002 A 
ATOM      6  C6  I4B d   1      -0.016  -0.854   0.779  0.00  0.00     0.003 A 
ENDROOT
BRANCH   1   7
ATOM      7  C1' I4B d   1       1.322  -1.968  -1.028  0.00  0.00     0.060 C 
BRANCH   7   8
ATOM      8  C2' I4B d   1       0.172  -2.781  -1.586  0.00  0.00    -0.013 C 
ATOM      9  C4' I4B d   1       0.086  -2.647  -3.084  0.00  0.00     0.013 C 
ATOM     10  C3' I4B d   1       0.376  -4.211  -1.182  0.00  0.00     0.013 C 
ENDBRANCH   7   8
ENDBRANCH   1   7
TORSDOF 2
ENDMDL
