MODEL 1
REMARK minimizedAffinity -5.16937399
REMARK minimizedRMSD -1
REMARK  2 active torsions:
REMARK  status: ('A' for Active; 'I' for Inactive)
REMARK    1  A    between atoms: C2'_3  and  C1'_4 
REMARK    2  A    between atoms: C1'_4  and  C1_5 
ROOT
ATOM      1  C1  I4B d   1       0.552   0.217  -0.066  0.00  0.00    -0.075 A 
ATOM      2  C2  I4B d   1      -0.096  -0.466   0.933  0.00  0.00     0.003 A 
ATOM      3  C3  I4B d   1      -0.823   0.239   1.923  0.00  0.00     0.002 A 
ATOM      4  C4  I4B d   1      -0.834   1.618   1.905  0.00  0.00    -0.004 A 
ATOM      5  C5  I4B d   1      -0.196   2.308   0.878  0.00  0.00     0.002 A 
ATOM      6  C6  I4B d   1       0.491   1.603  -0.120  0.00  0.00     0.003 A 
ENDROOT
BRANCH   1   7
ATOM      7  C1' I4B d   1       1.338  -0.557  -1.076  0.00  0.00     0.060 C 
BRANCH   7   8
ATOM      8  C2' I4B d   1       0.764  -1.958  -1.139  0.00  0.00    -0.013 C 
ATOM      9  C4' I4B d   1       0.159  -2.239  -2.490  0.00  0.00     0.013 C 
ATOM     10  C3' I4B d   1       1.868  -2.925  -0.829  0.00  0.00     0.013 C 
ENDBRANCH   7   8
ENDBRANCH   1   7
TORSDOF 2
ENDMDL
