MODEL 1
REMARK minimizedAffinity -3.54786348
REMARK minimizedRMSD -1
REMARK  2 active torsions:
REMARK  status: ('A' for Active; 'I' for Inactive)
REMARK    1  A    between atoms: C2'_3  and  C1'_4 
REMARK    2  A    between atoms: C1'_4  and  C1_5 
ROOT
ATOM      1  C1  I4B d   1       0.789  -0.844   0.023  0.00  0.00    -0.075 A 
ATOM      2  C2  I4B d   1       0.062   0.218  -0.455  0.00  0.00     0.003 A 
ATOM      3  C3  I4B d   1      -0.657   1.049   0.438  0.00  0.00     0.002 A 
ATOM      4  C4  I4B d   1      -0.662   0.755   1.786  0.00  0.00    -0.004 A 
ATOM      5  C5  I4B d   1       0.093  -0.308   2.271  0.00  0.00     0.002 A 
ATOM      6  C6  I4B d   1       0.834  -1.106   1.387  0.00  0.00     0.003 A 
ENDROOT
BRANCH   1   7
ATOM      7  C1' I4B d   1       1.510  -1.721  -0.950  0.00  0.00     0.060 C 
BRANCH   7   8
ATOM      8  C2' I4B d   1       0.501  -2.222  -1.964  0.00  0.00    -0.013 C 
ATOM      9  C4' I4B d   1       1.035  -2.109  -3.367  0.00  0.00     0.013 C 
ATOM     10  C3' I4B d   1       0.170  -3.644  -1.623  0.00  0.00     0.013 C 
ENDBRANCH   7   8
ENDBRANCH   1   7
TORSDOF 2
ENDMDL
