MODEL 1
REMARK minimizedAffinity -4.18048143
REMARK minimizedRMSD -1
REMARK  2 active torsions:
REMARK  status: ('A' for Active; 'I' for Inactive)
REMARK    1  A    between atoms: C2'_3  and  C1'_4 
REMARK    2  A    between atoms: C1'_4  and  C1_5 
ROOT
ATOM      1  C1  I4B d   1       0.245  -0.189   0.032  0.00  0.00    -0.075 A 
ATOM      2  C2  I4B d   1      -0.300  -0.996   0.999  0.00  0.00     0.003 A 
ATOM      3  C3  I4B d   1      -1.116  -0.440   2.015  0.00  0.00     0.002 A 
ATOM      4  C4  I4B d   1      -1.316   0.925   2.054  0.00  0.00    -0.004 A 
ATOM      5  C5  I4B d   1      -0.781   1.738   1.060  0.00  0.00     0.002 A 
ATOM      6  C6  I4B d   1      -0.005   1.177   0.035  0.00  0.00     0.003 A 
ENDROOT
BRANCH   1   7
ATOM      7  C1' I4B d   1       1.128  -0.805  -1.006  0.00  0.00     0.060 C 
BRANCH   7   8
ATOM      8  C2' I4B d   1       0.477  -2.093  -1.468  0.00  0.00    -0.013 C 
ATOM      9  C4' I4B d   1      -0.039  -1.968  -2.877  0.00  0.00     0.013 C 
ATOM     10  C3' I4B d   1       1.493  -3.191  -1.359  0.00  0.00     0.013 C 
ENDBRANCH   7   8
ENDBRANCH   1   7
TORSDOF 2
ENDMDL
