MODEL 1
REMARK minimizedAffinity -0.404723108
REMARK minimizedRMSD -1
REMARK  2 active torsions:
REMARK  status: ('A' for Active; 'I' for Inactive)
REMARK    1  A    between atoms: C2'_3  and  C1'_4 
REMARK    2  A    between atoms: C1'_4  and  C1_5 
ROOT
ATOM      1  C1  I4B d   1       1.070  -2.070  -1.377  0.00  0.00    -0.075 A 
ATOM      2  C2  I4B d   1       1.492  -3.265  -0.850  0.00  0.00     0.003 A 
ATOM      3  C3  I4B d   1       1.161  -4.483  -1.492  0.00  0.00     0.002 A 
ATOM      4  C4  I4B d   1       0.370  -4.463  -2.622  0.00  0.00    -0.004 A 
ATOM      5  C5  I4B d   1      -0.038  -3.249  -3.167  0.00  0.00     0.002 A 
ATOM      6  C6  I4B d   1       0.324  -2.044  -2.548  0.00  0.00     0.003 A 
ENDROOT
BRANCH   1   7
ATOM      7  C1' I4B d   1       1.410  -0.804  -0.655  0.00  0.00     0.060 C 
BRANCH   7   8
ATOM      8  C2' I4B d   1       0.121  -0.045  -0.412  0.00  0.00    -0.013 C 
ATOM      9  C4' I4B d   1      -0.183   0.054   1.060  0.00  0.00     0.013 C 
ATOM     10  C3' I4B d   1       0.261   1.314  -1.029  0.00  0.00     0.013 C 
ENDBRANCH   7   8
ENDBRANCH   1   7
TORSDOF 2
ENDMDL
