MODEL 1
REMARK minimizedAffinity -3.51804829
REMARK minimizedRMSD -1
REMARK  2 active torsions:
REMARK  status: ('A' for Active; 'I' for Inactive)
REMARK    1  A    between atoms: C2'_3  and  C1'_4 
REMARK    2  A    between atoms: C1'_4  and  C1_5 
ROOT
ATOM      1  C1  I4B d   1       0.259  -0.319  -0.024  0.00  0.00    -0.075 A 
ATOM      2  C2  I4B d   1       0.061  -1.021   1.138  0.00  0.00     0.003 A 
ATOM      3  C3  I4B d   1      -0.705  -0.460   2.188  0.00  0.00     0.002 A 
ATOM      4  C4  I4B d   1      -1.209   0.818   2.054  0.00  0.00    -0.004 A 
ATOM      5  C5  I4B d   1      -1.026   1.519   0.866  0.00  0.00     0.002 A 
ATOM      6  C6  I4B d   1      -0.298   0.943  -0.185  0.00  0.00     0.003 A 
ENDROOT
BRANCH   1   7
ATOM      7  C1' I4B d   1       1.101  -0.929  -1.100  0.00  0.00     0.060 C 
BRANCH   7   8
ATOM      8  C2' I4B d   1       0.387  -2.166  -1.607  0.00  0.00    -0.013 C 
ATOM      9  C4' I4B d   1      -0.140  -1.958  -3.002  0.00  0.00     0.013 C 
ATOM     10  C3' I4B d   1       1.354  -3.311  -1.558  0.00  0.00     0.013 C 
ENDBRANCH   7   8
ENDBRANCH   1   7
TORSDOF 2
ENDMDL
