MODEL 1
REMARK minimizedAffinity -3.42098689
REMARK minimizedRMSD -1
REMARK  2 active torsions:
REMARK  status: ('A' for Active; 'I' for Inactive)
REMARK    1  A    between atoms: C2'_3  and  C1'_4 
REMARK    2  A    between atoms: C1'_4  and  C1_5 
ROOT
ATOM      1  C1  I4B d   1       1.065  -1.851  -1.734  0.00  0.00    -0.075 A 
ATOM      2  C2  I4B d   1       1.000  -3.064  -1.094  0.00  0.00     0.003 A 
ATOM      3  C3  I4B d   1       0.470  -4.195  -1.762  0.00  0.00     0.002 A 
ATOM      4  C4  I4B d   1      -0.028  -4.057  -3.041  0.00  0.00    -0.004 A 
ATOM      5  C5  I4B d   1       0.059  -2.832  -3.696  0.00  0.00     0.002 A 
ATOM      6  C6  I4B d   1       0.620  -1.725  -3.043  0.00  0.00     0.003 A 
ENDROOT
BRANCH   1   7
ATOM      7  C1' I4B d   1       1.601  -0.671  -0.988  0.00  0.00     0.060 C 
BRANCH   7   8
ATOM      8  C2' I4B d   1       0.439   0.009  -0.292  0.00  0.00    -0.013 C 
ATOM      9  C4' I4B d   1       0.430  -0.301   1.182  0.00  0.00     0.013 C 
ATOM     10  C3' I4B d   1       0.553   1.484  -0.535  0.00  0.00     0.013 C 
ENDBRANCH   7   8
ENDBRANCH   1   7
TORSDOF 2
ENDMDL
