MODEL 1
REMARK minimizedAffinity -2.16331196
REMARK minimizedRMSD -1
REMARK  2 active torsions:
REMARK  status: ('A' for Active; 'I' for Inactive)
REMARK    1  A    between atoms: C2'_3  and  C1'_4 
REMARK    2  A    between atoms: C1'_4  and  C1_5 
ROOT
ATOM      1  C1  I4B d   1       0.628  -0.340  -0.291  0.00  0.00    -0.075 A 
ATOM      2  C2  I4B d   1       0.376  -1.115   0.813  0.00  0.00     0.003 A 
ATOM      3  C3  I4B d   1      -0.357  -0.586   1.903  0.00  0.00     0.002 A 
ATOM      4  C4  I4B d   1      -0.771   0.730   1.868  0.00  0.00    -0.004 A 
ATOM      5  C5  I4B d   1      -0.535   1.507   0.738  0.00  0.00     0.002 A 
ATOM      6  C6  I4B d   1       0.159   0.966  -0.354  0.00  0.00     0.003 A 
ENDROOT
BRANCH   1   7
ATOM      7  C1' I4B d   1       1.433  -0.921  -1.411  0.00  0.00     0.060 C 
BRANCH   7   8
ATOM      8  C2' I4B d   1       0.758  -2.202  -1.855  0.00  0.00    -0.013 C 
ATOM      9  C4' I4B d   1       0.628  -2.258  -3.355  0.00  0.00     0.013 C 
ATOM     10  C3' I4B d   1       1.566  -3.355  -1.339  0.00  0.00     0.013 C 
ENDBRANCH   7   8
ENDBRANCH   1   7
TORSDOF 2
ENDMDL
