MODEL 1
REMARK minimizedAffinity -5.16883707
REMARK minimizedRMSD -1
REMARK  2 active torsions:
REMARK  status: ('A' for Active; 'I' for Inactive)
REMARK    1  A    between atoms: C2'_3  and  C1'_4 
REMARK    2  A    between atoms: C1'_4  and  C1_5 
ROOT
ATOM      1  C1  I4B d   1       0.300  -0.214   0.067  0.00  0.00    -0.075 A 
ATOM      2  C2  I4B d   1      -0.127  -1.025   1.089  0.00  0.00     0.003 A 
ATOM      3  C3  I4B d   1      -0.982  -0.514   2.095  0.00  0.00     0.002 A 
ATOM      4  C4  I4B d   1      -1.341   0.818   2.069  0.00  0.00    -0.004 A 
ATOM      5  C5  I4B d   1      -0.925   1.634   1.021  0.00  0.00     0.002 A 
ATOM      6  C6  I4B d   1      -0.109   1.111   0.006  0.00  0.00     0.003 A 
ENDROOT
BRANCH   1   7
ATOM      7  C1' I4B d   1       1.229  -0.779  -0.961  0.00  0.00     0.060 C 
BRANCH   7   8
ATOM      8  C2' I4B d   1       0.671  -2.114  -1.410  0.00  0.00    -0.013 C 
ATOM      9  C4' I4B d   1       0.165  -2.044  -2.827  0.00  0.00     0.013 C 
ATOM     10  C3' I4B d   1       1.757  -3.139  -1.273  0.00  0.00     0.013 C 
ENDBRANCH   7   8
ENDBRANCH   1   7
TORSDOF 2
ENDMDL
