MODEL 1
REMARK minimizedAffinity -4.02449894
REMARK minimizedRMSD -1
REMARK  2 active torsions:
REMARK  status: ('A' for Active; 'I' for Inactive)
REMARK    1  A    between atoms: C2'_3  and  C1'_4 
REMARK    2  A    between atoms: C1'_4  and  C1_5 
ROOT
ATOM      1  C1  I4B d   1       0.252  -0.019  -0.239  0.00  0.00    -0.075 A 
ATOM      2  C2  I4B d   1      -0.394  -0.748   0.728  0.00  0.00     0.003 A 
ATOM      3  C3  I4B d   1      -1.026  -0.092   1.812  0.00  0.00     0.002 A 
ATOM      4  C4  I4B d   1      -0.945   1.281   1.916  0.00  0.00    -0.004 A 
ATOM      5  C5  I4B d   1      -0.309   2.021   0.923  0.00  0.00     0.002 A 
ATOM      6  C6  I4B d   1       0.283   1.368  -0.168  0.00  0.00     0.003 A 
ENDROOT
BRANCH   1   7
ATOM      7  C1' I4B d   1       0.938  -0.746  -1.352  0.00  0.00     0.060 C 
BRANCH   7   8
ATOM      8  C2' I4B d   1       0.303  -2.116  -1.475  0.00  0.00    -0.013 C 
ATOM      9  C4' I4B d   1      -0.607  -2.190  -2.673  0.00  0.00     0.013 C 
ATOM     10  C3' I4B d   1       1.404  -3.130  -1.569  0.00  0.00     0.013 C 
ENDBRANCH   7   8
ENDBRANCH   1   7
TORSDOF 2
ENDMDL
