MODEL 1
REMARK minimizedAffinity 0.846232533
REMARK minimizedRMSD -1
REMARK  2 active torsions:
REMARK  status: ('A' for Active; 'I' for Inactive)
REMARK    1  A    between atoms: C2'_3  and  C1'_4 
REMARK    2  A    between atoms: C1'_4  and  C1_5 
ROOT
ATOM      1  C1  I4B d   1      -0.009  -1.101  -0.718  0.00  0.00    -0.075 A 
ATOM      2  C2  I4B d   1       0.541  -2.267  -0.248  0.00  0.00     0.003 A 
ATOM      3  C3  I4B d   1       0.449  -3.457  -1.011  0.00  0.00     0.002 A 
ATOM      4  C4  I4B d   1      -0.241  -3.446  -2.206  0.00  0.00    -0.004 A 
ATOM      5  C5  I4B d   1      -0.778  -2.257  -2.692  0.00  0.00     0.002 A 
ATOM      6  C6  I4B d   1      -0.651  -1.074  -1.949  0.00  0.00     0.003 A 
ENDROOT
BRANCH   1   7
ATOM      7  C1' I4B d   1       0.078   0.130   0.129  0.00  0.00     0.060 C 
BRANCH   7   8
ATOM      8  C2' I4B d   1      -0.313  -0.249   1.543  0.00  0.00    -0.013 C 
ATOM      9  C4' I4B d   1       0.687   0.272   2.542  0.00  0.00     0.013 C 
ATOM     10  C3' I4B d   1      -1.682   0.303   1.808  0.00  0.00     0.013 C 
ENDBRANCH   7   8
ENDBRANCH   1   7
TORSDOF 2
ENDMDL
