MODEL 1
REMARK minimizedAffinity -4.1925683
REMARK minimizedRMSD -1
REMARK  2 active torsions:
REMARK  status: ('A' for Active; 'I' for Inactive)
REMARK    1  A    between atoms: C2'_3  and  C1'_4 
REMARK    2  A    between atoms: C1'_4  and  C1_5 
ROOT
ATOM      1  C1  I4B d   1      -0.525   0.241   0.560  0.00  0.00    -0.075 A 
ATOM      2  C2  I4B d   1      -1.298   0.275   1.694  0.00  0.00     0.003 A 
ATOM      3  C3  I4B d   1      -1.893   1.489   2.115  0.00  0.00     0.002 A 
ATOM      4  C4  I4B d   1      -1.650   2.647   1.405  0.00  0.00    -0.004 A 
ATOM      5  C5  I4B d   1      -0.885   2.607   0.243  0.00  0.00     0.002 A 
ATOM      6  C6  I4B d   1      -0.329   1.394  -0.190  0.00  0.00     0.003 A 
ENDROOT
BRANCH   1   7
ATOM      7  C1' I4B d   1       0.116  -1.051   0.162  0.00  0.00     0.060 C 
BRANCH   7   8
ATOM      8  C2' I4B d   1       0.643  -0.895  -1.250  0.00  0.00    -0.013 C 
ATOM      9  C4' I4B d   1       2.035  -0.323  -1.252  0.00  0.00     0.013 C 
ATOM     10  C3' I4B d   1       0.610  -2.243  -1.907  0.00  0.00     0.013 C 
ENDBRANCH   7   8
ENDBRANCH   1   7
TORSDOF 2
ENDMDL
