MODEL 1
REMARK minimizedAffinity -3.75602484
REMARK minimizedRMSD -1
REMARK  1 active torsions:
REMARK  status: ('A' for Active; 'I' for Inactive)
REMARK    1  A    between atoms: C3_4  and  O_7 
ROOT
ATOM      1  C   UNL d   1       5.999  -2.267   2.786  0.00  0.00    -0.033 A 
ATOM      2  C1  UNL d   1       5.818  -2.005   4.146  0.00  0.00     0.039 A 
ATOM      3  C2  UNL d   1       5.237  -2.968   4.973  0.00  0.00    -0.080 A 
ATOM      4  C3  UNL d   1       4.842  -4.187   4.430  0.00  0.00     0.150 A 
ATOM      5  C4  UNL d   1       5.023  -4.457   3.077  0.00  0.00    -0.007 A 
ATOM      6  C5  UNL d   1       5.603  -3.493   2.252  0.00  0.00     0.039 A 
ENDROOT
BRANCH   4   7
ATOM      7  O   UNL d   1       4.266  -5.156   5.196  0.00  0.00    -0.526 OA
ATOM      8  H5  UNL d   1       4.179  -4.819   6.104  0.00  0.00     0.418 HD
ENDBRANCH   4   7
TORSDOF 1
ENDMDL
