MODEL 1
REMARK minimizedAffinity -3.13937926
REMARK minimizedRMSD -1
REMARK  1 active torsions:
REMARK  status: ('A' for Active; 'I' for Inactive)
REMARK    1  A    between atoms: C3_4  and  O_7 
ROOT
ATOM      1  C   UNL d   1       6.000  -2.999   3.393  0.00  0.00    -0.033 A 
ATOM      2  C1  UNL d   1       5.795  -2.705   4.742  0.00  0.00     0.039 A 
ATOM      3  C2  UNL d   1       5.227  -3.659   5.588  0.00  0.00    -0.080 A 
ATOM      4  C3  UNL d   1       4.869  -4.902   5.073  0.00  0.00     0.150 A 
ATOM      5  C4  UNL d   1       5.074  -5.204   3.731  0.00  0.00    -0.007 A 
ATOM      6  C5  UNL d   1       5.641  -4.249   2.887  0.00  0.00     0.039 A 
ENDROOT
BRANCH   4   7
ATOM      7  O   UNL d   1       4.306  -5.864   5.859  0.00  0.00    -0.526 OA
ATOM      8  H5  UNL d   1       4.199  -5.505   6.756  0.00  0.00     0.418 HD
ENDBRANCH   4   7
TORSDOF 1
ENDMDL
