MODEL 1
REMARK minimizedAffinity -3.81746721
REMARK minimizedRMSD -1
REMARK  1 active torsions:
REMARK  status: ('A' for Active; 'I' for Inactive)
REMARK    1  A    between atoms: C3_4  and  O_7 
ROOT
ATOM      1  C   UNL d   1       5.992  -4.476   2.264  0.00  0.00    -0.033 A 
ATOM      2  C1  UNL d   1       5.989  -3.105   2.001  0.00  0.00     0.039 A 
ATOM      3  C2  UNL d   1       5.608  -2.203   2.996  0.00  0.00    -0.080 A 
ATOM      4  C3  UNL d   1       5.233  -2.683   4.248  0.00  0.00     0.150 A 
ATOM      5  C4  UNL d   1       5.238  -4.048   4.518  0.00  0.00    -0.007 A 
ATOM      6  C5  UNL d   1       5.618  -4.948   3.523  0.00  0.00     0.039 A 
ENDROOT
BRANCH   4   7
ATOM      7  O   UNL d   1       4.849  -1.842   5.249  0.00  0.00    -0.526 OA
ATOM      8  H5  UNL d   1       4.867  -0.931   4.909  0.00  0.00     0.418 HD
ENDBRANCH   4   7
TORSDOF 1
ENDMDL
