MODEL 1
REMARK minimizedAffinity -3.47177243
REMARK minimizedRMSD -1
REMARK  1 active torsions:
REMARK  status: ('A' for Active; 'I' for Inactive)
REMARK    1  A    between atoms: C3_4  and  O_7 
ROOT
ATOM      1  C   UNL d   1       5.777  -4.345   2.491  0.00  0.00    -0.033 A 
ATOM      2  C1  UNL d   1       5.999  -3.066   1.976  0.00  0.00     0.039 A 
ATOM      3  C2  UNL d   1       5.974  -1.957   2.823  0.00  0.00    -0.080 A 
ATOM      4  C3  UNL d   1       5.728  -2.140   4.181  0.00  0.00     0.150 A 
ATOM      5  C4  UNL d   1       5.510  -3.411   4.701  0.00  0.00    -0.007 A 
ATOM      6  C5  UNL d   1       5.534  -4.518   3.854  0.00  0.00     0.039 A 
ENDROOT
BRANCH   4   7
ATOM      7  O   UNL d   1       5.689  -1.087   5.046  0.00  0.00    -0.526 OA
ATOM      8  H5  UNL d   1       5.828  -0.268   4.541  0.00  0.00     0.418 HD
ENDBRANCH   4   7
TORSDOF 1
ENDMDL
