MODEL 1
REMARK minimizedAffinity -0.825441837
REMARK minimizedRMSD -1
REMARK  1 active torsions:
REMARK  status: ('A' for Active; 'I' for Inactive)
REMARK    1  A    between atoms: C3_4  and  O_7 
ROOT
ATOM      1  C   UNL d   1       4.172  -6.000   5.998  0.00  0.00    -0.033 A 
ATOM      2  C1  UNL d   1       5.517  -5.628   5.949  0.00  0.00     0.039 A 
ATOM      3  C2  UNL d   1       5.999  -4.882   4.871  0.00  0.00    -0.080 A 
ATOM      4  C3  UNL d   1       5.126  -4.516   3.850  0.00  0.00     0.150 A 
ATOM      5  C4  UNL d   1       3.785  -4.880   3.894  0.00  0.00    -0.007 A 
ATOM      6  C5  UNL d   1       3.306  -5.625   4.971  0.00  0.00     0.039 A 
ENDROOT
BRANCH   4   7
ATOM      7  O   UNL d   1       5.551  -3.793   2.775  0.00  0.00    -0.526 OA
ATOM      8  H5  UNL d   1       6.506  -3.638   2.867  0.00  0.00     0.418 HD
ENDBRANCH   4   7
TORSDOF 1
ENDMDL
