MODEL 1
REMARK minimizedAffinity -3.50844049
REMARK minimizedRMSD -1
REMARK  1 active torsions:
REMARK  status: ('A' for Active; 'I' for Inactive)
REMARK    1  A    between atoms: C3_4  and  O_7 
ROOT
ATOM      1  C   UNL d   1       5.999  -2.460   4.056  0.00  0.00    -0.033 A 
ATOM      2  C1  UNL d   1       5.719  -3.661   3.402  0.00  0.00     0.039 A 
ATOM      3  C2  UNL d   1       4.965  -4.647   4.042  0.00  0.00    -0.080 A 
ATOM      4  C3  UNL d   1       4.498  -4.420   5.333  0.00  0.00     0.150 A 
ATOM      5  C4  UNL d   1       4.771  -3.224   5.990  0.00  0.00    -0.007 A 
ATOM      6  C5  UNL d   1       5.524  -2.241   5.350  0.00  0.00     0.039 A 
ENDROOT
BRANCH   4   7
ATOM      7  O   UNL d   1       3.763  -5.354   6.000  0.00  0.00    -0.526 OA
ATOM      8  H5  UNL d   1       3.678  -6.140   5.434  0.00  0.00     0.418 HD
ENDBRANCH   4   7
TORSDOF 1
ENDMDL
