MODEL 1
REMARK minimizedAffinity -3.14569426
REMARK minimizedRMSD -1
REMARK  1 active torsions:
REMARK  status: ('A' for Active; 'I' for Inactive)
REMARK    1  A    between atoms: C3_4  and  O_7 
ROOT
ATOM      1  C   UNL d   1       4.970  -5.909   4.747  0.00  0.00    -0.033 A 
ATOM      2  C1  UNL d   1       5.747  -5.154   3.866  0.00  0.00     0.039 A 
ATOM      3  C2  UNL d   1       5.872  -3.775   4.049  0.00  0.00    -0.080 A 
ATOM      4  C3  UNL d   1       5.217  -3.165   5.115  0.00  0.00     0.150 A 
ATOM      5  C4  UNL d   1       4.444  -3.911   5.998  0.00  0.00    -0.007 A 
ATOM      6  C5  UNL d   1       4.320  -5.287   5.814  0.00  0.00     0.039 A 
ENDROOT
BRANCH   4   7
ATOM      7  O   UNL d   1       5.305  -1.821   5.331  0.00  0.00    -0.526 OA
ATOM      8  H5  UNL d   1       5.848  -1.432   4.625  0.00  0.00     0.418 HD
ENDBRANCH   4   7
TORSDOF 1
ENDMDL
