MODEL 1
REMARK minimizedAffinity -3.31449771
REMARK minimizedRMSD -1
REMARK  1 active torsions:
REMARK  status: ('A' for Active; 'I' for Inactive)
REMARK    1  A    between atoms: C3_4  and  O_7 
ROOT
ATOM      1  C   UNL d   1       4.902  -3.437   5.582  0.00  0.00    -0.033 A 
ATOM      2  C1  UNL d   1       4.906  -4.827   5.710  0.00  0.00     0.039 A 
ATOM      3  C2  UNL d   1       5.175  -5.632   4.601  0.00  0.00    -0.080 A 
ATOM      4  C3  UNL d   1       5.439  -5.034   3.372  0.00  0.00     0.150 A 
ATOM      5  C4  UNL d   1       5.440  -3.650   3.238  0.00  0.00    -0.007 A 
ATOM      6  C5  UNL d   1       5.171  -2.848   4.346  0.00  0.00     0.039 A 
ENDROOT
BRANCH   4   7
ATOM      7  O   UNL d   1       5.702  -5.778   2.260  0.00  0.00    -0.526 OA
ATOM      8  H5  UNL d   1       5.638  -6.718   2.497  0.00  0.00     0.418 HD
ENDBRANCH   4   7
TORSDOF 1
ENDMDL
