MODEL 1
REMARK minimizedAffinity -3.3899343
REMARK minimizedRMSD -1
REMARK  1 active torsions:
REMARK  status: ('A' for Active; 'I' for Inactive)
REMARK    1  A    between atoms: C3_4  and  O_7 
ROOT
ATOM      1  C   UNL d   1       5.995  -2.649   3.358  0.00  0.00    -0.033 A 
ATOM      2  C1  UNL d   1       5.502  -2.290   4.614  0.00  0.00     0.039 A 
ATOM      3  C2  UNL d   1       5.010  -3.269   5.480  0.00  0.00    -0.080 A 
ATOM      4  C3  UNL d   1       5.017  -4.602   5.078  0.00  0.00     0.150 A 
ATOM      5  C4  UNL d   1       5.510  -4.967   3.829  0.00  0.00    -0.007 A 
ATOM      6  C5  UNL d   1       6.000  -3.988   2.967  0.00  0.00     0.039 A 
ENDROOT
BRANCH   4   7
ATOM      7  O   UNL d   1       4.543  -5.592   5.886  0.00  0.00    -0.526 OA
ATOM      8  H5  UNL d   1       4.208  -5.188   6.704  0.00  0.00     0.418 HD
ENDBRANCH   4   7
TORSDOF 1
ENDMDL
