MODEL 1
REMARK minimizedAffinity -3.30936408
REMARK minimizedRMSD -1
REMARK  1 active torsions:
REMARK  status: ('A' for Active; 'I' for Inactive)
REMARK    1  A    between atoms: C3_4  and  O_7 
ROOT
ATOM      1  C   UNL d   1       5.996  -1.877   3.573  0.00  0.00    -0.033 A 
ATOM      2  C1  UNL d   1       5.998  -2.975   2.711  0.00  0.00     0.039 A 
ATOM      3  C2  UNL d   1       5.523  -4.211   3.151  0.00  0.00    -0.080 A 
ATOM      4  C3  UNL d   1       5.048  -4.336   4.454  0.00  0.00     0.150 A 
ATOM      5  C4  UNL d   1       5.040  -3.245   5.317  0.00  0.00    -0.007 A 
ATOM      6  C5  UNL d   1       5.515  -2.011   4.875  0.00  0.00     0.039 A 
ENDROOT
BRANCH   4   7
ATOM      7  O   UNL d   1       4.579  -5.524   4.930  0.00  0.00    -0.526 OA
ATOM      8  H5  UNL d   1       4.672  -6.194   4.233  0.00  0.00     0.418 HD
ENDBRANCH   4   7
TORSDOF 1
ENDMDL
