MODEL 1
REMARK minimizedAffinity -3.72216129
REMARK minimizedRMSD -1
REMARK  1 active torsions:
REMARK  status: ('A' for Active; 'I' for Inactive)
REMARK    1  A    between atoms: C3_4  and  O_7 
ROOT
ATOM      1  C   UNL d   1       5.989  -4.435   2.263  0.00  0.00    -0.033 A 
ATOM      2  C1  UNL d   1       5.999  -3.082   1.917  0.00  0.00     0.039 A 
ATOM      3  C2  UNL d   1       5.624  -2.118   2.854  0.00  0.00    -0.080 A 
ATOM      4  C3  UNL d   1       5.242  -2.518   4.132  0.00  0.00     0.150 A 
ATOM      5  C4  UNL d   1       5.233  -3.864   4.484  0.00  0.00    -0.007 A 
ATOM      6  C5  UNL d   1       5.607  -4.826   3.547  0.00  0.00     0.039 A 
ENDROOT
BRANCH   4   7
ATOM      7  O   UNL d   1       4.864  -1.614   5.079  0.00  0.00    -0.526 OA
ATOM      8  H5  UNL d   1       4.891  -0.726   4.685  0.00  0.00     0.418 HD
ENDBRANCH   4   7
TORSDOF 1
ENDMDL
