MODEL 1
REMARK minimizedAffinity -3.46597934
REMARK minimizedRMSD -1
REMARK  1 active torsions:
REMARK  status: ('A' for Active; 'I' for Inactive)
REMARK    1  A    between atoms: C3_4  and  O_7 
ROOT
ATOM      1  C   UNL d   1       5.488  -5.168   3.514  0.00  0.00    -0.033 A 
ATOM      2  C1  UNL d   1       5.099  -5.238   4.854  0.00  0.00     0.039 A 
ATOM      3  C2  UNL d   1       5.127  -4.093   5.651  0.00  0.00    -0.080 A 
ATOM      4  C3  UNL d   1       5.545  -2.885   5.099  0.00  0.00     0.150 A 
ATOM      5  C4  UNL d   1       5.931  -2.808   3.764  0.00  0.00    -0.007 A 
ATOM      6  C5  UNL d   1       5.902  -3.953   2.970  0.00  0.00     0.039 A 
ENDROOT
BRANCH   4   7
ATOM      7  O   UNL d   1       5.595  -1.742   5.839  0.00  0.00    -0.526 OA
ATOM      8  H5  UNL d   1       5.328  -1.953   6.750  0.00  0.00     0.418 HD
ENDBRANCH   4   7
TORSDOF 1
ENDMDL
