MODEL 1
REMARK minimizedAffinity -3.0930748
REMARK minimizedRMSD -1
REMARK  1 active torsions:
REMARK  status: ('A' for Active; 'I' for Inactive)
REMARK    1  A    between atoms: C3_4  and  O_7 
ROOT
ATOM      1  C   UNL d   1       4.900  -5.937   5.078  0.00  0.00    -0.033 A 
ATOM      2  C1  UNL d   1       4.266  -5.102   6.000  0.00  0.00     0.039 A 
ATOM      3  C2  UNL d   1       4.500  -3.726   5.974  0.00  0.00    -0.080 A 
ATOM      4  C3  UNL d   1       5.368  -3.198   5.022  0.00  0.00     0.150 A 
ATOM      5  C4  UNL d   1       6.000  -4.024   4.098  0.00  0.00    -0.007 A 
ATOM      6  C5  UNL d   1       5.766  -5.398   4.126  0.00  0.00     0.039 A 
ENDROOT
BRANCH   4   7
ATOM      7  O   UNL d   1       5.631  -1.862   4.961  0.00  0.00    -0.526 OA
ATOM      8  H5  UNL d   1       5.147  -1.420   5.678  0.00  0.00     0.418 HD
ENDBRANCH   4   7
TORSDOF 1
ENDMDL
