MODEL 1
REMARK minimizedAffinity -2.98098588
REMARK minimizedRMSD -1
REMARK  1 active torsions:
REMARK  status: ('A' for Active; 'I' for Inactive)
REMARK    1  A    between atoms: C3_4  and  O_7 
ROOT
ATOM      1  C   UNL d   1       5.555  -3.027   5.818  0.00  0.00    -0.033 A 
ATOM      2  C1  UNL d   1       5.194  -4.363   6.000  0.00  0.00     0.039 A 
ATOM      3  C2  UNL d   1       5.232  -5.251   4.923  0.00  0.00    -0.080 A 
ATOM      4  C3  UNL d   1       5.634  -4.792   3.672  0.00  0.00     0.150 A 
ATOM      5  C4  UNL d   1       6.000  -3.463   3.485  0.00  0.00    -0.007 A 
ATOM      6  C5  UNL d   1       5.960  -2.577   4.561  0.00  0.00     0.039 A 
ENDROOT
BRANCH   4   7
ATOM      7  O   UNL d   1       5.683  -5.620   2.591  0.00  0.00    -0.526 OA
ATOM      8  H5  UNL d   1       5.376  -6.501   2.863  0.00  0.00     0.418 HD
ENDBRANCH   4   7
TORSDOF 1
ENDMDL
