MODEL 1
REMARK minimizedAffinity -3.7613008
REMARK minimizedRMSD -1
REMARK  1 active torsions:
REMARK  status: ('A' for Active; 'I' for Inactive)
REMARK    1  A    between atoms: C3_4  and  O_7 
ROOT
ATOM      1  C   UNL d   1       3.768  -5.292   5.927  0.00  0.00    -0.033 A 
ATOM      2  C1  UNL d   1       2.993  -4.276   5.364  0.00  0.00     0.039 A 
ATOM      3  C2  UNL d   1       3.602  -3.118   4.877  0.00  0.00    -0.080 A 
ATOM      4  C3  UNL d   1       4.986  -2.989   4.957  0.00  0.00     0.150 A 
ATOM      5  C4  UNL d   1       5.765  -3.999   5.512  0.00  0.00    -0.007 A 
ATOM      6  C5  UNL d   1       5.155  -5.154   5.999  0.00  0.00     0.039 A 
ENDROOT
BRANCH   4   7
ATOM      7  O   UNL d   1       5.625  -1.875   4.499  0.00  0.00    -0.526 OA
ATOM      8  H5  UNL d   1       4.957  -1.251   4.169  0.00  0.00     0.418 HD
ENDBRANCH   4   7
TORSDOF 1
ENDMDL
