MODEL 1
REMARK minimizedAffinity -2.9127059
REMARK minimizedRMSD -1
REMARK  1 active torsions:
REMARK  status: ('A' for Active; 'I' for Inactive)
REMARK    1  A    between atoms: C3_4  and  O_7 
ROOT
ATOM      1  C   UNL d   1       6.000  -2.376   4.682  0.00  0.00    -0.033 A 
ATOM      2  C1  UNL d   1       5.991  -3.341   3.673  0.00  0.00     0.039 A 
ATOM      3  C2  UNL d   1       5.240  -4.507   3.827  0.00  0.00    -0.080 A 
ATOM      4  C3  UNL d   1       4.501  -4.695   4.992  0.00  0.00     0.150 A 
ATOM      5  C4  UNL d   1       4.502  -3.736   5.999  0.00  0.00    -0.007 A 
ATOM      6  C5  UNL d   1       5.254  -2.573   5.844  0.00  0.00     0.039 A 
ENDROOT
BRANCH   4   7
ATOM      7  O   UNL d   1       3.756  -5.820   5.190  0.00  0.00    -0.526 OA
ATOM      8  H5  UNL d   1       3.874  -6.406   4.423  0.00  0.00     0.418 HD
ENDBRANCH   4   7
TORSDOF 1
ENDMDL
