MODEL 1
REMARK minimizedAffinity -3.77593613
REMARK minimizedRMSD -1
REMARK  1 active torsions:
REMARK  status: ('A' for Active; 'I' for Inactive)
REMARK    1  A    between atoms: C3_4  and  O_7 
ROOT
ATOM      1  C   UNL d   1       5.527  -4.638   2.516  0.00  0.00    -0.033 A 
ATOM      2  C1  UNL d   1       5.524  -4.644   3.913  0.00  0.00     0.039 A 
ATOM      3  C2  UNL d   1       5.538  -3.439   4.618  0.00  0.00    -0.080 A 
ATOM      4  C3  UNL d   1       5.555  -2.237   3.916  0.00  0.00     0.150 A 
ATOM      5  C4  UNL d   1       5.555  -2.223   2.525  0.00  0.00    -0.007 A 
ATOM      6  C5  UNL d   1       5.541  -3.428   1.823  0.00  0.00     0.039 A 
ENDROOT
BRANCH   4   7
ATOM      7  O   UNL d   1       5.575  -1.036   4.561  0.00  0.00    -0.526 OA
ATOM      8  H5  UNL d   1       5.602  -1.201   5.518  0.00  0.00     0.418 HD
ENDBRANCH   4   7
TORSDOF 1
ENDMDL
