MODEL 1
REMARK minimizedAffinity -6.07735157
REMARK minimizedRMSD -1
REMARK  2 active torsions:
REMARK  status: ('A' for Active; 'I' for Inactive)
REMARK    1  A    between atoms: C2'_3  and  C1'_4 
REMARK    2  A    between atoms: C1'_4  and  C1_5 
ROOT
ATOM      1  C1  I4B d   1       1.547  -0.917   0.553  0.00  0.00    -0.075 A 
ATOM      2  C2  I4B d   1       2.804  -0.477   0.887  0.00  0.00     0.003 A 
ATOM      3  C3  I4B d   1       3.441  -0.961   2.055  0.00  0.00     0.002 A 
ATOM      4  C4  I4B d   1       2.769  -1.839   2.882  0.00  0.00    -0.004 A 
ATOM      5  C5  I4B d   1       1.505  -2.301   2.529  0.00  0.00     0.002 A 
ATOM      6  C6  I4B d   1       0.894  -1.847   1.351  0.00  0.00     0.003 A 
ENDROOT
BRANCH   1   7
ATOM      7  C1' I4B d   1       0.890  -0.360  -0.670  0.00  0.00     0.060 C 
BRANCH   7   8
ATOM      8  C2' I4B d   1      -0.319   0.440  -0.228  0.00  0.00    -0.013 C 
ATOM      9  C4' I4B d   1       0.061   1.855   0.119  0.00  0.00     0.013 C 
ATOM     10  C3' I4B d   1      -1.327   0.406  -1.337  0.00  0.00     0.013 C 
ENDBRANCH   7   8
ENDBRANCH   1   7
TORSDOF 2
ENDMDL
