MODEL 1
REMARK minimizedAffinity -5.55892611
REMARK minimizedRMSD -1
REMARK  2 active torsions:
REMARK  status: ('A' for Active; 'I' for Inactive)
REMARK    1  A    between atoms: C2'_3  and  C1'_4 
REMARK    2  A    between atoms: C1'_4  and  C1_5 
ROOT
ATOM      1  C1  I4B d   1      -0.113  -0.007   0.129  0.00  0.00    -0.075 A 
ATOM      2  C2  I4B d   1       0.529   1.164  -0.188  0.00  0.00     0.003 A 
ATOM      3  C3  I4B d   1       1.918   1.302   0.048  0.00  0.00     0.002 A 
ATOM      4  C4  I4B d   1       2.612   0.269   0.643  0.00  0.00    -0.004 A 
ATOM      5  C5  I4B d   1       1.965  -0.926   0.943  0.00  0.00     0.002 A 
ATOM      6  C6  I4B d   1       0.596  -1.070   0.673  0.00  0.00     0.003 A 
ENDROOT
BRANCH   1   7
ATOM      7  C1' I4B d   1      -1.587  -0.107  -0.102  0.00  0.00     0.060 C 
BRANCH   7   8
ATOM      8  C2' I4B d   1      -1.890   0.509  -1.453  0.00  0.00    -0.013 C 
ATOM      9  C4' I4B d   1      -1.814  -0.519  -2.551  0.00  0.00     0.013 C 
ATOM     10  C3' I4B d   1      -3.255   1.127  -1.385  0.00  0.00     0.013 C 
ENDBRANCH   7   8
ENDBRANCH   1   7
TORSDOF 2
ENDMDL
