MODEL 1
REMARK minimizedAffinity -5.18589783
REMARK minimizedRMSD -1
REMARK  2 active torsions:
REMARK  status: ('A' for Active; 'I' for Inactive)
REMARK    1  A    between atoms: C2'_3  and  C1'_4 
REMARK    2  A    between atoms: C1'_4  and  C1_5 
ROOT
ATOM      1  C1  I4B d   1       1.169   0.143   0.536  0.00  0.00    -0.075 A 
ATOM      2  C2  I4B d   1       1.103  -1.180   0.899  0.00  0.00     0.003 A 
ATOM      3  C3  I4B d   1       2.198  -1.794   1.554  0.00  0.00     0.002 A 
ATOM      4  C4  I4B d   1       3.349  -1.068   1.781  0.00  0.00    -0.004 A 
ATOM      5  C5  I4B d   1       3.405   0.278   1.433  0.00  0.00     0.002 A 
ATOM      6  C6  I4B d   1       2.304   0.891   0.818  0.00  0.00     0.003 A 
ENDROOT
BRANCH   1   7
ATOM      7  C1' I4B d   1       0.008   0.751  -0.184  0.00  0.00     0.060 C 
BRANCH   7   8
ATOM      8  C2' I4B d   1      -1.020  -0.337  -0.415  0.00  0.00    -0.013 C 
ATOM      9  C4' I4B d   1      -1.783  -0.644   0.846  0.00  0.00     0.013 C 
ATOM     10  C3' I4B d   1      -1.941   0.120  -1.507  0.00  0.00     0.013 C 
ENDBRANCH   7   8
ENDBRANCH   1   7
TORSDOF 2
ENDMDL
