MODEL 1
REMARK minimizedAffinity -0.534791648
REMARK minimizedRMSD -1
REMARK  2 active torsions:
REMARK  status: ('A' for Active; 'I' for Inactive)
REMARK    1  A    between atoms: C2'_3  and  C1'_4 
REMARK    2  A    between atoms: C1'_4  and  C1_5 
ROOT
ATOM      1  C1  I4B d   1       0.131   0.160   1.106  0.00  0.00    -0.075 A 
ATOM      2  C2  I4B d   1       0.023  -0.921   1.946  0.00  0.00     0.003 A 
ATOM      3  C3  I4B d   1       1.008  -1.156   2.936  0.00  0.00     0.002 A 
ATOM      4  C4  I4B d   1       2.103  -0.320   3.017  0.00  0.00    -0.004 A 
ATOM      5  C5  I4B d   1       2.199   0.788   2.180  0.00  0.00     0.002 A 
ATOM      6  C6  I4B d   1       1.201   1.037   1.227  0.00  0.00     0.003 A 
ENDROOT
BRANCH   1   7
ATOM      7  C1' I4B d   1      -0.910   0.359   0.051  0.00  0.00     0.060 C 
BRANCH   7   8
ATOM      8  C2' I4B d   1      -0.369  -0.200  -1.250  0.00  0.00    -0.013 C 
ATOM      9  C4' I4B d   1      -0.539  -1.695  -1.313  0.00  0.00     0.013 C 
ATOM     10  C3' I4B d   1      -1.089   0.475  -2.379  0.00  0.00     0.013 C 
ENDBRANCH   7   8
ENDBRANCH   1   7
TORSDOF 2
ENDMDL
