MODEL 1
REMARK minimizedAffinity -5.07966423
REMARK minimizedRMSD -1
REMARK  2 active torsions:
REMARK  status: ('A' for Active; 'I' for Inactive)
REMARK    1  A    between atoms: C2'_3  and  C1'_4 
REMARK    2  A    between atoms: C1'_4  and  C1_5 
ROOT
ATOM      1  C1  I4B d   1       1.042  -1.081   0.582  0.00  0.00    -0.075 A 
ATOM      2  C2  I4B d   1       2.325  -0.599   0.667  0.00  0.00     0.003 A 
ATOM      3  C3  I4B d   1       3.205  -1.087   1.663  0.00  0.00     0.002 A 
ATOM      4  C4  I4B d   1       2.749  -2.014   2.578  0.00  0.00    -0.004 A 
ATOM      5  C5  I4B d   1       1.456  -2.518   2.476  0.00  0.00     0.002 A 
ATOM      6  C6  I4B d   1       0.601  -2.059   1.465  0.00  0.00     0.003 A 
ENDROOT
BRANCH   1   7
ATOM      7  C1' I4B d   1       0.129  -0.520  -0.461  0.00  0.00     0.060 C 
BRANCH   7   8
ATOM      8  C2' I4B d   1      -0.870   0.385   0.231  0.00  0.00    -0.013 C 
ATOM      9  C4' I4B d   1      -0.183   1.555   0.885  0.00  0.00     0.013 C 
ATOM     10  C3' I4B d   1      -1.865   0.844  -0.792  0.00  0.00     0.013 C 
ENDBRANCH   7   8
ENDBRANCH   1   7
TORSDOF 2
ENDMDL
