MODEL 1
REMARK minimizedAffinity 0.248755053
REMARK minimizedRMSD -1
REMARK  2 active torsions:
REMARK  status: ('A' for Active; 'I' for Inactive)
REMARK    1  A    between atoms: C2'_3  and  C1'_4 
REMARK    2  A    between atoms: C1'_4  and  C1_5 
ROOT
ATOM      1  C1  I4B d   1       1.390  -0.291   0.863  0.00  0.00    -0.075 A 
ATOM      2  C2  I4B d   1       0.679  -1.385   1.288  0.00  0.00     0.003 A 
ATOM      3  C3  I4B d   1       1.156  -2.172   2.364  0.00  0.00     0.002 A 
ATOM      4  C4  I4B d   1       2.366  -1.859   2.949  0.00  0.00    -0.004 A 
ATOM      5  C5  I4B d   1       3.074  -0.736   2.533  0.00  0.00     0.002 A 
ATOM      6  C6  I4B d   1       2.578   0.061   1.491  0.00  0.00     0.003 A 
ENDROOT
BRANCH   1   7
ATOM      7  C1' I4B d   1       0.873   0.498  -0.298  0.00  0.00     0.060 C 
BRANCH   7   8
ATOM      8  C2' I4B d   1      -0.305   1.320   0.183  0.00  0.00    -0.013 C 
ATOM      9  C4' I4B d   1       0.116   2.723   0.535  0.00  0.00     0.013 C 
ATOM     10  C3' I4B d   1      -1.342   1.322  -0.900  0.00  0.00     0.013 C 
ENDBRANCH   7   8
ENDBRANCH   1   7
TORSDOF 2
ENDMDL
