MODEL 1
REMARK minimizedAffinity -5.02442694
REMARK minimizedRMSD -1
REMARK  3 active torsions:
REMARK  status: ('A' for Active; 'I' for Inactive)
REMARK    1  A    between atoms: C3'_2  and  C2'_3 
REMARK    2  A    between atoms: C2'_3  and  C1'_4 
REMARK    3  A    between atoms: C1'_4  and  C1_5 
ROOT
ATOM      1  C1  N4B d   1       0.193  -0.015   0.258  0.00  0.00    -0.075 A 
ATOM      2  C2  N4B d   1       0.202  -1.138   1.114  0.00  0.00     0.002 A 
ATOM      3  C3  N4B d   1      -0.918  -1.923   1.228  0.00  0.00     0.002 A 
ATOM      4  C4  N4B d   1      -2.061  -1.596   0.513  0.00  0.00    -0.004 A 
ATOM      5  C5  N4B d   1      -2.053  -0.524  -0.331  0.00  0.00     0.002 A 
ATOM      6  C6  N4B d   1      -0.932   0.272  -0.459  0.00  0.00     0.002 A 
ENDROOT
BRANCH   1   7
ATOM      7  C1' N4B d   1       1.366   0.923   0.166  0.00  0.00     0.057 C 
BRANCH   7   8
ATOM      8  C2' N4B d   1       0.875   2.357   0.342  0.00  0.00     0.009 C 
BRANCH   8   9
ATOM      9  C3' N4B d   1       2.000   3.298   0.739  0.00  0.00     0.004 C 
ATOM     10  C4' N4B d   1       2.772   2.811   1.929  0.00  0.00     0.003 C 
ENDBRANCH   8   9
ENDBRANCH   7   8
ENDBRANCH   1   7
TORSDOF 3
ENDMDL
