MODEL 1
REMARK minimizedAffinity -1.88648891
REMARK minimizedRMSD -1
REMARK  3 active torsions:
REMARK  status: ('A' for Active; 'I' for Inactive)
REMARK    1  A    between atoms: C3'_2  and  C2'_3 
REMARK    2  A    between atoms: C2'_3  and  C1'_4 
REMARK    3  A    between atoms: C1'_4  and  C1_5 
ROOT
ATOM      1  C1  N4B d   1       1.471   2.244   0.939  0.00  0.00    -0.075 A 
ATOM      2  C2  N4B d   1       0.070   2.273   1.108  0.00  0.00     0.002 A 
ATOM      3  C3  N4B d   1      -0.668   1.129   0.927  0.00  0.00     0.002 A 
ATOM      4  C4  N4B d   1      -0.030  -0.047   0.560  0.00  0.00    -0.004 A 
ATOM      5  C5  N4B d   1       1.327  -0.072   0.423  0.00  0.00     0.002 A 
ATOM      6  C6  N4B d   1       2.081   1.069   0.606  0.00  0.00     0.002 A 
ENDROOT
BRANCH   1   7
ATOM      7  C1' N4B d   1       2.310   3.489   1.043  0.00  0.00     0.057 C 
BRANCH   7   8
ATOM      8  C2' N4B d   1       3.762   3.142   0.727  0.00  0.00     0.009 C 
BRANCH   8   9
ATOM      9  C3' N4B d   1       4.353   4.073  -0.318  0.00  0.00     0.004 C 
ATOM     10  C4' N4B d   1       5.175   3.348  -1.342  0.00  0.00     0.003 C 
ENDBRANCH   8   9
ENDBRANCH   7   8
ENDBRANCH   1   7
TORSDOF 3
ENDMDL
