MODEL 1
REMARK minimizedAffinity -5.64992857
REMARK minimizedRMSD -1
REMARK  3 active torsions:
REMARK  status: ('A' for Active; 'I' for Inactive)
REMARK    1  A    between atoms: C3'_2  and  C2'_3 
REMARK    2  A    between atoms: C2'_3  and  C1'_4 
REMARK    3  A    between atoms: C1'_4  and  C1_5 
ROOT
ATOM      1  C1  N4B d   1      -1.157  -0.660   0.123  0.00  0.00    -0.075 A 
ATOM      2  C2  N4B d   1      -0.971  -1.624   1.138  0.00  0.00     0.002 A 
ATOM      3  C3  N4B d   1      -1.889  -2.631   1.306  0.00  0.00     0.002 A 
ATOM      4  C4  N4B d   1      -3.007  -2.684   0.486  0.00  0.00    -0.004 A 
ATOM      5  C5  N4B d   1      -3.166  -1.764  -0.509  0.00  0.00     0.002 A 
ATOM      6  C6  N4B d   1      -2.249  -0.749  -0.691  0.00  0.00     0.002 A 
ENDROOT
BRANCH   1   7
ATOM      7  C1' N4B d   1      -0.225   0.509  -0.043  0.00  0.00     0.057 C 
BRANCH   7   8
ATOM      8  C2' N4B d   1       1.213   0.032   0.137  0.00  0.00     0.009 C 
BRANCH   8   9
ATOM      9  C3' N4B d   1       2.029   0.996   0.981  0.00  0.00     0.004 C 
ATOM     10  C4' N4B d   1       2.378   2.257   0.247  0.00  0.00     0.003 C 
ENDBRANCH   8   9
ENDBRANCH   7   8
ENDBRANCH   1   7
TORSDOF 3
ENDMDL
