MODEL 1
REMARK minimizedAffinity -6.86462879
REMARK minimizedRMSD -1
REMARK  3 active torsions:
REMARK  status: ('A' for Active; 'I' for Inactive)
REMARK    1  A    between atoms: C3'_2  and  C2'_3 
REMARK    2  A    between atoms: C2'_3  and  C1'_4 
REMARK    3  A    between atoms: C1'_4  and  C1_5 
ROOT
ATOM      1  C1  N4B d   1      -0.658  -0.530   0.033  0.00  0.00    -0.075 A 
ATOM      2  C2  N4B d   1      -1.641   0.082  -0.775  0.00  0.00     0.002 A 
ATOM      3  C3  N4B d   1      -2.920  -0.419  -0.799  0.00  0.00     0.002 A 
ATOM      4  C4  N4B d   1      -3.232  -1.537  -0.041  0.00  0.00    -0.004 A 
ATOM      5  C5  N4B d   1      -2.283  -2.107   0.757  0.00  0.00     0.002 A 
ATOM      6  C6  N4B d   1      -0.995  -1.611   0.794  0.00  0.00     0.002 A 
ENDROOT
BRANCH   1   7
ATOM      7  C1' N4B d   1       0.774  -0.070   0.026  0.00  0.00     0.057 C 
BRANCH   7   8
ATOM      8  C2' N4B d   1       0.863   1.303   0.685  0.00  0.00     0.009 C 
BRANCH   8   9
ATOM      9  C3' N4B d   1       2.185   1.991   0.390  0.00  0.00     0.004 C 
ATOM     10  C4' N4B d   1       2.331   3.301   1.106  0.00  0.00     0.003 C 
ENDBRANCH   8   9
ENDBRANCH   7   8
ENDBRANCH   1   7
TORSDOF 3
ENDMDL
