MODEL 1
REMARK minimizedAffinity -4.13318586
REMARK minimizedRMSD -1
REMARK  3 active torsions:
REMARK  status: ('A' for Active; 'I' for Inactive)
REMARK    1  A    between atoms: C3'_2  and  C2'_3 
REMARK    2  A    between atoms: C2'_3  and  C1'_4 
REMARK    3  A    between atoms: C1'_4  and  C1_5 
ROOT
ATOM      1  C1  N4B d   1       0.333   0.261  -0.114  0.00  0.00    -0.075 A 
ATOM      2  C2  N4B d   1      -0.062   1.210  -1.082  0.00  0.00     0.002 A 
ATOM      3  C3  N4B d   1      -1.261   1.064  -1.737  0.00  0.00     0.002 A 
ATOM      4  C4  N4B d   1      -2.068  -0.027  -1.455  0.00  0.00    -0.004 A 
ATOM      5  C5  N4B d   1      -1.691  -0.926  -0.500  0.00  0.00     0.002 A 
ATOM      6  C6  N4B d   1      -0.491  -0.790   0.168  0.00  0.00     0.002 A 
ENDROOT
BRANCH   1   7
ATOM      7  C1' N4B d   1       1.673   0.331   0.566  0.00  0.00     0.057 C 
BRANCH   7   8
ATOM      8  C2' N4B d   1       2.397   1.597   0.117  0.00  0.00     0.009 C 
BRANCH   8   9
ATOM      9  C3' N4B d   1       3.565   1.937   1.027  0.00  0.00     0.004 C 
ATOM     10  C4' N4B d   1       3.153   2.117   2.458  0.00  0.00     0.003 C 
ENDBRANCH   8   9
ENDBRANCH   7   8
ENDBRANCH   1   7
TORSDOF 3
ENDMDL
