MODEL 1
REMARK minimizedAffinity -4.5407443
REMARK minimizedRMSD -1
REMARK  3 active torsions:
REMARK  status: ('A' for Active; 'I' for Inactive)
REMARK    1  A    between atoms: C3'_2  and  C2'_3 
REMARK    2  A    between atoms: C2'_3  and  C1'_4 
REMARK    3  A    between atoms: C1'_4  and  C1_5 
ROOT
ATOM      1  C1  N4B d   1       0.593  -0.296   0.153  0.00  0.00    -0.075 A 
ATOM      2  C2  N4B d   1       0.223   0.369  -1.036  0.00  0.00     0.002 A 
ATOM      3  C3  N4B d   1      -1.020   0.158  -1.583  0.00  0.00     0.002 A 
ATOM      4  C4  N4B d   1      -1.898  -0.724  -0.971  0.00  0.00    -0.004 A 
ATOM      5  C5  N4B d   1      -1.542  -1.343   0.192  0.00  0.00     0.002 A 
ATOM      6  C6  N4B d   1      -0.298  -1.137   0.755  0.00  0.00     0.002 A 
ENDROOT
BRANCH   1   7
ATOM      7  C1' N4B d   1       1.971  -0.163   0.742  0.00  0.00     0.057 C 
BRANCH   7   8
ATOM      8  C2' N4B d   1       2.508   1.234   0.448  0.00  0.00     0.009 C 
BRANCH   8   9
ATOM      9  C3' N4B d   1       2.582   2.090   1.701  0.00  0.00     0.004 C 
ATOM     10  C4' N4B d   1       2.542   3.559   1.404  0.00  0.00     0.003 C 
ENDBRANCH   8   9
ENDBRANCH   7   8
ENDBRANCH   1   7
TORSDOF 3
ENDMDL
