MODEL 1
REMARK minimizedAffinity -1.70903599
REMARK minimizedRMSD -1
REMARK  3 active torsions:
REMARK  status: ('A' for Active; 'I' for Inactive)
REMARK    1  A    between atoms: C3'_2  and  C2'_3 
REMARK    2  A    between atoms: C2'_3  and  C1'_4 
REMARK    3  A    between atoms: C1'_4  and  C1_5 
ROOT
ATOM      1  C1  N4B d   1       1.420   1.552   0.691  0.00  0.00    -0.075 A 
ATOM      2  C2  N4B d   1       0.282   2.360   0.476  0.00  0.00     0.002 A 
ATOM      3  C3  N4B d   1      -0.827   1.833  -0.140  0.00  0.00     0.002 A 
ATOM      4  C4  N4B d   1      -0.814   0.513  -0.564  0.00  0.00    -0.004 A 
ATOM      5  C5  N4B d   1       0.280  -0.268  -0.329  0.00  0.00     0.002 A 
ATOM      6  C6  N4B d   1       1.400   0.247   0.293  0.00  0.00     0.002 A 
ENDROOT
BRANCH   1   7
ATOM      7  C1' N4B d   1       2.687   2.107   1.283  0.00  0.00     0.057 C 
BRANCH   7   8
ATOM      8  C2' N4B d   1       3.029   3.422   0.590  0.00  0.00     0.009 C 
BRANCH   8   9
ATOM      9  C3' N4B d   1       3.645   3.199  -0.780  0.00  0.00     0.004 C 
ATOM     10  C4' N4B d   1       4.063   4.478  -1.444  0.00  0.00     0.003 C 
ENDBRANCH   8   9
ENDBRANCH   7   8
ENDBRANCH   1   7
TORSDOF 3
ENDMDL
