MODEL 1
REMARK minimizedAffinity -5.7193327
REMARK minimizedRMSD -1
REMARK  3 active torsions:
REMARK  status: ('A' for Active; 'I' for Inactive)
REMARK    1  A    between atoms: C3'_2  and  C2'_3 
REMARK    2  A    between atoms: C2'_3  and  C1'_4 
REMARK    3  A    between atoms: C1'_4  and  C1_5 
ROOT
ATOM      1  C1  N4B d   1       0.434   0.107   0.066  0.00  0.00    -0.075 A 
ATOM      2  C2  N4B d   1       0.221   0.769  -1.163  0.00  0.00     0.002 A 
ATOM      3  C3  N4B d   1      -0.957   0.588  -1.846  0.00  0.00     0.002 A 
ATOM      4  C4  N4B d   1      -1.924  -0.262  -1.331  0.00  0.00    -0.004 A 
ATOM      5  C5  N4B d   1      -1.722  -0.878  -0.131  0.00  0.00     0.002 A 
ATOM      6  C6  N4B d   1      -0.544  -0.702   0.568  0.00  0.00     0.002 A 
ENDROOT
BRANCH   1   7
ATOM      7  C1' N4B d   1       1.739   0.206   0.806  0.00  0.00     0.057 C 
BRANCH   7   8
ATOM      8  C2' N4B d   1       2.548   1.370   0.241  0.00  0.00     0.009 C 
BRANCH   8   9
ATOM      9  C3' N4B d   1       3.260   2.150   1.333  0.00  0.00     0.004 C 
ATOM     10  C4' N4B d   1       3.570   3.561   0.931  0.00  0.00     0.003 C 
ENDBRANCH   8   9
ENDBRANCH   7   8
ENDBRANCH   1   7
TORSDOF 3
ENDMDL
