MODEL 1
REMARK minimizedAffinity -0.177785397
REMARK minimizedRMSD -1
REMARK  0 active torsions:
REMARK  status: ('A' for Active; 'I' for Inactive)
ROOT
ATOM      1  C1  BNZ d   1       3.279   4.234  -5.999  0.00  0.00     0.000 A 
ATOM      2  C2  BNZ d   1       4.403   3.452  -6.000  0.00  0.00     0.000 A 
ATOM      3  C3  BNZ d   1       4.307   2.088  -5.994  0.00  0.00     0.000 A 
ATOM      4  C4  BNZ d   1       3.090   1.509  -5.948  0.00  0.00     0.000 A 
ATOM      5  C5  BNZ d   1       1.947   2.284  -5.938  0.00  0.00     0.000 A 
ATOM      6  C6  BNZ d   1       2.047   3.656  -5.982  0.00  0.00     0.000 A 
ENDROOT
TORSDOF 0
ENDMDL
