MODEL 1
REMARK minimizedAffinity 2.73053455
REMARK minimizedRMSD -1
REMARK  0 active torsions:
REMARK  status: ('A' for Active; 'I' for Inactive)
ROOT
ATOM      1  C1  BNZ d   1       2.215   5.769  -5.974  0.00  0.00     0.000 A 
ATOM      2  C2  BNZ d   1       3.565   5.997  -5.969  0.00  0.00     0.000 A 
ATOM      3  C3  BNZ d   1       4.451   4.957  -6.000  0.00  0.00     0.000 A 
ATOM      4  C4  BNZ d   1       3.987   3.690  -5.996  0.00  0.00     0.000 A 
ATOM      5  C5  BNZ d   1       2.628   3.444  -5.992  0.00  0.00     0.000 A 
ATOM      6  C6  BNZ d   1       1.739   4.494  -6.000  0.00  0.00     0.000 A 
ENDROOT
TORSDOF 0
ENDMDL
