MODEL 1
REMARK minimizedAffinity 1.44046378
REMARK minimizedRMSD -1
REMARK  0 active torsions:
REMARK  status: ('A' for Active; 'I' for Inactive)
ROOT
ATOM      1  C1  BNZ d   1       1.061   3.625  -5.993  0.00  0.00     0.000 A 
ATOM      2  C2  BNZ d   1       1.900   4.707  -5.988  0.00  0.00     0.000 A 
ATOM      3  C3  BNZ d   1       3.257   4.540  -6.000  0.00  0.00     0.000 A 
ATOM      4  C4  BNZ d   1       3.772   3.294  -5.976  0.00  0.00     0.000 A 
ATOM      5  C5  BNZ d   1       2.939   2.193  -5.971  0.00  0.00     0.000 A 
ATOM      6  C6  BNZ d   1       1.574   2.364  -5.998  0.00  0.00     0.000 A 
ENDROOT
TORSDOF 0
ENDMDL
