MODEL 1
REMARK minimizedAffinity -3.55656886
REMARK minimizedRMSD -1
REMARK  0 active torsions:
REMARK  status: ('A' for Active; 'I' for Inactive)
ROOT
ATOM      1  C1  BNZ d   1       1.056   4.876  -5.946  0.00  0.00     0.000 A 
ATOM      2  C2  BNZ d   1       2.146   5.704  -5.935  0.00  0.00     0.000 A 
ATOM      3  C3  BNZ d   1       3.414   5.194  -5.982  0.00  0.00     0.000 A 
ATOM      4  C4  BNZ d   1       3.590   3.857  -5.998  0.00  0.00     0.000 A 
ATOM      5  C5  BNZ d   1       2.500   3.008  -6.000  0.00  0.00     0.000 A 
ATOM      6  C6  BNZ d   1       1.226   3.526  -5.993  0.00  0.00     0.000 A 
ENDROOT
TORSDOF 0
ENDMDL
