MODEL 1
REMARK minimizedAffinity -0.219562501
REMARK minimizedRMSD -1
REMARK  0 active torsions:
REMARK  status: ('A' for Active; 'I' for Inactive)
ROOT
ATOM      1  C1  BNZ d   1       4.846  -3.713   3.729  0.00  0.00     0.000 A 
ATOM      2  C2  BNZ d   1       5.224  -3.057   4.870  0.00  0.00     0.000 A 
ATOM      3  C3  BNZ d   1       5.557  -3.751   5.999  0.00  0.00     0.000 A 
ATOM      4  C4  BNZ d   1       5.472  -5.097   5.999  0.00  0.00     0.000 A 
ATOM      5  C5  BNZ d   1       5.083  -5.773   4.860  0.00  0.00     0.000 A 
ATOM      6  C6  BNZ d   1       4.787  -5.073   3.713  0.00  0.00     0.000 A 
ENDROOT
TORSDOF 0
ENDMDL
