MODEL 1
REMARK minimizedAffinity -3.305094
REMARK minimizedRMSD -1
REMARK  0 active torsions:
REMARK  status: ('A' for Active; 'I' for Inactive)
ROOT
ATOM      1  C1  BNZ d   1       2.334   5.046  -5.901  0.00  0.00     0.000 A 
ATOM      2  C2  BNZ d   1       3.294   5.993  -5.663  0.00  0.00     0.000 A 
ATOM      3  C3  BNZ d   1       4.608   5.640  -5.531  0.00  0.00     0.000 A 
ATOM      4  C4  BNZ d   1       4.955   4.338  -5.598  0.00  0.00     0.000 A 
ATOM      5  C5  BNZ d   1       3.997   3.371  -5.828  0.00  0.00     0.000 A 
ATOM      6  C6  BNZ d   1       2.681   3.734  -5.998  0.00  0.00     0.000 A 
ENDROOT
TORSDOF 0
ENDMDL
