MODEL 1
REMARK minimizedAffinity -3.79297447
REMARK minimizedRMSD -1
REMARK  0 active torsions:
REMARK  status: ('A' for Active; 'I' for Inactive)
ROOT
ATOM      1  C1  BNZ d   1       3.911  -3.136   2.089  0.00  0.00     0.000 A 
ATOM      2  C2  BNZ d   1       2.740  -2.430   2.007  0.00  0.00     0.000 A 
ATOM      3  C3  BNZ d   1       2.155  -2.184   0.797  0.00  0.00     0.000 A 
ATOM      4  C4  BNZ d   1       2.761  -2.608  -0.331  0.00  0.00     0.000 A 
ATOM      5  C5  BNZ d   1       3.946  -3.312  -0.265  0.00  0.00     0.000 A 
ATOM      6  C6  BNZ d   1       4.512  -3.592   0.957  0.00  0.00     0.000 A 
ENDROOT
TORSDOF 0
ENDMDL
