MODEL 1
REMARK minimizedAffinity -6.26683044
REMARK minimizedRMSD -1
REMARK  0 active torsions:
REMARK  status: ('A' for Active; 'I' for Inactive)
ROOT
ATOM      1  C1  DEN d   1      -1.517  -0.073   0.040  0.00  0.00     0.130 A 
ATOM      2  C2  DEN d   1      -0.392  -0.493  -0.790  0.00  0.00    -0.031 A 
ATOM      3  C3  DEN d   1       0.841  -0.368   0.013  0.00  0.00     0.027 A 
ATOM      4  C4  DEN d   1       1.115   0.427   2.451  0.00  0.00     0.027 A 
ATOM      5  C5  DEN d   1       0.447   0.899   3.560  0.00  0.00    -0.003 A 
ATOM      6  C6  DEN d   1      -0.906   1.110   3.562  0.00  0.00     0.001 A 
ATOM      7  C7  DEN d   1      -1.642   0.807   2.447  0.00  0.00     0.017 A 
ATOM      8  C8  DEN d   1      -0.975   0.338   1.323  0.00  0.00    -0.094 A 
ATOM      9  C9  DEN d   1       0.392   0.119   1.345  0.00  0.00    -0.072 A 
ENDROOT
TORSDOF 0
ENDMDL
