MODEL 1
REMARK minimizedAffinity -5.20607519
REMARK minimizedRMSD -1
REMARK  0 active torsions:
REMARK  status: ('A' for Active; 'I' for Inactive)
ROOT
ATOM      1  C1  DEN d   1       1.867  -0.704   2.271  0.00  0.00     0.130 A 
ATOM      2  C2  DEN d   1       2.347  -1.195   0.982  0.00  0.00    -0.031 A 
ATOM      3  C3  DEN d   1       1.227  -1.131   0.023  0.00  0.00     0.027 A 
ATOM      4  C4  DEN d   1      -1.191  -0.317   0.404  0.00  0.00     0.027 A 
ATOM      5  C5  DEN d   1      -2.073   0.183   1.337  0.00  0.00    -0.003 A 
ATOM      6  C6  DEN d   1      -1.716   0.389   2.643  0.00  0.00     0.001 A 
ATOM      7  C7  DEN d   1      -0.431   0.136   3.043  0.00  0.00     0.017 A 
ATOM      8  C8  DEN d   1       0.462  -0.376   2.111  0.00  0.00    -0.094 A 
ATOM      9  C9  DEN d   1       0.086  -0.565   0.792  0.00  0.00    -0.072 A 
ENDROOT
TORSDOF 0
ENDMDL
