MODEL 1
REMARK minimizedAffinity -4.0241046
REMARK minimizedRMSD -1
REMARK  0 active torsions:
REMARK  status: ('A' for Active; 'I' for Inactive)
ROOT
ATOM      1  C1  DEN d   1       1.053  -0.684  -3.308  0.00  0.00     0.130 A 
ATOM      2  C2  DEN d   1       0.922   0.506  -4.145  0.00  0.00    -0.031 A 
ATOM      3  C3  DEN d   1       0.228   1.544  -3.356  0.00  0.00     0.027 A 
ATOM      4  C4  DEN d   1      -0.645   1.428  -0.932  0.00  0.00     0.027 A 
ATOM      5  C5  DEN d   1      -0.775   0.621   0.176  0.00  0.00    -0.003 A 
ATOM      6  C6  DEN d   1      -0.339  -0.677   0.190  0.00  0.00     0.001 A 
ATOM      7  C7  DEN d   1       0.289  -1.194  -0.912  0.00  0.00     0.017 A 
ATOM      8  C8  DEN d   1       0.417  -0.389  -2.037  0.00  0.00    -0.094 A 
ATOM      9  C9  DEN d   1      -0.019   0.925  -2.027  0.00  0.00    -0.072 A 
ENDROOT
TORSDOF 0
ENDMDL
