MODEL 1
REMARK minimizedAffinity -5.35979891
REMARK minimizedRMSD -1
REMARK  0 active torsions:
REMARK  status: ('A' for Active; 'I' for Inactive)
ROOT
ATOM      1  C1  DEN d   1       0.707  -0.051  -0.383  0.00  0.00     0.130 A 
ATOM      2  C2  DEN d   1      -0.599  -0.025  -1.035  0.00  0.00    -0.031 A 
ATOM      3  C3  DEN d   1      -1.613   0.309  -0.015  0.00  0.00     0.027 A 
ATOM      4  C4  DEN d   1      -1.288   0.791   2.498  0.00  0.00     0.027 A 
ATOM      5  C5  DEN d   1      -0.362   0.874   3.515  0.00  0.00    -0.003 A 
ATOM      6  C6  DEN d   1       0.969   0.625   3.312  0.00  0.00     0.001 A 
ATOM      7  C7  DEN d   1       1.419   0.323   2.054  0.00  0.00     0.017 A 
ATOM      8  C8  DEN d   1       0.491   0.229   1.025  0.00  0.00    -0.094 A 
ATOM      9  C9  DEN d   1      -0.849   0.497   1.248  0.00  0.00    -0.072 A 
ENDROOT
TORSDOF 0
ENDMDL
