MODEL 1
REMARK minimizedAffinity -4.31832504
REMARK minimizedRMSD -1
REMARK  0 active torsions:
REMARK  status: ('A' for Active; 'I' for Inactive)
ROOT
ATOM      1  C1  DEN d   1      -1.919   0.306   2.696  0.00  0.00     0.130 A 
ATOM      2  C2  DEN d   1      -2.401   0.665   1.366  0.00  0.00    -0.031 A 
ATOM      3  C3  DEN d   1      -1.273   0.540   0.421  0.00  0.00     0.027 A 
ATOM      4  C4  DEN d   1       1.161  -0.176   0.887  0.00  0.00     0.027 A 
ATOM      5  C5  DEN d   1       2.048  -0.567   1.865  0.00  0.00    -0.003 A 
ATOM      6  C6  DEN d   1       1.687  -0.661   3.183  0.00  0.00     0.001 A 
ATOM      7  C7  DEN d   1       0.394  -0.403   3.553  0.00  0.00     0.017 A 
ATOM      8  C8  DEN d   1      -0.505  -0.002   2.573  0.00  0.00    -0.094 A 
ATOM      9  C9  DEN d   1      -0.124   0.075   1.244  0.00  0.00    -0.072 A 
ENDROOT
TORSDOF 0
ENDMDL
