MODEL 1
REMARK minimizedAffinity -4.56954527
REMARK minimizedRMSD -1
REMARK  0 active torsions:
REMARK  status: ('A' for Active; 'I' for Inactive)
ROOT
ATOM      1  C1  DEN d   1       0.912  -0.805  -0.333  0.00  0.00     0.130 A 
ATOM      2  C2  DEN d   1      -0.433  -0.490  -0.805  0.00  0.00    -0.031 A 
ATOM      3  C3  DEN d   1      -1.264  -0.159   0.370  0.00  0.00     0.027 A 
ATOM      4  C4  DEN d   1      -0.599  -0.098   2.861  0.00  0.00     0.027 A 
ATOM      5  C5  DEN d   1       0.431  -0.300   3.754  0.00  0.00    -0.003 A 
ATOM      6  C6  DEN d   1       1.674  -0.714   3.353  0.00  0.00     0.001 A 
ATOM      7  C7  DEN d   1       1.931  -0.896   2.020  0.00  0.00     0.017 A 
ATOM      8  C8  DEN d   1       0.896  -0.701   1.115  0.00  0.00    -0.094 A 
ATOM      9  C9  DEN d   1      -0.350  -0.271   1.539  0.00  0.00    -0.072 A 
ENDROOT
TORSDOF 0
ENDMDL
