MODEL 1
REMARK minimizedAffinity -4.2283082
REMARK minimizedRMSD -1
REMARK  0 active torsions:
REMARK  status: ('A' for Active; 'I' for Inactive)
ROOT
ATOM      1  C1  DEN d   1       0.892  -0.414  -0.419  0.00  0.00     0.130 A 
ATOM      2  C2  DEN d   1      -0.472  -0.168  -0.878  0.00  0.00    -0.031 A 
ATOM      3  C3  DEN d   1      -1.348  -0.100   0.309  0.00  0.00     0.027 A 
ATOM      4  C4  DEN d   1      -0.727  -0.345   2.800  0.00  0.00     0.027 A 
ATOM      5  C5  DEN d   1       0.306  -0.575   3.682  0.00  0.00    -0.003 A 
ATOM      6  C6  DEN d   1       1.589  -0.799   3.261  0.00  0.00     0.001 A 
ATOM      7  C7  DEN d   1       1.883  -0.753   1.924  0.00  0.00     0.017 A 
ATOM      8  C8  DEN d   1       0.845  -0.530   1.028  0.00  0.00    -0.094 A 
ATOM      9  C9  DEN d   1      -0.444  -0.293   1.474  0.00  0.00    -0.072 A 
ENDROOT
TORSDOF 0
ENDMDL
