MODEL 1
REMARK minimizedAffinity -2.05207729
REMARK minimizedRMSD -1
REMARK  0 active torsions:
REMARK  status: ('A' for Active; 'I' for Inactive)
ROOT
ATOM      1  C1  DEN d   1      -0.729   0.892   0.021  0.00  0.00     0.130 A 
ATOM      2  C2  DEN d   1      -0.827  -0.516   0.394  0.00  0.00    -0.031 A 
ATOM      3  C3  DEN d   1      -0.303  -1.323  -0.726  0.00  0.00     0.027 A 
ATOM      4  C4  DEN d   1       0.650  -0.531  -2.989  0.00  0.00     0.027 A 
ATOM      5  C5  DEN d   1       0.926   0.571  -3.766  0.00  0.00    -0.003 A 
ATOM      6  C6  DEN d   1       0.641   1.846  -3.354  0.00  0.00     0.001 A 
ATOM      7  C7  DEN d   1       0.103   2.053  -2.110  0.00  0.00     0.017 A 
ATOM      8  C8  DEN d   1      -0.185   0.945  -1.324  0.00  0.00    -0.094 A 
ATOM      9  C9  DEN d   1       0.122  -0.335  -1.754  0.00  0.00    -0.072 A 
ENDROOT
TORSDOF 0
ENDMDL
