MODEL 1
REMARK minimizedAffinity -5.36061621
REMARK minimizedRMSD -1
REMARK  0 active torsions:
REMARK  status: ('A' for Active; 'I' for Inactive)
ROOT
ATOM      1  C1  DEN d   1       1.991  -1.078   1.940  0.00  0.00     0.130 A 
ATOM      2  C2  DEN d   1       2.064  -0.792   3.370  0.00  0.00    -0.031 A 
ATOM      3  C3  DEN d   1       0.818  -0.101   3.762  0.00  0.00     0.027 A 
ATOM      4  C4  DEN d   1      -1.207   0.544   2.301  0.00  0.00     0.027 A 
ATOM      5  C5  DEN d   1      -1.724   0.519   1.024  0.00  0.00    -0.003 A 
ATOM      6  C6  DEN d   1      -1.030  -0.005  -0.034  0.00  0.00     0.001 A 
ATOM      7  C7  DEN d   1       0.202  -0.567   0.173  0.00  0.00     0.017 A 
ATOM      8  C8  DEN d   1       0.733  -0.539   1.456  0.00  0.00    -0.094 A 
ATOM      9  C9  DEN d   1       0.011  -0.015   2.515  0.00  0.00    -0.072 A 
ENDROOT
TORSDOF 0
ENDMDL
