MODEL 1
REMARK minimizedAffinity -6.37785482
REMARK minimizedRMSD -1
REMARK  0 active torsions:
REMARK  status: ('A' for Active; 'I' for Inactive)
ROOT
ATOM      1  C1  DEN d   1      -0.947   1.358   2.621  0.00  0.00     0.130 A 
ATOM      2  C2  DEN d   1       0.007   1.436   3.725  0.00  0.00    -0.031 A 
ATOM      3  C3  DEN d   1       1.175   0.601   3.379  0.00  0.00     0.027 A 
ATOM      4  C4  DEN d   1       1.600  -0.792   1.250  0.00  0.00     0.027 A 
ATOM      5  C5  DEN d   1       1.073  -1.179   0.038  0.00  0.00    -0.003 A 
ATOM      6  C6  DEN d   1      -0.169  -0.778  -0.380  0.00  0.00     0.001 A 
ATOM      7  C7  DEN d   1      -0.906   0.071   0.402  0.00  0.00     0.017 A 
ATOM      8  C8  DEN d   1      -0.385   0.460   1.629  0.00  0.00    -0.094 A 
ATOM      9  C9  DEN d   1       0.877   0.053   2.028  0.00  0.00    -0.072 A 
ENDROOT
TORSDOF 0
ENDMDL
