MODEL 1
REMARK minimizedAffinity 3.7353518
REMARK minimizedRMSD -1
REMARK  0 active torsions:
REMARK  status: ('A' for Active; 'I' for Inactive)
ROOT
ATOM      1  C   UNL d   1       0.126  -0.419   0.892  0.00  0.00     0.172 C 
ATOM      2  N   UNL d   1      -0.768   0.260  -0.018  0.00  0.00    -0.070 N 
ATOM      3  C1  UNL d   1      -0.434   0.737  -1.257  0.00  0.00    -0.004 A 
ATOM      4  C2  UNL d   1      -1.559   1.314  -1.805  0.00  0.00    -0.047 A 
ATOM      5  C3  UNL d   1      -2.605   1.180  -0.861  0.00  0.00    -0.047 A 
ATOM      6  C4  UNL d   1      -2.088   0.524   0.236  0.00  0.00    -0.004 A 
ENDROOT
TORSDOF 0
ENDMDL
