MODEL 1
REMARK minimizedAffinity 1.18043804
REMARK minimizedRMSD -1
REMARK  0 active torsions:
REMARK  status: ('A' for Active; 'I' for Inactive)
ROOT
ATOM      1  C   UNL d   1       0.782  -1.090   1.795  0.00  0.00     0.172 C 
ATOM      2  N   UNL d   1       0.190  -0.506   0.615  0.00  0.00    -0.070 N 
ATOM      3  C1  UNL d   1       0.274  -1.011  -0.655  0.00  0.00    -0.004 A 
ATOM      4  C2  UNL d   1      -0.420  -0.166  -1.493  0.00  0.00    -0.047 A 
ATOM      5  C3  UNL d   1      -0.939   0.885  -0.700  0.00  0.00    -0.047 A 
ATOM      6  C4  UNL d   1      -0.546   0.650   0.601  0.00  0.00    -0.004 A 
ENDROOT
TORSDOF 0
ENDMDL
