MODEL 1
REMARK minimizedAffinity -0.905942619
REMARK minimizedRMSD -1
REMARK  0 active torsions:
REMARK  status: ('A' for Active; 'I' for Inactive)
ROOT
ATOM      1  C   UNL d   1      -6.000   3.736  -2.449  0.00  0.00     0.172 C 
ATOM      2  N   UNL d   1      -4.826   3.122  -1.874  0.00  0.00    -0.070 N 
ATOM      3  C1  UNL d   1      -3.535   3.537  -2.063  0.00  0.00    -0.004 A 
ATOM      4  C2  UNL d   1      -2.712   2.694  -1.348  0.00  0.00    -0.047 A 
ATOM      5  C3  UNL d   1      -3.537   1.739  -0.708  0.00  0.00    -0.047 A 
ATOM      6  C4  UNL d   1      -4.841   2.028  -1.050  0.00  0.00    -0.004 A 
ENDROOT
TORSDOF 0
ENDMDL
