MODEL 1
REMARK minimizedAffinity -0.879004061
REMARK minimizedRMSD -1
REMARK  0 active torsions:
REMARK  status: ('A' for Active; 'I' for Inactive)
ROOT
ATOM      1  C   UNL d   1       3.996  -1.560   3.157  0.00  0.00     0.172 C 
ATOM      2  N   UNL d   1       2.719  -1.098   2.666  0.00  0.00    -0.070 N 
ATOM      3  C1  UNL d   1       1.557  -1.045   3.388  0.00  0.00    -0.004 A 
ATOM      4  C2  UNL d   1       0.570  -0.548   2.565  0.00  0.00    -0.047 A 
ATOM      5  C3  UNL d   1       1.159  -0.293   1.304  0.00  0.00    -0.047 A 
ATOM      6  C4  UNL d   1       2.490  -0.642   1.394  0.00  0.00    -0.004 A 
ENDROOT
TORSDOF 0
ENDMDL
