MODEL 1
REMARK minimizedAffinity -1.74383783
REMARK minimizedRMSD -1
REMARK  0 active torsions:
REMARK  status: ('A' for Active; 'I' for Inactive)
ROOT
ATOM      1  C   UNL d   1       2.921   3.745   3.725  0.00  0.00     0.172 C 
ATOM      2  N   UNL d   1       2.114   3.996   2.554  0.00  0.00    -0.070 N 
ATOM      3  C1  UNL d   1       1.153   3.161   2.052  0.00  0.00    -0.004 A 
ATOM      4  C2  UNL d   1       0.615   3.759   0.933  0.00  0.00    -0.047 A 
ATOM      5  C3  UNL d   1       1.277   4.997   0.756  0.00  0.00    -0.047 A 
ATOM      6  C4  UNL d   1       2.200   5.119   1.773  0.00  0.00    -0.004 A 
ENDROOT
TORSDOF 0
ENDMDL
