MODEL 1
REMARK minimizedAffinity -0.648805439
REMARK minimizedRMSD -1
REMARK  0 active torsions:
REMARK  status: ('A' for Active; 'I' for Inactive)
ROOT
ATOM      1  C   UNL d   1       1.029   2.162   2.452  0.00  0.00     0.172 C 
ATOM      2  N   UNL d   1       1.030   1.187   1.386  0.00  0.00    -0.070 N 
ATOM      3  C1  UNL d   1       1.731   0.010   1.382  0.00  0.00    -0.004 A 
ATOM      4  C2  UNL d   1       1.466  -0.634   0.193  0.00  0.00    -0.047 A 
ATOM      5  C3  UNL d   1       0.576   0.185  -0.543  0.00  0.00    -0.047 A 
ATOM      6  C4  UNL d   1       0.323   1.305   0.219  0.00  0.00    -0.004 A 
ENDROOT
TORSDOF 0
ENDMDL
