MODEL 1
REMARK minimizedAffinity -2.50715351
REMARK minimizedRMSD -1
REMARK  0 active torsions:
REMARK  status: ('A' for Active; 'I' for Inactive)
ROOT
ATOM      1  C   UNL d   1       0.482   4.250  -0.036  0.00  0.00     0.172 C 
ATOM      2  N   UNL d   1       0.362   2.992   0.662  0.00  0.00    -0.070 N 
ATOM      3  C1  UNL d   1       0.371   1.752   0.080  0.00  0.00    -0.004 A 
ATOM      4  C2  UNL d   1       0.234   0.815   1.081  0.00  0.00    -0.047 A 
ATOM      5  C3  UNL d   1       0.138   1.515   2.307  0.00  0.00    -0.047 A 
ATOM      6  C4  UNL d   1       0.220   2.861   2.018  0.00  0.00    -0.004 A 
ENDROOT
TORSDOF 0
ENDMDL
