MODEL 1
REMARK minimizedAffinity -0.767222345
REMARK minimizedRMSD -1
REMARK  0 active torsions:
REMARK  status: ('A' for Active; 'I' for Inactive)
ROOT
ATOM      1  C   UNL d   1       0.409   1.821  -0.960  0.00  0.00     0.172 C 
ATOM      2  N   UNL d   1       0.612   1.251   0.350  0.00  0.00    -0.070 N 
ATOM      3  C1  UNL d   1       0.419   1.898   1.542  0.00  0.00    -0.004 A 
ATOM      4  C2  UNL d   1       0.719   1.014   2.556  0.00  0.00    -0.047 A 
ATOM      5  C3  UNL d   1       1.107  -0.206   1.953  0.00  0.00    -0.047 A 
ATOM      6  C4  UNL d   1       1.032  -0.032   0.587  0.00  0.00    -0.004 A 
ENDROOT
TORSDOF 0
ENDMDL
