MODEL 1
REMARK minimizedAffinity -4.55306196
REMARK minimizedRMSD -1
REMARK  0 active torsions:
REMARK  status: ('A' for Active; 'I' for Inactive)
ROOT
ATOM      1  C1  BNZ d   1       1.603   2.191   1.080  0.00  0.00     0.000 A 
ATOM      2  C2  BNZ d   1       1.559   1.328   0.018  0.00  0.00     0.000 A 
ATOM      3  C3  BNZ d   1       0.496   0.487  -0.156  0.00  0.00     0.000 A 
ATOM      4  C4  BNZ d   1      -0.501   0.481   0.752  0.00  0.00     0.000 A 
ATOM      5  C5  BNZ d   1      -0.467   1.339   1.833  0.00  0.00     0.000 A 
ATOM      6  C6  BNZ d   1       0.586   2.212   1.984  0.00  0.00     0.000 A 
ENDROOT
TORSDOF 0
ENDMDL
