MODEL 1
REMARK minimizedAffinity -4.49909115
REMARK minimizedRMSD -1
REMARK  0 active torsions:
REMARK  status: ('A' for Active; 'I' for Inactive)
ROOT
ATOM      1  C1  BNZ d   1       0.467  -0.136  -0.032  0.00  0.00     0.000 A 
ATOM      2  C2  BNZ d   1       1.381   0.875   0.104  0.00  0.00     0.000 A 
ATOM      3  C3  BNZ d   1       1.172   1.892   0.994  0.00  0.00     0.000 A 
ATOM      4  C4  BNZ d   1       0.034   1.917   1.717  0.00  0.00     0.000 A 
ATOM      5  C5  BNZ d   1      -0.901   0.910   1.584  0.00  0.00     0.000 A 
ATOM      6  C6  BNZ d   1      -0.670  -0.132   0.715  0.00  0.00     0.000 A 
ENDROOT
TORSDOF 0
ENDMDL
