MODEL 1
REMARK minimizedAffinity -2.71832752
REMARK minimizedRMSD -1
REMARK  0 active torsions:
REMARK  status: ('A' for Active; 'I' for Inactive)
ROOT
ATOM      1  C1  BNZ d   1       2.104   0.483   0.507  0.00  0.00     0.000 A 
ATOM      2  C2  BNZ d   1       1.490   1.284   1.432  0.00  0.00     0.000 A 
ATOM      3  C3  BNZ d   1       0.132   1.262   1.586  0.00  0.00     0.000 A 
ATOM      4  C4  BNZ d   1      -0.613   0.471   0.787  0.00  0.00     0.000 A 
ATOM      5  C5  BNZ d   1      -0.010  -0.336  -0.157  0.00  0.00     0.000 A 
ATOM      6  C6  BNZ d   1       1.361  -0.340  -0.282  0.00  0.00     0.000 A 
ENDROOT
TORSDOF 0
ENDMDL
