MODEL 1
REMARK minimizedAffinity -3.76910925
REMARK minimizedRMSD -1
REMARK  0 active torsions:
REMARK  status: ('A' for Active; 'I' for Inactive)
ROOT
ATOM      1  C1  BNZ d   1       0.812   1.914  -0.366  0.00  0.00     0.000 A 
ATOM      2  C2  BNZ d   1      -0.092   1.081  -0.969  0.00  0.00     0.000 A 
ATOM      3  C3  BNZ d   1      -0.830   0.197  -0.233  0.00  0.00     0.000 A 
ATOM      4  C4  BNZ d   1      -0.636   0.120   1.100  0.00  0.00     0.000 A 
ATOM      5  C5  BNZ d   1       0.278   0.947   1.722  0.00  0.00     0.000 A 
ATOM      6  C6  BNZ d   1       0.992   1.862   0.982  0.00  0.00     0.000 A 
ENDROOT
TORSDOF 0
ENDMDL
