MODEL 1
REMARK minimizedAffinity -3.25833654
REMARK minimizedRMSD -1
REMARK  0 active torsions:
REMARK  status: ('A' for Active; 'I' for Inactive)
ROOT
ATOM      1  C1  BNZ d   1      -1.192  -0.946  -0.776  0.00  0.00     0.000 A 
ATOM      2  C2  BNZ d   1      -0.336  -1.559  -1.652  0.00  0.00     0.000 A 
ATOM      3  C3  BNZ d   1       1.007  -1.604  -1.404  0.00  0.00     0.000 A 
ATOM      4  C4  BNZ d   1       1.498  -1.002  -0.301  0.00  0.00     0.000 A 
ATOM      5  C5  BNZ d   1       0.649  -0.373   0.588  0.00  0.00     0.000 A 
ATOM      6  C6  BNZ d   1      -0.707  -0.363   0.354  0.00  0.00     0.000 A 
ENDROOT
TORSDOF 0
ENDMDL
