MODEL 1
REMARK minimizedAffinity -5.17846394
REMARK minimizedRMSD -1
REMARK  0 active torsions:
REMARK  status: ('A' for Active; 'I' for Inactive)
ROOT
ATOM      1  C1  BNZ d   1       0.717   2.015   1.691  0.00  0.00     0.000 A 
ATOM      2  C2  BNZ d   1      -0.023   0.933   1.293  0.00  0.00     0.000 A 
ATOM      3  C3  BNZ d   1       0.431   0.098   0.311  0.00  0.00     0.000 A 
ATOM      4  C4  BNZ d   1       1.603   0.368  -0.299  0.00  0.00     0.000 A 
ATOM      5  C5  BNZ d   1       2.356   1.460   0.084  0.00  0.00     0.000 A 
ATOM      6  C6  BNZ d   1       1.915   2.276   1.100  0.00  0.00     0.000 A 
ENDROOT
TORSDOF 0
ENDMDL
