MODEL 1
REMARK minimizedAffinity -4.75327349
REMARK minimizedRMSD -1
REMARK  0 active torsions:
REMARK  status: ('A' for Active; 'I' for Inactive)
ROOT
ATOM      1  C1  BNZ d   1       2.577   1.590   1.877  0.00  0.00     0.000 A 
ATOM      2  C2  BNZ d   1       3.484   1.110   0.970  0.00  0.00     0.000 A 
ATOM      3  C3  BNZ d   1       3.374   1.415  -0.357  0.00  0.00     0.000 A 
ATOM      4  C4  BNZ d   1       2.337   2.165  -0.782  0.00  0.00     0.000 A 
ATOM      5  C5  BNZ d   1       1.409   2.648   0.119  0.00  0.00     0.000 A 
ATOM      6  C6  BNZ d   1       1.545   2.371   1.460  0.00  0.00     0.000 A 
ENDROOT
TORSDOF 0
ENDMDL
