MODEL 1
REMARK minimizedAffinity -5.37300301
REMARK minimizedRMSD -1
REMARK  0 active torsions:
REMARK  status: ('A' for Active; 'I' for Inactive)
ROOT
ATOM      1  C1  BNZ d   1       2.863   2.058   0.469  0.00  0.00     0.000 A 
ATOM      2  C2  BNZ d   1       2.207   1.059  -0.199  0.00  0.00     0.000 A 
ATOM      3  C3  BNZ d   1       0.969   0.642   0.206  0.00  0.00     0.000 A 
ATOM      4  C4  BNZ d   1       0.407   1.197   1.299  0.00  0.00     0.000 A 
ATOM      5  C5  BNZ d   1       1.060   2.200   1.988  0.00  0.00     0.000 A 
ATOM      6  C6  BNZ d   1       2.289   2.643   1.555  0.00  0.00     0.000 A 
ENDROOT
TORSDOF 0
ENDMDL
