MODEL 1
REMARK minimizedAffinity -4.50332069
REMARK minimizedRMSD -1
REMARK  0 active torsions:
REMARK  status: ('A' for Active; 'I' for Inactive)
ROOT
ATOM      1  C1  BNZ d   1       1.345   0.850  -0.491  0.00  0.00     0.000 A 
ATOM      2  C2  BNZ d   1       0.736   1.871   0.188  0.00  0.00     0.000 A 
ATOM      3  C3  BNZ d   1       1.461   2.711   0.987  0.00  0.00     0.000 A 
ATOM      4  C4  BNZ d   1       2.785   2.504   1.137  0.00  0.00     0.000 A 
ATOM      5  C5  BNZ d   1       3.412   1.473   0.467  0.00  0.00     0.000 A 
ATOM      6  C6  BNZ d   1       2.686   0.653  -0.367  0.00  0.00     0.000 A 
ENDROOT
TORSDOF 0
ENDMDL
