MODEL 1
REMARK minimizedAffinity -3.93870187
REMARK minimizedRMSD -1
REMARK  0 active torsions:
REMARK  status: ('A' for Active; 'I' for Inactive)
ROOT
ATOM      1  C1  BNZ d   1       0.364   1.124   1.835  0.00  0.00     0.000 A 
ATOM      2  C2  BNZ d   1      -0.566   0.268   1.308  0.00  0.00     0.000 A 
ATOM      3  C3  BNZ d   1      -0.262  -0.519   0.233  0.00  0.00     0.000 A 
ATOM      4  C4  BNZ d   1       0.956  -0.420  -0.338  0.00  0.00     0.000 A 
ATOM      5  C5  BNZ d   1       1.901   0.445   0.176  0.00  0.00     0.000 A 
ATOM      6  C6  BNZ d   1       1.604   1.208   1.282  0.00  0.00     0.000 A 
ENDROOT
TORSDOF 0
ENDMDL
