MODEL 1
REMARK minimizedAffinity -3.00570035
REMARK minimizedRMSD -1
REMARK  0 active torsions:
REMARK  status: ('A' for Active; 'I' for Inactive)
ROOT
ATOM      1  C1  BNZ d   1      -0.237   0.050   0.727  0.00  0.00     0.000 A 
ATOM      2  C2  BNZ d   1      -0.154  -1.133   0.042  0.00  0.00     0.000 A 
ATOM      3  C3  BNZ d   1       0.982  -1.469  -0.640  0.00  0.00     0.000 A 
ATOM      4  C4  BNZ d   1       2.017  -0.606  -0.669  0.00  0.00     0.000 A 
ATOM      5  C5  BNZ d   1       1.946   0.594   0.009  0.00  0.00     0.000 A 
ATOM      6  C6  BNZ d   1       0.816   0.912   0.727  0.00  0.00     0.000 A 
ENDROOT
TORSDOF 0
ENDMDL
