MODEL 1
REMARK minimizedAffinity -2.21550488
REMARK minimizedRMSD -1
REMARK  0 active torsions:
REMARK  status: ('A' for Active; 'I' for Inactive)
ROOT
ATOM      1  C1  BNZ d   1      -0.427  -0.614   0.584  0.00  0.00     0.000 A 
ATOM      2  C2  BNZ d   1      -0.754  -0.231   1.857  0.00  0.00     0.000 A 
ATOM      3  C3  BNZ d   1      -1.100   1.063   2.132  0.00  0.00     0.000 A 
ATOM      4  C4  BNZ d   1      -1.080   1.979   1.142  0.00  0.00     0.000 A 
ATOM      5  C5  BNZ d   1      -0.744   1.610  -0.145  0.00  0.00     0.000 A 
ATOM      6  C6  BNZ d   1      -0.434   0.299  -0.425  0.00  0.00     0.000 A 
ENDROOT
TORSDOF 0
ENDMDL
