MODEL 1
REMARK minimizedAffinity -3.15253949
REMARK minimizedRMSD -1
REMARK  0 active torsions:
REMARK  status: ('A' for Active; 'I' for Inactive)
ROOT
ATOM      1  C1  BNZ d   1       1.858  -1.473  -0.506  0.00  0.00     0.000 A 
ATOM      2  C2  BNZ d   1       0.555  -1.880  -0.389  0.00  0.00     0.000 A 
ATOM      3  C3  BNZ d   1      -0.378  -1.077   0.204  0.00  0.00     0.000 A 
ATOM      4  C4  BNZ d   1      -0.001   0.113   0.715  0.00  0.00     0.000 A 
ATOM      5  C5  BNZ d   1       1.310   0.533   0.613  0.00  0.00     0.000 A 
ATOM      6  C6  BNZ d   1       2.239  -0.261  -0.019  0.00  0.00     0.000 A 
ENDROOT
TORSDOF 0
ENDMDL
