MODEL 1
REMARK minimizedAffinity 4.52569437
REMARK minimizedRMSD -1
REMARK  0 active torsions:
REMARK  status: ('A' for Active; 'I' for Inactive)
ROOT
ATOM      1  C1  BNZ d   1       1.385  -1.358  -1.545  0.00  0.00     0.000 A 
ATOM      2  C2  BNZ d   1       1.477  -0.776  -0.309  0.00  0.00     0.000 A 
ATOM      3  C3  BNZ d   1       2.263   0.324  -0.110  0.00  0.00     0.000 A 
ATOM      4  C4  BNZ d   1       2.987   0.816  -1.136  0.00  0.00     0.000 A 
ATOM      5  C5  BNZ d   1       2.912   0.235  -2.386  0.00  0.00     0.000 A 
ATOM      6  C6  BNZ d   1       2.089  -0.848  -2.592  0.00  0.00     0.000 A 
ENDROOT
TORSDOF 0
ENDMDL
