MODEL 1
REMARK minimizedAffinity -3.04456544
REMARK minimizedRMSD -1
REMARK  0 active torsions:
REMARK  status: ('A' for Active; 'I' for Inactive)
ROOT
ATOM      1  C1  BNZ d   1      -1.497   2.840  -2.620  0.00  0.00     0.000 A 
ATOM      2  C2  BNZ d   1      -0.460   3.676  -2.303  0.00  0.00     0.000 A 
ATOM      3  C3  BNZ d   1       0.132   3.622  -1.072  0.00  0.00     0.000 A 
ATOM      4  C4  BNZ d   1      -0.340   2.761  -0.147  0.00  0.00     0.000 A 
ATOM      5  C5  BNZ d   1      -1.391   1.918  -0.449  0.00  0.00     0.000 A 
ATOM      6  C6  BNZ d   1      -1.959   1.948  -1.702  0.00  0.00     0.000 A 
ENDROOT
TORSDOF 0
ENDMDL
