MODEL 1
REMARK minimizedAffinity 3.41987705
REMARK minimizedRMSD -1
REMARK  0 active torsions:
REMARK  status: ('A' for Active; 'I' for Inactive)
ROOT
ATOM      1  C1  BNZ d   1      -0.062   2.445   0.983  0.00  0.00     0.000 A 
ATOM      2  C2  BNZ d   1       0.707   2.542   2.112  0.00  0.00     0.000 A 
ATOM      3  C3  BNZ d   1       0.195   2.219   3.338  0.00  0.00     0.000 A 
ATOM      4  C4  BNZ d   1      -1.095   1.840   3.438  0.00  0.00     0.000 A 
ATOM      5  C5  BNZ d   1      -1.886   1.746   2.311  0.00  0.00     0.000 A 
ATOM      6  C6  BNZ d   1      -1.356   2.034   1.074  0.00  0.00     0.000 A 
ENDROOT
TORSDOF 0
ENDMDL
