MODEL 1
REMARK minimizedAffinity -1.85994816
REMARK minimizedRMSD -1
REMARK  0 active torsions:
REMARK  status: ('A' for Active; 'I' for Inactive)
ROOT
ATOM      1  C1  BNZ d   1      -1.172   2.417   0.116  0.00  0.00     0.000 A 
ATOM      2  C2  BNZ d   1      -0.984   2.901  -1.151  0.00  0.00     0.000 A 
ATOM      3  C3  BNZ d   1       0.132   3.624  -1.466  0.00  0.00     0.000 A 
ATOM      4  C4  BNZ d   1       1.039   3.896  -0.505  0.00  0.00     0.000 A 
ATOM      5  C5  BNZ d   1       0.859   3.423   0.779  0.00  0.00     0.000 A 
ATOM      6  C6  BNZ d   1      -0.247   2.662   1.083  0.00  0.00     0.000 A 
ENDROOT
TORSDOF 0
ENDMDL
