MODEL 1
REMARK minimizedAffinity 12.2216635
REMARK minimizedRMSD -1
REMARK  0 active torsions:
REMARK  status: ('A' for Active; 'I' for Inactive)
ROOT
ATOM      1  C1  BNZ d   1      -2.988   5.279   0.379  0.00  0.00     0.000 A 
ATOM      2  C2  BNZ d   1      -3.592   5.659   1.548  0.00  0.00     0.000 A 
ATOM      3  C3  BNZ d   1      -4.915   6.000   1.573  0.00  0.00     0.000 A 
ATOM      4  C4  BNZ d   1      -5.622   6.000   0.425  0.00  0.00     0.000 A 
ATOM      5  C5  BNZ d   1      -5.025   5.628  -0.764  0.00  0.00     0.000 A 
ATOM      6  C6  BNZ d   1      -3.703   5.248  -0.779  0.00  0.00     0.000 A 
ENDROOT
TORSDOF 0
ENDMDL
