MODEL 1
REMARK minimizedAffinity 1.35904658
REMARK minimizedRMSD -1
REMARK  0 active torsions:
REMARK  status: ('A' for Active; 'I' for Inactive)
ROOT
ATOM      1  C1  BNZ d   1      -2.103   4.332   0.722  0.00  0.00     0.000 A 
ATOM      2  C2  BNZ d   1      -1.506   3.100   0.672  0.00  0.00     0.000 A 
ATOM      3  C3  BNZ d   1      -0.192   2.974   0.317  0.00  0.00     0.000 A 
ATOM      4  C4  BNZ d   1       0.511   4.073  -0.025  0.00  0.00     0.000 A 
ATOM      5  C5  BNZ d   1      -0.079   5.320   0.012  0.00  0.00     0.000 A 
ATOM      6  C6  BNZ d   1      -1.391   5.448   0.407  0.00  0.00     0.000 A 
ENDROOT
TORSDOF 0
ENDMDL
