MODEL 1
REMARK minimizedAffinity 8.72250652
REMARK minimizedRMSD -1
REMARK  0 active torsions:
REMARK  status: ('A' for Active; 'I' for Inactive)
ROOT
ATOM      1  C1  BNZ d   1      -0.943   2.459  -0.333  0.00  0.00     0.000 A 
ATOM      2  C2  BNZ d   1      -0.830   2.951  -1.606  0.00  0.00     0.000 A 
ATOM      3  C3  BNZ d   1       0.228   3.741  -1.960  0.00  0.00     0.000 A 
ATOM      4  C4  BNZ d   1       1.148   4.071  -1.031  0.00  0.00     0.000 A 
ATOM      5  C5  BNZ d   1       1.043   3.591   0.259  0.00  0.00     0.000 A 
ATOM      6  C6  BNZ d   1      -0.002   2.764   0.601  0.00  0.00     0.000 A 
ENDROOT
TORSDOF 0
ENDMDL
