MODEL 1
REMARK minimizedAffinity 5.42012596
REMARK minimizedRMSD -1
REMARK  0 active torsions:
REMARK  status: ('A' for Active; 'I' for Inactive)
ROOT
ATOM      1  C1  BNZ d   1      -3.588   5.993   2.425  0.00  0.00     0.000 A 
ATOM      2  C2  BNZ d   1      -2.952   5.985   1.212  0.00  0.00     0.000 A 
ATOM      3  C3  BNZ d   1      -3.667   5.994   0.047  0.00  0.00     0.000 A 
ATOM      4  C4  BNZ d   1      -5.014   5.971   0.096  0.00  0.00     0.000 A 
ATOM      5  C5  BNZ d   1      -5.670   5.970   1.311  0.00  0.00     0.000 A 
ATOM      6  C6  BNZ d   1      -4.947   6.000   2.481  0.00  0.00     0.000 A 
ENDROOT
TORSDOF 0
ENDMDL
