MODEL 1
REMARK minimizedAffinity -1.52888465
REMARK minimizedRMSD -1
REMARK  0 active torsions:
REMARK  status: ('A' for Active; 'I' for Inactive)
ROOT
ATOM      1  C1  BNZ d   1      -0.187   3.255   1.535  0.00  0.00     0.000 A 
ATOM      2  C2  BNZ d   1       0.297   4.284   0.772  0.00  0.00     0.000 A 
ATOM      3  C3  BNZ d   1       0.322   4.194  -0.591  0.00  0.00     0.000 A 
ATOM      4  C4  BNZ d   1      -0.100   3.060  -1.188  0.00  0.00     0.000 A 
ATOM      5  C5  BNZ d   1      -0.582   2.010  -0.433  0.00  0.00     0.000 A 
ATOM      6  C6  BNZ d   1      -0.642   2.120   0.938  0.00  0.00     0.000 A 
ENDROOT
TORSDOF 0
ENDMDL
