MODEL 1
REMARK minimizedAffinity 8.81456852
REMARK minimizedRMSD -1
REMARK  0 active torsions:
REMARK  status: ('A' for Active; 'I' for Inactive)
ROOT
ATOM      1  C1  BNZ d   1      -0.768   4.113   0.682  0.00  0.00     0.000 A 
ATOM      2  C2  BNZ d   1       0.042   3.356  -0.122  0.00  0.00     0.000 A 
ATOM      3  C3  BNZ d   1       0.267   3.712  -1.422  0.00  0.00     0.000 A 
ATOM      4  C4  BNZ d   1      -0.349   4.800  -1.928  0.00  0.00     0.000 A 
ATOM      5  C5  BNZ d   1      -1.176   5.568  -1.133  0.00  0.00     0.000 A 
ATOM      6  C6  BNZ d   1      -1.369   5.229   0.187  0.00  0.00     0.000 A 
ENDROOT
TORSDOF 0
ENDMDL
