MODEL 1
REMARK minimizedAffinity 2.4626174
REMARK minimizedRMSD -1
REMARK  0 active torsions:
REMARK  status: ('A' for Active; 'I' for Inactive)
ROOT
ATOM      1  C1  BNZ d   1      -1.560  -3.651   3.821  0.00  0.00     0.000 A 
ATOM      2  C2  BNZ d   1      -2.197  -2.471   4.100  0.00  0.00     0.000 A 
ATOM      3  C3  BNZ d   1      -1.707  -1.283   3.633  0.00  0.00     0.000 A 
ATOM      4  C4  BNZ d   1      -0.560  -1.273   2.923  0.00  0.00     0.000 A 
ATOM      5  C5  BNZ d   1       0.099  -2.453   2.641  0.00  0.00     0.000 A 
ATOM      6  C6  BNZ d   1      -0.419  -3.650   3.080  0.00  0.00     0.000 A 
ENDROOT
TORSDOF 0
ENDMDL
