MODEL 1
REMARK minimizedAffinity 1.86449146
REMARK minimizedRMSD -1
REMARK  0 active torsions:
REMARK  status: ('A' for Active; 'I' for Inactive)
ROOT
ATOM      1  C1  BNZ d   1      -2.099  -2.059   4.672  0.00  0.00     0.000 A 
ATOM      2  C2  BNZ d   1      -2.700  -0.896   4.269  0.00  0.00     0.000 A 
ATOM      3  C3  BNZ d   1      -2.018   0.020   3.518  0.00  0.00     0.000 A 
ATOM      4  C4  BNZ d   1      -0.725  -0.208   3.206  0.00  0.00     0.000 A 
ATOM      5  C5  BNZ d   1      -0.103  -1.371   3.614  0.00  0.00     0.000 A 
ATOM      6  C6  BNZ d   1      -0.805  -2.309   4.336  0.00  0.00     0.000 A 
ENDROOT
TORSDOF 0
ENDMDL
