MODEL 1
REMARK minimizedAffinity -4.40121555
REMARK minimizedRMSD -1
REMARK  0 active torsions:
REMARK  status: ('A' for Active; 'I' for Inactive)
ROOT
ATOM      1  C1  BNZ d   1      -1.171   1.986   1.368  0.00  0.00     0.000 A 
ATOM      2  C2  BNZ d   1      -0.549   2.956   0.628  0.00  0.00     0.000 A 
ATOM      3  C3  BNZ d   1       0.504   3.660   1.141  0.00  0.00     0.000 A 
ATOM      4  C4  BNZ d   1       0.907   3.422   2.405  0.00  0.00     0.000 A 
ATOM      5  C5  BNZ d   1       0.284   2.454   3.167  0.00  0.00     0.000 A 
ATOM      6  C6  BNZ d   1      -0.750   1.720   2.634  0.00  0.00     0.000 A 
ENDROOT
TORSDOF 0
ENDMDL
