MODEL 1
REMARK minimizedAffinity -0.682198882
REMARK minimizedRMSD -1
REMARK  0 active torsions:
REMARK  status: ('A' for Active; 'I' for Inactive)
ROOT
ATOM      1  C1  BNZ d   1      -2.147   2.815   1.972  0.00  0.00     0.000 A 
ATOM      2  C2  BNZ d   1      -1.162   3.276   1.140  0.00  0.00     0.000 A 
ATOM      3  C3  BNZ d   1      -0.145   2.456   0.738  0.00  0.00     0.000 A 
ATOM      4  C4  BNZ d   1      -0.093   1.189   1.199  0.00  0.00     0.000 A 
ATOM      5  C5  BNZ d   1      -1.074   0.713   2.045  0.00  0.00     0.000 A 
ATOM      6  C6  BNZ d   1      -2.117   1.530   2.417  0.00  0.00     0.000 A 
ENDROOT
TORSDOF 0
ENDMDL
