MODEL 1
REMARK minimizedAffinity -3.40383363
REMARK minimizedRMSD -1
REMARK  0 active torsions:
REMARK  status: ('A' for Active; 'I' for Inactive)
ROOT
ATOM      1  C1  BNZ d   1      -0.091   2.231  -0.117  0.00  0.00     0.000 A 
ATOM      2  C2  BNZ d   1      -0.838   1.234   0.452  0.00  0.00     0.000 A 
ATOM      3  C3  BNZ d   1      -1.351   1.376   1.711  0.00  0.00     0.000 A 
ATOM      4  C4  BNZ d   1      -1.085   2.496   2.413  0.00  0.00     0.000 A 
ATOM      5  C5  BNZ d   1      -0.326   3.506   1.856  0.00  0.00     0.000 A 
ATOM      6  C6  BNZ d   1       0.157   3.376   0.574  0.00  0.00     0.000 A 
ENDROOT
TORSDOF 0
ENDMDL
