MODEL 1
REMARK minimizedAffinity -2.24198604
REMARK minimizedRMSD -1
REMARK  0 active torsions:
REMARK  status: ('A' for Active; 'I' for Inactive)
ROOT
ATOM      1  C1  BNZ d   1       0.267   2.393   0.774  0.00  0.00     0.000 A 
ATOM      2  C2  BNZ d   1       0.387   3.263   1.825  0.00  0.00     0.000 A 
ATOM      3  C3  BNZ d   1      -0.049   2.916   3.073  0.00  0.00     0.000 A 
ATOM      4  C4  BNZ d   1      -0.641   1.719   3.260  0.00  0.00     0.000 A 
ATOM      5  C5  BNZ d   1      -0.778   0.835   2.209  0.00  0.00     0.000 A 
ATOM      6  C6  BNZ d   1      -0.302   1.171   0.962  0.00  0.00     0.000 A 
ENDROOT
TORSDOF 0
ENDMDL
