MODEL 1
REMARK minimizedAffinity 2.83787322
REMARK minimizedRMSD -1
REMARK  0 active torsions:
REMARK  status: ('A' for Active; 'I' for Inactive)
ROOT
ATOM      1  O1  BZF d   1       4.525   2.847  -3.763  0.00  0.00    -0.204 OA
ATOM      2  C2  BZF d   1       4.109   3.449  -4.935  0.00  0.00     0.174 A 
ATOM      3  C3  BZF d   1       4.374   2.661  -5.997  0.00  0.00    -0.012 A 
ATOM      4  C3A BZF d   1       4.910   1.454  -5.447  0.00  0.00    -0.107 A 
ATOM      5  C4  BZF d   1       5.348   0.284  -5.998  0.00  0.00     0.055 A 
ATOM      6  C5  BZF d   1       5.880  -0.669  -5.188  0.00  0.00    -0.016 A 
ATOM      7  C6  BZF d   1       5.993  -0.484  -3.826  0.00  0.00     0.022 A 
ATOM      8  C7  BZF d   1       5.567   0.658  -3.233  0.00  0.00     0.029 A 
ATOM      9  C7A BZF d   1       4.999   1.609  -4.044  0.00  0.00     0.058 A 
ENDROOT
TORSDOF 0
ENDMDL
