MODEL 1
REMARK minimizedAffinity 11.2971964
REMARK minimizedRMSD -1
REMARK  0 active torsions:
REMARK  status: ('A' for Active; 'I' for Inactive)
ROOT
ATOM      1  O1  BZF d   1       5.790   0.335  -5.217  0.00  0.00    -0.204 OA
ATOM      2  C2  BZF d   1       5.224   1.335  -5.984  0.00  0.00     0.174 A 
ATOM      3  C3  BZF d   1       4.528   2.195  -5.212  0.00  0.00    -0.012 A 
ATOM      4  C3A BZF d   1       4.745   1.754  -3.868  0.00  0.00    -0.107 A 
ATOM      5  C4  BZF d   1       4.327   2.211  -2.651  0.00  0.00     0.055 A 
ATOM      6  C5  BZF d   1       4.654   1.510  -1.534  0.00  0.00    -0.016 A 
ATOM      7  C6  BZF d   1       5.392   0.345  -1.598  0.00  0.00     0.022 A 
ATOM      8  C7  BZF d   1       5.832  -0.145  -2.782  0.00  0.00     0.029 A 
ATOM      9  C7A BZF d   1       5.531   0.579  -3.910  0.00  0.00     0.058 A 
ENDROOT
TORSDOF 0
ENDMDL
