MODEL 1
REMARK minimizedAffinity 4.09019995
REMARK minimizedRMSD -1
REMARK  0 active torsions:
REMARK  status: ('A' for Active; 'I' for Inactive)
ROOT
ATOM      1  O1  BZF d   1      -3.176   1.170   1.524  0.00  0.00    -0.204 OA
ATOM      2  C2  BZF d   1      -4.279   1.535   0.778  0.00  0.00     0.174 A 
ATOM      3  C3  BZF d   1      -4.043   2.677   0.101  0.00  0.00    -0.012 A 
ATOM      4  C3A BZF d   1      -2.676   3.000   0.374  0.00  0.00    -0.107 A 
ATOM      5  C4  BZF d   1      -1.852   4.013  -0.026  0.00  0.00     0.055 A 
ATOM      6  C5  BZF d   1      -0.593   4.079   0.479  0.00  0.00    -0.016 A 
ATOM      7  C6  BZF d   1      -0.126   3.153   1.389  0.00  0.00     0.022 A 
ATOM      8  C7  BZF d   1      -0.904   2.127   1.812  0.00  0.00     0.029 A 
ATOM      9  C7A BZF d   1      -2.166   2.039   1.278  0.00  0.00     0.058 A 
ENDROOT
TORSDOF 0
ENDMDL
