MODEL 1
REMARK minimizedAffinity -4.62611055
REMARK minimizedRMSD -1
REMARK  0 active torsions:
REMARK  status: ('A' for Active; 'I' for Inactive)
ROOT
ATOM      1  O1  BZF d   1       5.842  -0.260  -5.250  0.00  0.00    -0.204 OA
ATOM      2  C2  BZF d   1       5.995  -0.874  -4.022  0.00  0.00     0.174 A 
ATOM      3  C3  BZF d   1       5.998   0.037  -3.028  0.00  0.00    -0.012 A 
ATOM      4  C3A BZF d   1       5.745   1.292  -3.667  0.00  0.00    -0.107 A 
ATOM      5  C4  BZF d   1       5.616   2.571  -3.207  0.00  0.00     0.055 A 
ATOM      6  C5  BZF d   1       5.444   3.581  -4.100  0.00  0.00    -0.016 A 
ATOM      7  C6  BZF d   1       5.403   3.348  -5.459  0.00  0.00     0.022 A 
ATOM      8  C7  BZF d   1       5.523   2.096  -5.963  0.00  0.00     0.029 A 
ATOM      9  C7A BZF d   1       5.663   1.070  -5.061  0.00  0.00     0.058 A 
ENDROOT
TORSDOF 0
ENDMDL
