MODEL 1
REMARK minimizedAffinity -1.38676703
REMARK minimizedRMSD -1
REMARK  0 active torsions:
REMARK  status: ('A' for Active; 'I' for Inactive)
ROOT
ATOM      1  O1  BZF d   1       5.579   0.076  -2.632  0.00  0.00    -0.204 OA
ATOM      2  C2  BZF d   1       5.896  -1.159  -3.162  0.00  0.00     0.174 A 
ATOM      3  C3  BZF d   1       5.998  -1.092  -4.505  0.00  0.00    -0.012 A 
ATOM      4  C3A BZF d   1       5.817   0.291  -4.827  0.00  0.00    -0.107 A 
ATOM      5  C4  BZF d   1       5.824   0.991  -5.999  0.00  0.00     0.055 A 
ATOM      6  C5  BZF d   1       5.542   2.320  -5.977  0.00  0.00    -0.016 A 
ATOM      7  C6  BZF d   1       5.244   2.979  -4.803  0.00  0.00     0.022 A 
ATOM      8  C7  BZF d   1       5.229   2.328  -3.614  0.00  0.00     0.029 A 
ATOM      9  C7A BZF d   1       5.546   0.992  -3.629  0.00  0.00     0.058 A 
ENDROOT
TORSDOF 0
ENDMDL
