MODEL 1
REMARK minimizedAffinity 6.23194647
REMARK minimizedRMSD -1
REMARK  0 active torsions:
REMARK  status: ('A' for Active; 'I' for Inactive)
ROOT
ATOM      1  O1  BZF d   1      -2.650   2.591  -3.684  0.00  0.00    -0.204 OA
ATOM      2  C2  BZF d   1      -1.534   2.940  -2.948  0.00  0.00     0.174 A 
ATOM      3  C3  BZF d   1      -1.124   4.186  -3.262  0.00  0.00    -0.012 A 
ATOM      4  C3A BZF d   1      -2.096   4.679  -4.190  0.00  0.00    -0.107 A 
ATOM      5  C4  BZF d   1      -2.245   5.865  -4.852  0.00  0.00     0.055 A 
ATOM      6  C5  BZF d   1      -3.262   6.000  -5.743  0.00  0.00    -0.016 A 
ATOM      7  C6  BZF d   1      -4.144   4.970  -6.000  0.00  0.00     0.022 A 
ATOM      8  C7  BZF d   1      -4.039   3.778  -5.364  0.00  0.00     0.029 A 
ATOM      9  C7A BZF d   1      -3.032   3.649  -4.439  0.00  0.00     0.058 A 
ENDROOT
TORSDOF 0
ENDMDL
