MODEL 1
REMARK minimizedAffinity 14.1901188
REMARK minimizedRMSD -1
REMARK  0 active torsions:
REMARK  status: ('A' for Active; 'I' for Inactive)
ROOT
ATOM      1  O1  BZF d   1       0.406  -3.758  -3.854  0.00  0.00    -0.204 OA
ATOM      2  C2  BZF d   1       0.373  -4.046  -2.504  0.00  0.00     0.174 A 
ATOM      3  C3  BZF d   1       1.324  -4.947  -2.183  0.00  0.00    -0.012 A 
ATOM      4  C3A BZF d   1       2.053  -5.171  -3.394  0.00  0.00    -0.107 A 
ATOM      5  C4  BZF d   1       3.128  -5.952  -3.712  0.00  0.00     0.055 A 
ATOM      6  C5  BZF d   1       3.550  -6.000  -5.002  0.00  0.00    -0.016 A 
ATOM      7  C6  BZF d   1       2.919  -5.286  -6.000  0.00  0.00     0.022 A 
ATOM      8  C7  BZF d   1       1.852  -4.494  -5.732  0.00  0.00     0.029 A 
ATOM      9  C7A BZF d   1       1.443  -4.418  -4.423  0.00  0.00     0.058 A 
ENDROOT
TORSDOF 0
ENDMDL
