MODEL 1
REMARK minimizedAffinity 2.61570096
REMARK minimizedRMSD -1
REMARK  0 active torsions:
REMARK  status: ('A' for Active; 'I' for Inactive)
ROOT
ATOM      1  O1  BZF d   1       0.745  -6.000  -5.474  0.00  0.00    -0.204 OA
ATOM      2  C2  BZF d   1       2.014  -5.512  -5.228  0.00  0.00     0.174 A 
ATOM      3  C3  BZF d   1       2.060  -4.874  -4.041  0.00  0.00    -0.012 A 
ATOM      4  C3A BZF d   1       0.759  -5.047  -3.470  0.00  0.00    -0.107 A 
ATOM      5  C4  BZF d   1       0.191  -4.654  -2.292  0.00  0.00     0.055 A 
ATOM      6  C5  BZF d   1      -1.123  -4.922  -2.071  0.00  0.00    -0.016 A 
ATOM      7  C6  BZF d   1      -1.898  -5.575  -3.006  0.00  0.00     0.022 A 
ATOM      8  C7  BZF d   1      -1.378  -5.989  -4.187  0.00  0.00     0.029 A 
ATOM      9  C7A BZF d   1      -0.042  -5.749  -4.400  0.00  0.00     0.058 A 
ENDROOT
TORSDOF 0
ENDMDL
