MODEL 1
REMARK minimizedAffinity 10.4462767
REMARK minimizedRMSD -1
REMARK  0 active torsions:
REMARK  status: ('A' for Active; 'I' for Inactive)
ROOT
ATOM      1  O1  BZF d   1       0.122  -2.194  -1.840  0.00  0.00    -0.204 OA
ATOM      2  C2  BZF d   1      -0.555  -3.320  -2.268  0.00  0.00     0.174 A 
ATOM      3  C3  BZF d   1      -1.338  -3.810  -1.286  0.00  0.00    -0.012 A 
ATOM      4  C3A BZF d   1      -1.208  -2.884  -0.203  0.00  0.00    -0.107 A 
ATOM      5  C4  BZF d   1      -1.755  -2.817   1.046  0.00  0.00     0.055 A 
ATOM      6  C5  BZF d   1      -1.364  -1.822   1.886  0.00  0.00    -0.016 A 
ATOM      7  C6  BZF d   1      -0.427  -0.882   1.511  0.00  0.00     0.022 A 
ATOM      8  C7  BZF d   1       0.140  -0.904   0.281  0.00  0.00     0.029 A 
ATOM      9  C7A BZF d   1      -0.277  -1.889  -0.582  0.00  0.00     0.058 A 
ENDROOT
TORSDOF 0
ENDMDL
