MODEL 1
REMARK minimizedAffinity 9.19544506
REMARK minimizedRMSD -1
REMARK  0 active torsions:
REMARK  status: ('A' for Active; 'I' for Inactive)
ROOT
ATOM      1  O1  BZF d   1      -0.350  -2.651  -2.218  0.00  0.00    -0.204 OA
ATOM      2  C2  BZF d   1      -0.936  -3.879  -2.457  0.00  0.00     0.174 A 
ATOM      3  C3  BZF d   1      -1.538  -4.346  -1.345  0.00  0.00    -0.012 A 
ATOM      4  C3A BZF d   1      -1.394  -3.306  -0.373  0.00  0.00    -0.107 A 
ATOM      5  C4  BZF d   1      -1.799  -3.171   0.924  0.00  0.00     0.055 A 
ATOM      6  C5  BZF d   1      -1.434  -2.060   1.617  0.00  0.00    -0.016 A 
ATOM      7  C6  BZF d   1      -0.661  -1.070   1.047  0.00  0.00     0.022 A 
ATOM      8  C7  BZF d   1      -0.240  -1.157  -0.239  0.00  0.00     0.029 A 
ATOM      9  C7A BZF d   1      -0.635  -2.263  -0.952  0.00  0.00     0.058 A 
ENDROOT
TORSDOF 0
ENDMDL
