MODEL 1
REMARK minimizedAffinity 6.04637575
REMARK minimizedRMSD -1
REMARK  0 active torsions:
REMARK  status: ('A' for Active; 'I' for Inactive)
ROOT
ATOM      1  O1  BZF d   1       0.561  -4.087  -4.796  0.00  0.00    -0.204 OA
ATOM      2  C2  BZF d   1       1.901  -4.387  -4.949  0.00  0.00     0.174 A 
ATOM      3  C3  BZF d   1       2.529  -4.392  -3.756  0.00  0.00    -0.012 A 
ATOM      4  C3A BZF d   1       1.500  -4.167  -2.787  0.00  0.00    -0.107 A 
ATOM      5  C4  BZF d   1       1.496  -4.080  -1.424  0.00  0.00     0.055 A 
ATOM      6  C5  BZF d   1       0.336  -3.779  -0.785  0.00  0.00    -0.016 A 
ATOM      7  C6  BZF d   1      -0.837  -3.554  -1.476  0.00  0.00     0.022 A 
ATOM      8  C7  BZF d   1      -0.883  -3.633  -2.828  0.00  0.00     0.029 A 
ATOM      9  C7A BZF d   1       0.281  -3.970  -3.475  0.00  0.00     0.058 A 
ENDROOT
TORSDOF 0
ENDMDL
