MODEL 1
REMARK minimizedAffinity 6.01791096
REMARK minimizedRMSD -1
REMARK  0 active torsions:
REMARK  status: ('A' for Active; 'I' for Inactive)
ROOT
ATOM      1  O1  BZF d   1       1.833   3.062   0.644  0.00  0.00    -0.204 OA
ATOM      2  C2  BZF d   1       2.674   2.357   1.484  0.00  0.00     0.174 A 
ATOM      3  C3  BZF d   1       1.975   1.763   2.473  0.00  0.00    -0.012 A 
ATOM      4  C3A BZF d   1       0.602   2.044   2.184  0.00  0.00    -0.107 A 
ATOM      5  C4  BZF d   1      -0.573   1.710   2.795  0.00  0.00     0.055 A 
ATOM      6  C5  BZF d   1      -1.739   2.205   2.300  0.00  0.00    -0.016 A 
ATOM      7  C6  BZF d   1      -1.765   3.038   1.201  0.00  0.00     0.022 A 
ATOM      8  C7  BZF d   1      -0.626   3.393   0.559  0.00  0.00     0.029 A 
ATOM      9  C7A BZF d   1       0.551   2.868   1.036  0.00  0.00     0.058 A 
ENDROOT
TORSDOF 0
ENDMDL
