MODEL 1
REMARK minimizedAffinity 11.3018494
REMARK minimizedRMSD -1
REMARK  0 active torsions:
REMARK  status: ('A' for Active; 'I' for Inactive)
ROOT
ATOM      1  O1  BZF d   1      -1.529  -2.394   3.312  0.00  0.00    -0.204 OA
ATOM      2  C2  BZF d   1      -1.934  -1.911   2.083  0.00  0.00     0.174 A 
ATOM      3  C3  BZF d   1      -2.672  -2.830   1.428  0.00  0.00    -0.012 A 
ATOM      4  C3A BZF d   1      -2.810  -3.923   2.341  0.00  0.00    -0.107 A 
ATOM      5  C4  BZF d   1      -3.449  -5.128   2.273  0.00  0.00     0.055 A 
ATOM      6  C5  BZF d   1      -3.328  -5.999   3.310  0.00  0.00    -0.016 A 
ATOM      7  C6  BZF d   1      -2.573  -5.700   4.425  0.00  0.00     0.022 A 
ATOM      8  C7  BZF d   1      -1.925  -4.515   4.539  0.00  0.00     0.029 A 
ATOM      9  C7A BZF d   1      -2.072  -3.620   3.508  0.00  0.00     0.058 A 
ENDROOT
TORSDOF 0
ENDMDL
