MODEL 1
REMARK minimizedAffinity 17.6225166
REMARK minimizedRMSD -1
REMARK  0 active torsions:
REMARK  status: ('A' for Active; 'I' for Inactive)
ROOT
ATOM      1  O1  BZF d   1      -2.189   0.623   1.962  0.00  0.00    -0.204 OA
ATOM      2  C2  BZF d   1      -1.741  -0.684   1.960  0.00  0.00     0.174 A 
ATOM      3  C3  BZF d   1      -0.453  -0.747   1.564  0.00  0.00    -0.012 A 
ATOM      4  C3A BZF d   1      -0.045   0.613   1.391  0.00  0.00    -0.107 A 
ATOM      5  C4  BZF d   1       1.131   1.201   1.023  0.00  0.00     0.055 A 
ATOM      6  C5  BZF d   1       1.177   2.551   0.879  0.00  0.00    -0.016 A 
ATOM      7  C6  BZF d   1       0.067   3.343   1.090  0.00  0.00     0.022 A 
ATOM      8  C7  BZF d   1      -1.120   2.806   1.461  0.00  0.00     0.029 A 
ATOM      9  C7A BZF d   1      -1.162   1.444   1.639  0.00  0.00     0.058 A 
ENDROOT
TORSDOF 0
ENDMDL
