MODEL 1
REMARK minimizedAffinity 2.76738572
REMARK minimizedRMSD -1
REMARK  0 active torsions:
REMARK  status: ('A' for Active; 'I' for Inactive)
ROOT
ATOM      1  O1  BZF d   1      -4.677   5.922  -5.999  0.00  0.00    -0.204 OA
ATOM      2  C2  BZF d   1      -5.964   5.421  -5.984  0.00  0.00     0.174 A 
ATOM      3  C3  BZF d   1      -6.000   4.210  -5.392  0.00  0.00    -0.012 A 
ATOM      4  C3A BZF d   1      -4.665   3.978  -4.930  0.00  0.00    -0.107 A 
ATOM      5  C4  BZF d   1      -4.072   2.952  -4.250  0.00  0.00     0.055 A 
ATOM      6  C5  BZF d   1      -2.734   3.001  -4.018  0.00  0.00    -0.016 A 
ATOM      7  C6  BZF d   1      -1.959   4.055  -4.455  0.00  0.00     0.022 A 
ATOM      8  C7  BZF d   1      -2.503   5.097  -5.129  0.00  0.00     0.029 A 
ATOM      9  C7A BZF d   1      -3.861   5.067  -5.337  0.00  0.00     0.058 A 
ENDROOT
TORSDOF 0
ENDMDL
