MODEL 1
REMARK minimizedAffinity 7.8113389
REMARK minimizedRMSD -1
REMARK  0 active torsions:
REMARK  status: ('A' for Active; 'I' for Inactive)
ROOT
ATOM      1  O1  BZF d   1       0.160   1.564   3.005  0.00  0.00    -0.204 OA
ATOM      2  C2  BZF d   1      -0.751   1.504   4.041  0.00  0.00     0.174 A 
ATOM      3  C3  BZF d   1      -1.876   2.180   3.729  0.00  0.00    -0.012 A 
ATOM      4  C3A BZF d   1      -1.689   2.617   2.379  0.00  0.00    -0.107 A 
ATOM      5  C4  BZF d   1      -2.465   3.324   1.505  0.00  0.00     0.055 A 
ATOM      6  C5  BZF d   1      -1.960   3.647   0.286  0.00  0.00    -0.016 A 
ATOM      7  C6  BZF d   1      -0.684   3.284  -0.091  0.00  0.00     0.022 A 
ATOM      8  C7  BZF d   1       0.122   2.578   0.740  0.00  0.00     0.029 A 
ATOM      9  C7A BZF d   1      -0.398   2.221   1.960  0.00  0.00     0.058 A 
ENDROOT
TORSDOF 0
ENDMDL
