MODEL 1
REMARK minimizedAffinity 7.47319412
REMARK minimizedRMSD -1
REMARK  0 active torsions:
REMARK  status: ('A' for Active; 'I' for Inactive)
ROOT
ATOM      1  O1  BZF d   1      -4.199   3.041  -3.649  0.00  0.00    -0.204 OA
ATOM      2  C2  BZF d   1      -3.244   3.765  -4.335  0.00  0.00     0.174 A 
ATOM      3  C3  BZF d   1      -2.459   4.452  -3.480  0.00  0.00    -0.012 A 
ATOM      4  C3A BZF d   1      -2.897   4.066  -2.174  0.00  0.00    -0.107 A 
ATOM      5  C4  BZF d   1      -2.494   4.398  -0.912  0.00  0.00     0.055 A 
ATOM      6  C5  BZF d   1      -3.178   3.901   0.152  0.00  0.00    -0.016 A 
ATOM      7  C6  BZF d   1      -4.271   3.075  -0.009  0.00  0.00     0.022 A 
ATOM      8  C7  BZF d   1      -4.705   2.714  -1.241  0.00  0.00     0.029 A 
ATOM      9  C7A BZF d   1      -3.996   3.188  -2.318  0.00  0.00     0.058 A 
ENDROOT
TORSDOF 0
ENDMDL
