MODEL 1
REMARK minimizedAffinity 0.425222397
REMARK minimizedRMSD -1
REMARK  0 active torsions:
REMARK  status: ('A' for Active; 'I' for Inactive)
ROOT
ATOM      1  O1  BZF d   1       3.818   0.575  -5.507  0.00  0.00    -0.204 OA
ATOM      2  C2  BZF d   1       4.954  -0.099  -5.102  0.00  0.00     0.174 A 
ATOM      3  C3  BZF d   1       5.997   0.747  -4.987  0.00  0.00    -0.012 A 
ATOM      4  C3A BZF d   1       5.459   2.046  -5.252  0.00  0.00    -0.107 A 
ATOM      5  C4  BZF d   1       6.000   3.300  -5.274  0.00  0.00     0.055 A 
ATOM      6  C5  BZF d   1       5.219   4.350  -5.642  0.00  0.00    -0.016 A 
ATOM      7  C6  BZF d   1       3.897   4.181  -5.999  0.00  0.00     0.022 A 
ATOM      8  C7  BZF d   1       3.315   2.958  -5.988  0.00  0.00     0.029 A 
ATOM      9  C7A BZF d   1       4.092   1.899  -5.585  0.00  0.00     0.058 A 
ENDROOT
TORSDOF 0
ENDMDL
