MODEL 1
REMARK minimizedAffinity 10.8889627
REMARK minimizedRMSD -1
REMARK  0 active torsions:
REMARK  status: ('A' for Active; 'I' for Inactive)
ROOT
ATOM      1  O1  BZF d   1      -0.681  -1.873  -2.635  0.00  0.00    -0.204 OA
ATOM      2  C2  BZF d   1      -0.978  -3.108  -2.092  0.00  0.00     0.174 A 
ATOM      3  C3  BZF d   1      -0.752  -3.113  -0.763  0.00  0.00    -0.012 A 
ATOM      4  C3A BZF d   1      -0.371  -1.772  -0.440  0.00  0.00    -0.107 A 
ATOM      5  C4  BZF d   1      -0.035  -1.146   0.726  0.00  0.00     0.055 A 
ATOM      6  C5  BZF d   1       0.356   0.155   0.688  0.00  0.00    -0.016 A 
ATOM      7  C6  BZF d   1       0.428   0.857  -0.497  0.00  0.00     0.022 A 
ATOM      8  C7  BZF d   1       0.099   0.280  -1.678  0.00  0.00     0.029 A 
ATOM      9  C7A BZF d   1      -0.328  -1.024  -1.640  0.00  0.00     0.058 A 
ENDROOT
TORSDOF 0
ENDMDL
