MODEL 1
REMARK minimizedAffinity -1.53041112
REMARK minimizedRMSD -1
REMARK  0 active torsions:
REMARK  status: ('A' for Active; 'I' for Inactive)
ROOT
ATOM      1  O1  BZF d   1       3.691   4.733  -5.980  0.00  0.00    -0.204 OA
ATOM      2  C2  BZF d   1       4.853   5.478  -5.923  0.00  0.00     0.174 A 
ATOM      3  C3  BZF d   1       5.932   4.673  -5.825  0.00  0.00    -0.012 A 
ATOM      4  C3A BZF d   1       5.417   3.341  -5.913  0.00  0.00    -0.107 A 
ATOM      5  C4  BZF d   1       6.000   2.106  -5.894  0.00  0.00     0.055 A 
ATOM      6  C5  BZF d   1       5.209   1.002  -5.927  0.00  0.00    -0.016 A 
ATOM      7  C6  BZF d   1       3.833   1.096  -5.974  0.00  0.00     0.022 A 
ATOM      8  C7  BZF d   1       3.209   2.299  -6.000  0.00  0.00     0.029 A 
ATOM      9  C7A BZF d   1       4.008   3.416  -6.000  0.00  0.00     0.058 A 
ENDROOT
TORSDOF 0
ENDMDL
