MODEL 1
REMARK minimizedAffinity 0.163046956
REMARK minimizedRMSD -1
REMARK  0 active torsions:
REMARK  status: ('A' for Active; 'I' for Inactive)
ROOT
ATOM      1  C   UNL d   1      -2.190  -0.107   1.334  0.00  0.00     0.023 A 
ATOM      2  C1  UNL d   1      -1.763  -0.437   0.048  0.00  0.00     0.003 A 
ATOM      3  C2  UNL d   1      -0.470  -0.109  -0.366  0.00  0.00     0.048 A 
ATOM      4  C3  UNL d   1       0.390   0.550   0.512  0.00  0.00     0.023 A 
ATOM      5  C4  UNL d   1      -0.033   0.882   1.800  0.00  0.00     0.048 A 
ATOM      6  C5  UNL d   1      -1.326   0.552   2.209  0.00  0.00     0.003 A 
ATOM      7  I   UNL d   1       2.315   1.040  -0.101  0.00  0.00    -0.146 I 
ENDROOT
TORSDOF 0
ENDMDL
