MODEL 1
REMARK minimizedAffinity -3.02327156
REMARK minimizedRMSD -1
REMARK  0 active torsions:
REMARK  status: ('A' for Active; 'I' for Inactive)
ROOT
ATOM      1  C   UNL d   1       2.035   1.903   2.437  0.00  0.00     0.023 A 
ATOM      2  C1  UNL d   1       2.004   0.541   2.136  0.00  0.00     0.003 A 
ATOM      3  C2  UNL d   1       0.840  -0.036   1.624  0.00  0.00     0.048 A 
ATOM      4  C3  UNL d   1      -0.289   0.755   1.413  0.00  0.00     0.023 A 
ATOM      5  C4  UNL d   1      -0.262   2.118   1.711  0.00  0.00     0.048 A 
ATOM      6  C5  UNL d   1       0.903   2.690   2.225  0.00  0.00     0.003 A 
ATOM      7  I   UNL d   1      -2.022  -0.101   0.649  0.00  0.00    -0.146 I 
ENDROOT
TORSDOF 0
ENDMDL
