MODEL 1
REMARK minimizedAffinity 1.83237183
REMARK minimizedRMSD -1
REMARK  0 active torsions:
REMARK  status: ('A' for Active; 'I' for Inactive)
ROOT
ATOM      1  C   UNL d   1      -2.585  -0.049   0.372  0.00  0.00     0.023 A 
ATOM      2  C1  UNL d   1      -1.842  -0.657  -0.640  0.00  0.00     0.003 A 
ATOM      3  C2  UNL d   1      -0.452  -0.741  -0.534  0.00  0.00     0.048 A 
ATOM      4  C3  UNL d   1       0.188  -0.215   0.588  0.00  0.00     0.023 A 
ATOM      5  C4  UNL d   1      -0.551   0.393   1.604  0.00  0.00     0.048 A 
ATOM      6  C5  UNL d   1      -1.941   0.476   1.492  0.00  0.00     0.003 A 
ATOM      7  I   UNL d   1       2.257  -0.339   0.750  0.00  0.00    -0.146 I 
ENDROOT
TORSDOF 0
ENDMDL
