MODEL 1
REMARK minimizedAffinity -4.84312391
REMARK minimizedRMSD -1
REMARK  0 active torsions:
REMARK  status: ('A' for Active; 'I' for Inactive)
ROOT
ATOM      1  C   UNL d   1      -2.159   0.749   1.327  0.00  0.00     0.023 A 
ATOM      2  C1  UNL d   1      -2.077  -0.138   0.254  0.00  0.00     0.003 A 
ATOM      3  C2  UNL d   1      -0.831  -0.581  -0.194  0.00  0.00     0.048 A 
ATOM      4  C3  UNL d   1       0.329  -0.135   0.436  0.00  0.00     0.023 A 
ATOM      5  C4  UNL d   1       0.253   0.752   1.512  0.00  0.00     0.048 A 
ATOM      6  C5  UNL d   1      -0.995   1.193   1.955  0.00  0.00     0.003 A 
ATOM      7  I   UNL d   1       2.185  -0.793  -0.229  0.00  0.00    -0.146 I 
ENDROOT
TORSDOF 0
ENDMDL
