MODEL 1
REMARK minimizedAffinity -3.24408984
REMARK minimizedRMSD -1
REMARK  0 active torsions:
REMARK  status: ('A' for Active; 'I' for Inactive)
ROOT
ATOM      1  C   UNL d   1       0.716  -0.772   0.565  0.00  0.00     0.023 A 
ATOM      2  C1  UNL d   1      -0.183   0.174   0.073  0.00  0.00     0.003 A 
ATOM      3  C2  UNL d   1       0.020   0.743  -1.186  0.00  0.00     0.048 A 
ATOM      4  C3  UNL d   1       1.123   0.360  -1.948  0.00  0.00     0.023 A 
ATOM      5  C4  UNL d   1       2.025  -0.587  -1.460  0.00  0.00     0.048 A 
ATOM      6  C5  UNL d   1       1.818  -1.152  -0.200  0.00  0.00     0.003 A 
ATOM      7  I   UNL d   1       1.426   1.205  -3.823  0.00  0.00    -0.146 I 
ENDROOT
TORSDOF 0
ENDMDL
