MODEL 1
REMARK minimizedAffinity -2.41113162
REMARK minimizedRMSD -1
REMARK  0 active torsions:
REMARK  status: ('A' for Active; 'I' for Inactive)
ROOT
ATOM      1  C   UNL d   1       0.970   0.559  -4.240  0.00  0.00     0.023 A 
ATOM      2  C1  UNL d   1       1.998   1.079  -3.453  0.00  0.00     0.003 A 
ATOM      3  C2  UNL d   1       2.124   0.686  -2.119  0.00  0.00     0.048 A 
ATOM      4  C3  UNL d   1       1.221  -0.229  -1.579  0.00  0.00     0.023 A 
ATOM      5  C4  UNL d   1       0.192  -0.753  -2.363  0.00  0.00     0.048 A 
ATOM      6  C5  UNL d   1       0.069  -0.356  -3.696  0.00  0.00     0.003 A 
ATOM      7  I   UNL d   1       1.408  -0.816   0.406  0.00  0.00    -0.146 I 
ENDROOT
TORSDOF 0
ENDMDL
