MODEL 1
REMARK minimizedAffinity -1.83989334
REMARK minimizedRMSD -1
REMARK  0 active torsions:
REMARK  status: ('A' for Active; 'I' for Inactive)
ROOT
ATOM      1  C   UNL d   1      -1.499   0.167   1.031  0.00  0.00     0.023 A 
ATOM      2  C1  UNL d   1      -2.125   0.094   2.275  0.00  0.00     0.003 A 
ATOM      3  C2  UNL d   1      -1.465  -0.491   3.357  0.00  0.00     0.048 A 
ATOM      4  C3  UNL d   1      -0.178  -1.000   3.189  0.00  0.00     0.023 A 
ATOM      5  C4  UNL d   1       0.453  -0.928   1.946  0.00  0.00     0.048 A 
ATOM      6  C5  UNL d   1      -0.212  -0.343   0.866  0.00  0.00     0.003 A 
ATOM      7  I   UNL d   1       0.808  -1.870   4.798  0.00  0.00    -0.146 I 
ENDROOT
TORSDOF 0
ENDMDL
