MODEL 1
REMARK minimizedAffinity -5.21543694
REMARK minimizedRMSD -1
REMARK  2 active torsions:
REMARK  status: ('A' for Active; 'I' for Inactive)
REMARK    1  A    between atoms: C1_2  and  C2_3 
REMARK    2  A    between atoms: C2_3  and  C3_4 
ROOT
ATOM      1  C3  UNL d   1      -0.185  -0.589   0.196  0.00  0.00    -0.075 A 
ATOM      2  C4  UNL d   1       0.623   0.477   0.620  0.00  0.00     0.002 A 
ATOM      3  C5  UNL d   1       0.108   1.772   0.689  0.00  0.00     0.002 A 
ATOM      4  C6  UNL d   1      -1.214   2.019   0.327  0.00  0.00    -0.004 A 
ATOM      5  C7  UNL d   1      -2.020   0.971  -0.111  0.00  0.00     0.002 A 
ATOM      6  C8  UNL d   1      -1.509  -0.327  -0.177  0.00  0.00     0.002 A 
ENDROOT
BRANCH   1   7
ATOM      7  C2  UNL d   1       0.358  -1.997   0.147  0.00  0.00     0.056 C 
BRANCH   7   8
ATOM      8  C1  UNL d   1      -0.521  -2.977  -0.637  0.00  0.00     0.007 C 
ATOM      9  C   UNL d   1      -0.190  -3.025  -2.122  0.00  0.00     0.009 C 
ENDBRANCH   7   8
ENDBRANCH   1   7
TORSDOF 2
ENDMDL
