MODEL 1
REMARK minimizedAffinity -5.04219389
REMARK minimizedRMSD -1
REMARK  2 active torsions:
REMARK  status: ('A' for Active; 'I' for Inactive)
REMARK    1  A    between atoms: C1_2  and  C2_3 
REMARK    2  A    between atoms: C2_3  and  C3_4 
ROOT
ATOM      1  C3  UNL d   1      -0.105   1.439   0.208  0.00  0.00    -0.075 A 
ATOM      2  C4  UNL d   1      -0.537   2.600   0.865  0.00  0.00     0.002 A 
ATOM      3  C5  UNL d   1       0.334   3.673   1.055  0.00  0.00     0.002 A 
ATOM      4  C6  UNL d   1       1.648   3.596   0.600  0.00  0.00    -0.004 A 
ATOM      5  C7  UNL d   1       2.094   2.441  -0.038  0.00  0.00     0.002 A 
ATOM      6  C8  UNL d   1       1.223   1.367  -0.233  0.00  0.00     0.002 A 
ENDROOT
BRANCH   1   7
ATOM      7  C2  UNL d   1      -1.051   0.286  -0.026  0.00  0.00     0.056 C 
BRANCH   7   8
ATOM      8  C1  UNL d   1      -0.435  -1.091   0.245  0.00  0.00     0.007 C 
ATOM      9  C   UNL d   1      -0.778  -2.123  -0.821  0.00  0.00     0.009 C 
ENDBRANCH   7   8
ENDBRANCH   1   7
TORSDOF 2
ENDMDL
