MODEL 1
REMARK minimizedAffinity -4.90456438
REMARK minimizedRMSD -1
REMARK  2 active torsions:
REMARK  status: ('A' for Active; 'I' for Inactive)
REMARK    1  A    between atoms: C1_2  and  C2_3 
REMARK    2  A    between atoms: C2_3  and  C3_4 
ROOT
ATOM      1  C3  UNL d   1       1.054   0.738   0.171  0.00  0.00    -0.075 A 
ATOM      2  C4  UNL d   1       1.978   1.750   0.470  0.00  0.00     0.002 A 
ATOM      3  C5  UNL d   1       1.593   3.091   0.445  0.00  0.00     0.002 A 
ATOM      4  C6  UNL d   1       0.286   3.438   0.112  0.00  0.00    -0.004 A 
ATOM      5  C7  UNL d   1      -0.636   2.442  -0.204  0.00  0.00     0.002 A 
ATOM      6  C8  UNL d   1      -0.255   1.099  -0.175  0.00  0.00     0.002 A 
ENDROOT
BRANCH   1   7
ATOM      7  C2  UNL d   1       1.456  -0.716   0.225  0.00  0.00     0.056 C 
BRANCH   7   8
ATOM      8  C1  UNL d   1       0.325  -1.661   0.643  0.00  0.00     0.007 C 
ATOM      9  C   UNL d   1      -0.067  -2.648  -0.448  0.00  0.00     0.009 C 
ENDBRANCH   7   8
ENDBRANCH   1   7
TORSDOF 2
ENDMDL
