MODEL 1
REMARK minimizedAffinity -4.99798775
REMARK minimizedRMSD -1
REMARK  2 active torsions:
REMARK  status: ('A' for Active; 'I' for Inactive)
REMARK    1  A    between atoms: C1_2  and  C2_3 
REMARK    2  A    between atoms: C2_3  and  C3_4 
ROOT
ATOM      1  C3  UNL d   1       0.535  -0.205   0.101  0.00  0.00    -0.075 A 
ATOM      2  C4  UNL d   1      -0.766   0.193   0.441  0.00  0.00     0.002 A 
ATOM      3  C5  UNL d   1      -1.074   1.545   0.600  0.00  0.00     0.002 A 
ATOM      4  C6  UNL d   1      -0.086   2.512   0.430  0.00  0.00    -0.004 A 
ATOM      5  C7  UNL d   1       1.213   2.127   0.109  0.00  0.00     0.002 A 
ATOM      6  C8  UNL d   1       1.524   0.775  -0.055  0.00  0.00     0.002 A 
ENDROOT
BRANCH   1   7
ATOM      7  C2  UNL d   1       0.868  -1.664  -0.101  0.00  0.00     0.056 C 
BRANCH   7   8
ATOM      8  C1  UNL d   1      -0.288  -2.495  -0.667  0.00  0.00     0.007 C 
ATOM      9  C   UNL d   1       0.064  -3.207  -1.967  0.00  0.00     0.009 C 
ENDBRANCH   7   8
ENDBRANCH   1   7
TORSDOF 2
ENDMDL
