MODEL 1
REMARK minimizedAffinity -0.720478237
REMARK minimizedRMSD -1
REMARK  2 active torsions:
REMARK  status: ('A' for Active; 'I' for Inactive)
REMARK    1  A    between atoms: C1_2  and  C2_3 
REMARK    2  A    between atoms: C2_3  and  C3_4 
ROOT
ATOM      1  C3  UNL d   1      -0.423  -2.327  -1.099  0.00  0.00    -0.075 A 
ATOM      2  C4  UNL d   1       0.721  -2.026  -1.853  0.00  0.00     0.002 A 
ATOM      3  C5  UNL d   1       1.594  -1.017  -1.444  0.00  0.00     0.002 A 
ATOM      4  C6  UNL d   1       1.330  -0.291  -0.285  0.00  0.00    -0.004 A 
ATOM      5  C7  UNL d   1       0.188  -0.570   0.463  0.00  0.00     0.002 A 
ATOM      6  C8  UNL d   1      -0.685  -1.582   0.059  0.00  0.00     0.002 A 
ENDROOT
BRANCH   1   7
ATOM      7  C2  UNL d   1      -1.355  -3.437  -1.520  0.00  0.00     0.056 C 
BRANCH   7   8
ATOM      8  C1  UNL d   1      -1.763  -4.376  -0.379  0.00  0.00     0.007 C 
ATOM      9  C   UNL d   1      -3.266  -4.409  -0.137  0.00  0.00     0.009 C 
ENDBRANCH   7   8
ENDBRANCH   1   7
TORSDOF 2
ENDMDL
