MODEL 1
REMARK minimizedAffinity -2.70359969
REMARK minimizedRMSD -1
REMARK  2 active torsions:
REMARK  status: ('A' for Active; 'I' for Inactive)
REMARK    1  A    between atoms: C1_2  and  C2_3 
REMARK    2  A    between atoms: C2_3  and  C3_4 
ROOT
ATOM      1  C3  UNL d   1      -0.554  -1.586  -0.157  0.00  0.00    -0.075 A 
ATOM      2  C4  UNL d   1       0.697  -0.966  -0.028  0.00  0.00     0.002 A 
ATOM      3  C5  UNL d   1       0.796   0.329   0.482  0.00  0.00     0.002 A 
ATOM      4  C6  UNL d   1      -0.352   1.023   0.857  0.00  0.00    -0.004 A 
ATOM      5  C7  UNL d   1      -1.601   0.422   0.718  0.00  0.00     0.002 A 
ATOM      6  C8  UNL d   1      -1.703  -0.875   0.212  0.00  0.00     0.002 A 
ENDROOT
BRANCH   1   7
ATOM      7  C2  UNL d   1      -0.665  -2.999  -0.680  0.00  0.00     0.056 C 
BRANCH   7   8
ATOM      8  C1  UNL d   1      -1.033  -3.086  -2.165  0.00  0.00     0.007 C 
ATOM      9  C   UNL d   1       0.149  -2.834  -3.092  0.00  0.00     0.009 C 
ENDBRANCH   7   8
ENDBRANCH   1   7
TORSDOF 2
ENDMDL
