MODEL 1
REMARK minimizedAffinity -4.16977787
REMARK minimizedRMSD -1
REMARK  2 active torsions:
REMARK  status: ('A' for Active; 'I' for Inactive)
REMARK    1  A    between atoms: C1_2  and  C2_3 
REMARK    2  A    between atoms: C2_3  and  C3_4 
ROOT
ATOM      1  C3  UNL d   1      -0.536  -1.919  -1.178  0.00  0.00    -0.075 A 
ATOM      2  C4  UNL d   1      -1.899  -2.128  -1.433  0.00  0.00     0.002 A 
ATOM      3  C5  UNL d   1      -2.328  -3.283  -2.088  0.00  0.00     0.002 A 
ATOM      4  C6  UNL d   1      -1.402  -4.236  -2.505  0.00  0.00    -0.004 A 
ATOM      5  C7  UNL d   1      -0.043  -4.030  -2.272  0.00  0.00     0.002 A 
ATOM      6  C8  UNL d   1       0.388  -2.878  -1.613  0.00  0.00     0.002 A 
ENDROOT
BRANCH   1   7
ATOM      7  C2  UNL d   1      -0.068  -0.686  -0.443  0.00  0.00     0.056 C 
BRANCH   7   8
ATOM      8  C1  UNL d   1      -1.172   0.027   0.346  0.00  0.00     0.007 C 
ATOM      9  C   UNL d   1      -0.783   1.432   0.787  0.00  0.00     0.009 C 
ENDBRANCH   7   8
ENDBRANCH   1   7
TORSDOF 2
ENDMDL
