MODEL 1
REMARK minimizedAffinity -4.18843985
REMARK minimizedRMSD -1
REMARK  2 active torsions:
REMARK  status: ('A' for Active; 'I' for Inactive)
REMARK    1  A    between atoms: C1_2  and  C2_3 
REMARK    2  A    between atoms: C2_3  and  C3_4 
ROOT
ATOM      1  C3  UNL d   1       0.986   1.318  -0.274  0.00  0.00    -0.075 A 
ATOM      2  C4  UNL d   1       2.351   1.170   0.013  0.00  0.00     0.002 A 
ATOM      3  C5  UNL d   1       3.119   2.271   0.393  0.00  0.00     0.002 A 
ATOM      4  C6  UNL d   1       2.536   3.533   0.481  0.00  0.00    -0.004 A 
ATOM      5  C7  UNL d   1       1.185   3.695   0.182  0.00  0.00     0.002 A 
ATOM      6  C8  UNL d   1       0.413   2.594  -0.195  0.00  0.00     0.002 A 
ENDROOT
BRANCH   1   7
ATOM      7  C2  UNL d   1       0.143   0.125  -0.657  0.00  0.00     0.056 C 
BRANCH   7   8
ATOM      8  C1  UNL d   1      -0.365  -0.689   0.537  0.00  0.00     0.007 C 
ATOM      9  C   UNL d   1      -1.488   0.001   1.300  0.00  0.00     0.009 C 
ENDBRANCH   7   8
ENDBRANCH   1   7
TORSDOF 2
ENDMDL
