MODEL 1
REMARK minimizedAffinity -5.39165163
REMARK minimizedRMSD -1
REMARK  2 active torsions:
REMARK  status: ('A' for Active; 'I' for Inactive)
REMARK    1  A    between atoms: C1_2  and  C2_3 
REMARK    2  A    between atoms: C2_3  and  C3_4 
ROOT
ATOM      1  C3  UNL d   1       0.210   0.580  -0.076  0.00  0.00    -0.075 A 
ATOM      2  C4  UNL d   1      -0.902   1.235   0.474  0.00  0.00     0.002 A 
ATOM      3  C5  UNL d   1      -0.890   2.618   0.655  0.00  0.00     0.002 A 
ATOM      4  C6  UNL d   1       0.234   3.361   0.300  0.00  0.00    -0.004 A 
ATOM      5  C7  UNL d   1       1.350   2.718  -0.232  0.00  0.00     0.002 A 
ATOM      6  C8  UNL d   1       1.339   1.335  -0.418  0.00  0.00     0.002 A 
ENDROOT
BRANCH   1   7
ATOM      7  C2  UNL d   1       0.193  -0.913  -0.302  0.00  0.00     0.056 C 
BRANCH   7   8
ATOM      8  C1  UNL d   1      -1.040  -1.415  -1.062  0.00  0.00     0.007 C 
ATOM      9  C   UNL d   1      -0.765  -2.659  -1.897  0.00  0.00     0.009 C 
ENDBRANCH   7   8
ENDBRANCH   1   7
TORSDOF 2
ENDMDL
