MODEL 1
REMARK minimizedAffinity -6.27726984
REMARK minimizedRMSD -1
REMARK  2 active torsions:
REMARK  status: ('A' for Active; 'I' for Inactive)
REMARK    1  A    between atoms: C1_2  and  C2_3 
REMARK    2  A    between atoms: C2_3  and  C3_4 
ROOT
ATOM      1  C3  UNL d   1       1.707   1.354   0.241  0.00  0.00    -0.075 A 
ATOM      2  C4  UNL d   1       0.343   1.064   0.093  0.00  0.00     0.002 A 
ATOM      3  C5  UNL d   1      -0.610   2.081   0.163  0.00  0.00     0.002 A 
ATOM      4  C6  UNL d   1      -0.212   3.397   0.393  0.00  0.00    -0.004 A 
ATOM      5  C7  UNL d   1       1.138   3.694   0.559  0.00  0.00     0.002 A 
ATOM      6  C8  UNL d   1       2.094   2.679   0.484  0.00  0.00     0.002 A 
ENDROOT
BRANCH   1   7
ATOM      7  C2  UNL d   1       2.745   0.263   0.137  0.00  0.00     0.056 C 
BRANCH   7   8
ATOM      8  C1  UNL d   1       2.158  -1.140  -0.052  0.00  0.00     0.007 C 
ATOM      9  C   UNL d   1       1.811  -1.456  -1.501  0.00  0.00     0.009 C 
ENDBRANCH   7   8
ENDBRANCH   1   7
TORSDOF 2
ENDMDL
