MODEL 1
REMARK minimizedAffinity -4.16755009
REMARK minimizedRMSD -1
REMARK  2 active torsions:
REMARK  status: ('A' for Active; 'I' for Inactive)
REMARK    1  A    between atoms: C1_2  and  C2_3 
REMARK    2  A    between atoms: C2_3  and  C3_4 
ROOT
ATOM      1  C3  UNL d   1      -0.091  -0.474   0.512  0.00  0.00    -0.075 A 
ATOM      2  C4  UNL d   1      -0.994   0.598   0.541  0.00  0.00     0.002 A 
ATOM      3  C5  UNL d   1      -0.539   1.902   0.744  0.00  0.00     0.002 A 
ATOM      4  C6  UNL d   1       0.819   2.148   0.930  0.00  0.00    -0.004 A 
ATOM      5  C7  UNL d   1       1.723   1.088   0.920  0.00  0.00     0.002 A 
ATOM      6  C8  UNL d   1       1.272  -0.217   0.712  0.00  0.00     0.002 A 
ENDROOT
BRANCH   1   7
ATOM      7  C2  UNL d   1      -0.573  -1.884   0.263  0.00  0.00     0.056 C 
BRANCH   7   8
ATOM      8  C1  UNL d   1      -0.509  -2.314  -1.206  0.00  0.00     0.007 C 
ATOM      9  C   UNL d   1      -1.345  -3.552  -1.506  0.00  0.00     0.009 C 
ENDBRANCH   7   8
ENDBRANCH   1   7
TORSDOF 2
ENDMDL
