MODEL 1
REMARK minimizedAffinity 0.0216712561
REMARK minimizedRMSD -1
REMARK  2 active torsions:
REMARK  status: ('A' for Active; 'I' for Inactive)
REMARK    1  A    between atoms: C1_2  and  C2_3 
REMARK    2  A    between atoms: C2_3  and  C3_4 
ROOT
ATOM      1  C3  UNL d   1      -1.063  -0.429   0.075  0.00  0.00    -0.075 A 
ATOM      2  C4  UNL d   1      -2.261   0.009  -0.508  0.00  0.00     0.002 A 
ATOM      3  C5  UNL d   1      -2.787   1.262  -0.189  0.00  0.00     0.002 A 
ATOM      4  C6  UNL d   1      -2.130   2.086   0.721  0.00  0.00    -0.004 A 
ATOM      5  C7  UNL d   1      -0.948   1.654   1.319  0.00  0.00     0.002 A 
ATOM      6  C8  UNL d   1      -0.417   0.403   0.999  0.00  0.00     0.002 A 
ENDROOT
BRANCH   1   7
ATOM      7  C2  UNL d   1      -0.473  -1.771  -0.287  0.00  0.00     0.056 C 
BRANCH   7   8
ATOM      8  C1  UNL d   1      -1.507  -2.801  -0.754  0.00  0.00     0.007 C 
ATOM      9  C   UNL d   1      -1.168  -3.424  -2.101  0.00  0.00     0.009 C 
ENDBRANCH   7   8
ENDBRANCH   1   7
TORSDOF 2
ENDMDL
