MODEL 1
REMARK minimizedAffinity -5.57859898
REMARK minimizedRMSD -1
REMARK  2 active torsions:
REMARK  status: ('A' for Active; 'I' for Inactive)
REMARK    1  A    between atoms: C1_2  and  C2_3 
REMARK    2  A    between atoms: C2_3  and  C3_4 
ROOT
ATOM      1  C3  UNL d   1       0.131   0.979   0.324  0.00  0.00    -0.075 A 
ATOM      2  C4  UNL d   1      -0.464   2.247   0.274  0.00  0.00     0.002 A 
ATOM      3  C5  UNL d   1       0.323   3.400   0.278  0.00  0.00     0.002 A 
ATOM      4  C6  UNL d   1       1.711   3.299   0.341  0.00  0.00    -0.004 A 
ATOM      5  C7  UNL d   1       2.312   2.044   0.408  0.00  0.00     0.002 A 
ATOM      6  C8  UNL d   1       1.528   0.889   0.400  0.00  0.00     0.002 A 
ENDROOT
BRANCH   1   7
ATOM      7  C2  UNL d   1      -0.713  -0.273   0.291  0.00  0.00     0.056 C 
BRANCH   7   8
ATOM      8  C1  UNL d   1       0.091  -1.563   0.101  0.00  0.00     0.007 C 
ATOM      9  C   UNL d   1      -0.576  -2.553  -0.845  0.00  0.00     0.009 C 
ENDBRANCH   7   8
ENDBRANCH   1   7
TORSDOF 2
ENDMDL
