MODEL 1
REMARK minimizedAffinity 17.6804504
REMARK minimizedRMSD -1
REMARK  0 active torsions:
REMARK  status: ('A' for Active; 'I' for Inactive)
ROOT
ATOM      1  C1  DEN d   1      -1.312   3.712   0.987  0.00  0.00     0.130 A 
ATOM      2  C2  DEN d   1      -1.111   2.473   0.241  0.00  0.00    -0.031 A 
ATOM      3  C3  DEN d   1      -2.218   2.338  -0.726  0.00  0.00     0.027 A 
ATOM      4  C4  DEN d   1      -4.213   3.920  -1.141  0.00  0.00     0.027 A 
ATOM      5  C5  DEN d   1      -4.817   5.092  -0.743  0.00  0.00    -0.003 A 
ATOM      6  C6  DEN d   1      -4.319   5.862   0.273  0.00  0.00     0.001 A 
ATOM      7  C7  DEN d   1      -3.157   5.493   0.898  0.00  0.00     0.017 A 
ATOM      8  C8  DEN d   1      -2.546   4.309   0.508  0.00  0.00    -0.094 A 
ATOM      9  C9  DEN d   1      -3.058   3.550  -0.531  0.00  0.00    -0.072 A 
ENDROOT
TORSDOF 0
ENDMDL
