MODEL 1
REMARK minimizedAffinity 13.0349169
REMARK minimizedRMSD -1
REMARK  0 active torsions:
REMARK  status: ('A' for Active; 'I' for Inactive)
ROOT
ATOM      1  C1  DEN d   1      -2.526   1.893   3.758  0.00  0.00     0.130 A 
ATOM      2  C2  DEN d   1      -2.118   0.538   4.117  0.00  0.00    -0.031 A 
ATOM      3  C3  DEN d   1      -3.114  -0.004   5.062  0.00  0.00     0.027 A 
ATOM      4  C4  DEN d   1      -5.241   1.117   5.997  0.00  0.00     0.027 A 
ATOM      5  C5  DEN d   1      -5.999   2.267   5.992  0.00  0.00    -0.003 A 
ATOM      6  C6  DEN d   1      -5.637   3.376   5.275  0.00  0.00     0.001 A 
ATOM      7  C7  DEN d   1      -4.510   3.343   4.496  0.00  0.00     0.017 A 
ATOM      8  C8  DEN d   1      -3.737   2.190   4.502  0.00  0.00    -0.094 A 
ATOM      9  C9  DEN d   1      -4.126   1.075   5.224  0.00  0.00    -0.072 A 
ENDROOT
TORSDOF 0
ENDMDL
