MODEL 1
REMARK minimizedAffinity 18.7289276
REMARK minimizedRMSD -1
REMARK  0 active torsions:
REMARK  status: ('A' for Active; 'I' for Inactive)
ROOT
ATOM      1  C1  DEN d   1      -1.853  -1.681   4.233  0.00  0.00     0.130 A 
ATOM      2  C2  DEN d   1      -2.396  -0.342   4.446  0.00  0.00    -0.031 A 
ATOM      3  C3  DEN d   1      -2.908   0.153   3.152  0.00  0.00     0.027 A 
ATOM      4  C4  DEN d   1      -2.917  -1.019   0.854  0.00  0.00     0.027 A 
ATOM      5  C5  DEN d   1      -2.555  -2.161   0.176  0.00  0.00    -0.003 A 
ATOM      6  C6  DEN d   1      -1.908  -3.201   0.789  0.00  0.00     0.001 A 
ATOM      7  C7  DEN d   1      -1.643  -3.138   2.132  0.00  0.00     0.017 A 
ATOM      8  C8  DEN d   1      -1.999  -1.987   2.821  0.00  0.00    -0.094 A 
ATOM      9  C9  DEN d   1      -2.664  -0.951   2.186  0.00  0.00    -0.072 A 
ENDROOT
TORSDOF 0
ENDMDL
