MODEL 1
REMARK minimizedAffinity 7.58031225
REMARK minimizedRMSD -1
REMARK  0 active torsions:
REMARK  status: ('A' for Active; 'I' for Inactive)
ROOT
ATOM      1  C1  DEN d   1       3.634  -1.661  -3.886  0.00  0.00     0.130 A 
ATOM      2  C2  DEN d   1       4.862  -1.063  -3.368  0.00  0.00    -0.031 A 
ATOM      3  C3  DEN d   1       6.000  -1.875  -3.842  0.00  0.00     0.027 A 
ATOM      4  C4  DEN d   1       5.981  -3.986  -5.325  0.00  0.00     0.027 A 
ATOM      5  C5  DEN d   1       5.176  -4.876  -6.000  0.00  0.00    -0.003 A 
ATOM      6  C6  DEN d   1       3.809  -4.778  -5.990  0.00  0.00     0.001 A 
ATOM      7  C7  DEN d   1       3.209  -3.740  -5.327  0.00  0.00     0.017 A 
ATOM      8  C8  DEN d   1       4.014  -2.843  -4.638  0.00  0.00    -0.094 A 
ATOM      9  C9  DEN d   1       5.394  -2.952  -4.671  0.00  0.00    -0.072 A 
ENDROOT
TORSDOF 0
ENDMDL
