MODEL 1
REMARK minimizedAffinity 16.3595142
REMARK minimizedRMSD -1
REMARK  0 active torsions:
REMARK  status: ('A' for Active; 'I' for Inactive)
ROOT
ATOM      1  C1  DEN d   1      -2.352  -0.135   4.978  0.00  0.00     0.130 A 
ATOM      2  C2  DEN d   1      -2.770  -1.515   5.213  0.00  0.00    -0.031 A 
ATOM      3  C3  DEN d   1      -2.855  -2.195   3.905  0.00  0.00     0.027 A 
ATOM      4  C4  DEN d   1      -2.377  -1.252   1.552  0.00  0.00     0.027 A 
ATOM      5  C5  DEN d   1      -2.004  -0.129   0.847  0.00  0.00    -0.003 A 
ATOM      6  C6  DEN d   1      -1.756   1.070   1.461  0.00  0.00     0.001 A 
ATOM      7  C7  DEN d   1      -1.834   1.162   2.826  0.00  0.00     0.017 A 
ATOM      8  C8  DEN d   1      -2.217   0.036   3.543  0.00  0.00    -0.094 A 
ATOM      9  C9  DEN d   1      -2.452  -1.170   2.904  0.00  0.00    -0.072 A 
ENDROOT
TORSDOF 0
ENDMDL
