MODEL 1
REMARK minimizedAffinity 10.6369038
REMARK minimizedRMSD -1
REMARK  0 active torsions:
REMARK  status: ('A' for Active; 'I' for Inactive)
ROOT
ATOM      1  C1  DEN d   1       3.143  -3.922  -2.998  0.00  0.00     0.130 A 
ATOM      2  C2  DEN d   1       2.515  -2.641  -3.310  0.00  0.00    -0.031 A 
ATOM      3  C3  DEN d   1       3.187  -2.082  -4.500  0.00  0.00     0.027 A 
ATOM      4  C4  DEN d   1       5.125  -3.071  -5.885  0.00  0.00     0.027 A 
ATOM      5  C5  DEN d   1       5.996  -4.132  -5.999  0.00  0.00    -0.003 A 
ATOM      6  C6  DEN d   1       6.000  -5.172  -5.108  0.00  0.00     0.001 A 
ATOM      7  C7  DEN d   1       5.085  -5.196  -4.089  0.00  0.00     0.017 A 
ATOM      8  C8  DEN d   1       4.208  -4.127  -3.963  0.00  0.00    -0.094 A 
ATOM      9  C9  DEN d   1       4.212  -3.090  -4.881  0.00  0.00    -0.072 A 
ENDROOT
TORSDOF 0
ENDMDL
