MODEL 1
REMARK minimizedAffinity 9.83366776
REMARK minimizedRMSD -1
REMARK  0 active torsions:
REMARK  status: ('A' for Active; 'I' for Inactive)
ROOT
ATOM      1  C1  DEN d   1      -5.918  -0.317   5.999  0.00  0.00     0.130 A 
ATOM      2  C2  DEN d   1      -6.000   1.140   5.945  0.00  0.00    -0.031 A 
ATOM      3  C3  DEN d   1      -4.651   1.663   5.646  0.00  0.00     0.027 A 
ATOM      4  C4  DEN d   1      -2.457   0.364   5.261  0.00  0.00     0.027 A 
ATOM      5  C5  DEN d   1      -1.887  -0.889   5.218  0.00  0.00    -0.003 A 
ATOM      6  C6  DEN d   1      -2.607  -2.028   5.464  0.00  0.00     0.001 A 
ATOM      7  C7  DEN d   1      -3.950  -1.940   5.720  0.00  0.00     0.017 A 
ATOM      8  C8  DEN d   1      -4.530  -0.679   5.772  0.00  0.00    -0.094 A 
ATOM      9  C9  DEN d   1      -3.788   0.459   5.508  0.00  0.00    -0.072 A 
ENDROOT
TORSDOF 0
ENDMDL
