MODEL 1
REMARK minimizedAffinity 8.2763195
REMARK minimizedRMSD -1
REMARK  0 active torsions:
REMARK  status: ('A' for Active; 'I' for Inactive)
ROOT
ATOM      1  C1  DEN d   1       4.396  -5.426   5.281  0.00  0.00     0.130 A 
ATOM      2  C2  DEN d   1       5.656  -5.257   6.000  0.00  0.00    -0.031 A 
ATOM      3  C3  DEN d   1       6.000  -3.821   5.986  0.00  0.00     0.027 A 
ATOM      4  C4  DEN d   1       4.709  -1.853   4.930  0.00  0.00     0.027 A 
ATOM      5  C5  DEN d   1       3.591  -1.504   4.204  0.00  0.00    -0.003 A 
ATOM      6  C6  DEN d   1       2.689  -2.435   3.761  0.00  0.00     0.001 A 
ATOM      7  C7  DEN d   1       2.865  -3.756   4.077  0.00  0.00     0.017 A 
ATOM      8  C8  DEN d   1       3.993  -4.116   4.803  0.00  0.00    -0.094 A 
ATOM      9  C9  DEN d   1       4.887  -3.159   5.253  0.00  0.00    -0.072 A 
ENDROOT
TORSDOF 0
ENDMDL
