MODEL 1
REMARK minimizedAffinity -0.386844814
REMARK minimizedRMSD -1
REMARK  0 active torsions:
REMARK  status: ('A' for Active; 'I' for Inactive)
ROOT
ATOM      1  C1  DEN d   1       3.417  -1.220   5.364  0.00  0.00     0.130 A 
ATOM      2  C2  DEN d   1       2.228  -1.783   5.998  0.00  0.00    -0.031 A 
ATOM      3  C3  DEN d   1       2.320  -3.255   5.915  0.00  0.00     0.027 A 
ATOM      4  C4  DEN d   1       4.180  -4.709   4.876  0.00  0.00     0.027 A 
ATOM      5  C5  DEN d   1       5.385  -4.682   4.210  0.00  0.00    -0.003 A 
ATOM      6  C6  DEN d   1       5.997  -3.509   3.854  0.00  0.00     0.001 A 
ATOM      7  C7  DEN d   1       5.427  -2.313   4.203  0.00  0.00     0.017 A 
ATOM      8  C8  DEN d   1       4.209  -2.332   4.869  0.00  0.00    -0.094 A 
ATOM      9  C9  DEN d   1       3.612  -3.528   5.231  0.00  0.00    -0.072 A 
ENDROOT
TORSDOF 0
ENDMDL
