MODEL 1
REMARK minimizedAffinity 14.3457212
REMARK minimizedRMSD -1
REMARK  0 active torsions:
REMARK  status: ('A' for Active; 'I' for Inactive)
ROOT
ATOM      1  C1  DEN d   1       0.636   2.964   1.581  0.00  0.00     0.130 A 
ATOM      2  C2  DEN d   1       0.905   4.378   1.335  0.00  0.00    -0.031 A 
ATOM      3  C3  DEN d   1      -0.273   4.956   0.657  0.00  0.00     0.027 A 
ATOM      4  C4  DEN d   1      -2.477   3.806  -0.028  0.00  0.00     0.027 A 
ATOM      5  C5  DEN d   1      -3.164   2.612  -0.039  0.00  0.00    -0.003 A 
ATOM      6  C6  DEN d   1      -2.624   1.454   0.454  0.00  0.00     0.001 A 
ATOM      7  C7  DEN d   1      -1.377   1.474   1.021  0.00  0.00     0.017 A 
ATOM      8  C8  DEN d   1      -0.675   2.673   1.029  0.00  0.00    -0.094 A 
ATOM      9  C9  DEN d   1      -1.243   3.835   0.536  0.00  0.00    -0.072 A 
ENDROOT
TORSDOF 0
ENDMDL
