MODEL 1
REMARK minimizedAffinity 14.5558453
REMARK minimizedRMSD -1
REMARK  0 active torsions:
REMARK  status: ('A' for Active; 'I' for Inactive)
ROOT
ATOM      1  C1  DEN d   1       5.922  -1.949   4.800  0.00  0.00     0.130 A 
ATOM      2  C2  DEN d   1       5.230  -0.704   4.477  0.00  0.00    -0.031 A 
ATOM      3  C3  DEN d   1       3.787  -0.910   4.714  0.00  0.00     0.027 A 
ATOM      4  C4  DEN d   1       2.565  -3.022   5.550  0.00  0.00     0.027 A 
ATOM      5  C5  DEN d   1       2.728  -4.331   5.944  0.00  0.00    -0.003 A 
ATOM      6  C6  DEN d   1       3.953  -4.944   5.953  0.00  0.00     0.001 A 
ATOM      7  C7  DEN d   1       5.070  -4.232   5.601  0.00  0.00     0.017 A 
ATOM      8  C8  DEN d   1       4.912  -2.914   5.195  0.00  0.00    -0.094 A 
ATOM      9  C9  DEN d   1       3.667  -2.309   5.205  0.00  0.00    -0.072 A 
ENDROOT
TORSDOF 0
ENDMDL
