MODEL 1
REMARK minimizedAffinity 3.26669598
REMARK minimizedRMSD -1
REMARK  0 active torsions:
REMARK  status: ('A' for Active; 'I' for Inactive)
ROOT
ATOM      1  C1  DEN d   1       6.000  -2.051  -3.858  0.00  0.00     0.130 A 
ATOM      2  C2  DEN d   1       4.920  -1.197  -3.371  0.00  0.00    -0.031 A 
ATOM      3  C3  DEN d   1       3.642  -1.758  -3.853  0.00  0.00     0.027 A 
ATOM      4  C4  DEN d   1       3.233  -3.858  -5.295  0.00  0.00     0.027 A 
ATOM      5  C5  DEN d   1       3.842  -4.899  -5.960  0.00  0.00    -0.003 A 
ATOM      6  C6  DEN d   1       5.204  -5.043  -5.999  0.00  0.00     0.001 A 
ATOM      7  C7  DEN d   1       6.000  -4.157  -5.323  0.00  0.00     0.017 A 
ATOM      8  C8  DEN d   1       5.393  -3.100  -4.657  0.00  0.00    -0.094 A 
ATOM      9  C9  DEN d   1       4.015  -2.978  -4.619  0.00  0.00    -0.072 A 
ENDROOT
TORSDOF 0
ENDMDL
