MODEL 1
REMARK minimizedAffinity 2.49116945
REMARK minimizedRMSD -1
REMARK  0 active torsions:
REMARK  status: ('A' for Active; 'I' for Inactive)
ROOT
ATOM      1  C1  DEN d   1       6.000   3.043  -4.509  0.00  0.00     0.130 A 
ATOM      2  C2  DEN d   1       4.964   2.597  -5.437  0.00  0.00    -0.031 A 
ATOM      3  C3  DEN d   1       3.749   3.397  -5.185  0.00  0.00     0.027 A 
ATOM      4  C4  DEN d   1       3.373   5.277  -3.459  0.00  0.00     0.027 A 
ATOM      5  C5  DEN d   1       3.957   6.000  -2.442  0.00  0.00    -0.003 A 
ATOM      6  C6  DEN d   1       5.240   5.767  -2.024  0.00  0.00     0.001 A 
ATOM      7  C7  DEN d   1       5.998   4.817  -2.655  0.00  0.00     0.017 A 
ATOM      8  C8  DEN d   1       5.415   4.078  -3.676  0.00  0.00    -0.094 A 
ATOM      9  C9  DEN d   1       4.120   4.337  -4.093  0.00  0.00    -0.072 A 
ENDROOT
TORSDOF 0
ENDMDL
