MODEL 1
REMARK minimizedAffinity 2.10289788
REMARK minimizedRMSD -1
REMARK  0 active torsions:
REMARK  status: ('A' for Active; 'I' for Inactive)
ROOT
ATOM      1  C1  DEN d   1       4.668   5.261  -0.691  0.00  0.00     0.130 A 
ATOM      2  C2  DEN d   1       5.999   5.603  -1.185  0.00  0.00    -0.031 A 
ATOM      3  C3  DEN d   1       5.880   5.951  -2.615  0.00  0.00     0.027 A 
ATOM      4  C4  DEN d   1       3.774   5.998  -4.103  0.00  0.00     0.027 A 
ATOM      5  C5  DEN d   1       2.415   5.775  -4.133  0.00  0.00    -0.003 A 
ATOM      6  C6  DEN d   1       1.723   5.336  -3.035  0.00  0.00     0.001 A 
ATOM      7  C7  DEN d   1       2.381   5.149  -1.848  0.00  0.00     0.017 A 
ATOM      8  C8  DEN d   1       3.752   5.365  -1.813  0.00  0.00    -0.094 A 
ATOM      9  C9  DEN d   1       4.432   5.821  -2.930  0.00  0.00    -0.072 A 
ENDROOT
TORSDOF 0
ENDMDL
