MODEL 1
REMARK minimizedAffinity 3.64634705
REMARK minimizedRMSD -1
REMARK  0 active torsions:
REMARK  status: ('A' for Active; 'I' for Inactive)
ROOT
ATOM      1  C1  DEN d   1      -0.819  -2.650  -3.038  0.00  0.00     0.130 A 
ATOM      2  C2  DEN d   1       0.596  -2.478  -2.723  0.00  0.00    -0.031 A 
ATOM      3  C3  DEN d   1       0.737  -2.451  -1.254  0.00  0.00     0.027 A 
ATOM      4  C4  DEN d   1      -1.088  -2.663   0.556  0.00  0.00     0.027 A 
ATOM      5  C5  DEN d   1      -2.440  -2.813   0.775  0.00  0.00    -0.003 A 
ATOM      6  C6  DEN d   1      -3.342  -2.884  -0.253  0.00  0.00     0.001 A 
ATOM      7  C7  DEN d   1      -2.899  -2.851  -1.549  0.00  0.00     0.017 A 
ATOM      8  C8  DEN d   1      -1.539  -2.693  -1.778  0.00  0.00    -0.094 A 
ATOM      9  C9  DEN d   1      -0.641  -2.634  -0.725  0.00  0.00    -0.072 A 
ENDROOT
TORSDOF 0
ENDMDL
