MODEL 1
REMARK minimizedAffinity -4.24710989
REMARK minimizedRMSD -1
REMARK  2 active torsions:
REMARK  status: ('A' for Active; 'I' for Inactive)
REMARK    1  A    between atoms: C1_2  and  C2_3 
REMARK    2  A    between atoms: C2_3  and  C3_4 
ROOT
ATOM      1  C3  UNL d   1       1.751   0.836   0.448  0.00  0.00    -0.075 A 
ATOM      2  C4  UNL d   1       1.783   1.249   1.788  0.00  0.00     0.002 A 
ATOM      3  C5  UNL d   1       2.671   2.243   2.202  0.00  0.00     0.002 A 
ATOM      4  C6  UNL d   1       3.543   2.828   1.286  0.00  0.00    -0.004 A 
ATOM      5  C7  UNL d   1       3.531   2.413  -0.044  0.00  0.00     0.002 A 
ATOM      6  C8  UNL d   1       2.640   1.423  -0.462  0.00  0.00     0.002 A 
ENDROOT
BRANCH   1   7
ATOM      7  C2  UNL d   1       0.772  -0.218  -0.012  0.00  0.00     0.056 C 
BRANCH   7   8
ATOM      8  C1  UNL d   1       0.069   0.118  -1.331  0.00  0.00     0.007 C 
ATOM      9  C   UNL d   1      -1.238   0.876  -1.139  0.00  0.00     0.009 C 
ENDBRANCH   7   8
ENDBRANCH   1   7
TORSDOF 2
ENDMDL
