MODEL 1
REMARK minimizedAffinity -2.62564278
REMARK minimizedRMSD -1
REMARK  2 active torsions:
REMARK  status: ('A' for Active; 'I' for Inactive)
REMARK    1  A    between atoms: C1_2  and  C2_3 
REMARK    2  A    between atoms: C2_3  and  C3_4 
ROOT
ATOM      1  C3  UNL d   1       0.554   0.056   0.437  0.00  0.00    -0.075 A 
ATOM      2  C4  UNL d   1      -0.561   0.517  -0.277  0.00  0.00     0.002 A 
ATOM      3  C5  UNL d   1      -1.790  -0.135  -0.171  0.00  0.00     0.002 A 
ATOM      4  C6  UNL d   1      -1.916  -1.261   0.640  0.00  0.00    -0.004 A 
ATOM      5  C7  UNL d   1      -0.811  -1.738   1.341  0.00  0.00     0.002 A 
ATOM      6  C8  UNL d   1       0.418  -1.084   1.240  0.00  0.00     0.002 A 
ENDROOT
BRANCH   1   7
ATOM      7  C2  UNL d   1       1.879   0.775   0.350  0.00  0.00     0.056 C 
BRANCH   7   8
ATOM      8  C1  UNL d   1       2.103   1.806   1.461  0.00  0.00     0.007 C 
ATOM      9  C   UNL d   1       3.108   2.887   1.084  0.00  0.00     0.009 C 
ENDBRANCH   7   8
ENDBRANCH   1   7
TORSDOF 2
ENDMDL
