MODEL 1
REMARK minimizedAffinity -3.55841947
REMARK minimizedRMSD -1
REMARK  2 active torsions:
REMARK  status: ('A' for Active; 'I' for Inactive)
REMARK    1  A    between atoms: C1_2  and  C2_3 
REMARK    2  A    between atoms: C2_3  and  C3_4 
ROOT
ATOM      1  C3  UNL d   1       0.401   0.198  -0.183  0.00  0.00    -0.075 A 
ATOM      2  C4  UNL d   1      -0.150   0.596  -1.409  0.00  0.00     0.002 A 
ATOM      3  C5  UNL d   1      -1.512   0.433  -1.660  0.00  0.00     0.002 A 
ATOM      4  C6  UNL d   1      -2.338  -0.138  -0.694  0.00  0.00    -0.004 A 
ATOM      5  C7  UNL d   1      -1.798  -0.553   0.522  0.00  0.00     0.002 A 
ATOM      6  C8  UNL d   1      -0.436  -0.387   0.777  0.00  0.00     0.002 A 
ENDROOT
BRANCH   1   7
ATOM      7  C2  UNL d   1       1.870   0.398   0.106  0.00  0.00     0.056 C 
BRANCH   7   8
ATOM      8  C1  UNL d   1       2.249   1.846   0.434  0.00  0.00     0.007 C 
ATOM      9  C   UNL d   1       2.038   2.206   1.899  0.00  0.00     0.009 C 
ENDBRANCH   7   8
ENDBRANCH   1   7
TORSDOF 2
ENDMDL
