MODEL 1
REMARK minimizedAffinity -4.68712711
REMARK minimizedRMSD -1
REMARK  2 active torsions:
REMARK  status: ('A' for Active; 'I' for Inactive)
REMARK    1  A    between atoms: C1_2  and  C2_3 
REMARK    2  A    between atoms: C2_3  and  C3_4 
ROOT
ATOM      1  C3  UNL d   1       0.076  -0.111  -0.217  0.00  0.00    -0.075 A 
ATOM      2  C4  UNL d   1      -0.541  -0.100  -1.477  0.00  0.00     0.002 A 
ATOM      3  C5  UNL d   1      -1.903  -0.376  -1.600  0.00  0.00     0.002 A 
ATOM      4  C6  UNL d   1      -2.661  -0.675  -0.471  0.00  0.00    -0.004 A 
ATOM      5  C7  UNL d   1      -2.055  -0.705   0.783  0.00  0.00     0.002 A 
ATOM      6  C8  UNL d   1      -0.694  -0.425   0.910  0.00  0.00     0.002 A 
ENDROOT
BRANCH   1   7
ATOM      7  C2  UNL d   1       1.544   0.215  -0.073  0.00  0.00     0.056 C 
BRANCH   7   8
ATOM      8  C1  UNL d   1       1.882   1.028   1.181  0.00  0.00     0.007 C 
ATOM      9  C   UNL d   1       2.634   2.316   0.877  0.00  0.00     0.009 C 
ENDBRANCH   7   8
ENDBRANCH   1   7
TORSDOF 2
ENDMDL
