MODEL 1
REMARK minimizedAffinity -1.20245445
REMARK minimizedRMSD -1
REMARK  2 active torsions:
REMARK  status: ('A' for Active; 'I' for Inactive)
REMARK    1  A    between atoms: C1_2  and  C2_3 
REMARK    2  A    between atoms: C2_3  and  C3_4 
ROOT
ATOM      1  C3  UNL d   1      -4.799   5.851   2.535  0.00  0.00    -0.075 A 
ATOM      2  C4  UNL d   1      -3.591   5.684   3.228  0.00  0.00     0.002 A 
ATOM      3  C5  UNL d   1      -3.574   5.643   4.622  0.00  0.00     0.002 A 
ATOM      4  C6  UNL d   1      -4.760   5.780   5.341  0.00  0.00    -0.004 A 
ATOM      5  C7  UNL d   1      -5.963   5.963   4.664  0.00  0.00     0.002 A 
ATOM      6  C8  UNL d   1      -5.984   5.999   3.268  0.00  0.00     0.002 A 
ENDROOT
BRANCH   1   7
ATOM      7  C2  UNL d   1      -4.828   5.866   1.026  0.00  0.00     0.056 C 
BRANCH   7   8
ATOM      8  C1  UNL d   1      -4.241   4.608   0.378  0.00  0.00     0.007 C 
ATOM      9  C   UNL d   1      -4.900   3.321   0.858  0.00  0.00     0.009 C 
ENDBRANCH   7   8
ENDBRANCH   1   7
TORSDOF 2
ENDMDL
