MODEL 1
REMARK minimizedAffinity -4.09314203
REMARK minimizedRMSD -1
REMARK  2 active torsions:
REMARK  status: ('A' for Active; 'I' for Inactive)
REMARK    1  A    between atoms: C1_2  and  C2_3 
REMARK    2  A    between atoms: C2_3  and  C3_4 
ROOT
ATOM      1  C3  UNL d   1       0.771  -0.015   0.058  0.00  0.00    -0.075 A 
ATOM      2  C4  UNL d   1       0.386   0.370  -1.235  0.00  0.00     0.002 A 
ATOM      3  C5  UNL d   1      -0.939   0.233  -1.649  0.00  0.00     0.002 A 
ATOM      4  C6  UNL d   1      -1.892  -0.298  -0.783  0.00  0.00    -0.004 A 
ATOM      5  C7  UNL d   1      -1.517  -0.698   0.498  0.00  0.00     0.002 A 
ATOM      6  C8  UNL d   1      -0.193  -0.558   0.917  0.00  0.00     0.002 A 
ENDROOT
BRANCH   1   7
ATOM      7  C2  UNL d   1       2.198   0.158   0.522  0.00  0.00     0.056 C 
BRANCH   7   8
ATOM      8  C1  UNL d   1       2.747   1.577   0.337  0.00  0.00     0.007 C 
ATOM      9  C   UNL d   1       2.448   2.495   1.515  0.00  0.00     0.009 C 
ENDBRANCH   7   8
ENDBRANCH   1   7
TORSDOF 2
ENDMDL
