MODEL 1
REMARK minimizedAffinity -5.83219624
REMARK minimizedRMSD -1
REMARK  2 active torsions:
REMARK  status: ('A' for Active; 'I' for Inactive)
REMARK    1  A    between atoms: C1_2  and  C2_3 
REMARK    2  A    between atoms: C2_3  and  C3_4 
ROOT
ATOM      1  C3  UNL d   1       3.486   2.991  -1.416  0.00  0.00    -0.075 A 
ATOM      2  C4  UNL d   1       3.594   4.138  -0.615  0.00  0.00     0.002 A 
ATOM      3  C5  UNL d   1       3.078   4.148   0.681  0.00  0.00     0.002 A 
ATOM      4  C6  UNL d   1       2.440   3.018   1.189  0.00  0.00    -0.004 A 
ATOM      5  C7  UNL d   1       2.313   1.879   0.396  0.00  0.00     0.002 A 
ATOM      6  C8  UNL d   1       2.832   1.865  -0.899  0.00  0.00     0.002 A 
ENDROOT
BRANCH   1   7
ATOM      7  C2  UNL d   1       4.069   2.964  -2.808  0.00  0.00     0.056 C 
BRANCH   7   8
ATOM      8  C1  UNL d   1       5.431   3.657  -2.929  0.00  0.00     0.007 C 
ATOM      9  C   UNL d   1       5.982   3.655  -4.348  0.00  0.00     0.009 C 
ENDBRANCH   7   8
ENDBRANCH   1   7
TORSDOF 2
ENDMDL
