MODEL 1
REMARK minimizedAffinity -3.57930255
REMARK minimizedRMSD -1
REMARK  2 active torsions:
REMARK  status: ('A' for Active; 'I' for Inactive)
REMARK    1  A    between atoms: C1_2  and  C2_3 
REMARK    2  A    between atoms: C2_3  and  C3_4 
ROOT
ATOM      1  C3  UNL d   1       0.605   0.483  -0.313  0.00  0.00    -0.075 A 
ATOM      2  C4  UNL d   1      -0.041   0.886  -1.491  0.00  0.00     0.002 A 
ATOM      3  C5  UNL d   1      -1.365   0.521  -1.733  0.00  0.00     0.002 A 
ATOM      4  C6  UNL d   1      -2.056  -0.259  -0.808  0.00  0.00    -0.004 A 
ATOM      5  C7  UNL d   1      -1.419  -0.679   0.358  0.00  0.00     0.002 A 
ATOM      6  C8  UNL d   1      -0.095  -0.311   0.604  0.00  0.00     0.002 A 
ENDROOT
BRANCH   1   7
ATOM      7  C2  UNL d   1       2.029   0.900  -0.031  0.00  0.00     0.056 C 
BRANCH   7   8
ATOM      8  C1  UNL d   1       2.155   2.052   0.971  0.00  0.00     0.007 C 
ATOM      9  C   UNL d   1       3.428   2.868   0.792  0.00  0.00     0.009 C 
ENDBRANCH   7   8
ENDBRANCH   1   7
TORSDOF 2
ENDMDL
