MODEL 1
REMARK minimizedAffinity -3.05439186
REMARK minimizedRMSD -1
REMARK  2 active torsions:
REMARK  status: ('A' for Active; 'I' for Inactive)
REMARK    1  A    between atoms: C1_2  and  C2_3 
REMARK    2  A    between atoms: C2_3  and  C3_4 
ROOT
ATOM      1  C3  UNL d   1       1.004   0.045   0.185  0.00  0.00    -0.075 A 
ATOM      2  C4  UNL d   1      -0.005   0.526  -0.662  0.00  0.00     0.002 A 
ATOM      3  C5  UNL d   1      -1.266  -0.070  -0.672  0.00  0.00     0.002 A 
ATOM      4  C6  UNL d   1      -1.532  -1.160   0.154  0.00  0.00    -0.004 A 
ATOM      5  C7  UNL d   1      -0.532  -1.657   0.987  0.00  0.00     0.002 A 
ATOM      6  C8  UNL d   1       0.729  -1.059   1.003  0.00  0.00     0.002 A 
ENDROOT
BRANCH   1   7
ATOM      7  C2  UNL d   1       2.361   0.704   0.222  0.00  0.00     0.056 C 
BRANCH   7   8
ATOM      8  C1  UNL d   1       2.353   2.115   0.820  0.00  0.00     0.007 C 
ATOM      9  C   UNL d   1       3.581   2.934   0.443  0.00  0.00     0.009 C 
ENDBRANCH   7   8
ENDBRANCH   1   7
TORSDOF 2
ENDMDL
