MODEL 1
REMARK minimizedAffinity -3.93805861
REMARK minimizedRMSD -1
REMARK  2 active torsions:
REMARK  status: ('A' for Active; 'I' for Inactive)
REMARK    1  A    between atoms: C1_2  and  C2_3 
REMARK    2  A    between atoms: C2_3  and  C3_4 
ROOT
ATOM      1  C3  UNL d   1      -1.106  -0.140   0.368  0.00  0.00    -0.075 A 
ATOM      2  C4  UNL d   1      -0.112   0.330  -0.503  0.00  0.00     0.002 A 
ATOM      3  C5  UNL d   1       1.203  -0.121  -0.388  0.00  0.00     0.002 A 
ATOM      4  C6  UNL d   1       1.543  -1.038   0.604  0.00  0.00    -0.004 A 
ATOM      5  C7  UNL d   1       0.568  -1.500   1.485  0.00  0.00     0.002 A 
ATOM      6  C8  UNL d   1      -0.750  -1.054   1.369  0.00  0.00     0.002 A 
ENDROOT
BRANCH   1   7
ATOM      7  C2  UNL d   1      -2.537   0.322   0.229  0.00  0.00     0.056 C 
BRANCH   7   8
ATOM      8  C1  UNL d   1      -3.424  -0.631  -0.578  0.00  0.00     0.007 C 
ATOM      9  C   UNL d   1      -2.682  -1.329  -1.710  0.00  0.00     0.009 C 
ENDBRANCH   7   8
ENDBRANCH   1   7
TORSDOF 2
ENDMDL
