MODEL 1
REMARK minimizedAffinity 10.7040319
REMARK minimizedRMSD -1
REMARK  1 active torsions:
REMARK  status: ('A' for Active; 'I' for Inactive)
REMARK    1  A    between atoms: N_2  and  C1_3 
ROOT
ATOM      1  C1  UNL d   1       3.802   1.329  -1.500  0.00  0.00     0.143 A 
ATOM      2  C2  UNL d   1       2.711   0.463  -1.625  0.00  0.00    -0.057 A 
ATOM      3  C3  UNL d   1       2.148  -0.163  -0.506  0.00  0.00     0.033 A 
ATOM      4  C4  UNL d   1       2.687   0.046   0.759  0.00  0.00    -0.042 A 
ATOM      5  C5  UNL d   1       3.787   0.884   0.904  0.00  0.00     0.033 A 
ATOM      6  C6  UNL d   1       4.341   1.511  -0.216  0.00  0.00    -0.057 A 
ENDROOT
BRANCH   1   7
ATOM      7  N   UNL d   1       4.468   1.903  -2.585  0.00  0.00    -0.732 N 
ATOM      8  C   UNL d   1       5.881   2.207  -2.507  0.00  0.00     0.284 C 
ATOM      9  H3  UNL d   1       4.178   1.504  -3.475  0.00  0.00     0.395 HD
ENDBRANCH   1   7
TORSDOF 1
ENDMDL
