MODEL 1
REMARK minimizedAffinity 6.20395231
REMARK minimizedRMSD -1
REMARK  1 active torsions:
REMARK  status: ('A' for Active; 'I' for Inactive)
REMARK    1  A    between atoms: N_2  and  C1_3 
ROOT
ATOM      1  C1  UNL d   1       3.682   0.756  -1.040  0.00  0.00     0.143 A 
ATOM      2  C2  UNL d   1       3.926   1.012   0.313  0.00  0.00    -0.057 A 
ATOM      3  C3  UNL d   1       3.205   0.354   1.318  0.00  0.00     0.033 A 
ATOM      4  C4  UNL d   1       2.204  -0.552   0.984  0.00  0.00    -0.042 A 
ATOM      5  C5  UNL d   1       1.928  -0.803  -0.355  0.00  0.00     0.033 A 
ATOM      6  C6  UNL d   1       2.655  -0.149  -1.354  0.00  0.00    -0.057 A 
ENDROOT
BRANCH   1   7
ATOM      7  N   UNL d   1       4.296   1.450  -2.086  0.00  0.00    -0.732 N 
ATOM      8  C   UNL d   1       5.687   1.840  -1.995  0.00  0.00     0.284 C 
ATOM      9  H3  UNL d   1       4.023   1.097  -3.000  0.00  0.00     0.395 HD
ENDBRANCH   1   7
TORSDOF 1
ENDMDL
