MODEL 1
REMARK minimizedAffinity 2.92762852
REMARK minimizedRMSD -1
REMARK  1 active torsions:
REMARK  status: ('A' for Active; 'I' for Inactive)
REMARK    1  A    between atoms: N_2  and  C1_3 
ROOT
ATOM      1  C1  UNL d   1      -5.466   3.889   3.634  0.00  0.00     0.143 A 
ATOM      2  C2  UNL d   1      -6.000   3.894   4.927  0.00  0.00    -0.057 A 
ATOM      3  C3  UNL d   1      -5.739   4.943   5.817  0.00  0.00     0.033 A 
ATOM      4  C4  UNL d   1      -4.914   5.996   5.437  0.00  0.00    -0.042 A 
ATOM      5  C5  UNL d   1      -4.352   6.000   4.165  0.00  0.00     0.033 A 
ATOM      6  C6  UNL d   1      -4.621   4.952   3.279  0.00  0.00    -0.057 A 
ENDROOT
BRANCH   1   7
ATOM      7  N   UNL d   1      -5.608   2.827   2.738  0.00  0.00    -0.732 N 
ATOM      8  C   UNL d   1      -4.529   2.468   1.843  0.00  0.00     0.284 C 
ATOM      9  H3  UNL d   1      -6.086   2.030   3.152  0.00  0.00     0.395 HD
ENDBRANCH   1   7
TORSDOF 1
ENDMDL
