MODEL 1
REMARK minimizedAffinity 0.798399508
REMARK minimizedRMSD -1
REMARK  1 active torsions:
REMARK  status: ('A' for Active; 'I' for Inactive)
REMARK    1  A    between atoms: N_2  and  C1_3 
ROOT
ATOM      1  C1  UNL d   1      -3.570   5.515   4.284  0.00  0.00     0.143 A 
ATOM      2  C2  UNL d   1      -4.237   4.475   3.630  0.00  0.00    -0.057 A 
ATOM      3  C3  UNL d   1      -5.447   3.967   4.118  0.00  0.00     0.033 A 
ATOM      4  C4  UNL d   1      -5.999   4.475   5.290  0.00  0.00    -0.042 A 
ATOM      5  C5  UNL d   1      -5.340   5.492   5.971  0.00  0.00     0.033 A 
ATOM      6  C6  UNL d   1      -4.135   5.999   5.475  0.00  0.00    -0.057 A 
ENDROOT
BRANCH   1   7
ATOM      7  N   UNL d   1      -2.314   5.995   3.904  0.00  0.00    -0.732 N 
ATOM      8  C   UNL d   1      -1.211   5.997   4.840  0.00  0.00     0.284 C 
ATOM      9  H3  UNL d   1      -2.059   5.710   2.961  0.00  0.00     0.395 HD
ENDBRANCH   1   7
TORSDOF 1
ENDMDL
