MODEL 1
REMARK minimizedAffinity 4.98440075
REMARK minimizedRMSD -1
REMARK  1 active torsions:
REMARK  status: ('A' for Active; 'I' for Inactive)
REMARK    1  A    between atoms: N_2  and  C1_3 
ROOT
ATOM      1  C1  UNL d   1       2.498   2.769   0.713  0.00  0.00     0.143 A 
ATOM      2  C2  UNL d   1       3.325   1.740   1.176  0.00  0.00    -0.057 A 
ATOM      3  C3  UNL d   1       3.305   0.471   0.584  0.00  0.00     0.033 A 
ATOM      4  C4  UNL d   1       2.435   0.200  -0.466  0.00  0.00    -0.042 A 
ATOM      5  C5  UNL d   1       1.586   1.201  -0.927  0.00  0.00     0.033 A 
ATOM      6  C6  UNL d   1       1.615   2.468  -0.336  0.00  0.00    -0.057 A 
ENDROOT
BRANCH   1   7
ATOM      7  N   UNL d   1       2.400   4.022   1.322  0.00  0.00    -0.732 N 
ATOM      8  C   UNL d   1       1.308   4.915   1.001  0.00  0.00     0.284 C 
ATOM      9  H3  UNL d   1       2.635   3.992   2.312  0.00  0.00     0.395 HD
ENDBRANCH   1   7
TORSDOF 1
ENDMDL
