MODEL 1
REMARK minimizedAffinity 5.82788324
REMARK minimizedRMSD -1
REMARK  1 active torsions:
REMARK  status: ('A' for Active; 'I' for Inactive)
REMARK    1  A    between atoms: N_2  and  C1_3 
ROOT
ATOM      1  C1  UNL d   1       1.906  -0.888  -0.621  0.00  0.00     0.143 A 
ATOM      2  C2  UNL d   1       2.600  -1.254   0.538  0.00  0.00    -0.057 A 
ATOM      3  C3  UNL d   1       3.466  -0.359   1.178  0.00  0.00     0.033 A 
ATOM      4  C4  UNL d   1       3.677   0.911   0.652  0.00  0.00    -0.042 A 
ATOM      5  C5  UNL d   1       3.018   1.287  -0.513  0.00  0.00     0.033 A 
ATOM      6  C6  UNL d   1       2.149   0.391  -1.144  0.00  0.00    -0.057 A 
ENDROOT
BRANCH   1   7
ATOM      7  N   UNL d   1       1.108  -1.766  -1.358  0.00  0.00    -0.732 N 
ATOM      8  C   UNL d   1       0.150  -1.261  -2.319  0.00  0.00     0.284 C 
ATOM      9  H3  UNL d   1       1.620  -2.586  -1.674  0.00  0.00     0.395 HD
ENDBRANCH   1   7
TORSDOF 1
ENDMDL
