MODEL 1
REMARK minimizedAffinity 1.63544869
REMARK minimizedRMSD -1
REMARK  1 active torsions:
REMARK  status: ('A' for Active; 'I' for Inactive)
REMARK    1  A    between atoms: C1_2  and  C2_3 
ROOT
ATOM      1  C2  UNL d   1       3.342   0.801   0.782  0.00  0.00    -0.077 A 
ATOM      2  C3  UNL d   1       4.381   0.147   1.458  0.00  0.00     0.002 A 
ATOM      3  C4  UNL d   1       5.523   0.850   1.846  0.00  0.00     0.002 A 
ATOM      4  C5  UNL d   1       5.635   2.210   1.565  0.00  0.00    -0.004 A 
ATOM      5  C6  UNL d   1       4.608   2.869   0.890  0.00  0.00     0.002 A 
ATOM      6  C7  UNL d   1       3.466   2.167   0.501  0.00  0.00     0.002 A 
ENDROOT
BRANCH   1   7
ATOM      7  C1  UNL d   1       2.087   0.055   0.406  0.00  0.00     0.055 C 
ATOM      8  C   UNL d   1       2.397  -1.130  -0.497  0.00  0.00     0.019 C 
ENDBRANCH   1   7
TORSDOF 1
ENDMDL
