MODEL 1
REMARK minimizedAffinity -3.82283545
REMARK minimizedRMSD -1
REMARK  1 active torsions:
REMARK  status: ('A' for Active; 'I' for Inactive)
REMARK    1  A    between atoms: C1_2  and  C2_3 
ROOT
ATOM      1  C2  UNL d   1       2.977   3.859  -5.029  0.00  0.00    -0.077 A 
ATOM      2  C3  UNL d   1       3.773   4.874  -5.578  0.00  0.00     0.002 A 
ATOM      3  C4  UNL d   1       5.107   4.627  -5.905  0.00  0.00     0.002 A 
ATOM      4  C5  UNL d   1       5.656   3.364  -5.691  0.00  0.00    -0.004 A 
ATOM      5  C6  UNL d   1       4.874   2.348  -5.144  0.00  0.00     0.002 A 
ATOM      6  C7  UNL d   1       3.540   2.594  -4.815  0.00  0.00     0.002 A 
ENDROOT
BRANCH   1   7
ATOM      7  C1  UNL d   1       1.524   4.110  -4.722  0.00  0.00     0.055 C 
ATOM      8  C   UNL d   1       0.737   4.425  -5.986  0.00  0.00     0.019 C 
ENDBRANCH   1   7
TORSDOF 1
ENDMDL
