MODEL 1
REMARK minimizedAffinity -3.74422908
REMARK minimizedRMSD -1
REMARK  1 active torsions:
REMARK  status: ('A' for Active; 'I' for Inactive)
REMARK    1  A    between atoms: C1_2  and  C2_3 
ROOT
ATOM      1  C2  UNL d   1       2.979   3.836  -5.030  0.00  0.00    -0.077 A 
ATOM      2  C3  UNL d   1       3.779   4.918  -5.422  0.00  0.00     0.002 A 
ATOM      3  C4  UNL d   1       5.125   4.724  -5.736  0.00  0.00     0.002 A 
ATOM      4  C5  UNL d   1       5.682   3.449  -5.665  0.00  0.00    -0.004 A 
ATOM      5  C6  UNL d   1       4.895   2.366  -5.273  0.00  0.00     0.002 A 
ATOM      6  C7  UNL d   1       3.549   2.559  -4.958  0.00  0.00     0.002 A 
ENDROOT
BRANCH   1   7
ATOM      7  C1  UNL d   1       1.514   4.035  -4.739  0.00  0.00     0.055 C 
ATOM      8  C   UNL d   1       0.744   4.399  -6.000  0.00  0.00     0.019 C 
ENDBRANCH   1   7
TORSDOF 1
ENDMDL
