MODEL 1
REMARK minimizedAffinity 1.13515687
REMARK minimizedRMSD -1
REMARK  1 active torsions:
REMARK  status: ('A' for Active; 'I' for Inactive)
REMARK    1  A    between atoms: C1_2  and  C2_3 
ROOT
ATOM      1  C2  UNL d   1       3.758   3.903  -5.782  0.00  0.00    -0.077 A 
ATOM      2  C3  UNL d   1       3.026   5.016  -5.344  0.00  0.00     0.002 A 
ATOM      3  C4  UNL d   1       1.656   4.909  -5.101  0.00  0.00     0.002 A 
ATOM      4  C5  UNL d   1       1.006   3.690  -5.288  0.00  0.00    -0.004 A 
ATOM      5  C6  UNL d   1       1.725   2.578  -5.725  0.00  0.00     0.002 A 
ATOM      6  C7  UNL d   1       3.095   2.684  -5.970  0.00  0.00     0.002 A 
ENDROOT
BRANCH   1   7
ATOM      7  C1  UNL d   1       5.246   4.004  -5.998  0.00  0.00     0.055 C 
ATOM      8  C   UNL d   1       5.707   5.454  -5.999  0.00  0.00     0.019 C 
ENDBRANCH   1   7
TORSDOF 1
ENDMDL
