MODEL 1
REMARK minimizedAffinity -2.79812598
REMARK minimizedRMSD -1
REMARK  1 active torsions:
REMARK  status: ('A' for Active; 'I' for Inactive)
REMARK    1  A    between atoms: C1_2  and  C2_3 
ROOT
ATOM      1  C2  UNL d   1       2.957   4.348  -5.278  0.00  0.00    -0.077 A 
ATOM      2  C3  UNL d   1       3.226   2.972  -5.306  0.00  0.00     0.002 A 
ATOM      3  C4  UNL d   1       4.491   2.507  -5.667  0.00  0.00     0.002 A 
ATOM      4  C5  UNL d   1       5.499   3.410  -5.998  0.00  0.00    -0.004 A 
ATOM      5  C6  UNL d   1       5.242   4.780  -5.975  0.00  0.00     0.002 A 
ATOM      6  C7  UNL d   1       3.977   5.247  -5.616  0.00  0.00     0.002 A 
ENDROOT
BRANCH   1   7
ATOM      7  C1  UNL d   1       1.607   4.853  -4.841  0.00  0.00     0.055 C 
ATOM      8  C   UNL d   1       0.620   4.869  -6.000  0.00  0.00     0.019 C 
ENDBRANCH   1   7
TORSDOF 1
ENDMDL
