MODEL 1
REMARK minimizedAffinity -2.93340063
REMARK minimizedRMSD -1
REMARK  1 active torsions:
REMARK  status: ('A' for Active; 'I' for Inactive)
REMARK    1  A    between atoms: C1_2  and  C2_3 
ROOT
ATOM      1  C2  UNL d   1       2.719   4.569  -5.237  0.00  0.00    -0.077 A 
ATOM      2  C3  UNL d   1       3.781   5.399  -5.623  0.00  0.00     0.002 A 
ATOM      3  C4  UNL d   1       5.007   4.848  -5.999  0.00  0.00     0.002 A 
ATOM      4  C5  UNL d   1       5.182   3.465  -5.997  0.00  0.00    -0.004 A 
ATOM      5  C6  UNL d   1       4.133   2.632  -5.612  0.00  0.00     0.002 A 
ATOM      6  C7  UNL d   1       2.907   3.181  -5.235  0.00  0.00     0.002 A 
ENDROOT
BRANCH   1   7
ATOM      7  C1  UNL d   1       1.380   5.159  -4.878  0.00  0.00     0.055 C 
ATOM      8  C   UNL d   1       0.371   4.964  -6.000  0.00  0.00     0.019 C 
ENDBRANCH   1   7
TORSDOF 1
ENDMDL
