MODEL 1
REMARK minimizedAffinity -2.28702521
REMARK minimizedRMSD -1
REMARK  1 active torsions:
REMARK  status: ('A' for Active; 'I' for Inactive)
REMARK    1  A    between atoms: C1_2  and  C2_3 
ROOT
ATOM      1  C2  UNL d   1       2.868   3.783  -5.855  0.00  0.00    -0.077 A 
ATOM      2  C3  UNL d   1       3.609   2.605  -5.689  0.00  0.00     0.002 A 
ATOM      3  C4  UNL d   1       5.004   2.645  -5.670  0.00  0.00     0.002 A 
ATOM      4  C5  UNL d   1       5.670   3.861  -5.812  0.00  0.00    -0.004 A 
ATOM      5  C6  UNL d   1       4.942   5.038  -5.980  0.00  0.00     0.002 A 
ATOM      6  C7  UNL d   1       3.547   5.000  -6.000  0.00  0.00     0.002 A 
ENDROOT
BRANCH   1   7
ATOM      7  C1  UNL d   1       1.362   3.749  -5.826  0.00  0.00     0.055 C 
ATOM      8  C   UNL d   1       0.773   5.141  -5.999  0.00  0.00     0.019 C 
ENDBRANCH   1   7
TORSDOF 1
ENDMDL
