MODEL 1
REMARK minimizedAffinity -4.10038853
REMARK minimizedRMSD -1
REMARK  1 active torsions:
REMARK  status: ('A' for Active; 'I' for Inactive)
REMARK    1  A    between atoms: C1_2  and  C2_3 
ROOT
ATOM      1  C2  UNL d   1       3.439   4.072  -5.416  0.00  0.00    -0.077 A 
ATOM      2  C3  UNL d   1       3.144   5.415  -5.140  0.00  0.00     0.002 A 
ATOM      3  C4  UNL d   1       1.819   5.855  -5.110  0.00  0.00     0.002 A 
ATOM      4  C5  UNL d   1       0.780   4.960  -5.352  0.00  0.00    -0.004 A 
ATOM      5  C6  UNL d   1       1.063   3.623  -5.630  0.00  0.00     0.002 A 
ATOM      6  C7  UNL d   1       2.386   3.181  -5.661  0.00  0.00     0.002 A 
ENDROOT
BRANCH   1   7
ATOM      7  C1  UNL d   1       4.864   3.585  -5.400  0.00  0.00     0.055 C 
ATOM      8  C   UNL d   1       5.809   4.618  -5.994  0.00  0.00     0.019 C 
ENDBRANCH   1   7
TORSDOF 1
ENDMDL
