MODEL 1
REMARK minimizedAffinity -1.21032035
REMARK minimizedRMSD -1
REMARK  1 active torsions:
REMARK  status: ('A' for Active; 'I' for Inactive)
REMARK    1  A    between atoms: C1_2  and  C2_3 
ROOT
ATOM      1  C2  UNL d   1       2.650   3.955  -5.113  0.00  0.00    -0.077 A 
ATOM      2  C3  UNL d   1       3.022   2.657  -4.735  0.00  0.00     0.002 A 
ATOM      3  C4  UNL d   1       4.313   2.190  -4.989  0.00  0.00     0.002 A 
ATOM      4  C5  UNL d   1       5.243   3.015  -5.618  0.00  0.00    -0.004 A 
ATOM      5  C6  UNL d   1       4.882   4.307  -6.000  0.00  0.00     0.002 A 
ATOM      6  C7  UNL d   1       3.592   4.775  -5.747  0.00  0.00     0.002 A 
ENDROOT
BRANCH   1   7
ATOM      7  C1  UNL d   1       1.274   4.478  -4.795  0.00  0.00     0.055 C 
ATOM      8  C   UNL d   1       0.350   4.373  -6.000  0.00  0.00     0.019 C 
ENDBRANCH   1   7
TORSDOF 1
ENDMDL
