MODEL 1
REMARK minimizedAffinity -1.47939587
REMARK minimizedRMSD -1
REMARK  1 active torsions:
REMARK  status: ('A' for Active; 'I' for Inactive)
REMARK    1  A    between atoms: C1_2  and  C2_3 
ROOT
ATOM      1  C2  UNL d   1       3.462   3.740  -5.519  0.00  0.00    -0.077 A 
ATOM      2  C3  UNL d   1       3.742   5.057  -5.909  0.00  0.00     0.002 A 
ATOM      3  C4  UNL d   1       2.717   6.000  -6.000  0.00  0.00     0.002 A 
ATOM      4  C5  UNL d   1       1.405   5.637  -5.699  0.00  0.00    -0.004 A 
ATOM      5  C6  UNL d   1       1.116   4.329  -5.312  0.00  0.00     0.002 A 
ATOM      6  C7  UNL d   1       2.140   3.385  -5.222  0.00  0.00     0.002 A 
ENDROOT
BRANCH   1   7
ATOM      7  C1  UNL d   1       4.574   2.734  -5.373  0.00  0.00     0.055 C 
ATOM      8  C   UNL d   1       4.149   1.562  -4.500  0.00  0.00     0.019 C 
ENDBRANCH   1   7
TORSDOF 1
ENDMDL
