MODEL 1
REMARK minimizedAffinity -1.12346756
REMARK minimizedRMSD -1
REMARK  1 active torsions:
REMARK  status: ('A' for Active; 'I' for Inactive)
REMARK    1  A    between atoms: C1_2  and  C2_3 
ROOT
ATOM      1  C2  UNL d   1       2.467   3.750  -5.294  0.00  0.00    -0.077 A 
ATOM      2  C3  UNL d   1       2.738   2.375  -5.272  0.00  0.00     0.002 A 
ATOM      3  C4  UNL d   1       4.006   1.899  -5.612  0.00  0.00     0.002 A 
ATOM      4  C5  UNL d   1       5.013   2.792  -5.973  0.00  0.00    -0.004 A 
ATOM      5  C6  UNL d   1       4.752   4.162  -6.000  0.00  0.00     0.002 A 
ATOM      6  C7  UNL d   1       3.485   4.639  -5.661  0.00  0.00     0.002 A 
ENDROOT
BRANCH   1   7
ATOM      7  C1  UNL d   1       1.114   4.268  -4.880  0.00  0.00     0.055 C 
ATOM      8  C   UNL d   1       0.095   4.112  -6.000  0.00  0.00     0.019 C 
ENDBRANCH   1   7
TORSDOF 1
ENDMDL
