MODEL 1
REMARK minimizedAffinity -2.98236513
REMARK minimizedRMSD -1
REMARK  1 active torsions:
REMARK  status: ('A' for Active; 'I' for Inactive)
REMARK    1  A    between atoms: C1_2  and  C2_3 
ROOT
ATOM      1  C2  UNL d   1       3.564   3.610  -5.966  0.00  0.00    -0.077 A 
ATOM      2  C3  UNL d   1       4.035   4.930  -5.989  0.00  0.00     0.002 A 
ATOM      3  C4  UNL d   1       3.138   6.000  -6.000  0.00  0.00     0.002 A 
ATOM      4  C5  UNL d   1       1.765   5.761  -5.983  0.00  0.00    -0.004 A 
ATOM      5  C6  UNL d   1       1.287   4.451  -5.962  0.00  0.00     0.002 A 
ATOM      6  C7  UNL d   1       2.182   3.381  -5.953  0.00  0.00     0.002 A 
ENDROOT
BRANCH   1   7
ATOM      7  C1  UNL d   1       4.529   2.455  -5.905  0.00  0.00     0.055 C 
ATOM      8  C   UNL d   1       3.891   1.232  -5.263  0.00  0.00     0.019 C 
ENDBRANCH   1   7
TORSDOF 1
ENDMDL
