MODEL 1
REMARK minimizedAffinity -0.673764408
REMARK minimizedRMSD -1
REMARK  1 active torsions:
REMARK  status: ('A' for Active; 'I' for Inactive)
REMARK    1  A    between atoms: C1_2  and  C2_3 
ROOT
ATOM      1  C2  UNL d   1       2.423   4.155  -5.250  0.00  0.00    -0.077 A 
ATOM      2  C3  UNL d   1       2.550   2.758  -5.249  0.00  0.00     0.002 A 
ATOM      3  C4  UNL d   1       3.754   2.159  -5.622  0.00  0.00     0.002 A 
ATOM      4  C5  UNL d   1       4.841   2.947  -5.994  0.00  0.00    -0.004 A 
ATOM      5  C6  UNL d   1       4.724   4.336  -6.000  0.00  0.00     0.002 A 
ATOM      6  C7  UNL d   1       3.521   4.938  -5.629  0.00  0.00     0.002 A 
ENDROOT
BRANCH   1   7
ATOM      7  C1  UNL d   1       1.140   4.805  -4.801  0.00  0.00     0.055 C 
ATOM      8  C   UNL d   1       0.197   5.035  -5.973  0.00  0.00     0.019 C 
ENDBRANCH   1   7
TORSDOF 1
ENDMDL
