MODEL 1
REMARK minimizedAffinity -1.09363163
REMARK minimizedRMSD -1
REMARK  1 active torsions:
REMARK  status: ('A' for Active; 'I' for Inactive)
REMARK    1  A    between atoms: C1_2  and  C2_3 
ROOT
ATOM      1  C2  UNL d   1       3.931   3.045  -5.481  0.00  0.00    -0.077 A 
ATOM      2  C3  UNL d   1       3.016   4.105  -5.549  0.00  0.00     0.002 A 
ATOM      3  C4  UNL d   1       3.458   5.404  -5.805  0.00  0.00     0.002 A 
ATOM      4  C5  UNL d   1       4.815   5.655  -6.000  0.00  0.00    -0.004 A 
ATOM      5  C6  UNL d   1       5.733   4.608  -5.932  0.00  0.00     0.002 A 
ATOM      6  C7  UNL d   1       5.293   3.309  -5.675  0.00  0.00     0.002 A 
ENDROOT
BRANCH   1   7
ATOM      7  C1  UNL d   1       3.451   1.635  -5.254  0.00  0.00     0.055 C 
ATOM      8  C   UNL d   1       4.082   1.030  -4.008  0.00  0.00     0.019 C 
ENDBRANCH   1   7
TORSDOF 1
ENDMDL
