MODEL 1
REMARK minimizedAffinity -1.56091607
REMARK minimizedRMSD -1
REMARK  1 active torsions:
REMARK  status: ('A' for Active; 'I' for Inactive)
REMARK    1  A    between atoms: C1_2  and  C2_3 
ROOT
ATOM      1  C2  UNL d   1       2.620   4.048  -5.426  0.00  0.00    -0.077 A 
ATOM      2  C3  UNL d   1       3.388   2.918  -5.112  0.00  0.00     0.002 A 
ATOM      3  C4  UNL d   1       4.778   2.950  -5.242  0.00  0.00     0.002 A 
ATOM      4  C5  UNL d   1       5.411   4.110  -5.682  0.00  0.00    -0.004 A 
ATOM      5  C6  UNL d   1       4.656   5.239  -5.999  0.00  0.00     0.002 A 
ATOM      6  C7  UNL d   1       3.267   5.208  -5.871  0.00  0.00     0.002 A 
ENDROOT
BRANCH   1   7
ATOM      7  C1  UNL d   1       1.125   4.030  -5.240  0.00  0.00     0.055 C 
ATOM      8  C   UNL d   1       0.460   5.169  -6.000  0.00  0.00     0.019 C 
ENDBRANCH   1   7
TORSDOF 1
ENDMDL
