MODEL 1
REMARK minimizedAffinity 12.0650663
REMARK minimizedRMSD -1
REMARK  1 active torsions:
REMARK  status: ('A' for Active; 'I' for Inactive)
REMARK    1  A    between atoms: C1_2  and  C2_3 
ROOT
ATOM      1  C2  UNL d   1       0.170   4.510  -0.010  0.00  0.00    -0.081 A 
ATOM      2  C3  UNL d   1      -1.109   4.833   0.459  0.00  0.00     0.006 A 
ATOM      3  C4  UNL d   1      -1.724   4.049   1.438  0.00  0.00     0.002 A 
ATOM      4  C5  UNL d   1      -1.068   2.933   1.969  0.00  0.00    -0.080 A 
ATOM      5  C6  UNL d   1      -1.704   2.101   3.042  0.00  0.00     0.076 C 
ATOM      6  C7  UNL d   1       0.203   2.600   1.488  0.00  0.00     0.002 A 
ATOM      7  C8  UNL d   1       0.818   3.383   0.509  0.00  0.00     0.006 A 
ENDROOT
BRANCH   1   8
ATOM      8  C1  UNL d   1       0.862   5.390  -1.019  0.00  0.00     0.054 C 
ATOM      9  C   UNL d   1      -0.133   5.998  -1.997  0.00  0.00     0.018 C 
ENDBRANCH   1   8
TORSDOF 1
ENDMDL
