MODEL 1
REMARK minimizedAffinity 12.0947523
REMARK minimizedRMSD -1
REMARK  1 active torsions:
REMARK  status: ('A' for Active; 'I' for Inactive)
REMARK    1  A    between atoms: C1_2  and  C2_3 
ROOT
ATOM      1  C2  UNL d   1      -0.226   2.289   0.241  0.00  0.00    -0.081 A 
ATOM      2  C3  UNL d   1       0.860   1.536  -0.220  0.00  0.00     0.006 A 
ATOM      3  C4  UNL d   1       0.655   0.292  -0.823  0.00  0.00     0.002 A 
ATOM      4  C5  UNL d   1      -0.639  -0.215  -0.980  0.00  0.00    -0.080 A 
ATOM      5  C6  UNL d   1      -0.875  -1.535  -1.652  0.00  0.00     0.076 C 
ATOM      6  C7  UNL d   1      -1.723   0.529  -0.503  0.00  0.00     0.002 A 
ATOM      7  C8  UNL d   1      -1.519   1.772   0.100  0.00  0.00     0.006 A 
ENDROOT
BRANCH   1   8
ATOM      8  C1  UNL d   1      -0.013   3.659   0.833  0.00  0.00     0.054 C 
ATOM      9  C   UNL d   1       0.360   4.673  -0.240  0.00  0.00     0.018 C 
ENDBRANCH   1   8
TORSDOF 1
ENDMDL
