MODEL 1
REMARK minimizedAffinity 6.66978407
REMARK minimizedRMSD -1
REMARK  1 active torsions:
REMARK  status: ('A' for Active; 'I' for Inactive)
REMARK    1  A    between atoms: C1_2  and  C2_3 
ROOT
ATOM      1  C2  UNL d   1       0.620   3.795   1.665  0.00  0.00    -0.081 A 
ATOM      2  C3  UNL d   1       0.154   3.074   0.559  0.00  0.00     0.006 A 
ATOM      3  C4  UNL d   1      -0.076   3.717  -0.660  0.00  0.00     0.002 A 
ATOM      4  C5  UNL d   1       0.164   5.088  -0.795  0.00  0.00    -0.080 A 
ATOM      5  C6  UNL d   1      -0.050   5.785  -2.106  0.00  0.00     0.076 C 
ATOM      6  C7  UNL d   1       0.613   5.812   0.315  0.00  0.00     0.002 A 
ATOM      7  C8  UNL d   1       0.842   5.170   1.534  0.00  0.00     0.006 A 
ENDROOT
BRANCH   1   8
ATOM      8  C1  UNL d   1       0.930   3.093   2.962  0.00  0.00     0.054 C 
ATOM      9  C   UNL d   1       2.372   3.327   3.387  0.00  0.00     0.018 C 
ENDBRANCH   1   8
TORSDOF 1
ENDMDL
