MODEL 1
REMARK minimizedAffinity 8.6428833
REMARK minimizedRMSD -1
REMARK  1 active torsions:
REMARK  status: ('A' for Active; 'I' for Inactive)
REMARK    1  A    between atoms: C1_2  and  C2_3 
ROOT
ATOM      1  C2  UNL d   1      -1.101   4.791   1.311  0.00  0.00    -0.081 A 
ATOM      2  C3  UNL d   1      -0.106   3.865   0.973  0.00  0.00     0.006 A 
ATOM      3  C4  UNL d   1       0.623   4.009  -0.210  0.00  0.00     0.002 A 
ATOM      4  C5  UNL d   1       0.375   5.084  -1.071  0.00  0.00    -0.080 A 
ATOM      5  C6  UNL d   1       1.170   5.267  -2.329  0.00  0.00     0.076 C 
ATOM      6  C7  UNL d   1      -0.631   5.999  -0.742  0.00  0.00     0.002 A 
ATOM      7  C8  UNL d   1      -1.361   5.855   0.441  0.00  0.00     0.006 A 
ENDROOT
BRANCH   1   8
ATOM      8  C1  UNL d   1      -1.844   4.674   2.617  0.00  0.00     0.054 C 
ATOM      9  C   UNL d   1      -2.484   5.998   3.009  0.00  0.00     0.018 C 
ENDBRANCH   1   8
TORSDOF 1
ENDMDL
