MODEL 1
REMARK minimizedAffinity 11.5731754
REMARK minimizedRMSD -1
REMARK  1 active torsions:
REMARK  status: ('A' for Active; 'I' for Inactive)
REMARK    1  A    between atoms: C1_2  and  C2_3 
ROOT
ATOM      1  C2  UNL d   1      -0.140   3.697   0.851  0.00  0.00    -0.081 A 
ATOM      2  C3  UNL d   1       1.143   3.172   1.045  0.00  0.00     0.006 A 
ATOM      3  C4  UNL d   1       1.394   2.284   2.094  0.00  0.00     0.002 A 
ATOM      4  C5  UNL d   1       0.364   1.901   2.961  0.00  0.00    -0.080 A 
ATOM      5  C6  UNL d   1       0.613   0.925   4.072  0.00  0.00     0.076 C 
ATOM      6  C7  UNL d   1      -0.914   2.439   2.777  0.00  0.00     0.002 A 
ATOM      7  C8  UNL d   1      -1.165   3.327   1.729  0.00  0.00     0.006 A 
ENDROOT
BRANCH   1   8
ATOM      8  C1  UNL d   1      -0.428   4.605  -0.318  0.00  0.00     0.054 C 
ATOM      9  C   UNL d   1      -0.821   5.999   0.147  0.00  0.00     0.018 C 
ENDBRANCH   1   8
TORSDOF 1
ENDMDL
