MODEL 1
REMARK minimizedAffinity 11.4643984
REMARK minimizedRMSD -1
REMARK  1 active torsions:
REMARK  status: ('A' for Active; 'I' for Inactive)
REMARK    1  A    between atoms: C1_2  and  C2_3 
ROOT
ATOM      1  C2  UNL d   1      -4.798  -0.624   3.278  0.00  0.00    -0.081 A 
ATOM      2  C3  UNL d   1      -5.057   0.374   2.331  0.00  0.00     0.006 A 
ATOM      3  C4  UNL d   1      -4.288   0.464   1.168  0.00  0.00     0.002 A 
ATOM      4  C5  UNL d   1      -3.253  -0.447   0.929  0.00  0.00    -0.080 A 
ATOM      5  C6  UNL d   1      -2.440  -0.381  -0.329  0.00  0.00     0.076 C 
ATOM      6  C7  UNL d   1      -2.983  -1.434   1.884  0.00  0.00     0.002 A 
ATOM      7  C8  UNL d   1      -3.751  -1.523   3.047  0.00  0.00     0.006 A 
ENDROOT
BRANCH   1   8
ATOM      8  C1  UNL d   1      -5.667  -0.763   4.502  0.00  0.00     0.054 C 
ATOM      9  C   UNL d   1      -5.998   0.595   5.102  0.00  0.00     0.018 C 
ENDBRANCH   1   8
TORSDOF 1
ENDMDL
