MODEL 1
REMARK minimizedAffinity 10.6532726
REMARK minimizedRMSD -1
REMARK  1 active torsions:
REMARK  status: ('A' for Active; 'I' for Inactive)
REMARK    1  A    between atoms: C1_2  and  C2_3 
ROOT
ATOM      1  C2  UNL d   1       4.826  -5.061  -2.128  0.00  0.00    -0.081 A 
ATOM      2  C3  UNL d   1       5.953  -5.670  -1.561  0.00  0.00     0.006 A 
ATOM      3  C4  UNL d   1       5.987  -5.964  -0.196  0.00  0.00     0.002 A 
ATOM      4  C5  UNL d   1       4.895  -5.662   0.623  0.00  0.00    -0.080 A 
ATOM      5  C6  UNL d   1       4.907  -6.000   2.084  0.00  0.00     0.076 C 
ATOM      6  C7  UNL d   1       3.777  -5.037   0.061  0.00  0.00     0.002 A 
ATOM      7  C8  UNL d   1       3.741  -4.742  -1.304  0.00  0.00     0.006 A 
ENDROOT
BRANCH   1   8
ATOM      8  C1  UNL d   1       4.760  -4.801  -3.611  0.00  0.00     0.054 C 
ATOM      9  C   UNL d   1       5.368  -3.451  -3.964  0.00  0.00     0.018 C 
ENDBRANCH   1   8
TORSDOF 1
ENDMDL
