MODEL 1
REMARK minimizedAffinity -4.14814281
REMARK minimizedRMSD -1
REMARK  1 active torsions:
REMARK  status: ('A' for Active; 'I' for Inactive)
REMARK    1  A    between atoms: C1_2  and  C2_3 
ROOT
ATOM      1  C2  UNL d   1       0.982  -0.465   0.468  0.00  0.00    -0.077 A 
ATOM      2  C3  UNL d   1       2.277  -0.860   0.832  0.00  0.00     0.002 A 
ATOM      3  C4  UNL d   1       2.558  -1.234   2.147  0.00  0.00     0.002 A 
ATOM      4  C5  UNL d   1       1.549  -1.220   3.108  0.00  0.00    -0.004 A 
ATOM      5  C6  UNL d   1       0.259  -0.826   2.757  0.00  0.00     0.002 A 
ATOM      6  C7  UNL d   1      -0.024  -0.451   1.443  0.00  0.00     0.002 A 
ENDROOT
BRANCH   1   7
ATOM      7  C1  UNL d   1       0.666  -0.108  -0.961  0.00  0.00     0.055 C 
ATOM      8  C   UNL d   1       1.466  -0.962  -1.934  0.00  0.00     0.019 C 
ENDBRANCH   1   7
TORSDOF 1
ENDMDL
