MODEL 1
REMARK minimizedAffinity -0.422764093
REMARK minimizedRMSD -1
REMARK  1 active torsions:
REMARK  status: ('A' for Active; 'I' for Inactive)
REMARK    1  A    between atoms: C1_2  and  C2_3 
ROOT
ATOM      1  C2  UNL d   1       0.380   3.439  -1.786  0.00  0.00    -0.077 A 
ATOM      2  C3  UNL d   1       0.273   2.498  -2.820  0.00  0.00     0.002 A 
ATOM      3  C4  UNL d   1       0.725   2.806  -4.104  0.00  0.00     0.002 A 
ATOM      4  C5  UNL d   1       1.290   4.052  -4.366  0.00  0.00    -0.004 A 
ATOM      5  C6  UNL d   1       1.399   4.996  -3.345  0.00  0.00     0.002 A 
ATOM      6  C7  UNL d   1       0.946   4.690  -2.061  0.00  0.00     0.002 A 
ENDROOT
BRANCH   1   7
ATOM      7  C1  UNL d   1      -0.062   3.091  -0.388  0.00  0.00     0.055 C 
ATOM      8  C   UNL d   1       0.301   1.657  -0.034  0.00  0.00     0.019 C 
ENDBRANCH   1   7
TORSDOF 1
ENDMDL
