MODEL 1
REMARK minimizedAffinity -3.16026187
REMARK minimizedRMSD -1
REMARK  1 active torsions:
REMARK  status: ('A' for Active; 'I' for Inactive)
REMARK    1  A    between atoms: C1_2  and  C2_3 
ROOT
ATOM      1  C2  UNL d   1      -0.928  -0.122   0.185  0.00  0.00    -0.077 A 
ATOM      2  C3  UNL d   1      -0.073   0.986   0.096  0.00  0.00     0.002 A 
ATOM      3  C4  UNL d   1       0.064   1.677  -1.110  0.00  0.00     0.002 A 
ATOM      4  C5  UNL d   1      -0.653   1.271  -2.233  0.00  0.00    -0.004 A 
ATOM      5  C6  UNL d   1      -1.504   0.169  -2.155  0.00  0.00     0.002 A 
ATOM      6  C7  UNL d   1      -1.641  -0.524  -0.952  0.00  0.00     0.002 A 
ENDROOT
BRANCH   1   7
ATOM      7  C1  UNL d   1      -1.114  -0.839   1.497  0.00  0.00     0.055 C 
ATOM      8  C   UNL d   1       0.218  -1.301   2.069  0.00  0.00     0.019 C 
ENDBRANCH   1   7
TORSDOF 1
ENDMDL
