MODEL 1
REMARK minimizedAffinity -4.99946594
REMARK minimizedRMSD -1
REMARK  1 active torsions:
REMARK  status: ('A' for Active; 'I' for Inactive)
REMARK    1  A    between atoms: C1_2  and  C2_3 
ROOT
ATOM      1  C2  UNL d   1       0.959  -0.268   0.973  0.00  0.00    -0.077 A 
ATOM      2  C3  UNL d   1      -0.353   0.034   0.582  0.00  0.00     0.002 A 
ATOM      3  C4  UNL d   1      -0.756  -0.151  -0.741  0.00  0.00     0.002 A 
ATOM      4  C5  UNL d   1       0.145  -0.641  -1.684  0.00  0.00    -0.004 A 
ATOM      5  C6  UNL d   1       1.452  -0.942  -1.306  0.00  0.00     0.002 A 
ATOM      6  C7  UNL d   1       1.858  -0.757   0.016  0.00  0.00     0.002 A 
ENDROOT
BRANCH   1   7
ATOM      7  C1  UNL d   1       1.382  -0.116   2.411  0.00  0.00     0.055 C 
ATOM      8  C   UNL d   1       1.121  -1.389   3.202  0.00  0.00     0.019 C 
ENDBRANCH   1   7
TORSDOF 1
ENDMDL
