MODEL 1
REMARK minimizedAffinity 3.51049638
REMARK minimizedRMSD -1
REMARK  1 active torsions:
REMARK  status: ('A' for Active; 'I' for Inactive)
REMARK    1  A    between atoms: C1_2  and  C2_3 
ROOT
ATOM      1  C2  UNL d   1       0.208  -0.429  -0.408  0.00  0.00    -0.077 A 
ATOM      2  C3  UNL d   1       1.091  -0.642  -1.476  0.00  0.00     0.002 A 
ATOM      3  C4  UNL d   1       2.455  -0.826  -1.239  0.00  0.00     0.002 A 
ATOM      4  C5  UNL d   1       2.947  -0.803   0.064  0.00  0.00    -0.004 A 
ATOM      5  C6  UNL d   1       2.077  -0.589   1.133  0.00  0.00     0.002 A 
ATOM      6  C7  UNL d   1       0.714  -0.404   0.898  0.00  0.00     0.002 A 
ENDROOT
BRANCH   1   7
ATOM      7  C1  UNL d   1      -1.270  -0.279  -0.658  0.00  0.00     0.055 C 
ATOM      8  C   UNL d   1      -2.086  -0.920   0.455  0.00  0.00     0.019 C 
ENDBRANCH   1   7
TORSDOF 1
ENDMDL
