MODEL 1
REMARK minimizedAffinity 2.13311386
REMARK minimizedRMSD -1
REMARK  0 active torsions:
REMARK  status: ('A' for Active; 'I' for Inactive)
ROOT
ATOM      1  C   UNL d   1      -0.207   1.633   3.100  0.00  0.00     0.023 A 
ATOM      2  C1  UNL d   1      -0.194   2.362   1.911  0.00  0.00     0.003 A 
ATOM      3  C2  UNL d   1       0.196   1.748   0.719  0.00  0.00     0.048 A 
ATOM      4  C3  UNL d   1       0.569   0.404   0.723  0.00  0.00     0.023 A 
ATOM      5  C4  UNL d   1       0.556  -0.329   1.911  0.00  0.00     0.048 A 
ATOM      6  C5  UNL d   1       0.167   0.290   3.101  0.00  0.00     0.003 A 
ATOM      7  I   UNL d   1       1.149  -0.512  -1.049  0.00  0.00    -0.146 I 
ENDROOT
TORSDOF 0
ENDMDL
