MODEL 1
REMARK minimizedAffinity -0.634677649
REMARK minimizedRMSD -1
REMARK  0 active torsions:
REMARK  status: ('A' for Active; 'I' for Inactive)
ROOT
ATOM      1  C   UNL d   1       0.030   1.124   3.301  0.00  0.00     0.023 A 
ATOM      2  C1  UNL d   1      -0.113   1.854   2.121  0.00  0.00     0.003 A 
ATOM      3  C2  UNL d   1       0.301   1.306   0.905  0.00  0.00     0.048 A 
ATOM      4  C3  UNL d   1       0.857   0.028   0.877  0.00  0.00     0.023 A 
ATOM      5  C4  UNL d   1       1.001  -0.707   2.055  0.00  0.00     0.048 A 
ATOM      6  C5  UNL d   1       0.586  -0.155   3.268  0.00  0.00     0.003 A 
ATOM      7  I   UNL d   1       1.475  -0.790  -0.932  0.00  0.00    -0.146 I 
ENDROOT
TORSDOF 0
ENDMDL
