MODEL 1
REMARK minimizedAffinity -4.38115597
REMARK minimizedRMSD -1
REMARK  0 active torsions:
REMARK  status: ('A' for Active; 'I' for Inactive)
ROOT
ATOM      1  C   UNL d   1      -0.663   2.459   1.538  0.00  0.00     0.023 A 
ATOM      2  C1  UNL d   1      -0.965   2.361   0.180  0.00  0.00     0.003 A 
ATOM      3  C2  UNL d   1      -0.813   1.143  -0.485  0.00  0.00     0.048 A 
ATOM      4  C3  UNL d   1      -0.360   0.025   0.215  0.00  0.00     0.023 A 
ATOM      5  C4  UNL d   1      -0.057   0.118   1.574  0.00  0.00     0.048 A 
ATOM      6  C5  UNL d   1      -0.210   1.338   2.235  0.00  0.00     0.003 A 
ATOM      7  I   UNL d   1      -0.133  -1.790  -0.772  0.00  0.00    -0.146 I 
ENDROOT
TORSDOF 0
ENDMDL
