MODEL 1
REMARK minimizedAffinity 1.12616813
REMARK minimizedRMSD -1
REMARK  0 active torsions:
REMARK  status: ('A' for Active; 'I' for Inactive)
ROOT
ATOM      1  C   UNL d   1      -1.958   2.163  -0.588  0.00  0.00     0.023 A 
ATOM      2  C1  UNL d   1      -1.972   2.129   0.806  0.00  0.00     0.003 A 
ATOM      3  C2  UNL d   1      -1.079   1.305   1.495  0.00  0.00     0.048 A 
ATOM      4  C3  UNL d   1      -0.175   0.518   0.782  0.00  0.00     0.023 A 
ATOM      5  C4  UNL d   1      -0.157   0.549  -0.613  0.00  0.00     0.048 A 
ATOM      6  C5  UNL d   1      -1.052   1.374  -1.297  0.00  0.00     0.003 A 
ATOM      7  I   UNL d   1       1.154  -0.709   1.805  0.00  0.00    -0.146 I 
ENDROOT
TORSDOF 0
ENDMDL
