MODEL 1
REMARK minimizedAffinity -4.42303753
REMARK minimizedRMSD -1
REMARK  0 active torsions:
REMARK  status: ('A' for Active; 'I' for Inactive)
ROOT
ATOM      1  C   UNL d   1      -1.179   2.537   1.624  0.00  0.00     0.023 A 
ATOM      2  C1  UNL d   1      -1.437   2.470   0.255  0.00  0.00     0.003 A 
ATOM      3  C2  UNL d   1      -0.903   1.429  -0.508  0.00  0.00     0.048 A 
ATOM      4  C3  UNL d   1      -0.113   0.458   0.106  0.00  0.00     0.023 A 
ATOM      5  C4  UNL d   1       0.148   0.520   1.476  0.00  0.00     0.048 A 
ATOM      6  C5  UNL d   1      -0.387   1.563   2.234  0.00  0.00     0.003 A 
ATOM      7  I   UNL d   1       0.683  -1.093  -1.027  0.00  0.00    -0.146 I 
ENDROOT
TORSDOF 0
ENDMDL
