MODEL 1
REMARK minimizedAffinity -0.416737169
REMARK minimizedRMSD -1
REMARK  0 active torsions:
REMARK  status: ('A' for Active; 'I' for Inactive)
ROOT
ATOM      1  C   UNL d   1      -0.637   1.394  -0.745  0.00  0.00     0.023 A 
ATOM      2  C1  UNL d   1      -0.665   0.523   0.344  0.00  0.00     0.003 A 
ATOM      3  C2  UNL d   1      -0.331  -0.822   0.173  0.00  0.00     0.048 A 
ATOM      4  C3  UNL d   1       0.031  -1.289  -1.091  0.00  0.00     0.023 A 
ATOM      5  C4  UNL d   1       0.062  -0.421  -2.183  0.00  0.00     0.048 A 
ATOM      6  C5  UNL d   1      -0.274   0.923  -2.007  0.00  0.00     0.003 A 
ATOM      7  I   UNL d   1       0.529  -3.290  -1.348  0.00  0.00    -0.146 I 
ENDROOT
TORSDOF 0
ENDMDL
