MODEL 1
REMARK minimizedAffinity 14.3546886
REMARK minimizedRMSD -1
REMARK  0 active torsions:
REMARK  status: ('A' for Active; 'I' for Inactive)
ROOT
ATOM      1  C1  DEN d   1       2.180  -5.871  -2.643  0.00  0.00     0.130 A 
ATOM      2  C2  DEN d   1       1.581  -5.938  -3.973  0.00  0.00    -0.031 A 
ATOM      3  C3  DEN d   1       0.115  -5.999  -3.811  0.00  0.00     0.027 A 
ATOM      4  C4  DEN d   1      -1.280  -5.989  -1.641  0.00  0.00     0.027 A 
ATOM      5  C5  DEN d   1      -1.215  -5.955  -0.265  0.00  0.00    -0.003 A 
ATOM      6  C6  DEN d   1      -0.024  -5.925   0.409  0.00  0.00     0.001 A 
ATOM      7  C7  DEN d   1       1.152  -5.883  -0.292  0.00  0.00     0.017 A 
ATOM      8  C8  DEN d   1       1.096  -5.924  -1.679  0.00  0.00    -0.094 A 
ATOM      9  C9  DEN d   1      -0.119  -5.942  -2.343  0.00  0.00    -0.072 A 
ENDROOT
TORSDOF 0
ENDMDL
