MODEL 1
REMARK minimizedAffinity -1.34469974
REMARK minimizedRMSD -1
REMARK  0 active torsions:
REMARK  status: ('A' for Active; 'I' for Inactive)
ROOT
ATOM      1  C1  DEN d   1       3.204   2.523   0.813  0.00  0.00     0.130 A 
ATOM      2  C2  DEN d   1       2.534   1.466   1.566  0.00  0.00    -0.031 A 
ATOM      3  C3  DEN d   1       2.027   2.053   2.822  0.00  0.00     0.027 A 
ATOM      4  C4  DEN d   1       2.208   4.483   3.668  0.00  0.00     0.027 A 
ATOM      5  C5  DEN d   1       2.697   5.738   3.380  0.00  0.00    -0.003 A 
ATOM      6  C6  DEN d   1       3.413   6.000   2.242  0.00  0.00     0.001 A 
ATOM      7  C7  DEN d   1       3.621   5.002   1.327  0.00  0.00     0.017 A 
ATOM      8  C8  DEN d   1       3.138   3.732   1.614  0.00  0.00    -0.094 A 
ATOM      9  C9  DEN d   1       2.406   3.491   2.764  0.00  0.00    -0.072 A 
ENDROOT
TORSDOF 0
ENDMDL
