MODEL 1
REMARK minimizedAffinity 8.26680374
REMARK minimizedRMSD -1
REMARK  0 active torsions:
REMARK  status: ('A' for Active; 'I' for Inactive)
ROOT
ATOM      1  C1  DEN d   1       2.139   3.720   0.976  0.00  0.00     0.130 A 
ATOM      2  C2  DEN d   1       2.287   2.287   1.216  0.00  0.00    -0.031 A 
ATOM      3  C3  DEN d   1       3.690   2.031   1.599  0.00  0.00     0.027 A 
ATOM      4  C4  DEN d   1       5.635   3.705   1.849  0.00  0.00     0.027 A 
ATOM      5  C5  DEN d   1       5.998   5.030   1.740  0.00  0.00    -0.003 A 
ATOM      6  C6  DEN d   1       5.115   5.997   1.339  0.00  0.00     0.001 A 
ATOM      7  C7  DEN d   1       3.813   5.662   1.076  0.00  0.00     0.017 A 
ATOM      8  C8  DEN d   1       3.442   4.327   1.177  0.00  0.00    -0.094 A 
ATOM      9  C9  DEN d   1       4.346   3.366   1.595  0.00  0.00    -0.072 A 
ENDROOT
TORSDOF 0
ENDMDL
