MODEL 1
REMARK minimizedAffinity 18.2228184
REMARK minimizedRMSD -1
REMARK  0 active torsions:
REMARK  status: ('A' for Active; 'I' for Inactive)
ROOT
ATOM      1  C1  DEN d   1       3.544   5.740   1.595  0.00  0.00     0.130 A 
ATOM      2  C2  DEN d   1       5.003   5.755   1.668  0.00  0.00    -0.031 A 
ATOM      3  C3  DEN d   1       5.474   4.356   1.671  0.00  0.00     0.027 A 
ATOM      4  C4  DEN d   1       4.095   2.179   1.564  0.00  0.00     0.027 A 
ATOM      5  C5  DEN d   1       2.821   1.659   1.504  0.00  0.00    -0.003 A 
ATOM      6  C6  DEN d   1       1.706   2.456   1.504  0.00  0.00     0.001 A 
ATOM      7  C7  DEN d   1       1.846   3.818   1.520  0.00  0.00     0.017 A 
ATOM      8  C8  DEN d   1       3.127   4.350   1.588  0.00  0.00    -0.094 A 
ATOM      9  C9  DEN d   1       4.242   3.528   1.575  0.00  0.00    -0.072 A 
ENDROOT
TORSDOF 0
ENDMDL
