MODEL 1
REMARK minimizedAffinity 11.2730865
REMARK minimizedRMSD -1
REMARK  0 active torsions:
REMARK  status: ('A' for Active; 'I' for Inactive)
ROOT
ATOM      1  C1  DEN d   1       2.267  -3.442  -1.033  0.00  0.00     0.130 A 
ATOM      2  C2  DEN d   1       2.090  -2.841   0.287  0.00  0.00    -0.031 A 
ATOM      3  C3  DEN d   1       0.881  -3.427   0.897  0.00  0.00     0.027 A 
ATOM      4  C4  DEN d   1      -0.726  -5.202  -0.065  0.00  0.00     0.027 A 
ATOM      5  C5  DEN d   1      -0.993  -6.000  -1.155  0.00  0.00    -0.003 A 
ATOM      6  C6  DEN d   1      -0.220  -5.977  -2.284  0.00  0.00     0.001 A 
ATOM      7  C7  DEN d   1       0.887  -5.171  -2.333  0.00  0.00     0.017 A 
ATOM      8  C8  DEN d   1       1.160  -4.358  -1.241  0.00  0.00    -0.094 A 
ATOM      9  C9  DEN d   1       0.372  -4.405  -0.103  0.00  0.00    -0.072 A 
ENDROOT
TORSDOF 0
ENDMDL
