MODEL 1
REMARK minimizedAffinity 17.2940483
REMARK minimizedRMSD -1
REMARK  0 active torsions:
REMARK  status: ('A' for Active; 'I' for Inactive)
ROOT
ATOM      1  C1  DEN d   1       1.134   0.530  -4.721  0.00  0.00     0.130 A 
ATOM      2  C2  DEN d   1       1.798   0.966  -3.495  0.00  0.00    -0.031 A 
ATOM      3  C3  DEN d   1       1.069   2.140  -2.974  0.00  0.00     0.027 A 
ATOM      4  C4  DEN d   1      -1.015   3.316  -3.939  0.00  0.00     0.027 A 
ATOM      5  C5  DEN d   1      -1.928   3.314  -4.970  0.00  0.00    -0.003 A 
ATOM      6  C6  DEN d   1      -1.865   2.413  -6.000  0.00  0.00     0.001 A 
ATOM      7  C7  DEN d   1      -0.894   1.447  -5.998  0.00  0.00     0.017 A 
ATOM      8  C8  DEN d   1       0.035   1.447  -4.965  0.00  0.00    -0.094 A 
ATOM      9  C9  DEN d   1      -0.053   2.358  -3.927  0.00  0.00    -0.072 A 
ENDROOT
TORSDOF 0
ENDMDL
