MODEL 1
REMARK minimizedAffinity 4.04812813
REMARK minimizedRMSD -1
REMARK  0 active torsions:
REMARK  status: ('A' for Active; 'I' for Inactive)
ROOT
ATOM      1  C1  DEN d   1      -5.647   4.562  -5.990  0.00  0.00     0.130 A 
ATOM      2  C2  DEN d   1      -5.225   5.959  -5.951  0.00  0.00    -0.031 A 
ATOM      3  C3  DEN d   1      -3.749   5.990  -5.936  0.00  0.00     0.027 A 
ATOM      4  C4  DEN d   1      -2.085   4.020  -5.974  0.00  0.00     0.027 A 
ATOM      5  C5  DEN d   1      -1.970   2.647  -5.997  0.00  0.00    -0.003 A 
ATOM      6  C6  DEN d   1      -3.064   1.823  -5.984  0.00  0.00     0.001 A 
ATOM      7  C7  DEN d   1      -4.322   2.365  -5.994  0.00  0.00     0.017 A 
ATOM      8  C8  DEN d   1      -4.446   3.747  -5.964  0.00  0.00    -0.094 A 
ATOM      9  C9  DEN d   1      -3.328   4.564  -5.989  0.00  0.00    -0.072 A 
ENDROOT
TORSDOF 0
ENDMDL
