MODEL 1
REMARK minimizedAffinity 0.179666638
REMARK minimizedRMSD -1
REMARK  0 active torsions:
REMARK  status: ('A' for Active; 'I' for Inactive)
ROOT
ATOM      1  C1  DEN d   1       4.140   6.000   3.536  0.00  0.00     0.130 A 
ATOM      2  C2  DEN d   1       3.982   4.940   4.528  0.00  0.00    -0.031 A 
ATOM      3  C3  DEN d   1       3.693   3.682   3.810  0.00  0.00     0.027 A 
ATOM      4  C4  DEN d   1       3.481   3.275   1.272  0.00  0.00     0.027 A 
ATOM      5  C5  DEN d   1       3.523   3.873   0.031  0.00  0.00    -0.003 A 
ATOM      6  C6  DEN d   1       3.738   5.216  -0.125  0.00  0.00     0.001 A 
ATOM      7  C7  DEN d   1       3.964   6.000   0.976  0.00  0.00     0.017 A 
ATOM      8  C8  DEN d   1       3.916   5.406   2.230  0.00  0.00    -0.094 A 
ATOM      9  C9  DEN d   1       3.710   4.043   2.367  0.00  0.00    -0.072 A 
ENDROOT
TORSDOF 0
ENDMDL
