MODEL 1
REMARK minimizedAffinity 17.2557621
REMARK minimizedRMSD -1
REMARK  0 active torsions:
REMARK  status: ('A' for Active; 'I' for Inactive)
ROOT
ATOM      1  C1  DEN d   1       4.423   4.874   0.319  0.00  0.00     0.130 A 
ATOM      2  C2  DEN d   1       3.316   4.888  -0.633  0.00  0.00    -0.031 A 
ATOM      3  C3  DEN d   1       2.235   4.041  -0.090  0.00  0.00     0.027 A 
ATOM      4  C4  DEN d   1       2.167   2.720   2.124  0.00  0.00     0.027 A 
ATOM      5  C5  DEN d   1       2.877   2.392   3.258  0.00  0.00    -0.003 A 
ATOM      6  C6  DEN d   1       4.154   2.837   3.474  0.00  0.00     0.001 A 
ATOM      7  C7  DEN d   1       4.745   3.673   2.563  0.00  0.00     0.017 A 
ATOM      8  C8  DEN d   1       4.038   4.002   1.414  0.00  0.00    -0.094 A 
ATOM      9  C9  DEN d   1       2.743   3.552   1.220  0.00  0.00    -0.072 A 
ENDROOT
TORSDOF 0
ENDMDL
