MODEL 1
REMARK minimizedAffinity 4.1314497
REMARK minimizedRMSD -1
REMARK  0 active torsions:
REMARK  status: ('A' for Active; 'I' for Inactive)
ROOT
ATOM      1  C1  DEN d   1       1.801   1.225   0.717  0.00  0.00     0.130 A 
ATOM      2  C2  DEN d   1       1.022   2.453   0.585  0.00  0.00    -0.031 A 
ATOM      3  C3  DEN d   1      -0.406   2.104   0.720  0.00  0.00     0.027 A 
ATOM      4  C4  DEN d   1      -1.481  -0.205   1.126  0.00  0.00     0.027 A 
ATOM      5  C5  DEN d   1      -1.226  -1.548   1.295  0.00  0.00    -0.003 A 
ATOM      6  C6  DEN d   1       0.043  -2.061   1.251  0.00  0.00     0.001 A 
ATOM      7  C7  DEN d   1       1.110  -1.220   1.076  0.00  0.00     0.017 A 
ATOM      8  C8  DEN d   1       0.860   0.135   0.897  0.00  0.00    -0.094 A 
ATOM      9  C9  DEN d   1      -0.429   0.636   0.958  0.00  0.00    -0.072 A 
ENDROOT
TORSDOF 0
ENDMDL
