MODEL 1
REMARK minimizedAffinity 2.07553554
REMARK minimizedRMSD -1
REMARK  0 active torsions:
REMARK  status: ('A' for Active; 'I' for Inactive)
ROOT
ATOM      1  C1  DEN d   1       0.863   5.784  -5.998  0.00  0.00     0.130 A 
ATOM      2  C2  DEN d   1       1.981   4.844  -5.975  0.00  0.00    -0.031 A 
ATOM      3  C3  DEN d   1       1.427   3.476  -5.962  0.00  0.00     0.027 A 
ATOM      4  C4  DEN d   1      -1.041   2.724  -5.979  0.00  0.00     0.027 A 
ATOM      5  C5  DEN d   1      -2.347   3.161  -5.986  0.00  0.00    -0.003 A 
ATOM      6  C6  DEN d   1      -2.672   4.491  -5.963  0.00  0.00     0.001 A 
ATOM      7  C7  DEN d   1      -1.678   5.434  -5.978  0.00  0.00     0.017 A 
ATOM      8  C8  DEN d   1      -0.359   5.001  -5.963  0.00  0.00    -0.094 A 
ATOM      9  C9  DEN d   1      -0.050   3.652  -5.999  0.00  0.00    -0.072 A 
ENDROOT
TORSDOF 0
ENDMDL
