MODEL 1
REMARK minimizedAffinity -0.197291628
REMARK minimizedRMSD -1
REMARK  0 active torsions:
REMARK  status: ('A' for Active; 'I' for Inactive)
ROOT
ATOM      1  C1  DEN d   1       2.829   1.991  -1.507  0.00  0.00     0.130 A 
ATOM      2  C2  DEN d   1       3.256   0.835  -0.725  0.00  0.00    -0.031 A 
ATOM      3  C3  DEN d   1       2.163   0.482   0.203  0.00  0.00     0.027 A 
ATOM      4  C4  DEN d   1      -0.140   1.605   0.499  0.00  0.00     0.027 A 
ATOM      5  C5  DEN d   1      -0.953   2.629   0.067  0.00  0.00    -0.003 A 
ATOM      6  C6  DEN d   1      -0.553   3.526  -0.888  0.00  0.00     0.001 A 
ATOM      7  C7  DEN d   1       0.677   3.388  -1.476  0.00  0.00     0.017 A 
ATOM      8  C8  DEN d   1       1.505   2.363  -1.040  0.00  0.00    -0.094 A 
ATOM      9  C9  DEN d   1       1.078   1.459  -0.082  0.00  0.00    -0.072 A 
ENDROOT
TORSDOF 0
ENDMDL
