MODEL 1
REMARK minimizedAffinity 3.15425634
REMARK minimizedRMSD -1
REMARK  0 active torsions:
REMARK  status: ('A' for Active; 'I' for Inactive)
ROOT
ATOM      1  C1  DEN d   1      -0.008   4.289  -5.902  0.00  0.00     0.130 A 
ATOM      2  C2  DEN d   1       0.756   3.047  -5.813  0.00  0.00    -0.031 A 
ATOM      3  C3  DEN d   1      -0.202   1.923  -5.800  0.00  0.00     0.027 A 
ATOM      4  C4  DEN d   1      -2.778   1.984  -5.912  0.00  0.00     0.027 A 
ATOM      5  C5  DEN d   1      -3.879   2.809  -5.984  0.00  0.00    -0.003 A 
ATOM      6  C6  DEN d   1      -3.769   4.174  -5.999  0.00  0.00     0.001 A 
ATOM      7  C7  DEN d   1      -2.529   4.756  -5.987  0.00  0.00     0.017 A 
ATOM      8  C8  DEN d   1      -1.414   3.931  -5.907  0.00  0.00    -0.094 A 
ATOM      9  C9  DEN d   1      -1.546   2.553  -5.905  0.00  0.00    -0.072 A 
ENDROOT
TORSDOF 0
ENDMDL
