MODEL 1
REMARK minimizedAffinity -3.77503347
REMARK minimizedRMSD -1
REMARK  0 active torsions:
REMARK  status: ('A' for Active; 'I' for Inactive)
ROOT
ATOM      1  C1  DEN d   1      -0.354   4.259  -5.984  0.00  0.00     0.130 A 
ATOM      2  C2  DEN d   1       0.293   2.961  -5.815  0.00  0.00    -0.031 A 
ATOM      3  C3  DEN d   1      -0.764   1.942  -5.655  0.00  0.00     0.027 A 
ATOM      4  C4  DEN d   1      -3.325   2.247  -5.656  0.00  0.00     0.027 A 
ATOM      5  C5  DEN d   1      -4.346   3.167  -5.755  0.00  0.00    -0.003 A 
ATOM      6  C6  DEN d   1      -4.109   4.508  -5.901  0.00  0.00     0.001 A 
ATOM      7  C7  DEN d   1      -2.821   4.963  -5.999  0.00  0.00     0.017 A 
ATOM      8  C8  DEN d   1      -1.786   4.043  -5.893  0.00  0.00    -0.094 A 
ATOM      9  C9  DEN d   1      -2.046   2.690  -5.757  0.00  0.00    -0.072 A 
ENDROOT
TORSDOF 0
ENDMDL
