MODEL 1
REMARK minimizedAffinity 4.69423151
REMARK minimizedRMSD -1
REMARK  0 active torsions:
REMARK  status: ('A' for Active; 'I' for Inactive)
ROOT
ATOM      1  C1  DEN d   1      -0.039   5.094  -5.999  0.00  0.00     0.130 A 
ATOM      2  C2  DEN d   1       0.848   3.934  -5.961  0.00  0.00    -0.031 A 
ATOM      3  C3  DEN d   1       0.009   2.719  -5.944  0.00  0.00     0.027 A 
ATOM      4  C4  DEN d   1      -2.563   2.521  -5.979  0.00  0.00     0.027 A 
ATOM      5  C5  DEN d   1      -3.743   3.231  -6.000  0.00  0.00    -0.003 A 
ATOM      6  C6  DEN d   1      -3.771   4.601  -5.988  0.00  0.00     0.001 A 
ATOM      7  C7  DEN d   1      -2.596   5.304  -6.000  0.00  0.00     0.017 A 
ATOM      8  C8  DEN d   1      -1.402   4.596  -5.971  0.00  0.00    -0.094 A 
ATOM      9  C9  DEN d   1      -1.394   3.211  -5.996  0.00  0.00    -0.072 A 
ENDROOT
TORSDOF 0
ENDMDL
