MODEL 1
REMARK minimizedAffinity -2.7269907
REMARK minimizedRMSD -1
REMARK  0 active torsions:
REMARK  status: ('A' for Active; 'I' for Inactive)
ROOT
ATOM      1  C1  DEN d   1      -3.376   2.058  -5.724  0.00  0.00     0.130 A 
ATOM      2  C2  DEN d   1      -4.461   3.024  -5.868  0.00  0.00    -0.031 A 
ATOM      3  C3  DEN d   1      -3.863   4.367  -6.000  0.00  0.00     0.027 A 
ATOM      4  C4  DEN d   1      -1.373   5.041  -6.000  0.00  0.00     0.027 A 
ATOM      5  C5  DEN d   1      -0.083   4.571  -5.894  0.00  0.00    -0.003 A 
ATOM      6  C6  DEN d   1       0.197   3.245  -5.692  0.00  0.00     0.001 A 
ATOM      7  C7  DEN d   1      -0.827   2.337  -5.634  0.00  0.00     0.017 A 
ATOM      8  C8  DEN d   1      -2.131   2.805  -5.732  0.00  0.00    -0.094 A 
ATOM      9  C9  DEN d   1      -2.392   4.147  -5.949  0.00  0.00    -0.072 A 
ENDROOT
TORSDOF 0
ENDMDL
