MODEL 1
REMARK minimizedAffinity -1.05742228
REMARK minimizedRMSD -1
REMARK  0 active torsions:
REMARK  status: ('A' for Active; 'I' for Inactive)
ROOT
ATOM      1  C1  DEN d   1      -4.124   3.736  -5.969  0.00  0.00     0.130 A 
ATOM      2  C2  DEN d   1      -4.560   5.129  -5.995  0.00  0.00    -0.031 A 
ATOM      3  C3  DEN d   1      -3.356   5.984  -5.999  0.00  0.00     0.027 A 
ATOM      4  C4  DEN d   1      -0.872   5.289  -5.971  0.00  0.00     0.027 A 
ATOM      5  C5  DEN d   1      -0.007   4.219  -5.935  0.00  0.00    -0.003 A 
ATOM      6  C6  DEN d   1      -0.449   2.924  -5.874  0.00  0.00     0.001 A 
ATOM      7  C7  DEN d   1      -1.794   2.664  -5.893  0.00  0.00     0.017 A 
ATOM      8  C8  DEN d   1      -2.673   3.739  -5.922  0.00  0.00    -0.094 A 
ATOM      9  C9  DEN d   1      -2.206   5.040  -5.995  0.00  0.00    -0.072 A 
ENDROOT
TORSDOF 0
ENDMDL
