MODEL 1
REMARK minimizedAffinity 9.53643894
REMARK minimizedRMSD -1
REMARK  2 active torsions:
REMARK  status: ('A' for Active; 'I' for Inactive)
REMARK    1  A    between atoms: C1_2  and  C2_3 
REMARK    2  A    between atoms: C2_3  and  C3_4 
ROOT
ATOM      1  C3  UNL d   1       2.627  -5.834  -2.297  0.00  0.00    -0.075 A 
ATOM      2  C4  UNL d   1       2.497  -6.000  -0.910  0.00  0.00     0.002 A 
ATOM      3  C5  UNL d   1       1.252  -5.873  -0.295  0.00  0.00     0.002 A 
ATOM      4  C6  UNL d   1       0.124  -5.569  -1.055  0.00  0.00    -0.004 A 
ATOM      5  C7  UNL d   1       0.244  -5.386  -2.431  0.00  0.00     0.002 A 
ATOM      6  C8  UNL d   1       1.488  -5.517  -3.049  0.00  0.00     0.002 A 
ENDROOT
BRANCH   1   7
ATOM      7  C2  UNL d   1       3.967  -6.000  -2.973  0.00  0.00     0.056 C 
BRANCH   7   8
ATOM      8  C1  UNL d   1       4.152  -5.122  -4.215  0.00  0.00     0.007 C 
ATOM      9  C   UNL d   1       4.047  -5.900  -5.521  0.00  0.00     0.009 C 
ENDBRANCH   7   8
ENDBRANCH   1   7
TORSDOF 2
ENDMDL
