MODEL 1
REMARK minimizedAffinity 6.55836105
REMARK minimizedRMSD -1
REMARK  2 active torsions:
REMARK  status: ('A' for Active; 'I' for Inactive)
REMARK    1  A    between atoms: C1_2  and  C2_3 
REMARK    2  A    between atoms: C2_3  and  C3_4 
ROOT
ATOM      1  C3  UNL d   1      -4.950  -4.193  -3.530  0.00  0.00    -0.075 A 
ATOM      2  C4  UNL d   1      -5.857  -3.833  -4.538  0.00  0.00     0.002 A 
ATOM      3  C5  UNL d   1      -5.856  -4.501  -5.763  0.00  0.00     0.002 A 
ATOM      4  C6  UNL d   1      -4.944  -5.527  -6.000  0.00  0.00    -0.004 A 
ATOM      5  C7  UNL d   1      -4.028  -5.881  -5.012  0.00  0.00     0.002 A 
ATOM      6  C8  UNL d   1      -4.029  -5.218  -3.783  0.00  0.00     0.002 A 
ENDROOT
BRANCH   1   7
ATOM      7  C2  UNL d   1      -4.966  -3.494  -2.191  0.00  0.00     0.056 C 
BRANCH   7   8
ATOM      8  C1  UNL d   1      -5.827  -2.227  -2.159  0.00  0.00     0.007 C 
ATOM      9  C   UNL d   1      -5.034  -0.956  -2.429  0.00  0.00     0.009 C 
ENDBRANCH   7   8
ENDBRANCH   1   7
TORSDOF 2
ENDMDL
