MODEL 1
REMARK minimizedAffinity 1.6091764
REMARK minimizedRMSD -1
REMARK  2 active torsions:
REMARK  status: ('A' for Active; 'I' for Inactive)
REMARK    1  A    between atoms: C1_2  and  C2_3 
REMARK    2  A    between atoms: C2_3  and  C3_4 
ROOT
ATOM      1  C3  UNL d   1       3.802  -1.515  -4.528  0.00  0.00    -0.075 A 
ATOM      2  C4  UNL d   1       5.072  -1.480  -5.122  0.00  0.00     0.002 A 
ATOM      3  C5  UNL d   1       5.483  -0.362  -5.849  0.00  0.00     0.002 A 
ATOM      4  C6  UNL d   1       4.629   0.728  -6.000  0.00  0.00    -0.004 A 
ATOM      5  C7  UNL d   1       3.359   0.697  -5.428  0.00  0.00     0.002 A 
ATOM      6  C8  UNL d   1       2.946  -0.418  -4.697  0.00  0.00     0.002 A 
ENDROOT
BRANCH   1   7
ATOM      7  C2  UNL d   1       3.361  -2.709  -3.716  0.00  0.00     0.056 C 
BRANCH   7   8
ATOM      8  C1  UNL d   1       1.847  -2.785  -3.489  0.00  0.00     0.007 C 
ATOM      9  C   UNL d   1       1.468  -2.975  -2.027  0.00  0.00     0.009 C 
ENDBRANCH   7   8
ENDBRANCH   1   7
TORSDOF 2
ENDMDL
