MODEL 1
REMARK minimizedAffinity 0.209377989
REMARK minimizedRMSD -1
REMARK  2 active torsions:
REMARK  status: ('A' for Active; 'I' for Inactive)
REMARK    1  A    between atoms: C1_2  and  C2_3 
REMARK    2  A    between atoms: C2_3  and  C3_4 
ROOT
ATOM      1  C3  UNL d   1       3.487   5.485  -3.104  0.00  0.00    -0.075 A 
ATOM      2  C4  UNL d   1       4.616   5.677  -2.295  0.00  0.00     0.002 A 
ATOM      3  C5  UNL d   1       5.863   5.933  -2.866  0.00  0.00     0.002 A 
ATOM      4  C6  UNL d   1       5.999   5.990  -4.252  0.00  0.00    -0.004 A 
ATOM      5  C7  UNL d   1       4.887   5.785  -5.066  0.00  0.00     0.002 A 
ATOM      6  C8  UNL d   1       3.638   5.532  -4.497  0.00  0.00     0.002 A 
ENDROOT
BRANCH   1   7
ATOM      7  C2  UNL d   1       2.130   5.236  -2.491  0.00  0.00     0.056 C 
BRANCH   7   8
ATOM      8  C1  UNL d   1       2.115   4.119  -1.442  0.00  0.00     0.007 C 
ATOM      9  C   UNL d   1       0.840   4.095  -0.610  0.00  0.00     0.009 C 
ENDBRANCH   7   8
ENDBRANCH   1   7
TORSDOF 2
ENDMDL
