MODEL 1
REMARK minimizedAffinity 11.8535309
REMARK minimizedRMSD -1
REMARK  2 active torsions:
REMARK  status: ('A' for Active; 'I' for Inactive)
REMARK    1  A    between atoms: C1_2  and  C2_3 
REMARK    2  A    between atoms: C2_3  and  C3_4 
ROOT
ATOM      1  C3  UNL d   1       1.850  -1.683   3.008  0.00  0.00    -0.075 A 
ATOM      2  C4  UNL d   1       2.610  -0.532   2.754  0.00  0.00     0.002 A 
ATOM      3  C5  UNL d   1       2.190   0.398   1.802  0.00  0.00     0.002 A 
ATOM      4  C6  UNL d   1       1.013   0.185   1.088  0.00  0.00    -0.004 A 
ATOM      5  C7  UNL d   1       0.259  -0.963   1.321  0.00  0.00     0.002 A 
ATOM      6  C8  UNL d   1       0.675  -1.893   2.275  0.00  0.00     0.002 A 
ENDROOT
BRANCH   1   7
ATOM      7  C2  UNL d   1       2.284  -2.679   4.057  0.00  0.00     0.056 C 
BRANCH   7   8
ATOM      8  C1  UNL d   1       1.521  -2.563   5.380  0.00  0.00     0.007 C 
ATOM      9  C   UNL d   1       1.181  -3.914   5.997  0.00  0.00     0.009 C 
ENDBRANCH   7   8
ENDBRANCH   1   7
TORSDOF 2
ENDMDL
