MODEL 1
REMARK minimizedAffinity 1.4332329
REMARK minimizedRMSD -1
REMARK  2 active torsions:
REMARK  status: ('A' for Active; 'I' for Inactive)
REMARK    1  A    between atoms: C1_2  and  C2_3 
REMARK    2  A    between atoms: C2_3  and  C3_4 
ROOT
ATOM      1  C3  UNL d   1       5.535  -3.005  -4.842  0.00  0.00    -0.075 A 
ATOM      2  C4  UNL d   1       5.918  -3.697  -6.000  0.00  0.00     0.002 A 
ATOM      3  C5  UNL d   1       6.000  -5.090  -5.998  0.00  0.00     0.002 A 
ATOM      4  C6  UNL d   1       5.710  -5.806  -4.839  0.00  0.00    -0.004 A 
ATOM      5  C7  UNL d   1       5.344  -5.128  -3.679  0.00  0.00     0.002 A 
ATOM      6  C8  UNL d   1       5.257  -3.735  -3.679  0.00  0.00     0.002 A 
ENDROOT
BRANCH   1   7
ATOM      7  C2  UNL d   1       5.416  -1.500  -4.845  0.00  0.00     0.056 C 
BRANCH   7   8
ATOM      8  C1  UNL d   1       3.972  -0.988  -4.872  0.00  0.00     0.007 C 
ATOM      9  C   UNL d   1       3.688   0.063  -3.807  0.00  0.00     0.009 C 
ENDBRANCH   7   8
ENDBRANCH   1   7
TORSDOF 2
ENDMDL
