MODEL 1
REMARK minimizedAffinity 7.11181068
REMARK minimizedRMSD -1
REMARK  2 active torsions:
REMARK  status: ('A' for Active; 'I' for Inactive)
REMARK    1  A    between atoms: C1_2  and  C2_3 
REMARK    2  A    between atoms: C2_3  and  C3_4 
ROOT
ATOM      1  C3  UNL d   1      -4.887  -3.237  -5.045  0.00  0.00    -0.075 A 
ATOM      2  C4  UNL d   1      -4.288  -4.076  -4.094  0.00  0.00     0.002 A 
ATOM      3  C5  UNL d   1      -4.533  -5.449  -4.106  0.00  0.00     0.002 A 
ATOM      4  C6  UNL d   1      -5.386  -5.999  -5.060  0.00  0.00    -0.004 A 
ATOM      5  C7  UNL d   1      -6.000  -5.174  -5.999  0.00  0.00     0.002 A 
ATOM      6  C8  UNL d   1      -5.753  -3.800  -5.993  0.00  0.00     0.002 A 
ENDROOT
BRANCH   1   7
ATOM      7  C2  UNL d   1      -4.603  -1.754  -5.056  0.00  0.00     0.056 C 
BRANCH   7   8
ATOM      8  C1  UNL d   1      -3.693  -1.285  -3.916  0.00  0.00     0.007 C 
ATOM      9  C   UNL d   1      -3.710   0.225  -3.717  0.00  0.00     0.009 C 
ENDBRANCH   7   8
ENDBRANCH   1   7
TORSDOF 2
ENDMDL
