MODEL 1
REMARK minimizedAffinity -1.4818728
REMARK minimizedRMSD -1
REMARK  0 active torsions:
REMARK  status: ('A' for Active; 'I' for Inactive)
ROOT
ATOM      1  C2' OXE d   1       0.459   4.297   1.965  0.00  0.00     0.078 C 
ATOM      2  C1' OXE d   1      -1.036   1.925   2.113  0.00  0.00     0.078 C 
ATOM      3  C1  OXE d   1      -0.727   2.478   0.744  0.00  0.00    -0.078 A 
ATOM      4  C2  OXE d   1      -0.035   3.663   0.682  0.00  0.00    -0.078 A 
ATOM      5  C3  OXE d   1       0.324   4.188  -0.556  0.00  0.00     0.003 A 
ATOM      6  C4  OXE d   1      -0.145   3.602  -1.738  0.00  0.00    -0.002 A 
ATOM      7  C5  OXE d   1      -0.885   2.415  -1.696  0.00  0.00    -0.002 A 
ATOM      8  C6  OXE d   1      -1.148   1.818  -0.468  0.00  0.00     0.003 A 
ENDROOT
TORSDOF 0
ENDMDL
