MODEL 1
REMARK minimizedAffinity 1.78417826
REMARK minimizedRMSD -1
REMARK  0 active torsions:
REMARK  status: ('A' for Active; 'I' for Inactive)
ROOT
ATOM      1  C2' OXE d   1       0.822   4.401   1.150  0.00  0.00     0.078 C 
ATOM      2  C1' OXE d   1      -0.439   1.912   1.459  0.00  0.00     0.078 C 
ATOM      3  C1  OXE d   1      -0.463   2.548   0.092  0.00  0.00    -0.078 A 
ATOM      4  C2  OXE d   1       0.116   3.787  -0.039  0.00  0.00    -0.078 A 
ATOM      5  C3  OXE d   1       0.169   4.394  -1.291  0.00  0.00     0.003 A 
ATOM      6  C4  OXE d   1      -0.496   3.824  -2.384  0.00  0.00    -0.002 A 
ATOM      7  C5  OXE d   1      -1.126   2.581  -2.262  0.00  0.00    -0.002 A 
ATOM      8  C6  OXE d   1      -1.082   1.911  -1.044  0.00  0.00     0.003 A 
ENDROOT
TORSDOF 0
ENDMDL
