MODEL 1
REMARK minimizedAffinity 4.48306656
REMARK minimizedRMSD -1
REMARK  0 active torsions:
REMARK  status: ('A' for Active; 'I' for Inactive)
ROOT
ATOM      1  C2' OXE d   1       0.029   2.773   4.308  0.00  0.00     0.078 C 
ATOM      2  C1' OXE d   1      -1.711   0.839   3.253  0.00  0.00     0.078 C 
ATOM      3  C1  OXE d   1      -0.991   1.741   2.283  0.00  0.00    -0.078 A 
ATOM      4  C2  OXE d   1      -0.178   2.716   2.810  0.00  0.00    -0.078 A 
ATOM      5  C3  OXE d   1       0.552   3.539   1.957  0.00  0.00     0.003 A 
ATOM      6  C4  OXE d   1       0.348   3.486   0.573  0.00  0.00    -0.002 A 
ATOM      7  C5  OXE d   1      -0.506   2.527   0.018  0.00  0.00    -0.002 A 
ATOM      8  C6  OXE d   1      -1.149   1.622   0.854  0.00  0.00     0.003 A 
ENDROOT
TORSDOF 0
ENDMDL
