MODEL 1
REMARK minimizedAffinity 4.83709383
REMARK minimizedRMSD -1
REMARK  0 active torsions:
REMARK  status: ('A' for Active; 'I' for Inactive)
ROOT
ATOM      1  C2' OXE d   1       1.000   3.894   0.353  0.00  0.00     0.078 C 
ATOM      2  C1' OXE d   1       1.984   4.670  -2.159  0.00  0.00     0.078 C 
ATOM      3  C1  OXE d   1       0.581   4.120  -2.092  0.00  0.00    -0.078 A 
ATOM      4  C2  OXE d   1       0.125   3.699  -0.866  0.00  0.00    -0.078 A 
ATOM      5  C3  OXE d   1      -1.181   3.233  -0.740  0.00  0.00     0.003 A 
ATOM      6  C4  OXE d   1      -1.980   3.047  -1.874  0.00  0.00    -0.002 A 
ATOM      7  C5  OXE d   1      -1.520   3.432  -3.138  0.00  0.00    -0.002 A 
ATOM      8  C6  OXE d   1      -0.260   4.008  -3.258  0.00  0.00     0.003 A 
ENDROOT
TORSDOF 0
ENDMDL
