MODEL 1
REMARK minimizedAffinity 9.58659649
REMARK minimizedRMSD -1
REMARK  0 active torsions:
REMARK  status: ('A' for Active; 'I' for Inactive)
ROOT
ATOM      1  C2' OXE d   1       2.012   4.534  -2.669  0.00  0.00     0.078 C 
ATOM      2  C1' OXE d   1      -0.576   3.947  -3.585  0.00  0.00     0.078 C 
ATOM      3  C1  OXE d   1      -0.304   3.806  -2.108  0.00  0.00    -0.078 A 
ATOM      4  C2  OXE d   1       0.978   4.050  -1.675  0.00  0.00    -0.078 A 
ATOM      5  C3  OXE d   1       1.270   3.988  -0.316  0.00  0.00     0.003 A 
ATOM      6  C4  OXE d   1       0.310   3.530   0.595  0.00  0.00    -0.002 A 
ATOM      7  C5  OXE d   1      -0.990   3.238   0.170  0.00  0.00    -0.002 A 
ATOM      8  C6  OXE d   1      -1.324   3.411  -1.169  0.00  0.00     0.003 A 
ENDROOT
TORSDOF 0
ENDMDL
