MODEL 1
REMARK minimizedAffinity 15.5649796
REMARK minimizedRMSD -1
REMARK  0 active torsions:
REMARK  status: ('A' for Active; 'I' for Inactive)
ROOT
ATOM      1  C2' OXE d   1      -1.868   0.288  -0.100  0.00  0.00     0.078 C 
ATOM      2  C1' OXE d   1       0.623  -0.148   1.118  0.00  0.00     0.078 C 
ATOM      3  C1  OXE d   1       0.285   1.259   0.691  0.00  0.00    -0.078 A 
ATOM      4  C2  OXE d   1      -0.916   1.455   0.053  0.00  0.00    -0.078 A 
ATOM      5  C3  OXE d   1      -1.301   2.741  -0.312  0.00  0.00     0.003 A 
ATOM      6  C4  OXE d   1      -0.411   3.813  -0.176  0.00  0.00    -0.002 A 
ATOM      7  C5  OXE d   1       0.834   3.628   0.434  0.00  0.00    -0.002 A 
ATOM      8  C6  OXE d   1       1.180   2.369   0.911  0.00  0.00     0.003 A 
ENDROOT
TORSDOF 0
ENDMDL
