MODEL 1
REMARK minimizedAffinity 10.5574369
REMARK minimizedRMSD -1
REMARK  0 active torsions:
REMARK  status: ('A' for Active; 'I' for Inactive)
ROOT
ATOM      1  C2' OXE d   1       0.805   5.554  -1.623  0.00  0.00     0.078 C 
ATOM      2  C1' OXE d   1      -1.047   3.938  -2.979  0.00  0.00     0.078 C 
ATOM      3  C1  OXE d   1      -0.746   3.607  -1.538  0.00  0.00    -0.078 A 
ATOM      4  C2  OXE d   1       0.196   4.375  -0.897  0.00  0.00    -0.078 A 
ATOM      5  C3  OXE d   1       0.471   4.147   0.448  0.00  0.00     0.003 A 
ATOM      6  C4  OXE d   1      -0.090   3.048   1.110  0.00  0.00    -0.002 A 
ATOM      7  C5  OXE d   1      -1.022   2.229   0.463  0.00  0.00    -0.002 A 
ATOM      8  C6  OXE d   1      -1.393   2.521  -0.845  0.00  0.00     0.003 A 
ENDROOT
TORSDOF 0
ENDMDL
