MODEL 1
REMARK minimizedAffinity 1.73759663
REMARK minimizedRMSD -1
REMARK  0 active torsions:
REMARK  status: ('A' for Active; 'I' for Inactive)
ROOT
ATOM      1  C2' OXE d   1      -1.008   1.181   0.481  0.00  0.00     0.078 C 
ATOM      2  C1' OXE d   1      -1.450   1.767  -2.228  0.00  0.00     0.078 C 
ATOM      3  C1  OXE d   1      -0.635   2.746  -1.421  0.00  0.00    -0.078 A 
ATOM      4  C2  OXE d   1      -0.463   2.474  -0.085  0.00  0.00    -0.078 A 
ATOM      5  C3  OXE d   1       0.327   3.316   0.693  0.00  0.00     0.003 A 
ATOM      6  C4  OXE d   1       0.819   4.516   0.165  0.00  0.00    -0.002 A 
ATOM      7  C5  OXE d   1       0.621   4.831  -1.184  0.00  0.00    -0.002 A 
ATOM      8  C6  OXE d   1      -0.066   3.938  -1.999  0.00  0.00     0.003 A 
ENDROOT
TORSDOF 0
ENDMDL
