MODEL 1
REMARK minimizedAffinity 14.7373724
REMARK minimizedRMSD -1
REMARK  0 active torsions:
REMARK  status: ('A' for Active; 'I' for Inactive)
ROOT
ATOM      1  C2' OXE d   1       0.902  -0.029  -5.953  0.00  0.00     0.078 C 
ATOM      2  C1' OXE d   1      -0.328  -2.553  -5.974  0.00  0.00     0.078 C 
ATOM      3  C1  OXE d   1       1.179  -2.505  -5.954  0.00  0.00    -0.078 A 
ATOM      4  C2  OXE d   1       1.773  -1.267  -5.992  0.00  0.00    -0.078 A 
ATOM      5  C3  OXE d   1       3.160  -1.165  -5.921  0.00  0.00     0.003 A 
ATOM      6  C4  OXE d   1       3.958  -2.314  -5.967  0.00  0.00    -0.002 A 
ATOM      7  C5  OXE d   1       3.374  -3.585  -5.970  0.00  0.00    -0.002 A 
ATOM      8  C6  OXE d   1       1.989  -3.698  -5.921  0.00  0.00     0.003 A 
ENDROOT
TORSDOF 0
ENDMDL
