MODEL 1
REMARK minimizedAffinity 8.87160969
REMARK minimizedRMSD -1
REMARK  0 active torsions:
REMARK  status: ('A' for Active; 'I' for Inactive)
ROOT
ATOM      1  C2' OXE d   1      -0.956   1.933   0.054  0.00  0.00     0.078 C 
ATOM      2  C1' OXE d   1      -0.909   2.649  -2.660  0.00  0.00     0.078 C 
ATOM      3  C1  OXE d   1      -0.087   3.474  -1.701  0.00  0.00    -0.078 A 
ATOM      4  C2  OXE d   1      -0.153   3.145  -0.368  0.00  0.00    -0.078 A 
ATOM      5  C3  OXE d   1       0.628   3.838   0.552  0.00  0.00     0.003 A 
ATOM      6  C4  OXE d   1       1.360   4.964   0.156  0.00  0.00    -0.002 A 
ATOM      7  C5  OXE d   1       1.409   5.340  -1.191  0.00  0.00    -0.002 A 
ATOM      8  C6  OXE d   1       0.726   4.582  -2.136  0.00  0.00     0.003 A 
ENDROOT
TORSDOF 0
ENDMDL
