MODEL 1
REMARK minimizedAffinity 12.0639849
REMARK minimizedRMSD -1
REMARK  0 active torsions:
REMARK  status: ('A' for Active; 'I' for Inactive)
ROOT
ATOM      1  C2' OXE d   1      -0.273   1.729   0.038  0.00  0.00     0.078 C 
ATOM      2  C1' OXE d   1      -0.434   2.556  -2.640  0.00  0.00     0.078 C 
ATOM      3  C1  OXE d   1       0.137   3.527  -1.637  0.00  0.00    -0.078 A 
ATOM      4  C2  OXE d   1       0.168   3.132  -0.321  0.00  0.00    -0.078 A 
ATOM      5  C3  OXE d   1       0.735   3.968   0.637  0.00  0.00     0.003 A 
ATOM      6  C4  OXE d   1       1.132   5.267   0.298  0.00  0.00    -0.002 A 
ATOM      7  C5  OXE d   1       1.072   5.704  -1.029  0.00  0.00    -0.002 A 
ATOM      8  C6  OXE d   1       0.617   4.834  -2.014  0.00  0.00     0.003 A 
ENDROOT
TORSDOF 0
ENDMDL
