MODEL 1
REMARK minimizedAffinity 5.88923168
REMARK minimizedRMSD -1
REMARK  0 active torsions:
REMARK  status: ('A' for Active; 'I' for Inactive)
ROOT
ATOM      1  C2' OXE d   1      -2.753   5.999  -1.806  0.00  0.00     0.078 C 
ATOM      2  C1' OXE d   1      -2.318   5.828   0.962  0.00  0.00     0.078 C 
ATOM      3  C1  OXE d   1      -1.440   4.998   0.059  0.00  0.00    -0.078 A 
ATOM      4  C2  OXE d   1      -1.691   5.052  -1.291  0.00  0.00    -0.078 A 
ATOM      5  C3  OXE d   1      -0.875   4.349  -2.172  0.00  0.00     0.003 A 
ATOM      6  C4  OXE d   1       0.099   3.468  -1.687  0.00  0.00    -0.002 A 
ATOM      7  C5  OXE d   1       0.344   3.367  -0.314  0.00  0.00    -0.002 A 
ATOM      8  C6  OXE d   1      -0.386   4.156   0.569  0.00  0.00     0.003 A 
ENDROOT
TORSDOF 0
ENDMDL
