MODEL 1
REMARK minimizedAffinity 8.83683872
REMARK minimizedRMSD -1
REMARK  0 active torsions:
REMARK  status: ('A' for Active; 'I' for Inactive)
ROOT
ATOM      1  C2' OXE d   1       0.973   4.456   1.174  0.00  0.00     0.078 C 
ATOM      2  C1' OXE d   1      -0.443   2.085   0.674  0.00  0.00     0.078 C 
ATOM      3  C1  OXE d   1      -0.402   3.123  -0.419  0.00  0.00    -0.078 A 
ATOM      4  C2  OXE d   1       0.254   4.300  -0.148  0.00  0.00    -0.078 A 
ATOM      5  C3  OXE d   1       0.368   5.269  -1.141  0.00  0.00     0.003 A 
ATOM      6  C4  OXE d   1      -0.308   5.121  -2.358  0.00  0.00    -0.002 A 
ATOM      7  C5  OXE d   1      -1.016   3.947  -2.639  0.00  0.00    -0.002 A 
ATOM      8  C6  OXE d   1      -1.037   2.923  -1.698  0.00  0.00     0.003 A 
ENDROOT
TORSDOF 0
ENDMDL
