MODEL 1
REMARK minimizedAffinity 7.27203655
REMARK minimizedRMSD -1
REMARK  0 active torsions:
REMARK  status: ('A' for Active; 'I' for Inactive)
ROOT
ATOM      1  C2' OXE d   1      -2.478   1.003  -1.780  0.00  0.00     0.078 C 
ATOM      2  C1' OXE d   1      -1.498   3.098  -3.371  0.00  0.00     0.078 C 
ATOM      3  C1  OXE d   1      -0.974   2.980  -1.962  0.00  0.00    -0.078 A 
ATOM      4  C2  OXE d   1      -1.493   1.980  -1.175  0.00  0.00    -0.078 A 
ATOM      5  C3  OXE d   1      -1.004   1.793   0.114  0.00  0.00     0.003 A 
ATOM      6  C4  OXE d   1      -0.101   2.707   0.669  0.00  0.00    -0.002 A 
ATOM      7  C5  OXE d   1       0.411   3.756  -0.101  0.00  0.00    -0.002 A 
ATOM      8  C6  OXE d   1       0.018   3.881  -1.429  0.00  0.00     0.003 A 
ENDROOT
TORSDOF 0
ENDMDL
