MODEL 1
REMARK minimizedAffinity 5.35688162
REMARK minimizedRMSD -1
REMARK  0 active torsions:
REMARK  status: ('A' for Active; 'I' for Inactive)
ROOT
ATOM      1  C2' OXE d   1      -0.846   5.876   0.523  0.00  0.00     0.078 C 
ATOM      2  C1' OXE d   1       0.877   3.660   0.505  0.00  0.00     0.078 C 
ATOM      3  C1  OXE d   1      -0.004   3.876  -0.700  0.00  0.00    -0.078 A 
ATOM      4  C2  OXE d   1      -0.877   4.936  -0.663  0.00  0.00    -0.078 A 
ATOM      5  C3  OXE d   1      -1.673   5.213  -1.771  0.00  0.00     0.003 A 
ATOM      6  C4  OXE d   1      -1.703   4.333  -2.860  0.00  0.00    -0.002 A 
ATOM      7  C5  OXE d   1      -0.850   3.225  -2.901  0.00  0.00    -0.002 A 
ATOM      8  C6  OXE d   1       0.034   3.007  -1.850  0.00  0.00     0.003 A 
ENDROOT
TORSDOF 0
ENDMDL
