MODEL 1
REMARK minimizedAffinity 6.36680603
REMARK minimizedRMSD -1
REMARK  0 active torsions:
REMARK  status: ('A' for Active; 'I' for Inactive)
ROOT
ATOM      1  C2' OXE d   1      -0.140   1.461   2.510  0.00  0.00     0.078 C 
ATOM      2  C1' OXE d   1      -2.920   1.097   2.634  0.00  0.00     0.078 C 
ATOM      3  C1  OXE d   1      -2.041  -0.024   3.128  0.00  0.00    -0.078 A 
ATOM      4  C2  OXE d   1      -0.682   0.144   3.021  0.00  0.00    -0.078 A 
ATOM      5  C3  OXE d   1       0.175  -0.837   3.512  0.00  0.00     0.003 A 
ATOM      6  C4  OXE d   1      -0.334  -2.057   3.973  0.00  0.00    -0.002 A 
ATOM      7  C5  OXE d   1      -1.715  -2.265   4.054  0.00  0.00    -0.002 A 
ATOM      8  C6  OXE d   1      -2.581  -1.244   3.676  0.00  0.00     0.003 A 
ENDROOT
TORSDOF 0
ENDMDL
