MODEL 1
REMARK minimizedAffinity 0.0980480611
REMARK minimizedRMSD -1
REMARK  0 active torsions:
REMARK  status: ('A' for Active; 'I' for Inactive)
ROOT
ATOM      1  C2' OXE d   1      -1.122  -4.853   5.435  0.00  0.00     0.078 C 
ATOM      2  C1' OXE d   1      -0.865  -2.219   4.497  0.00  0.00     0.078 C 
ATOM      3  C1  OXE d   1      -2.209  -2.647   5.033  0.00  0.00    -0.078 A 
ATOM      4  C2  OXE d   1      -2.338  -3.951   5.446  0.00  0.00    -0.078 A 
ATOM      5  C3  OXE d   1      -3.540  -4.383   6.000  0.00  0.00     0.003 A 
ATOM      6  C4  OXE d   1      -4.663  -3.546   5.997  0.00  0.00    -0.002 A 
ATOM      7  C5  OXE d   1      -4.563  -2.226   5.544  0.00  0.00    -0.002 A 
ATOM      8  C6  OXE d   1      -3.335  -1.749   5.099  0.00  0.00     0.003 A 
ENDROOT
TORSDOF 0
ENDMDL
