MODEL 1
REMARK minimizedAffinity 1.10097337
REMARK minimizedRMSD -1
REMARK  0 active torsions:
REMARK  status: ('A' for Active; 'I' for Inactive)
ROOT
ATOM      1  C2' OXE d   1       0.255   2.250  -0.741  0.00  0.00     0.078 C 
ATOM      2  C1' OXE d   1       0.377   4.154   1.319  0.00  0.00     0.078 C 
ATOM      3  C1  OXE d   1      -0.192   2.796   1.648  0.00  0.00    -0.078 A 
ATOM      4  C2  OXE d   1      -0.291   1.887   0.623  0.00  0.00    -0.078 A 
ATOM      5  C3  OXE d   1      -0.758   0.602   0.885  0.00  0.00     0.003 A 
ATOM      6  C4  OXE d   1      -1.270   0.277   2.147  0.00  0.00    -0.002 A 
ATOM      7  C5  OXE d   1      -1.216   1.202   3.195  0.00  0.00    -0.002 A 
ATOM      8  C6  OXE d   1      -0.642   2.449   2.974  0.00  0.00     0.003 A 
ENDROOT
TORSDOF 0
ENDMDL
