MODEL 1
REMARK minimizedAffinity 8.53611755
REMARK minimizedRMSD -1
REMARK  0 active torsions:
REMARK  status: ('A' for Active; 'I' for Inactive)
ROOT
ATOM      1  C2' OXE d   1      -0.323  -3.838   3.915  0.00  0.00     0.078 C 
ATOM      2  C1' OXE d   1      -2.951  -2.969   4.387  0.00  0.00     0.078 C 
ATOM      3  C1  OXE d   1      -1.935  -1.939   3.960  0.00  0.00    -0.078 A 
ATOM      4  C2  OXE d   1      -0.641  -2.365   3.777  0.00  0.00    -0.078 A 
ATOM      5  C3  OXE d   1       0.324  -1.466   3.331  0.00  0.00     0.003 A 
ATOM      6  C4  OXE d   1       0.024  -0.103   3.215  0.00  0.00    -0.002 A 
ATOM      7  C5  OXE d   1      -1.278   0.358   3.435  0.00  0.00    -0.002 A 
ATOM      8  C6  OXE d   1      -2.277  -0.551   3.766  0.00  0.00     0.003 A 
ENDROOT
TORSDOF 0
ENDMDL
