MODEL 1
REMARK minimizedAffinity -0.624661803
REMARK minimizedRMSD -1
REMARK  0 active torsions:
REMARK  status: ('A' for Active; 'I' for Inactive)
ROOT
ATOM      1  C   UNL d   1       0.420  -1.932   5.250  0.00  0.00     0.172 C 
ATOM      2  N   UNL d   1      -1.004  -1.695   5.249  0.00  0.00    -0.070 N 
ATOM      3  C1  UNL d   1      -1.655  -0.747   4.505  0.00  0.00    -0.004 A 
ATOM      4  C2  UNL d   1      -3.001  -0.841   4.785  0.00  0.00    -0.047 A 
ATOM      5  C3  UNL d   1      -3.165  -1.881   5.730  0.00  0.00    -0.047 A 
ATOM      6  C4  UNL d   1      -1.913  -2.393   6.000  0.00  0.00    -0.004 A 
ENDROOT
TORSDOF 0
ENDMDL
