MODEL 1
REMARK minimizedAffinity 0.0327913053
REMARK minimizedRMSD -1
REMARK  0 active torsions:
REMARK  status: ('A' for Active; 'I' for Inactive)
ROOT
ATOM      1  C   UNL d   1       0.752  -1.489   4.882  0.00  0.00     0.172 C 
ATOM      2  N   UNL d   1      -0.669  -1.381   5.112  0.00  0.00    -0.070 N 
ATOM      3  C1  UNL d   1      -1.394  -2.134   5.997  0.00  0.00    -0.004 A 
ATOM      4  C2  UNL d   1      -2.709  -1.728   5.918  0.00  0.00    -0.047 A 
ATOM      5  C3  UNL d   1      -2.776  -0.696   4.951  0.00  0.00    -0.047 A 
ATOM      6  C4  UNL d   1      -1.500  -0.502   4.468  0.00  0.00    -0.004 A 
ENDROOT
TORSDOF 0
ENDMDL
