MODEL 1
REMARK minimizedAffinity -2.0186162
REMARK minimizedRMSD -1
REMARK  0 active torsions:
REMARK  status: ('A' for Active; 'I' for Inactive)
ROOT
ATOM      1  C   UNL d   1       3.064   2.207   1.133  0.00  0.00     0.172 C 
ATOM      2  N   UNL d   1       1.897   1.540   0.604  0.00  0.00    -0.070 N 
ATOM      3  C1  UNL d   1       0.970   2.098  -0.236  0.00  0.00    -0.004 A 
ATOM      4  C2  UNL d   1       0.018   1.140  -0.509  0.00  0.00    -0.047 A 
ATOM      5  C3  UNL d   1       0.385  -0.034   0.190  0.00  0.00    -0.047 A 
ATOM      6  C4  UNL d   1       1.552   0.242   0.871  0.00  0.00    -0.004 A 
ENDROOT
TORSDOF 0
ENDMDL
