MODEL 1
REMARK minimizedAffinity -3.06394076
REMARK minimizedRMSD -1
REMARK  0 active torsions:
REMARK  status: ('A' for Active; 'I' for Inactive)
ROOT
ATOM      1  C   UNL d   1      -0.137   1.048  -0.220  0.00  0.00     0.172 C 
ATOM      2  N   UNL d   1      -0.610  -0.162   0.412  0.00  0.00    -0.070 N 
ATOM      3  C1  UNL d   1      -1.882  -0.378   0.868  0.00  0.00    -0.004 A 
ATOM      4  C2  UNL d   1      -1.929  -1.649   1.400  0.00  0.00    -0.047 A 
ATOM      5  C3  UNL d   1      -0.640  -2.215   1.259  0.00  0.00    -0.047 A 
ATOM      6  C4  UNL d   1       0.157  -1.273   0.644  0.00  0.00    -0.004 A 
ENDROOT
TORSDOF 0
ENDMDL
