MODEL 1
REMARK minimizedAffinity -3.84635925
REMARK minimizedRMSD -1
REMARK  0 active torsions:
REMARK  status: ('A' for Active; 'I' for Inactive)
ROOT
ATOM      1  C   UNL d   1      -0.052   0.607   0.236  0.00  0.00     0.172 C 
ATOM      2  N   UNL d   1      -0.304  -0.745   0.677  0.00  0.00    -0.070 N 
ATOM      3  C1  UNL d   1       0.050  -1.884   0.004  0.00  0.00    -0.004 A 
ATOM      4  C2  UNL d   1      -0.366  -2.963   0.752  0.00  0.00    -0.047 A 
ATOM      5  C3  UNL d   1      -0.993  -2.456   1.916  0.00  0.00    -0.047 A 
ATOM      6  C4  UNL d   1      -0.940  -1.080   1.843  0.00  0.00    -0.004 A 
ENDROOT
TORSDOF 0
ENDMDL
