MODEL 1
REMARK minimizedAffinity -0.694929242
REMARK minimizedRMSD -1
REMARK  0 active torsions:
REMARK  status: ('A' for Active; 'I' for Inactive)
ROOT
ATOM      1  C   UNL d   1      -1.497   0.015   1.487  0.00  0.00     0.172 C 
ATOM      2  N   UNL d   1      -1.764  -1.367   1.161  0.00  0.00    -0.070 N 
ATOM      3  C1  UNL d   1      -0.828  -2.292   0.781  0.00  0.00    -0.004 A 
ATOM      4  C2  UNL d   1      -1.480  -3.486   0.561  0.00  0.00    -0.047 A 
ATOM      5  C3  UNL d   1      -2.856  -3.270   0.817  0.00  0.00    -0.047 A 
ATOM      6  C4  UNL d   1      -3.003  -1.950   1.186  0.00  0.00    -0.004 A 
ENDROOT
TORSDOF 0
ENDMDL
