MODEL 1
REMARK minimizedAffinity -3.46911883
REMARK minimizedRMSD -1
REMARK  0 active torsions:
REMARK  status: ('A' for Active; 'I' for Inactive)
ROOT
ATOM      1  C   UNL d   1      -0.034   0.205  -1.032  0.00  0.00     0.172 C 
ATOM      2  N   UNL d   1      -0.021  -1.090  -0.393  0.00  0.00    -0.070 N 
ATOM      3  C1  UNL d   1      -0.984  -1.572   0.453  0.00  0.00    -0.004 A 
ATOM      4  C2  UNL d   1      -0.605  -2.837   0.846  0.00  0.00    -0.047 A 
ATOM      5  C3  UNL d   1       0.628  -3.125   0.216  0.00  0.00    -0.047 A 
ATOM      6  C4  UNL d   1       0.967  -2.026  -0.546  0.00  0.00    -0.004 A 
ENDROOT
TORSDOF 0
ENDMDL
