MODEL 1
REMARK minimizedAffinity -4.04895401
REMARK minimizedRMSD -1
REMARK  0 active torsions:
REMARK  status: ('A' for Active; 'I' for Inactive)
ROOT
ATOM      1  C   UNL d   1      -0.349   0.589  -0.155  0.00  0.00     0.172 C 
ATOM      2  N   UNL d   1      -0.026  -0.810  -0.316  0.00  0.00    -0.070 N 
ATOM      3  C1  UNL d   1       0.558  -1.373  -1.419  0.00  0.00    -0.004 A 
ATOM      4  C2  UNL d   1       0.698  -2.723  -1.179  0.00  0.00    -0.047 A 
ATOM      5  C3  UNL d   1       0.180  -2.980   0.112  0.00  0.00    -0.047 A 
ATOM      6  C4  UNL d   1      -0.262  -1.778   0.624  0.00  0.00    -0.004 A 
ENDROOT
TORSDOF 0
ENDMDL
