MODEL 1
REMARK minimizedAffinity -3.92419004
REMARK minimizedRMSD -1
REMARK  0 active torsions:
REMARK  status: ('A' for Active; 'I' for Inactive)
ROOT
ATOM      1  C   UNL d   1       0.018  -0.346  -0.515  0.00  0.00     0.172 C 
ATOM      2  N   UNL d   1       0.373   0.483   0.613  0.00  0.00    -0.070 N 
ATOM      3  C1  UNL d   1       0.798   1.783   0.546  0.00  0.00    -0.004 A 
ATOM      4  C2  UNL d   1       1.034   2.217   1.833  0.00  0.00    -0.047 A 
ATOM      5  C3  UNL d   1       0.741   1.140   2.703  0.00  0.00    -0.047 A 
ATOM      6  C4  UNL d   1       0.334   0.079   1.922  0.00  0.00    -0.004 A 
ENDROOT
TORSDOF 0
ENDMDL
