MODEL 1
REMARK minimizedAffinity -2.43444276
REMARK minimizedRMSD -1
REMARK  0 active torsions:
REMARK  status: ('A' for Active; 'I' for Inactive)
ROOT
ATOM      1  C   UNL d   1       2.146   3.341   1.088  0.00  0.00     0.172 C 
ATOM      2  N   UNL d   1       1.153   2.446   0.540  0.00  0.00    -0.070 N 
ATOM      3  C1  UNL d   1       1.099   1.093   0.744  0.00  0.00    -0.004 A 
ATOM      4  C2  UNL d   1       0.010   0.606   0.055  0.00  0.00    -0.047 A 
ATOM      5  C3  UNL d   1      -0.612   1.704  -0.586  0.00  0.00    -0.047 A 
ATOM      6  C4  UNL d   1       0.117   2.831  -0.268  0.00  0.00    -0.004 A 
ENDROOT
TORSDOF 0
ENDMDL
