MODEL 1
REMARK minimizedAffinity -1.86637616
REMARK minimizedRMSD -1
REMARK  0 active torsions:
REMARK  status: ('A' for Active; 'I' for Inactive)
ROOT
ATOM      1  C   UNL d   1      -0.290   0.420   0.142  0.00  0.00     0.172 C 
ATOM      2  N   UNL d   1       0.417   1.668   0.312  0.00  0.00    -0.070 N 
ATOM      3  C1  UNL d   1       0.121   2.634   1.236  0.00  0.00    -0.004 A 
ATOM      4  C2  UNL d   1       1.023   3.663   1.075  0.00  0.00    -0.047 A 
ATOM      5  C3  UNL d   1       1.892   3.303   0.017  0.00  0.00    -0.047 A 
ATOM      6  C4  UNL d   1       1.494   2.063  -0.437  0.00  0.00    -0.004 A 
ENDROOT
TORSDOF 0
ENDMDL
