MODEL 1
REMARK minimizedAffinity -2.10028338
REMARK minimizedRMSD -1
REMARK  0 active torsions:
REMARK  status: ('A' for Active; 'I' for Inactive)
ROOT
ATOM      1  C   UNL d   1      -0.130  -1.243  -1.830  0.00  0.00     0.172 C 
ATOM      2  N   UNL d   1      -0.539  -1.279  -0.446  0.00  0.00    -0.070 N 
ATOM      3  C1  UNL d   1      -0.521  -0.218   0.420  0.00  0.00    -0.004 A 
ATOM      4  C2  UNL d   1      -0.985  -0.661   1.640  0.00  0.00    -0.047 A 
ATOM      5  C3  UNL d   1      -1.292  -2.036   1.503  0.00  0.00    -0.047 A 
ATOM      6  C4  UNL d   1      -1.006  -2.393   0.202  0.00  0.00    -0.004 A 
ENDROOT
TORSDOF 0
ENDMDL
