MODEL 1
REMARK minimizedAffinity -2.12121511
REMARK minimizedRMSD -1
REMARK  0 active torsions:
REMARK  status: ('A' for Active; 'I' for Inactive)
ROOT
ATOM      1  C   UNL d   1      -0.052   0.986  -0.005  0.00  0.00     0.172 C 
ATOM      2  N   UNL d   1      -0.399  -0.332   0.474  0.00  0.00    -0.070 N 
ATOM      3  C1  UNL d   1      -0.830  -1.375  -0.302  0.00  0.00    -0.004 A 
ATOM      4  C2  UNL d   1      -1.053  -2.453   0.528  0.00  0.00    -0.047 A 
ATOM      5  C3  UNL d   1      -0.746  -2.043   1.847  0.00  0.00    -0.047 A 
ATOM      6  C4  UNL d   1      -0.344  -0.726   1.785  0.00  0.00    -0.004 A 
ENDROOT
TORSDOF 0
ENDMDL
