MODEL 1
REMARK minimizedAffinity 6.36623478
REMARK minimizedRMSD -1
REMARK  0 active torsions:
REMARK  status: ('A' for Active; 'I' for Inactive)
ROOT
ATOM      1  C2' OXE d   1       3.307   2.665   3.101  0.00  0.00     0.078 C 
ATOM      2  C1' OXE d   1       2.726   1.620   0.561  0.00  0.00     0.078 C 
ATOM      3  C1  OXE d   1       2.472   0.740   1.759  0.00  0.00    -0.078 A 
ATOM      4  C2  OXE d   1       2.803   1.242   2.995  0.00  0.00    -0.078 A 
ATOM      5  C3  OXE d   1       2.539   0.492   4.137  0.00  0.00     0.003 A 
ATOM      6  C4  OXE d   1       2.082  -0.827   4.029  0.00  0.00    -0.002 A 
ATOM      7  C5  OXE d   1       1.776  -1.372   2.778  0.00  0.00    -0.002 A 
ATOM      8  C6  OXE d   1       1.925  -0.589   1.639  0.00  0.00     0.003 A 
ENDROOT
TORSDOF 0
ENDMDL
