MODEL 1
REMARK minimizedAffinity 13.9742012
REMARK minimizedRMSD -1
REMARK  0 active torsions:
REMARK  status: ('A' for Active; 'I' for Inactive)
ROOT
ATOM      1  C2' OXE d   1       0.168  -1.619  -0.195  0.00  0.00     0.078 C 
ATOM      2  C1' OXE d   1       1.832   0.419   0.783  0.00  0.00     0.078 C 
ATOM      3  C1  OXE d   1       1.581  -0.772   1.673  0.00  0.00    -0.078 A 
ATOM      4  C2  OXE d   1       0.728  -1.743   1.205  0.00  0.00    -0.078 A 
ATOM      5  C3  OXE d   1       0.506  -2.889   1.963  0.00  0.00     0.003 A 
ATOM      6  C4  OXE d   1       1.020  -2.991   3.262  0.00  0.00    -0.002 A 
ATOM      7  C5  OXE d   1       1.859  -1.995   3.773  0.00  0.00    -0.002 A 
ATOM      8  C6  OXE d   1       2.183  -0.902   2.977  0.00  0.00     0.003 A 
ENDROOT
TORSDOF 0
ENDMDL
