MODEL 1
REMARK minimizedAffinity 3.21846414
REMARK minimizedRMSD -1
REMARK  0 active torsions:
REMARK  status: ('A' for Active; 'I' for Inactive)
ROOT
ATOM      1  C2' OXE d   1       1.783   0.185   1.481  0.00  0.00     0.078 C 
ATOM      2  C1' OXE d   1       0.221  -1.958   0.558  0.00  0.00     0.078 C 
ATOM      3  C1  OXE d   1       0.778  -2.044   1.957  0.00  0.00    -0.078 A 
ATOM      4  C2  OXE d   1       1.580  -1.012   2.384  0.00  0.00    -0.078 A 
ATOM      5  C3  OXE d   1       2.074  -1.016   3.685  0.00  0.00     0.003 A 
ATOM      6  C4  OXE d   1       1.890  -2.132   4.510  0.00  0.00    -0.002 A 
ATOM      7  C5  OXE d   1       1.110  -3.211   4.081  0.00  0.00    -0.002 A 
ATOM      8  C6  OXE d   1       0.513  -3.164   2.826  0.00  0.00     0.003 A 
ENDROOT
TORSDOF 0
ENDMDL
