MODEL 1
REMARK minimizedAffinity 1.56418002
REMARK minimizedRMSD -1
REMARK  0 active torsions:
REMARK  status: ('A' for Active; 'I' for Inactive)
ROOT
ATOM      1  C2' OXE d   1       3.389   2.260   3.525  0.00  0.00     0.078 C 
ATOM      2  C1' OXE d   1       2.412  -0.192   4.482  0.00  0.00     0.078 C 
ATOM      3  C1  OXE d   1       2.217   0.120   3.019  0.00  0.00    -0.078 A 
ATOM      4  C2  OXE d   1       2.657   1.342   2.569  0.00  0.00    -0.078 A 
ATOM      5  C3  OXE d   1       2.551   1.658   1.218  0.00  0.00     0.003 A 
ATOM      6  C4  OXE d   1       1.863   0.808   0.343  0.00  0.00    -0.002 A 
ATOM      7  C5  OXE d   1       1.372  -0.424   0.790  0.00  0.00    -0.002 A 
ATOM      8  C6  OXE d   1       1.578  -0.801   2.112  0.00  0.00     0.003 A 
ENDROOT
TORSDOF 0
ENDMDL
