MODEL 1
REMARK minimizedAffinity 0.733069301
REMARK minimizedRMSD -1
REMARK  0 active torsions:
REMARK  status: ('A' for Active; 'I' for Inactive)
ROOT
ATOM      1  C2' OXE d   1      -1.300  -0.023  -0.371  0.00  0.00     0.078 C 
ATOM      2  C1' OXE d   1      -1.765  -1.261  -2.847  0.00  0.00     0.078 C 
ATOM      3  C1  OXE d   1      -0.946  -2.013  -1.827  0.00  0.00    -0.078 A 
ATOM      4  C2  OXE d   1      -0.684  -1.380  -0.636  0.00  0.00    -0.078 A 
ATOM      5  C3  OXE d   1       0.020  -2.050   0.361  0.00  0.00     0.003 A 
ATOM      6  C4  OXE d   1       0.594  -3.301   0.104  0.00  0.00    -0.002 A 
ATOM      7  C5  OXE d   1       0.373  -3.946  -1.117  0.00  0.00    -0.002 A 
ATOM      8  C6  OXE d   1      -0.429  -3.335  -2.075  0.00  0.00     0.003 A 
ENDROOT
TORSDOF 0
ENDMDL
