MODEL 1
REMARK minimizedAffinity 2.16426969
REMARK minimizedRMSD -1
REMARK  0 active torsions:
REMARK  status: ('A' for Active; 'I' for Inactive)
ROOT
ATOM      1  C2' OXE d   1       0.848  -1.806   1.814  0.00  0.00     0.078 C 
ATOM      2  C1' OXE d   1       1.764  -4.080   0.446  0.00  0.00     0.078 C 
ATOM      3  C1  OXE d   1       0.575  -3.347  -0.124  0.00  0.00    -0.078 A 
ATOM      4  C2  OXE d   1       0.105  -2.263   0.577  0.00  0.00    -0.078 A 
ATOM      5  C3  OXE d   1      -0.955  -1.519   0.067  0.00  0.00     0.003 A 
ATOM      6  C4  OXE d   1      -1.644  -1.955  -1.072  0.00  0.00    -0.002 A 
ATOM      7  C5  OXE d   1      -1.206  -3.080  -1.779  0.00  0.00    -0.002 A 
ATOM      8  C6  OXE d   1      -0.074  -3.761  -1.343  0.00  0.00     0.003 A 
ENDROOT
TORSDOF 0
ENDMDL
