MODEL 1
REMARK minimizedAffinity 0.197371393
REMARK minimizedRMSD -1
REMARK  0 active torsions:
REMARK  status: ('A' for Active; 'I' for Inactive)
ROOT
ATOM      1  C2' OXE d   1      -0.410  -1.596   0.484  0.00  0.00     0.078 C 
ATOM      2  C1' OXE d   1       0.310   1.003  -0.297  0.00  0.00     0.078 C 
ATOM      3  C1  OXE d   1       0.993   0.417   0.914  0.00  0.00    -0.078 A 
ATOM      4  C2  OXE d   1       0.601  -0.837   1.316  0.00  0.00    -0.078 A 
ATOM      5  C3  OXE d   1       1.238  -1.446   2.394  0.00  0.00     0.003 A 
ATOM      6  C4  OXE d   1       2.165  -0.733   3.164  0.00  0.00    -0.002 A 
ATOM      7  C5  OXE d   1       2.550   0.560   2.794  0.00  0.00    -0.002 A 
ATOM      8  C6  OXE d   1       2.006   1.132   1.650  0.00  0.00     0.003 A 
ENDROOT
TORSDOF 0
ENDMDL
