MODEL 1
REMARK minimizedAffinity -2.17250967
REMARK minimizedRMSD -1
REMARK  0 active torsions:
REMARK  status: ('A' for Active; 'I' for Inactive)
ROOT
ATOM      1  C2' OXE d   1       1.574  -2.074   3.117  0.00  0.00     0.078 C 
ATOM      2  C1' OXE d   1      -0.138  -2.036   0.893  0.00  0.00     0.078 C 
ATOM      3  C1  OXE d   1       0.845  -0.902   1.043  0.00  0.00    -0.078 A 
ATOM      4  C2  OXE d   1       1.647  -0.904   2.159  0.00  0.00    -0.078 A 
ATOM      5  C3  OXE d   1       2.609   0.089   2.318  0.00  0.00     0.003 A 
ATOM      6  C4  OXE d   1       2.663   1.172   1.432  0.00  0.00    -0.002 A 
ATOM      7  C5  OXE d   1       1.828   1.214   0.311  0.00  0.00    -0.002 A 
ATOM      8  C6  OXE d   1       0.945   0.166   0.079  0.00  0.00     0.003 A 
ENDROOT
TORSDOF 0
ENDMDL
