MODEL 1
REMARK minimizedAffinity -5.29452801
REMARK minimizedRMSD -1
REMARK  0 active torsions:
REMARK  status: ('A' for Active; 'I' for Inactive)
ROOT
ATOM      1  C   UNL d   1       0.732  -1.031   3.221  0.00  0.00     0.077 C 
ATOM      2  C1  UNL d   1       1.047  -0.955   1.757  0.00  0.00    -0.074 A 
ATOM      3  C2  UNL d   1       2.092  -1.705   1.207  0.00  0.00    -0.005 A 
ATOM      4  C3  UNL d   1       2.367  -1.632  -0.159  0.00  0.00     0.006 A 
ATOM      5  C4  UNL d   1       1.602  -0.810  -0.987  0.00  0.00    -0.005 A 
ATOM      6  C5  UNL d   1       0.553  -0.053  -0.455  0.00  0.00    -0.074 A 
ATOM      7  C6  UNL d   1      -0.286   0.829  -1.332  0.00  0.00     0.077 C 
ATOM      8  C7  UNL d   1       0.278  -0.137   0.917  0.00  0.00    -0.001 A 
ENDROOT
TORSDOF 0
ENDMDL
