MODEL 1
REMARK minimizedAffinity -5.36440706
REMARK minimizedRMSD -1
REMARK  0 active torsions:
REMARK  status: ('A' for Active; 'I' for Inactive)
ROOT
ATOM      1  C   UNL d   1       2.086  -1.021   3.068  0.00  0.00     0.077 C 
ATOM      2  C1  UNL d   1       0.849  -0.782   2.255  0.00  0.00    -0.074 A 
ATOM      3  C2  UNL d   1      -0.420  -0.848   2.839  0.00  0.00    -0.005 A 
ATOM      4  C3  UNL d   1      -1.561  -0.614   2.072  0.00  0.00     0.006 A 
ATOM      5  C4  UNL d   1      -1.445  -0.311   0.715  0.00  0.00    -0.005 A 
ATOM      6  C5  UNL d   1      -0.185  -0.239   0.113  0.00  0.00    -0.074 A 
ATOM      7  C6  UNL d   1      -0.043   0.096  -1.342  0.00  0.00     0.077 C 
ATOM      8  C7  UNL d   1       0.957  -0.469   0.892  0.00  0.00    -0.001 A 
ENDROOT
TORSDOF 0
ENDMDL
