MODEL 1
REMARK minimizedAffinity -2.72430491
REMARK minimizedRMSD -1
REMARK  0 active torsions:
REMARK  status: ('A' for Active; 'I' for Inactive)
ROOT
ATOM      1  C   UNL d   1      -3.048  -1.101   1.254  0.00  0.00     0.077 C 
ATOM      2  C1  UNL d   1      -1.597  -0.823   0.994  0.00  0.00    -0.074 A 
ATOM      3  C2  UNL d   1      -1.172  -0.314  -0.237  0.00  0.00    -0.005 A 
ATOM      4  C3  UNL d   1       0.179  -0.052  -0.461  0.00  0.00     0.006 A 
ATOM      5  C4  UNL d   1       1.118  -0.296   0.542  0.00  0.00    -0.005 A 
ATOM      6  C5  UNL d   1       0.712  -0.805   1.780  0.00  0.00    -0.074 A 
ATOM      7  C6  UNL d   1       1.706  -1.064   2.872  0.00  0.00     0.077 C 
ATOM      8  C7  UNL d   1      -0.649  -1.059   2.000  0.00  0.00    -0.001 A 
ENDROOT
TORSDOF 0
ENDMDL
