MODEL 1
REMARK minimizedAffinity -5.74843311
REMARK minimizedRMSD -1
REMARK  0 active torsions:
REMARK  status: ('A' for Active; 'I' for Inactive)
ROOT
ATOM      1  C   UNL d   1       1.591  -0.633   2.995  0.00  0.00     0.077 C 
ATOM      2  C1  UNL d   1       0.474  -0.455   2.010  0.00  0.00    -0.074 A 
ATOM      3  C2  UNL d   1      -0.818  -0.907   2.299  0.00  0.00    -0.005 A 
ATOM      4  C3  UNL d   1      -1.849  -0.726   1.377  0.00  0.00     0.006 A 
ATOM      5  C4  UNL d   1      -1.600  -0.090   0.160  0.00  0.00    -0.005 A 
ATOM      6  C5  UNL d   1      -0.315   0.370  -0.145  0.00  0.00    -0.074 A 
ATOM      7  C6  UNL d   1      -0.032   1.064  -1.445  0.00  0.00     0.077 C 
ATOM      8  C7  UNL d   1       0.714   0.190   0.789  0.00  0.00    -0.001 A 
ENDROOT
TORSDOF 0
ENDMDL
