MODEL 1
REMARK minimizedAffinity -4.99005508
REMARK minimizedRMSD -1
REMARK  0 active torsions:
REMARK  status: ('A' for Active; 'I' for Inactive)
ROOT
ATOM      1  C   UNL d   1       1.440  -0.915   3.539  0.00  0.00     0.077 C 
ATOM      2  C1  UNL d   1       0.661  -0.589   2.300  0.00  0.00    -0.074 A 
ATOM      3  C2  UNL d   1       1.313  -0.268   1.105  0.00  0.00    -0.005 A 
ATOM      4  C3  UNL d   1       0.575   0.023  -0.042  0.00  0.00     0.006 A 
ATOM      5  C4  UNL d   1      -0.820  -0.003  -0.006  0.00  0.00    -0.005 A 
ATOM      6  C5  UNL d   1      -1.489  -0.322   1.180  0.00  0.00    -0.074 A 
ATOM      7  C6  UNL d   1      -2.987  -0.364   1.233  0.00  0.00     0.077 C 
ATOM      8  C7  UNL d   1      -0.740  -0.621   2.326  0.00  0.00    -0.001 A 
ENDROOT
TORSDOF 0
ENDMDL
