MODEL 1
REMARK minimizedAffinity -2.96585035
REMARK minimizedRMSD -1
REMARK  0 active torsions:
REMARK  status: ('A' for Active; 'I' for Inactive)
ROOT
ATOM      1  C   UNL d   1       1.963  -0.832   2.999  0.00  0.00     0.077 C 
ATOM      2  C1  UNL d   1       1.221  -0.554   1.726  0.00  0.00    -0.074 A 
ATOM      3  C2  UNL d   1       1.880  -0.566   0.492  0.00  0.00    -0.005 A 
ATOM      4  C3  UNL d   1       1.175  -0.315  -0.685  0.00  0.00     0.006 A 
ATOM      5  C4  UNL d   1      -0.195  -0.050  -0.640  0.00  0.00    -0.005 A 
ATOM      6  C5  UNL d   1      -0.871  -0.035   0.584  0.00  0.00    -0.074 A 
ATOM      7  C6  UNL d   1      -2.344   0.238   0.649  0.00  0.00     0.077 C 
ATOM      8  C7  UNL d   1      -0.156  -0.295   1.761  0.00  0.00    -0.001 A 
ENDROOT
TORSDOF 0
ENDMDL
