MODEL 1
REMARK minimizedAffinity -5.44756746
REMARK minimizedRMSD -1
REMARK  0 active torsions:
REMARK  status: ('A' for Active; 'I' for Inactive)
ROOT
ATOM      1  C   UNL d   1      -1.188  -2.064   3.089  0.00  0.00     0.077 C 
ATOM      2  C1  UNL d   1      -0.247  -1.224   2.276  0.00  0.00    -0.074 A 
ATOM      3  C2  UNL d   1       0.925  -0.709   2.839  0.00  0.00    -0.005 A 
ATOM      4  C3  UNL d   1       1.794   0.063   2.068  0.00  0.00     0.006 A 
ATOM      5  C4  UNL d   1       1.501   0.326   0.730  0.00  0.00    -0.005 A 
ATOM      6  C5  UNL d   1       0.335  -0.182   0.150  0.00  0.00    -0.074 A 
ATOM      7  C6  UNL d   1       0.010   0.084  -1.290  0.00  0.00     0.077 C 
ATOM      8  C7  UNL d   1      -0.531  -0.962   0.929  0.00  0.00    -0.001 A 
ENDROOT
TORSDOF 0
ENDMDL
