MODEL 1
REMARK minimizedAffinity -2.29583073
REMARK minimizedRMSD -1
REMARK  0 active torsions:
REMARK  status: ('A' for Active; 'I' for Inactive)
ROOT
ATOM      1  C   UNL d   1      -1.571   2.579  -3.540  0.00  0.00     0.077 C 
ATOM      2  C1  UNL d   1      -0.927   1.566  -2.640  0.00  0.00    -0.074 A 
ATOM      3  C2  UNL d   1       0.393   1.154  -2.851  0.00  0.00    -0.005 A 
ATOM      4  C3  UNL d   1       0.981   0.218  -2.000  0.00  0.00     0.006 A 
ATOM      5  C4  UNL d   1       0.257  -0.315  -0.933  0.00  0.00    -0.005 A 
ATOM      6  C5  UNL d   1      -1.063   0.086  -0.707  0.00  0.00    -0.074 A 
ATOM      7  C6  UNL d   1      -1.852  -0.470   0.442  0.00  0.00     0.077 C 
ATOM      8  C7  UNL d   1      -1.645   1.032  -1.561  0.00  0.00    -0.001 A 
ENDROOT
TORSDOF 0
ENDMDL
