MODEL 1
REMARK minimizedAffinity -5.35903931
REMARK minimizedRMSD -1
REMARK  0 active torsions:
REMARK  status: ('A' for Active; 'I' for Inactive)
ROOT
ATOM      1  C   UNL d   1       2.071  -1.651   2.897  0.00  0.00     0.077 C 
ATOM      2  C1  UNL d   1       1.170  -1.214   1.781  0.00  0.00    -0.074 A 
ATOM      3  C2  UNL d   1       1.587  -1.293   0.448  0.00  0.00    -0.005 A 
ATOM      4  C3  UNL d   1       0.734  -0.891  -0.580  0.00  0.00     0.006 A 
ATOM      5  C4  UNL d   1      -0.541  -0.408  -0.287  0.00  0.00    -0.005 A 
ATOM      6  C5  UNL d   1      -0.976  -0.322   1.040  0.00  0.00    -0.074 A 
ATOM      7  C6  UNL d   1      -2.347   0.186   1.372  0.00  0.00     0.077 C 
ATOM      8  C7  UNL d   1      -0.116  -0.734   2.067  0.00  0.00    -0.001 A 
ENDROOT
TORSDOF 0
ENDMDL
