MODEL 1
REMARK minimizedAffinity 18.4651299
REMARK minimizedRMSD -1
REMARK  0 active torsions:
REMARK  status: ('A' for Active; 'I' for Inactive)
ROOT
ATOM      1  C1  DEN d   1       1.030  -2.081   4.319  0.00  0.00     0.130 A 
ATOM      2  C2  DEN d   1       1.781  -3.332   4.377  0.00  0.00    -0.031 A 
ATOM      3  C3  DEN d   1       2.535  -3.471   3.115  0.00  0.00     0.027 A 
ATOM      4  C4  DEN d   1       2.616  -1.877   1.089  0.00  0.00     0.027 A 
ATOM      5  C5  DEN d   1       2.136  -0.694   0.572  0.00  0.00    -0.003 A 
ATOM      6  C6  DEN d   1       1.235   0.086   1.247  0.00  0.00     0.001 A 
ATOM      7  C7  DEN d   1       0.820  -0.285   2.499  0.00  0.00     0.017 A 
ATOM      8  C8  DEN d   1       1.293  -1.480   3.024  0.00  0.00    -0.094 A 
ATOM      9  C9  DEN d   1       2.213  -2.248   2.331  0.00  0.00    -0.072 A 
ENDROOT
TORSDOF 0
ENDMDL
