MODEL 1
REMARK minimizedAffinity 14.0589647
REMARK minimizedRMSD -1
REMARK  0 active torsions:
REMARK  status: ('A' for Active; 'I' for Inactive)
ROOT
ATOM      1  C1  DEN d   1      -2.403   3.387  -0.382  0.00  0.00     0.130 A 
ATOM      2  C2  DEN d   1      -1.561   2.935   0.722  0.00  0.00    -0.031 A 
ATOM      3  C3  DEN d   1      -2.385   2.916   1.947  0.00  0.00     0.027 A 
ATOM      4  C4  DEN d   1      -4.872   3.535   2.239  0.00  0.00     0.027 A 
ATOM      5  C5  DEN d   1      -6.000   3.986   1.591  0.00  0.00    -0.003 A 
ATOM      6  C6  DEN d   1      -6.000   4.299   0.257  0.00  0.00     0.001 A 
ATOM      7  C7  DEN d   1      -4.860   4.122  -0.481  0.00  0.00     0.017 A 
ATOM      8  C8  DEN d   1      -3.716   3.675   0.167  0.00  0.00    -0.094 A 
ATOM      9  C9  DEN d   1      -3.740   3.352   1.514  0.00  0.00    -0.072 A 
ENDROOT
TORSDOF 0
ENDMDL
