MODEL 1
REMARK minimizedAffinity 10.4127455
REMARK minimizedRMSD -1
REMARK  0 active torsions:
REMARK  status: ('A' for Active; 'I' for Inactive)
ROOT
ATOM      1  C1  DEN d   1      -2.817   0.105  -2.075  0.00  0.00     0.130 A 
ATOM      2  C2  DEN d   1      -3.506   0.484  -3.305  0.00  0.00    -0.031 A 
ATOM      3  C3  DEN d   1      -4.113   1.815  -3.097  0.00  0.00     0.027 A 
ATOM      4  C4  DEN d   1      -4.047   3.318  -1.003  0.00  0.00     0.027 A 
ATOM      5  C5  DEN d   1      -3.592   3.418   0.294  0.00  0.00    -0.003 A 
ATOM      6  C6  DEN d   1      -2.883   2.414   0.898  0.00  0.00     0.001 A 
ATOM      7  C7  DEN d   1      -2.567   1.285   0.190  0.00  0.00     0.017 A 
ATOM      8  C8  DEN d   1      -3.028   1.174  -1.115  0.00  0.00    -0.094 A 
ATOM      9  C9  DEN d   1      -3.734   2.205  -1.712  0.00  0.00    -0.072 A 
ENDROOT
TORSDOF 0
ENDMDL
