MODEL 1
REMARK minimizedAffinity 14.7071733
REMARK minimizedRMSD -1
REMARK  0 active torsions:
REMARK  status: ('A' for Active; 'I' for Inactive)
ROOT
ATOM      1  C1  DEN d   1       2.159  -2.141  -1.378  0.00  0.00     0.130 A 
ATOM      2  C2  DEN d   1       1.261  -3.292  -1.335  0.00  0.00    -0.031 A 
ATOM      3  C3  DEN d   1       0.685  -3.372   0.022  0.00  0.00     0.027 A 
ATOM      4  C4  DEN d   1       1.090  -1.831   2.050  0.00  0.00     0.027 A 
ATOM      5  C5  DEN d   1       1.779  -0.727   2.501  0.00  0.00    -0.003 A 
ATOM      6  C6  DEN d   1       2.661  -0.042   1.708  0.00  0.00     0.001 A 
ATOM      7  C7  DEN d   1       2.844  -0.429   0.406  0.00  0.00     0.017 A 
ATOM      8  C8  DEN d   1       2.159  -1.545  -0.054  0.00  0.00    -0.094 A 
ATOM      9  C9  DEN d   1       1.262  -2.216   0.760  0.00  0.00    -0.072 A 
ENDROOT
TORSDOF 0
ENDMDL
