MODEL 1
REMARK minimizedAffinity 7.83936453
REMARK minimizedRMSD -1
REMARK  0 active torsions:
REMARK  status: ('A' for Active; 'I' for Inactive)
ROOT
ATOM      1  C1  DEN d   1       0.286  -1.490   4.500  0.00  0.00     0.130 A 
ATOM      2  C2  DEN d   1       0.169  -2.945   4.558  0.00  0.00    -0.031 A 
ATOM      3  C3  DEN d   1       0.913  -3.509   3.415  0.00  0.00     0.027 A 
ATOM      4  C4  DEN d   1       2.233  -2.279   1.572  0.00  0.00     0.027 A 
ATOM      5  C5  DEN d   1       2.608  -1.042   1.095  0.00  0.00    -0.003 A 
ATOM      6  C6  DEN d   1       2.211   0.123   1.695  0.00  0.00     0.001 A 
ATOM      7  C7  DEN d   1       1.451   0.075   2.834  0.00  0.00     0.017 A 
ATOM      8  C8  DEN d   1       1.062  -1.168   3.316  0.00  0.00    -0.094 A 
ATOM      9  C9  DEN d   1       1.484  -2.335   2.702  0.00  0.00    -0.072 A 
ENDROOT
TORSDOF 0
ENDMDL
