MODEL 1
REMARK minimizedAffinity -3.63893008
REMARK minimizedRMSD -1
REMARK  0 active torsions:
REMARK  status: ('A' for Active; 'I' for Inactive)
ROOT
ATOM      1  C1  BNZ d   1      -1.120   0.632   0.478  0.00  0.00     0.000 A 
ATOM      2  C2  BNZ d   1      -0.441  -0.442   0.987  0.00  0.00     0.000 A 
ATOM      3  C3  BNZ d   1       0.757  -0.829   0.455  0.00  0.00     0.000 A 
ATOM      4  C4  BNZ d   1       1.254  -0.167  -0.610  0.00  0.00     0.000 A 
ATOM      5  C5  BNZ d   1       0.576   0.912  -1.141  0.00  0.00     0.000 A 
ATOM      6  C6  BNZ d   1      -0.610   1.323  -0.578  0.00  0.00     0.000 A 
ENDROOT
TORSDOF 0
ENDMDL
