MODEL 1
REMARK minimizedAffinity -3.64742494
REMARK minimizedRMSD -1
REMARK  0 active torsions:
REMARK  status: ('A' for Active; 'I' for Inactive)
ROOT
ATOM      1  C1  BNZ d   1      -3.005   0.249  -3.599  0.00  0.00     0.000 A 
ATOM      2  C2  BNZ d   1      -2.660   1.158  -4.563  0.00  0.00     0.000 A 
ATOM      3  C3  BNZ d   1      -1.943   2.278  -4.244  0.00  0.00     0.000 A 
ATOM      4  C4  BNZ d   1      -1.608   2.506  -2.958  0.00  0.00     0.000 A 
ATOM      5  C5  BNZ d   1      -1.956   1.604  -1.974  0.00  0.00     0.000 A 
ATOM      6  C6  BNZ d   1      -2.644   0.458  -2.304  0.00  0.00     0.000 A 
ENDROOT
TORSDOF 0
ENDMDL
