MODEL 1
REMARK minimizedAffinity -1.84764767
REMARK minimizedRMSD -1
REMARK  0 active torsions:
REMARK  status: ('A' for Active; 'I' for Inactive)
ROOT
ATOM      1  C1  BNZ d   1      -0.910  -1.581   1.559  0.00  0.00     0.000 A 
ATOM      2  C2  BNZ d   1       0.393  -1.895   1.275  0.00  0.00     0.000 A 
ATOM      3  C3  BNZ d   1       1.123  -1.132   0.408  0.00  0.00     0.000 A 
ATOM      4  C4  BNZ d   1       0.540  -0.081  -0.204  0.00  0.00     0.000 A 
ATOM      5  C5  BNZ d   1      -0.775   0.243   0.065  0.00  0.00     0.000 A 
ATOM      6  C6  BNZ d   1      -1.496  -0.504   0.968  0.00  0.00     0.000 A 
ENDROOT
TORSDOF 0
ENDMDL
