MODEL 1
REMARK minimizedAffinity -2.87382054
REMARK minimizedRMSD -1
REMARK  0 active torsions:
REMARK  status: ('A' for Active; 'I' for Inactive)
ROOT
ATOM      1  C1  BNZ d   1      -1.218  -0.049  -2.006  0.00  0.00     0.000 A 
ATOM      2  C2  BNZ d   1      -0.726  -1.207  -1.467  0.00  0.00     0.000 A 
ATOM      3  C3  BNZ d   1      -0.442  -1.292  -0.133  0.00  0.00     0.000 A 
ATOM      4  C4  BNZ d   1      -0.612  -0.209   0.652  0.00  0.00     0.000 A 
ATOM      5  C5  BNZ d   1      -1.098   0.969   0.121  0.00  0.00     0.000 A 
ATOM      6  C6  BNZ d   1      -1.420   1.040  -1.215  0.00  0.00     0.000 A 
ENDROOT
TORSDOF 0
ENDMDL
