MODEL 1
REMARK minimizedAffinity -3.97130227
REMARK minimizedRMSD -1
REMARK  0 active torsions:
REMARK  status: ('A' for Active; 'I' for Inactive)
ROOT
ATOM      1  C1  BNZ d   1      -0.954   2.284  -1.542  0.00  0.00     0.000 A 
ATOM      2  C2  BNZ d   1      -0.252   3.384  -1.958  0.00  0.00     0.000 A 
ATOM      3  C3  BNZ d   1      -0.214   3.731  -3.280  0.00  0.00     0.000 A 
ATOM      4  C4  BNZ d   1      -0.844   2.957  -4.187  0.00  0.00     0.000 A 
ATOM      5  C5  BNZ d   1      -1.549   1.840  -3.783  0.00  0.00     0.000 A 
ATOM      6  C6  BNZ d   1      -1.617   1.516  -2.448  0.00  0.00     0.000 A 
ENDROOT
TORSDOF 0
ENDMDL
