MODEL 1
REMARK minimizedAffinity -0.535176039
REMARK minimizedRMSD -1
REMARK  0 active torsions:
REMARK  status: ('A' for Active; 'I' for Inactive)
ROOT
ATOM      1  C1  BNZ d   1      -2.857   1.089  -4.163  0.00  0.00     0.000 A 
ATOM      2  C2  BNZ d   1      -3.647   0.877  -3.065  0.00  0.00     0.000 A 
ATOM      3  C3  BNZ d   1      -3.150   1.045  -1.803  0.00  0.00     0.000 A 
ATOM      4  C4  BNZ d   1      -1.855   1.384  -1.639  0.00  0.00     0.000 A 
ATOM      5  C5  BNZ d   1      -1.043   1.592  -2.737  0.00  0.00     0.000 A 
ATOM      6  C6  BNZ d   1      -1.557   1.460  -4.006  0.00  0.00     0.000 A 
ENDROOT
TORSDOF 0
ENDMDL
