MODEL 1
REMARK minimizedAffinity -3.65329266
REMARK minimizedRMSD -1
REMARK  0 active torsions:
REMARK  status: ('A' for Active; 'I' for Inactive)
ROOT
ATOM      1  C1  BNZ d   1       1.583   0.710  -0.193  0.00  0.00     0.000 A 
ATOM      2  C2  BNZ d   1       2.062   1.982  -0.024  0.00  0.00     0.000 A 
ATOM      3  C3  BNZ d   1       1.208   3.035   0.147  0.00  0.00     0.000 A 
ATOM      4  C4  BNZ d   1      -0.123   2.822   0.109  0.00  0.00     0.000 A 
ATOM      5  C5  BNZ d   1      -0.622   1.547  -0.070  0.00  0.00     0.000 A 
ATOM      6  C6  BNZ d   1       0.241   0.484  -0.203  0.00  0.00     0.000 A 
ENDROOT
TORSDOF 0
ENDMDL
