MODEL 1
REMARK minimizedAffinity -3.00504899
REMARK minimizedRMSD -1
REMARK  0 active torsions:
REMARK  status: ('A' for Active; 'I' for Inactive)
ROOT
ATOM      1  C1  BNZ d   1      -0.701   0.477   1.007  0.00  0.00     0.000 A 
ATOM      2  C2  BNZ d   1      -0.162   0.596  -0.246  0.00  0.00     0.000 A 
ATOM      3  C3  BNZ d   1       0.297  -0.502  -0.918  0.00  0.00     0.000 A 
ATOM      4  C4  BNZ d   1       0.253  -1.711  -0.322  0.00  0.00     0.000 A 
ATOM      5  C5  BNZ d   1      -0.280  -1.846   0.945  0.00  0.00     0.000 A 
ATOM      6  C6  BNZ d   1      -0.776  -0.744   1.603  0.00  0.00     0.000 A 
ENDROOT
TORSDOF 0
ENDMDL
