MODEL 1
REMARK minimizedAffinity -4.62200832
REMARK minimizedRMSD -1
REMARK  0 active torsions:
REMARK  status: ('A' for Active; 'I' for Inactive)
ROOT
ATOM      1  C1  BNZ d   1       0.638   0.625  -0.318  0.00  0.00     0.000 A 
ATOM      2  C2  BNZ d   1      -0.082   1.767  -0.086  0.00  0.00     0.000 A 
ATOM      3  C3  BNZ d   1       0.549   2.946   0.197  0.00  0.00     0.000 A 
ATOM      4  C4  BNZ d   1       1.895   2.973   0.286  0.00  0.00     0.000 A 
ATOM      5  C5  BNZ d   1       2.633   1.828   0.063  0.00  0.00     0.000 A 
ATOM      6  C6  BNZ d   1       1.997   0.652  -0.259  0.00  0.00     0.000 A 
ENDROOT
TORSDOF 0
ENDMDL
