MODEL 1
REMARK minimizedAffinity -3.36158895
REMARK minimizedRMSD -1
REMARK  0 active torsions:
REMARK  status: ('A' for Active; 'I' for Inactive)
ROOT
ATOM      1  C1  BNZ d   1      -2.258   0.009  -3.021  0.00  0.00     0.000 A 
ATOM      2  C2  BNZ d   1      -1.084   0.681  -3.237  0.00  0.00     0.000 A 
ATOM      3  C3  BNZ d   1      -1.088   1.998  -3.605  0.00  0.00     0.000 A 
ATOM      4  C4  BNZ d   1      -2.265   2.629  -3.795  0.00  0.00     0.000 A 
ATOM      5  C5  BNZ d   1      -3.457   1.963  -3.590  0.00  0.00     0.000 A 
ATOM      6  C6  BNZ d   1      -3.448   0.649  -3.182  0.00  0.00     0.000 A 
ENDROOT
TORSDOF 0
ENDMDL
