MODEL 1
REMARK minimizedAffinity -2.30038905
REMARK minimizedRMSD -1
REMARK  0 active torsions:
REMARK  status: ('A' for Active; 'I' for Inactive)
ROOT
ATOM      1  C1  BNZ d   1       2.650   2.573  -0.021  0.00  0.00     0.000 A 
ATOM      2  C2  BNZ d   1       2.834   3.851   0.437  0.00  0.00     0.000 A 
ATOM      3  C3  BNZ d   1       1.769   4.613   0.830  0.00  0.00     0.000 A 
ATOM      4  C4  BNZ d   1       0.521   4.112   0.727  0.00  0.00     0.000 A 
ATOM      5  C5  BNZ d   1       0.319   2.830   0.258  0.00  0.00     0.000 A 
ATOM      6  C6  BNZ d   1       1.396   2.051  -0.100  0.00  0.00     0.000 A 
ENDROOT
TORSDOF 0
ENDMDL
