MODEL 1
REMARK minimizedAffinity -1.86222279
REMARK minimizedRMSD -1
REMARK  0 active torsions:
REMARK  status: ('A' for Active; 'I' for Inactive)
ROOT
ATOM      1  C1  BNZ d   1       1.069  -0.606  -1.008  0.00  0.00     0.000 A 
ATOM      2  C2  BNZ d   1       0.412  -0.414  -2.193  0.00  0.00     0.000 A 
ATOM      3  C3  BNZ d   1      -0.912  -0.072  -2.212  0.00  0.00     0.000 A 
ATOM      4  C4  BNZ d   1      -1.585   0.039  -1.049  0.00  0.00     0.000 A 
ATOM      5  C5  BNZ d   1      -0.938  -0.161   0.154  0.00  0.00     0.000 A 
ATOM      6  C6  BNZ d   1       0.403  -0.467   0.171  0.00  0.00     0.000 A 
ENDROOT
TORSDOF 0
ENDMDL
