MODEL 1
REMARK minimizedAffinity -3.66345477
REMARK minimizedRMSD -1
REMARK  0 active torsions:
REMARK  status: ('A' for Active; 'I' for Inactive)
ROOT
ATOM      1  C1  BNZ d   1      -0.199  -1.059  -0.690  0.00  0.00     0.000 A 
ATOM      2  C2  BNZ d   1       0.326  -2.322  -0.747  0.00  0.00     0.000 A 
ATOM      3  C3  BNZ d   1       1.463  -2.640  -0.058  0.00  0.00     0.000 A 
ATOM      4  C4  BNZ d   1       2.095  -1.686   0.654  0.00  0.00     0.000 A 
ATOM      5  C5  BNZ d   1       1.584  -0.405   0.715  0.00  0.00     0.000 A 
ATOM      6  C6  BNZ d   1       0.418  -0.098   0.052  0.00  0.00     0.000 A 
ENDROOT
TORSDOF 0
ENDMDL
