MODEL 1
REMARK minimizedAffinity -3.61403894
REMARK minimizedRMSD -1
REMARK  0 active torsions:
REMARK  status: ('A' for Active; 'I' for Inactive)
ROOT
ATOM      1  C1  BNZ d   1       1.920   2.000   0.031  0.00  0.00     0.000 A 
ATOM      2  C2  BNZ d   1       3.210   2.210  -0.378  0.00  0.00     0.000 A 
ATOM      3  C3  BNZ d   1       3.738   3.471  -0.412  0.00  0.00     0.000 A 
ATOM      4  C4  BNZ d   1       2.963   4.523  -0.076  0.00  0.00     0.000 A 
ATOM      5  C5  BNZ d   1       1.658   4.329   0.329  0.00  0.00     0.000 A 
ATOM      6  C6  BNZ d   1       1.142   3.055   0.399  0.00  0.00     0.000 A 
ENDROOT
TORSDOF 0
ENDMDL
