MODEL 1
REMARK minimizedAffinity -2.68263865
REMARK minimizedRMSD -1
REMARK  0 active torsions:
REMARK  status: ('A' for Active; 'I' for Inactive)
ROOT
ATOM      1  C1  BNZ d   1      -0.287  -1.767   1.498  0.00  0.00     0.000 A 
ATOM      2  C2  BNZ d   1      -1.364  -1.030   1.914  0.00  0.00     0.000 A 
ATOM      3  C3  BNZ d   1      -1.796   0.047   1.192  0.00  0.00     0.000 A 
ATOM      4  C4  BNZ d   1      -1.127   0.411   0.079  0.00  0.00     0.000 A 
ATOM      5  C5  BNZ d   1      -0.033  -0.316  -0.349  0.00  0.00     0.000 A 
ATOM      6  C6  BNZ d   1       0.375  -1.423   0.359  0.00  0.00     0.000 A 
ENDROOT
TORSDOF 0
ENDMDL
