MODEL 1
REMARK minimizedAffinity -3.12562132
REMARK minimizedRMSD -1
REMARK  0 active torsions:
REMARK  status: ('A' for Active; 'I' for Inactive)
ROOT
ATOM      1  C1  BNZ d   1      -1.214  -1.089   1.606  0.00  0.00     0.000 A 
ATOM      2  C2  BNZ d   1      -0.201  -1.982   1.378  0.00  0.00     0.000 A 
ATOM      3  C3  BNZ d   1       0.842  -1.662   0.554  0.00  0.00     0.000 A 
ATOM      4  C4  BNZ d   1       0.850  -0.467  -0.072  0.00  0.00     0.000 A 
ATOM      5  C5  BNZ d   1      -0.168   0.440   0.141  0.00  0.00     0.000 A 
ATOM      6  C6  BNZ d   1      -1.196   0.130   1.002  0.00  0.00     0.000 A 
ENDROOT
TORSDOF 0
ENDMDL
