MODEL 1
REMARK minimizedAffinity -4.25710821
REMARK minimizedRMSD -1
REMARK  0 active torsions:
REMARK  status: ('A' for Active; 'I' for Inactive)
ROOT
ATOM      1  C1  BNZ d   1       1.447  -0.811  -0.641  0.00  0.00     0.000 A 
ATOM      2  C2  BNZ d   1       2.407  -1.785  -0.573  0.00  0.00     0.000 A 
ATOM      3  C3  BNZ d   1       2.286  -2.828   0.302  0.00  0.00     0.000 A 
ATOM      4  C4  BNZ d   1       1.227  -2.874   1.136  0.00  0.00     0.000 A 
ATOM      5  C5  BNZ d   1       0.255  -1.894   1.087  0.00  0.00     0.000 A 
ATOM      6  C6  BNZ d   1       0.361  -0.866   0.177  0.00  0.00     0.000 A 
ENDROOT
TORSDOF 0
ENDMDL
