MODEL 1
REMARK minimizedAffinity -3.97403073
REMARK minimizedRMSD -1
REMARK  0 active torsions:
REMARK  status: ('A' for Active; 'I' for Inactive)
ROOT
ATOM      1  C1  BNZ d   1       0.082  -2.051   0.594  0.00  0.00     0.000 A 
ATOM      2  C2  BNZ d   1      -0.287  -0.859   0.028  0.00  0.00     0.000 A 
ATOM      3  C3  BNZ d   1       0.655   0.029  -0.409  0.00  0.00     0.000 A 
ATOM      4  C4  BNZ d   1       1.963  -0.256  -0.243  0.00  0.00     0.000 A 
ATOM      5  C5  BNZ d   1       2.351  -1.449   0.335  0.00  0.00     0.000 A 
ATOM      6  C6  BNZ d   1       1.400  -2.358   0.738  0.00  0.00     0.000 A 
ENDROOT
TORSDOF 0
ENDMDL
