MODEL 1
REMARK minimizedAffinity -4.69300175
REMARK minimizedRMSD -1
REMARK  0 active torsions:
REMARK  status: ('A' for Active; 'I' for Inactive)
ROOT
ATOM      1  C1  BNZ d   1       0.646  -0.340  -0.274  0.00  0.00     0.000 A 
ATOM      2  C2  BNZ d   1       1.824  -1.031  -0.374  0.00  0.00     0.000 A 
ATOM      3  C3  BNZ d   1       2.063  -2.124   0.411  0.00  0.00     0.000 A 
ATOM      4  C4  BNZ d   1       1.142  -2.501   1.322  0.00  0.00     0.000 A 
ATOM      5  C5  BNZ d   1      -0.047  -1.809   1.441  0.00  0.00     0.000 A 
ATOM      6  C6  BNZ d   1      -0.300  -0.732   0.622  0.00  0.00     0.000 A 
ENDROOT
TORSDOF 0
ENDMDL
