MODEL 1
REMARK minimizedAffinity -3.62076664
REMARK minimizedRMSD -1
REMARK  1 active torsions:
REMARK  status: ('A' for Active; 'I' for Inactive)
REMARK    1  A    between atoms: C1_2  and  C2_3 
ROOT
ATOM      1  C2  UNL d   1      -0.505   2.437  -1.280  0.00  0.00    -0.076 A 
ATOM      2  C3  UNL d   1       0.332   3.557  -1.129  0.00  0.00     0.004 A 
ATOM      3  C4  UNL d   1       0.025   4.769  -1.743  0.00  0.00    -0.003 A 
ATOM      4  C5  UNL d   1      -1.124   4.883  -2.518  0.00  0.00     0.000 A 
ATOM      5  C6  UNL d   1      -1.974   3.787  -2.665  0.00  0.00     0.000 A 
ATOM      6  C7  UNL d   1      -1.688   2.562  -2.039  0.00  0.00    -0.073 A 
ATOM      7  C8  UNL d   1      -2.637   1.411  -2.236  0.00  0.00     0.078 C 
ENDROOT
BRANCH   1   8
ATOM      8  C1  UNL d   1      -0.106   1.140  -0.612  0.00  0.00     0.053 C 
ATOM      9  C   UNL d   1      -0.126   1.236   0.905  0.00  0.00     0.018 C 
ENDBRANCH   1   8
TORSDOF 1
ENDMDL
