MODEL 1
REMARK minimizedAffinity -2.38971138
REMARK minimizedRMSD -1
REMARK  1 active torsions:
REMARK  status: ('A' for Active; 'I' for Inactive)
REMARK    1  A    between atoms: C1_2  and  C2_3 
ROOT
ATOM      1  C2  UNL d   1       0.251   2.566  -0.693  0.00  0.00    -0.076 A 
ATOM      2  C3  UNL d   1       0.131   3.446  -1.783  0.00  0.00     0.004 A 
ATOM      3  C4  UNL d   1       0.469   4.792  -1.659  0.00  0.00    -0.003 A 
ATOM      4  C5  UNL d   1       0.933   5.281  -0.443  0.00  0.00     0.000 A 
ATOM      5  C6  UNL d   1       1.075   4.419   0.644  0.00  0.00     0.000 A 
ATOM      6  C7  UNL d   1       0.754   3.055   0.531  0.00  0.00    -0.073 A 
ATOM      7  C8  UNL d   1       0.921   2.172   1.737  0.00  0.00     0.078 C 
ENDROOT
BRANCH   1   8
ATOM      8  C1  UNL d   1      -0.156   1.122  -0.880  0.00  0.00     0.053 C 
ATOM      9  C   UNL d   1      -1.505   0.981  -1.568  0.00  0.00     0.018 C 
ENDBRANCH   1   8
TORSDOF 1
ENDMDL
