MODEL 1
REMARK minimizedAffinity 1.47247136
REMARK minimizedRMSD -1
REMARK  1 active torsions:
REMARK  status: ('A' for Active; 'I' for Inactive)
REMARK    1  A    between atoms: C1_2  and  C2_3 
ROOT
ATOM      1  C2  UNL d   1       0.713   3.310   0.691  0.00  0.00    -0.076 A 
ATOM      2  C3  UNL d   1       0.976   4.690   0.651  0.00  0.00     0.004 A 
ATOM      3  C4  UNL d   1       0.899   5.400  -0.546  0.00  0.00    -0.003 A 
ATOM      4  C5  UNL d   1       0.558   4.742  -1.722  0.00  0.00     0.000 A 
ATOM      5  C6  UNL d   1       0.276   3.376  -1.698  0.00  0.00     0.000 A 
ATOM      6  C7  UNL d   1       0.333   2.649  -0.496  0.00  0.00    -0.073 A 
ATOM      7  C8  UNL d   1       0.026   1.177  -0.529  0.00  0.00     0.078 C 
ENDROOT
BRANCH   1   8
ATOM      8  C1  UNL d   1       0.839   2.587   2.013  0.00  0.00     0.053 C 
ATOM      9  C   UNL d   1       2.043   3.050   2.819  0.00  0.00     0.018 C 
ENDBRANCH   1   8
TORSDOF 1
ENDMDL
