MODEL 1
REMARK minimizedAffinity -6.43619871
REMARK minimizedRMSD -1
REMARK  1 active torsions:
REMARK  status: ('A' for Active; 'I' for Inactive)
REMARK    1  A    between atoms: C1_2  and  C2_3 
ROOT
ATOM      1  C2  UNL d   1      -0.491   2.741  -0.242  0.00  0.00    -0.076 A 
ATOM      2  C3  UNL d   1       0.034   4.004   0.085  0.00  0.00     0.004 A 
ATOM      3  C4  UNL d   1       0.015   5.048  -0.838  0.00  0.00    -0.003 A 
ATOM      4  C5  UNL d   1      -0.529   4.848  -2.102  0.00  0.00     0.000 A 
ATOM      5  C6  UNL d   1      -1.070   3.607  -2.436  0.00  0.00     0.000 A 
ATOM      6  C7  UNL d   1      -1.074   2.548  -1.512  0.00  0.00    -0.073 A 
ATOM      7  C8  UNL d   1      -1.665   1.229  -1.929  0.00  0.00     0.078 C 
ENDROOT
BRANCH   1   8
ATOM      8  C1  UNL d   1      -0.419   1.638   0.790  0.00  0.00     0.053 C 
ATOM      9  C   UNL d   1      -0.097   2.162   2.181  0.00  0.00     0.018 C 
ENDBRANCH   1   8
TORSDOF 1
ENDMDL
