MODEL 1
REMARK minimizedAffinity -4.92192221
REMARK minimizedRMSD -1
REMARK  0 active torsions:
REMARK  status: ('A' for Active; 'I' for Inactive)
ROOT
ATOM      1  C1  DEN d   1       0.645  -0.296  -1.286  0.00  0.00     0.130 A 
ATOM      2  C2  DEN d   1      -0.698  -0.864  -1.218  0.00  0.00    -0.031 A 
ATOM      3  C3  DEN d   1      -1.447  -0.140  -0.171  0.00  0.00     0.027 A 
ATOM      4  C4  DEN d   1      -0.663   1.797   1.340  0.00  0.00     0.027 A 
ATOM      5  C5  DEN d   1       0.401   2.614   1.657  0.00  0.00    -0.003 A 
ATOM      6  C6  DEN d   1       1.620   2.496   1.045  0.00  0.00     0.001 A 
ATOM      7  C7  DEN d   1       1.793   1.570   0.050  0.00  0.00     0.017 A 
ATOM      8  C8  DEN d   1       0.728   0.738  -0.270  0.00  0.00    -0.094 A 
ATOM      9  C9  DEN d   1      -0.500   0.881   0.352  0.00  0.00    -0.072 A 
ENDROOT
TORSDOF 0
ENDMDL
