MODEL 1
REMARK minimizedAffinity -5.87776613
REMARK minimizedRMSD -1
REMARK  0 active torsions:
REMARK  status: ('A' for Active; 'I' for Inactive)
ROOT
ATOM      1  C1  DEN d   1       1.603   2.235   0.442  0.00  0.00     0.130 A 
ATOM      2  C2  DEN d   1       0.886   2.989   1.467  0.00  0.00    -0.031 A 
ATOM      3  C3  DEN d   1      -0.208   2.139   1.978  0.00  0.00     0.027 A 
ATOM      4  C4  DEN d   1      -0.856  -0.260   1.289  0.00  0.00     0.027 A 
ATOM      5  C5  DEN d   1      -0.549  -1.309   0.451  0.00  0.00    -0.003 A 
ATOM      6  C6  DEN d   1       0.468  -1.239  -0.464  0.00  0.00     0.001 A 
ATOM      7  C7  DEN d   1       1.242  -0.111  -0.533  0.00  0.00     0.017 A 
ATOM      8  C8  DEN d   1       0.934   0.954   0.303  0.00  0.00    -0.094 A 
ATOM      9  C9  DEN d   1      -0.090   0.858   1.231  0.00  0.00    -0.072 A 
ENDROOT
TORSDOF 0
ENDMDL
