MODEL 1
REMARK minimizedAffinity -3.63429117
REMARK minimizedRMSD -1
REMARK  0 active torsions:
REMARK  status: ('A' for Active; 'I' for Inactive)
ROOT
ATOM      1  C1  DEN d   1       0.161   0.595  -1.570  0.00  0.00     0.130 A 
ATOM      2  C2  DEN d   1      -0.600  -0.637  -1.383  0.00  0.00    -0.031 A 
ATOM      3  C3  DEN d   1      -1.012  -0.708   0.034  0.00  0.00     0.027 A 
ATOM      4  C4  DEN d   1      -0.550   0.963   1.944  0.00  0.00     0.027 A 
ATOM      5  C5  DEN d   1       0.065   2.151   2.271  0.00  0.00    -0.003 A 
ATOM      6  C6  DEN d   1       0.777   2.881   1.357  0.00  0.00     0.001 A 
ATOM      7  C7  DEN d   1       0.856   2.452   0.059  0.00  0.00     0.017 A 
ATOM      8  C8  DEN d   1       0.245   1.251  -0.278  0.00  0.00    -0.094 A 
ATOM      9  C9  DEN d   1      -0.482   0.534   0.658  0.00  0.00    -0.072 A 
ENDROOT
TORSDOF 0
ENDMDL
