MODEL 1
REMARK minimizedAffinity -3.7725184
REMARK minimizedRMSD -1
REMARK  0 active torsions:
REMARK  status: ('A' for Active; 'I' for Inactive)
ROOT
ATOM      1  C1  DEN d   1      -1.073   0.739   1.549  0.00  0.00     0.130 A 
ATOM      2  C2  DEN d   1      -0.188   1.834   1.936  0.00  0.00    -0.031 A 
ATOM      3  C3  DEN d   1       1.061   1.709   1.158  0.00  0.00     0.027 A 
ATOM      4  C4  DEN d   1       1.706  -0.064  -0.601  0.00  0.00     0.027 A 
ATOM      5  C5  DEN d   1       1.285  -1.199  -1.257  0.00  0.00    -0.003 A 
ATOM      6  C6  DEN d   1       0.073  -1.783  -1.001  0.00  0.00     0.001 A 
ATOM      7  C7  DEN d   1      -0.781  -1.208  -0.098  0.00  0.00     0.017 A 
ATOM      8  C8  DEN d   1      -0.361  -0.066   0.573  0.00  0.00    -0.094 A 
ATOM      9  C9  DEN d   1       0.864   0.516   0.291  0.00  0.00    -0.072 A 
ENDROOT
TORSDOF 0
ENDMDL
