MODEL 1
REMARK minimizedAffinity -4.04336405
REMARK minimizedRMSD -1
REMARK  0 active torsions:
REMARK  status: ('A' for Active; 'I' for Inactive)
ROOT
ATOM      1  C1  DEN d   1      -1.109  -0.469   0.997  0.00  0.00     0.130 A 
ATOM      2  C2  DEN d   1      -1.012  -1.256  -0.230  0.00  0.00    -0.031 A 
ATOM      3  C3  DEN d   1      -0.043  -0.590  -1.123  0.00  0.00     0.027 A 
ATOM      4  C4  DEN d   1       1.313   1.568  -0.727  0.00  0.00     0.027 A 
ATOM      5  C5  DEN d   1       1.559   2.592   0.161  0.00  0.00    -0.003 A 
ATOM      6  C6  DEN d   1       0.913   2.686   1.365  0.00  0.00     0.001 A 
ATOM      7  C7  DEN d   1       0.021   1.713   1.734  0.00  0.00     0.017 A 
ATOM      8  C8  DEN d   1      -0.237   0.681   0.841  0.00  0.00    -0.094 A 
ATOM      9  C9  DEN d   1       0.436   0.598  -0.366  0.00  0.00    -0.072 A 
ENDROOT
TORSDOF 0
ENDMDL
