MODEL 1
REMARK minimizedAffinity -3.52392387
REMARK minimizedRMSD -1
REMARK  0 active torsions:
REMARK  status: ('A' for Active; 'I' for Inactive)
ROOT
ATOM      1  C1  DEN d   1      -0.743   0.905   1.716  0.00  0.00     0.130 A 
ATOM      2  C2  DEN d   1       0.299   1.897   1.964  0.00  0.00    -0.031 A 
ATOM      3  C3  DEN d   1       1.452   1.574   1.100  0.00  0.00     0.027 A 
ATOM      4  C4  DEN d   1       1.723  -0.354  -0.592  0.00  0.00     0.027 A 
ATOM      5  C5  DEN d   1       1.111  -1.459  -1.141  0.00  0.00    -0.003 A 
ATOM      6  C6  DEN d   1      -0.137  -1.871  -0.755  0.00  0.00     0.001 A 
ATOM      7  C7  DEN d   1      -0.833  -1.145   0.175  0.00  0.00     0.017 A 
ATOM      8  C8  DEN d   1      -0.220  -0.034   0.739  0.00  0.00    -0.094 A 
ATOM      9  C9  DEN d   1       1.037   0.373   0.327  0.00  0.00    -0.072 A 
ENDROOT
TORSDOF 0
ENDMDL
