MODEL 1
REMARK minimizedAffinity -5.68914747
REMARK minimizedRMSD -1
REMARK  0 active torsions:
REMARK  status: ('A' for Active; 'I' for Inactive)
ROOT
ATOM      1  C1  DEN d   1       0.201  -1.145  -0.651  0.00  0.00     0.130 A 
ATOM      2  C2  DEN d   1      -1.098  -1.106   0.015  0.00  0.00    -0.031 A 
ATOM      3  C3  DEN d   1      -1.127   0.085   0.889  0.00  0.00     0.027 A 
ATOM      4  C4  DEN d   1       0.701   1.864   1.268  0.00  0.00     0.027 A 
ATOM      5  C5  DEN d   1       1.980   2.249   0.932  0.00  0.00    -0.003 A 
ATOM      6  C6  DEN d   1       2.761   1.518   0.078  0.00  0.00     0.001 A 
ATOM      7  C7  DEN d   1       2.255   0.386  -0.505  0.00  0.00     0.017 A 
ATOM      8  C8  DEN d   1       0.969  -0.012  -0.165  0.00  0.00    -0.094 A 
ATOM      9  C9  DEN d   1       0.190   0.747   0.691  0.00  0.00    -0.072 A 
ENDROOT
TORSDOF 0
ENDMDL
