MODEL 1
REMARK minimizedAffinity -1.46231961
REMARK minimizedRMSD -1
REMARK  0 active torsions:
REMARK  status: ('A' for Active; 'I' for Inactive)
ROOT
ATOM      1  C1  DEN d   1      -0.772   1.367  -0.020  0.00  0.00     0.130 A 
ATOM      2  C2  DEN d   1      -0.328   1.094   1.344  0.00  0.00    -0.031 A 
ATOM      3  C3  DEN d   1      -0.146  -0.365   1.481  0.00  0.00     0.027 A 
ATOM      4  C4  DEN d   1      -0.503  -2.217  -0.279  0.00  0.00     0.027 A 
ATOM      5  C5  DEN d   1      -0.888  -2.474  -1.576  0.00  0.00    -0.003 A 
ATOM      6  C6  DEN d   1      -1.290  -1.480  -2.428  0.00  0.00     0.001 A 
ATOM      7  C7  DEN d   1      -1.274  -0.176  -2.007  0.00  0.00     0.017 A 
ATOM      8  C8  DEN d   1      -0.894   0.089  -0.698  0.00  0.00    -0.094 A 
ATOM      9  C9  DEN d   1      -0.479  -0.928   0.144  0.00  0.00    -0.072 A 
ENDROOT
TORSDOF 0
ENDMDL
