MODEL 1
REMARK minimizedAffinity -1.61982608
REMARK minimizedRMSD -1
REMARK  0 active torsions:
REMARK  status: ('A' for Active; 'I' for Inactive)
ROOT
ATOM      1  C1  DEN d   1      -1.433   1.317   0.051  0.00  0.00     0.130 A 
ATOM      2  C2  DEN d   1      -0.760   1.008   1.310  0.00  0.00    -0.031 A 
ATOM      3  C3  DEN d   1      -0.137  -0.325   1.179  0.00  0.00     0.027 A 
ATOM      4  C4  DEN d   1      -0.145  -1.928  -0.841  0.00  0.00     0.027 A 
ATOM      5  C5  DEN d   1      -0.595  -2.107  -2.131  0.00  0.00    -0.003 A 
ATOM      6  C6  DEN d   1      -1.378  -1.180  -2.766  0.00  0.00     0.001 A 
ATOM      7  C7  DEN d   1      -1.698  -0.010  -2.129  0.00  0.00     0.017 A 
ATOM      8  C8  DEN d   1      -1.253   0.174  -0.826  0.00  0.00    -0.094 A 
ATOM      9  C9  DEN d   1      -0.453  -0.770  -0.205  0.00  0.00    -0.072 A 
ENDROOT
TORSDOF 0
ENDMDL
