MODEL 1
REMARK minimizedAffinity -3.40557861
REMARK minimizedRMSD -1
REMARK  0 active torsions:
REMARK  status: ('A' for Active; 'I' for Inactive)
ROOT
ATOM      1  C1  DEN d   1       0.119  -0.081  -0.849  0.00  0.00     0.130 A 
ATOM      2  C2  DEN d   1      -1.063  -0.476  -0.087  0.00  0.00    -0.031 A 
ATOM      3  C3  DEN d   1      -0.996   0.182   1.233  0.00  0.00     0.027 A 
ATOM      4  C4  DEN d   1       0.810   1.770   2.165  0.00  0.00     0.027 A 
ATOM      5  C5  DEN d   1       2.010   2.390   1.892  0.00  0.00    -0.003 A 
ATOM      6  C6  DEN d   1       2.675   2.204   0.709  0.00  0.00     0.001 A 
ATOM      7  C7  DEN d   1       2.121   1.413  -0.264  0.00  0.00     0.017 A 
ATOM      8  C8  DEN d   1       0.916   0.779   0.007  0.00  0.00    -0.094 A 
ATOM      9  C9  DEN d   1       0.253   0.990   1.205  0.00  0.00    -0.072 A 
ENDROOT
TORSDOF 0
ENDMDL
