MODEL 1
REMARK minimizedAffinity -4.25293112
REMARK minimizedRMSD -1
REMARK  0 active torsions:
REMARK  status: ('A' for Active; 'I' for Inactive)
ROOT
ATOM      1  C1  DEN d   1       3.658   0.898   2.261  0.00  0.00     0.130 A 
ATOM      2  C2  DEN d   1       4.683   0.966   1.223  0.00  0.00    -0.031 A 
ATOM      3  C3  DEN d   1       4.113   1.687   0.066  0.00  0.00     0.027 A 
ATOM      4  C4  DEN d   1       1.759   2.702  -0.214  0.00  0.00     0.027 A 
ATOM      5  C5  DEN d   1       0.536   2.885   0.393  0.00  0.00    -0.003 A 
ATOM      6  C6  DEN d   1       0.259   2.394   1.641  0.00  0.00     0.001 A 
ATOM      7  C7  DEN d   1       1.233   1.733   2.342  0.00  0.00     0.017 A 
ATOM      8  C8  DEN d   1       2.466   1.538   1.733  0.00  0.00    -0.094 A 
ATOM      9  C9  DEN d   1       2.731   2.053   0.476  0.00  0.00    -0.072 A 
ENDROOT
TORSDOF 0
ENDMDL
