MODEL 1
REMARK minimizedAffinity -5.34938383
REMARK minimizedRMSD -1
REMARK  0 active torsions:
REMARK  status: ('A' for Active; 'I' for Inactive)
ROOT
ATOM      1  C1  DEN d   1       2.975   2.045   0.838  0.00  0.00     0.130 A 
ATOM      2  C2  DEN d   1       3.708   1.133  -0.036  0.00  0.00    -0.031 A 
ATOM      3  C3  DEN d   1       2.778   0.071  -0.470  0.00  0.00     0.027 A 
ATOM      4  C4  DEN d   1       0.287  -0.246   0.120  0.00  0.00     0.027 A 
ATOM      5  C5  DEN d   1      -0.770   0.267   0.838  0.00  0.00    -0.003 A 
ATOM      6  C6  DEN d   1      -0.646   1.380   1.627  0.00  0.00     0.001 A 
ATOM      7  C7  DEN d   1       0.552   2.043   1.681  0.00  0.00     0.017 A 
ATOM      8  C8  DEN d   1       1.624   1.527   0.966  0.00  0.00    -0.094 A 
ATOM      9  C9  DEN d   1       1.475   0.408   0.165  0.00  0.00    -0.072 A 
ENDROOT
TORSDOF 0
ENDMDL
