MODEL 1
REMARK minimizedAffinity -4.69969749
REMARK minimizedRMSD -1
REMARK  0 active torsions:
REMARK  status: ('A' for Active; 'I' for Inactive)
ROOT
ATOM      1  C1  DEN d   1       2.926   1.932   1.388  0.00  0.00     0.130 A 
ATOM      2  C2  DEN d   1       3.650   1.118   0.416  0.00  0.00    -0.031 A 
ATOM      3  C3  DEN d   1       2.679   0.223  -0.244  0.00  0.00     0.027 A 
ATOM      4  C4  DEN d   1       0.136   0.022   0.141  0.00  0.00     0.027 A 
ATOM      5  C5  DEN d   1      -0.929   0.497   0.873  0.00  0.00    -0.003 A 
ATOM      6  C6  DEN d   1      -0.780   1.451   1.844  0.00  0.00     0.001 A 
ATOM      7  C7  DEN d   1       0.456   1.994   2.078  0.00  0.00     0.017 A 
ATOM      8  C8  DEN d   1       1.536   1.515   1.349  0.00  0.00    -0.094 A 
ATOM      9  C9  DEN d   1       1.363   0.559   0.363  0.00  0.00    -0.072 A 
ENDROOT
TORSDOF 0
ENDMDL
