MODEL 1
REMARK minimizedAffinity -5.01910448
REMARK minimizedRMSD -1
REMARK  0 active torsions:
REMARK  status: ('A' for Active; 'I' for Inactive)
ROOT
ATOM      1  C1  DEN d   1       3.757   4.871  -5.346  0.00  0.00     0.130 A 
ATOM      2  C2  DEN d   1       4.500   4.518  -4.139  0.00  0.00    -0.031 A 
ATOM      3  C3  DEN d   1       3.592   4.667  -2.984  0.00  0.00     0.027 A 
ATOM      4  C4  DEN d   1       1.120   5.402  -2.948  0.00  0.00     0.027 A 
ATOM      5  C5  DEN d   1       0.060   5.816  -3.725  0.00  0.00    -0.003 A 
ATOM      6  C6  DEN d   1       0.167   5.975  -5.081  0.00  0.00     0.001 A 
ATOM      7  C7  DEN d   1       1.348   5.675  -5.709  0.00  0.00     0.017 A 
ATOM      8  C8  DEN d   1       2.423   5.264  -4.931  0.00  0.00    -0.094 A 
ATOM      9  C9  DEN d   1       2.291   5.098  -3.563  0.00  0.00    -0.072 A 
ENDROOT
TORSDOF 0
ENDMDL
