MODEL 1
REMARK minimizedAffinity 4.05640173
REMARK minimizedRMSD -1
REMARK  0 active torsions:
REMARK  status: ('A' for Active; 'I' for Inactive)
ROOT
ATOM      1  C1  DEN d   1       0.545   3.374   0.043  0.00  0.00     0.130 A 
ATOM      2  C2  DEN d   1       1.229   3.013  -1.196  0.00  0.00    -0.031 A 
ATOM      3  C3  DEN d   1       1.228   1.541  -1.306  0.00  0.00     0.027 A 
ATOM      4  C4  DEN d   1       0.235  -0.207   0.311  0.00  0.00     0.027 A 
ATOM      5  C5  DEN d   1      -0.433  -0.381   1.502  0.00  0.00    -0.003 A 
ATOM      6  C6  DEN d   1      -0.789   0.673   2.301  0.00  0.00     0.001 A 
ATOM      7  C7  DEN d   1      -0.519   1.953   1.896  0.00  0.00     0.017 A 
ATOM      8  C8  DEN d   1       0.161   2.137   0.699  0.00  0.00    -0.094 A 
ATOM      9  C9  DEN d   1       0.502   1.059  -0.100  0.00  0.00    -0.072 A 
ENDROOT
TORSDOF 0
ENDMDL
