MODEL 1
REMARK minimizedAffinity 9.36887932
REMARK minimizedRMSD -1
REMARK  0 active torsions:
REMARK  status: ('A' for Active; 'I' for Inactive)
ROOT
ATOM      1  C   UNL d   1       2.070   0.032  -4.251  0.00  0.00     0.077 C 
ATOM      2  C1  UNL d   1       1.365  -0.241  -2.955  0.00  0.00    -0.074 A 
ATOM      3  C2  UNL d   1       0.687   0.777  -2.277  0.00  0.00    -0.005 A 
ATOM      4  C3  UNL d   1       0.028   0.506  -1.078  0.00  0.00     0.006 A 
ATOM      5  C4  UNL d   1       0.041  -0.784  -0.545  0.00  0.00    -0.005 A 
ATOM      6  C5  UNL d   1       0.713  -1.815  -1.210  0.00  0.00    -0.074 A 
ATOM      7  C6  UNL d   1       0.729  -3.209  -0.656  0.00  0.00     0.077 C 
ATOM      8  C7  UNL d   1       1.367  -1.536  -2.418  0.00  0.00    -0.001 A 
ENDROOT
TORSDOF 0
ENDMDL
