MODEL 1
REMARK minimizedAffinity 6.6923418
REMARK minimizedRMSD -1
REMARK  0 active torsions:
REMARK  status: ('A' for Active; 'I' for Inactive)
ROOT
ATOM      1  C   UNL d   1       0.530   2.316  -0.945  0.00  0.00     0.077 C 
ATOM      2  C1  UNL d   1       0.184   0.881  -0.677  0.00  0.00    -0.074 A 
ATOM      3  C2  UNL d   1      -1.093   0.521  -0.234  0.00  0.00    -0.005 A 
ATOM      4  C3  UNL d   1      -1.403  -0.819   0.002  0.00  0.00     0.006 A 
ATOM      5  C4  UNL d   1      -0.442  -1.809  -0.201  0.00  0.00    -0.005 A 
ATOM      6  C5  UNL d   1       0.840  -1.468  -0.644  0.00  0.00    -0.074 A 
ATOM      7  C6  UNL d   1       1.882  -2.521  -0.876  0.00  0.00     0.077 C 
ATOM      8  C7  UNL d   1       1.142  -0.120  -0.886  0.00  0.00    -0.001 A 
ENDROOT
TORSDOF 0
ENDMDL
