MODEL 1
REMARK minimizedAffinity 9.66883373
REMARK minimizedRMSD -1
REMARK  0 active torsions:
REMARK  status: ('A' for Active; 'I' for Inactive)
ROOT
ATOM      1  C   UNL d   1       1.294  -2.192  -0.898  0.00  0.00     0.077 C 
ATOM      2  C1  UNL d   1       1.060  -0.799  -1.400  0.00  0.00    -0.074 A 
ATOM      3  C2  UNL d   1       0.545   0.192  -0.558  0.00  0.00    -0.005 A 
ATOM      4  C3  UNL d   1       0.342   1.486  -1.037  0.00  0.00     0.006 A 
ATOM      5  C4  UNL d   1       0.651   1.802  -2.361  0.00  0.00    -0.005 A 
ATOM      6  C5  UNL d   1       1.168   0.825  -3.217  0.00  0.00    -0.074 A 
ATOM      7  C6  UNL d   1       1.515   1.150  -4.640  0.00  0.00     0.077 C 
ATOM      8  C7  UNL d   1       1.376  -0.471  -2.727  0.00  0.00    -0.001 A 
ENDROOT
TORSDOF 0
ENDMDL
