MODEL 1
REMARK minimizedAffinity -0.73260951
REMARK minimizedRMSD -1
REMARK  0 active torsions:
REMARK  status: ('A' for Active; 'I' for Inactive)
ROOT
ATOM      1  C   UNL d   1       5.929   0.441   5.980  0.00  0.00     0.077 C 
ATOM      2  C1  UNL d   1       5.688   1.739   5.268  0.00  0.00    -0.074 A 
ATOM      3  C2  UNL d   1       5.196   1.760   3.959  0.00  0.00    -0.005 A 
ATOM      4  C3  UNL d   1       4.968   2.975   3.313  0.00  0.00     0.006 A 
ATOM      5  C4  UNL d   1       5.229   4.179   3.968  0.00  0.00    -0.005 A 
ATOM      6  C5  UNL d   1       5.721   4.178   5.277  0.00  0.00    -0.074 A 
ATOM      7  C6  UNL d   1       5.998   5.463   5.999  0.00  0.00     0.077 C 
ATOM      8  C7  UNL d   1       5.941   2.953   5.922  0.00  0.00    -0.001 A 
ENDROOT
TORSDOF 0
ENDMDL
