MODEL 1
REMARK minimizedAffinity -3.10189295
REMARK minimizedRMSD -1
REMARK  0 active torsions:
REMARK  status: ('A' for Active; 'I' for Inactive)
ROOT
ATOM      1  C   UNL d   1       1.533  -3.137  -0.764  0.00  0.00     0.077 C 
ATOM      2  C1  UNL d   1       1.160  -1.732  -1.132  0.00  0.00    -0.074 A 
ATOM      3  C2  UNL d   1       0.570  -0.877  -0.196  0.00  0.00    -0.005 A 
ATOM      4  C3  UNL d   1       0.237   0.431  -0.550  0.00  0.00     0.006 A 
ATOM      5  C4  UNL d   1       0.489   0.895  -1.842  0.00  0.00    -0.005 A 
ATOM      6  C5  UNL d   1       1.079   0.054  -2.791  0.00  0.00    -0.074 A 
ATOM      7  C6  UNL d   1       1.366   0.539  -4.181  0.00  0.00     0.077 C 
ATOM      8  C7  UNL d   1       1.418  -1.256  -2.425  0.00  0.00    -0.001 A 
ENDROOT
TORSDOF 0
ENDMDL
