MODEL 1
REMARK minimizedAffinity 6.45341635
REMARK minimizedRMSD -1
REMARK  0 active torsions:
REMARK  status: ('A' for Active; 'I' for Inactive)
ROOT
ATOM      1  C   UNL d   1       5.169  -0.469   5.809  0.00  0.00     0.077 C 
ATOM      2  C1  UNL d   1       4.990   1.008   5.625  0.00  0.00    -0.074 A 
ATOM      3  C2  UNL d   1       6.000   1.906   5.987  0.00  0.00    -0.005 A 
ATOM      4  C3  UNL d   1       5.823   3.276   5.800  0.00  0.00     0.006 A 
ATOM      5  C4  UNL d   1       4.636   3.763   5.251  0.00  0.00    -0.005 A 
ATOM      6  C5  UNL d   1       3.615   2.881   4.882  0.00  0.00    -0.074 A 
ATOM      7  C6  UNL d   1       2.338   3.387   4.281  0.00  0.00     0.077 C 
ATOM      8  C7  UNL d   1       3.804   1.505   5.066  0.00  0.00    -0.001 A 
ENDROOT
TORSDOF 0
ENDMDL
