MODEL 1
REMARK minimizedAffinity 1.73908949
REMARK minimizedRMSD -1
REMARK  0 active torsions:
REMARK  status: ('A' for Active; 'I' for Inactive)
ROOT
ATOM      1  C   UNL d   1       0.312   1.722  -0.048  0.00  0.00     0.077 C 
ATOM      2  C1  UNL d   1       0.283   0.224  -0.116  0.00  0.00    -0.074 A 
ATOM      3  C2  UNL d   1      -0.599  -0.515   0.679  0.00  0.00    -0.005 A 
ATOM      4  C3  UNL d   1      -0.621  -1.907   0.598  0.00  0.00     0.006 A 
ATOM      5  C4  UNL d   1       0.237  -2.574  -0.277  0.00  0.00    -0.005 A 
ATOM      6  C5  UNL d   1       1.125  -1.852  -1.081  0.00  0.00    -0.074 A 
ATOM      7  C6  UNL d   1       2.047  -2.553  -2.034  0.00  0.00     0.077 C 
ATOM      8  C7  UNL d   1       1.137  -0.453  -0.999  0.00  0.00    -0.001 A 
ENDROOT
TORSDOF 0
ENDMDL
