MODEL 1
REMARK minimizedAffinity 3.58715844
REMARK minimizedRMSD -1
REMARK  0 active torsions:
REMARK  status: ('A' for Active; 'I' for Inactive)
ROOT
ATOM      1  C   UNL d   1      -0.685  -0.575   1.070  0.00  0.00     0.077 C 
ATOM      2  C1  UNL d   1       0.211  -1.020  -0.047  0.00  0.00    -0.074 A 
ATOM      3  C2  UNL d   1       0.826  -2.276  -0.018  0.00  0.00    -0.005 A 
ATOM      4  C3  UNL d   1       1.650  -2.680  -1.069  0.00  0.00     0.006 A 
ATOM      5  C4  UNL d   1       1.866  -1.834  -2.157  0.00  0.00    -0.005 A 
ATOM      6  C5  UNL d   1       1.259  -0.575  -2.204  0.00  0.00    -0.074 A 
ATOM      7  C6  UNL d   1       1.473   0.343  -3.371  0.00  0.00     0.077 C 
ATOM      8  C7  UNL d   1       0.427  -0.179  -1.148  0.00  0.00    -0.001 A 
ENDROOT
TORSDOF 0
ENDMDL
