MODEL 1
REMARK minimizedAffinity 3.65573859
REMARK minimizedRMSD -1
REMARK  0 active torsions:
REMARK  status: ('A' for Active; 'I' for Inactive)
ROOT
ATOM      1  C   UNL d   1       0.902   3.872   1.622  0.00  0.00     0.077 C 
ATOM      2  C1  UNL d   1       0.902   2.838   0.535  0.00  0.00    -0.074 A 
ATOM      3  C2  UNL d   1       1.440   3.118  -0.724  0.00  0.00    -0.005 A 
ATOM      4  C3  UNL d   1       1.442   2.143  -1.722  0.00  0.00     0.006 A 
ATOM      5  C4  UNL d   1       0.905   0.880  -1.470  0.00  0.00    -0.005 A 
ATOM      6  C5  UNL d   1       0.362   0.581  -0.216  0.00  0.00    -0.074 A 
ATOM      7  C6  UNL d   1      -0.210  -0.775   0.074  0.00  0.00     0.077 C 
ATOM      8  C7  UNL d   1       0.371   1.564   0.783  0.00  0.00    -0.001 A 
ENDROOT
TORSDOF 0
ENDMDL
