MODEL 1
REMARK minimizedAffinity -0.755275249
REMARK minimizedRMSD -1
REMARK  0 active torsions:
REMARK  status: ('A' for Active; 'I' for Inactive)
ROOT
ATOM      1  C   UNL d   1       2.153  -2.432  -1.236  0.00  0.00     0.077 C 
ATOM      2  C1  UNL d   1       1.032  -1.506  -0.866  0.00  0.00    -0.074 A 
ATOM      3  C2  UNL d   1      -0.190  -2.006  -0.405  0.00  0.00    -0.005 A 
ATOM      4  C3  UNL d   1      -1.220  -1.133  -0.055  0.00  0.00     0.006 A 
ATOM      5  C4  UNL d   1      -1.039   0.247  -0.164  0.00  0.00    -0.005 A 
ATOM      6  C5  UNL d   1       0.177   0.765  -0.623  0.00  0.00    -0.074 A 
ATOM      7  C6  UNL d   1       0.391   2.245  -0.736  0.00  0.00     0.077 C 
ATOM      8  C7  UNL d   1       1.209  -0.119  -0.965  0.00  0.00    -0.001 A 
ENDROOT
TORSDOF 0
ENDMDL
