MODEL 1
REMARK minimizedAffinity -1.56003785
REMARK minimizedRMSD -1
REMARK  0 active torsions:
REMARK  status: ('A' for Active; 'I' for Inactive)
ROOT
ATOM      1  C   UNL d   1       1.980   0.407  -4.836  0.00  0.00     0.077 C 
ATOM      2  C1  UNL d   1       1.726   0.034  -3.406  0.00  0.00    -0.074 A 
ATOM      3  C2  UNL d   1       2.088  -1.226  -2.916  0.00  0.00    -0.005 A 
ATOM      4  C3  UNL d   1       1.854  -1.555  -1.581  0.00  0.00     0.006 A 
ATOM      5  C4  UNL d   1       1.256  -0.630  -0.723  0.00  0.00    -0.005 A 
ATOM      6  C5  UNL d   1       0.889   0.634  -1.195  0.00  0.00    -0.074 A 
ATOM      7  C6  UNL d   1       0.255   1.643  -0.284  0.00  0.00     0.077 C 
ATOM      8  C7  UNL d   1       1.133   0.960  -2.536  0.00  0.00    -0.001 A 
ENDROOT
TORSDOF 0
ENDMDL
