MODEL 1
REMARK minimizedAffinity 5.53723621
REMARK minimizedRMSD -1
REMARK  0 active torsions:
REMARK  status: ('A' for Active; 'I' for Inactive)
ROOT
ATOM      1  C   UNL d   1       0.364   1.129  -1.030  0.00  0.00     0.077 C 
ATOM      2  C1  UNL d   1       0.900   2.388  -0.416  0.00  0.00    -0.074 A 
ATOM      3  C2  UNL d   1       0.127   3.139   0.475  0.00  0.00    -0.005 A 
ATOM      4  C3  UNL d   1       0.643   4.303   1.045  0.00  0.00     0.006 A 
ATOM      5  C4  UNL d   1       1.935   4.726   0.731  0.00  0.00    -0.005 A 
ATOM      6  C5  UNL d   1       2.723   3.988  -0.157  0.00  0.00    -0.074 A 
ATOM      7  C6  UNL d   1       4.117   4.424  -0.498  0.00  0.00     0.077 C 
ATOM      8  C7  UNL d   1       2.200   2.816  -0.721  0.00  0.00    -0.001 A 
ENDROOT
TORSDOF 0
ENDMDL
