MODEL 1
REMARK minimizedAffinity 6.12755775
REMARK minimizedRMSD -1
REMARK  0 active torsions:
REMARK  status: ('A' for Active; 'I' for Inactive)
ROOT
ATOM      1  C   UNL d   1      -1.766  -0.176   0.237  0.00  0.00     0.077 C 
ATOM      2  C1  UNL d   1      -0.649  -1.142  -0.024  0.00  0.00    -0.074 A 
ATOM      3  C2  UNL d   1      -0.721  -2.464   0.427  0.00  0.00    -0.005 A 
ATOM      4  C3  UNL d   1       0.321  -3.354   0.168  0.00  0.00     0.006 A 
ATOM      5  C4  UNL d   1       1.445  -2.931  -0.544  0.00  0.00    -0.005 A 
ATOM      6  C5  UNL d   1       1.535  -1.614  -1.003  0.00  0.00    -0.074 A 
ATOM      7  C6  UNL d   1       2.731  -1.146  -1.778  0.00  0.00     0.077 C 
ATOM      8  C7  UNL d   1       0.480  -0.728  -0.745  0.00  0.00    -0.001 A 
ENDROOT
TORSDOF 0
ENDMDL
