MODEL 1
REMARK minimizedAffinity 1.45316923
REMARK minimizedRMSD -1
REMARK  0 active torsions:
REMARK  status: ('A' for Active; 'I' for Inactive)
ROOT
ATOM      1  C   UNL d   1       1.680   1.191  -4.355  0.00  0.00     0.077 C 
ATOM      2  C1  UNL d   1       1.488  -0.187  -3.795  0.00  0.00    -0.074 A 
ATOM      3  C2  UNL d   1       0.755  -1.152  -4.494  0.00  0.00    -0.005 A 
ATOM      4  C3  UNL d   1       0.594  -2.432  -3.965  0.00  0.00     0.006 A 
ATOM      5  C4  UNL d   1       1.161  -2.760  -2.733  0.00  0.00    -0.005 A 
ATOM      6  C5  UNL d   1       1.898  -1.809  -2.020  0.00  0.00    -0.074 A 
ATOM      7  C6  UNL d   1       2.523  -2.148  -0.700  0.00  0.00     0.077 C 
ATOM      8  C7  UNL d   1       2.062  -0.527  -2.562  0.00  0.00    -0.001 A 
ENDROOT
TORSDOF 0
ENDMDL
