MODEL 1
REMARK minimizedAffinity 8.9893856
REMARK minimizedRMSD -1
REMARK  0 active torsions:
REMARK  status: ('A' for Active; 'I' for Inactive)
ROOT
ATOM      1  C   UNL d   1      -1.836  -0.721   0.107  0.00  0.00     0.077 C 
ATOM      2  C1  UNL d   1      -0.658  -1.596  -0.200  0.00  0.00    -0.074 A 
ATOM      3  C2  UNL d   1      -0.506  -2.842   0.418  0.00  0.00    -0.005 A 
ATOM      4  C3  UNL d   1       0.590  -3.649   0.115  0.00  0.00     0.006 A 
ATOM      5  C4  UNL d   1       1.545  -3.219  -0.808  0.00  0.00    -0.005 A 
ATOM      6  C5  UNL d   1       1.410  -1.977  -1.437  0.00  0.00    -0.074 A 
ATOM      7  C6  UNL d   1       2.421  -1.505  -2.439  0.00  0.00     0.077 C 
ATOM      8  C7  UNL d   1       0.302  -1.175  -1.132  0.00  0.00    -0.001 A 
ENDROOT
TORSDOF 0
ENDMDL
