MODEL 1
REMARK minimizedAffinity 0.925306857
REMARK minimizedRMSD -1
REMARK  0 active torsions:
REMARK  status: ('A' for Active; 'I' for Inactive)
ROOT
ATOM      1  C   UNL d   1       4.875  -3.058   5.976  0.00  0.00     0.077 C 
ATOM      2  C1  UNL d   1       5.229  -1.788   5.260  0.00  0.00    -0.074 A 
ATOM      3  C2  UNL d   1       5.681  -1.812   3.936  0.00  0.00    -0.005 A 
ATOM      4  C3  UNL d   1       5.998  -0.622   3.280  0.00  0.00     0.006 A 
ATOM      5  C4  UNL d   1       5.866   0.600   3.940  0.00  0.00    -0.005 A 
ATOM      6  C5  UNL d   1       5.415   0.644   5.263  0.00  0.00    -0.074 A 
ATOM      7  C6  UNL d   1       5.258   1.950   5.983  0.00  0.00     0.077 C 
ATOM      8  C7  UNL d   1       5.092  -0.555   5.913  0.00  0.00    -0.001 A 
ENDROOT
TORSDOF 0
ENDMDL
