MODEL 1
REMARK minimizedAffinity -0.568496108
REMARK minimizedRMSD -1
REMARK  1 active torsions:
REMARK  status: ('A' for Active; 'I' for Inactive)
REMARK    1  A    between atoms: C3_4  and  O_7 
ROOT
ATOM      1  C   UNL d   1       2.933  -1.123   0.424  0.00  0.00    -0.033 A 
ATOM      2  C1  UNL d   1       1.866  -1.554  -0.366  0.00  0.00     0.039 A 
ATOM      3  C2  UNL d   1       0.900  -0.643  -0.796  0.00  0.00    -0.080 A 
ATOM      4  C3  UNL d   1       1.013   0.696  -0.431  0.00  0.00     0.150 A 
ATOM      5  C4  UNL d   1       2.076   1.133   0.353  0.00  0.00    -0.007 A 
ATOM      6  C5  UNL d   1       3.039   0.221   0.782  0.00  0.00     0.039 A 
ENDROOT
BRANCH   4   7
ATOM      7  O   UNL d   1       0.092   1.622  -0.823  0.00  0.00    -0.526 OA
ATOM      8  H5  UNL d   1      -0.599   1.170  -1.335  0.00  0.00     0.418 HD
ENDBRANCH   4   7
TORSDOF 1
ENDMDL
