MODEL 1
REMARK minimizedAffinity 1.79114711
REMARK minimizedRMSD -1
REMARK  1 active torsions:
REMARK  status: ('A' for Active; 'I' for Inactive)
REMARK    1  A    between atoms: C3_4  and  O_7 
ROOT
ATOM      1  C   UNL d   1       4.377  -0.972   0.654  0.00  0.00    -0.033 A 
ATOM      2  C1  UNL d   1       3.114  -1.203   1.202  0.00  0.00     0.039 A 
ATOM      3  C2  UNL d   1       2.110  -0.241   1.078  0.00  0.00    -0.080 A 
ATOM      4  C3  UNL d   1       2.381   0.946   0.403  0.00  0.00     0.150 A 
ATOM      5  C4  UNL d   1       3.636   1.182  -0.149  0.00  0.00    -0.007 A 
ATOM      6  C5  UNL d   1       4.638   0.220  -0.023  0.00  0.00     0.039 A 
ENDROOT
BRANCH   4   7
ATOM      7  O   UNL d   1       1.435   1.917   0.260  0.00  0.00    -0.526 OA
ATOM      8  H5  UNL d   1       0.627   1.628   0.716  0.00  0.00     0.418 HD
ENDBRANCH   4   7
TORSDOF 1
ENDMDL
