MODEL 1
REMARK minimizedAffinity 0.650997579
REMARK minimizedRMSD -1
REMARK  1 active torsions:
REMARK  status: ('A' for Active; 'I' for Inactive)
REMARK    1  A    between atoms: C3_4  and  O_7 
ROOT
ATOM      1  C   UNL d   1      -5.994   0.381   0.572  0.00  0.00    -0.033 A 
ATOM      2  C1  UNL d   1      -5.980   0.206  -0.814  0.00  0.00     0.039 A 
ATOM      3  C2  UNL d   1      -5.941  -1.080  -1.356  0.00  0.00    -0.080 A 
ATOM      4  C3  UNL d   1      -5.916  -2.181  -0.504  0.00  0.00     0.150 A 
ATOM      5  C4  UNL d   1      -5.933  -2.013   0.877  0.00  0.00    -0.007 A 
ATOM      6  C5  UNL d   1      -5.972  -0.729   1.417  0.00  0.00     0.039 A 
ENDROOT
BRANCH   4   7
ATOM      7  O   UNL d   1      -5.872  -3.455  -0.986  0.00  0.00    -0.526 OA
ATOM      8  H5  UNL d   1      -5.835  -3.415  -1.957  0.00  0.00     0.418 HD
ENDBRANCH   4   7
TORSDOF 1
ENDMDL
