MODEL 1
REMARK minimizedAffinity 4.67992067
REMARK minimizedRMSD -1
REMARK  0 active torsions:
REMARK  status: ('A' for Active; 'I' for Inactive)
ROOT
ATOM      1  C2' OXE d   1      -6.000  -2.236   1.675  0.00  0.00     0.078 C 
ATOM      2  C1' OXE d   1      -6.000  -1.631   4.416  0.00  0.00     0.078 C 
ATOM      3  C1  OXE d   1      -4.951  -0.978   3.552  0.00  0.00    -0.078 A 
ATOM      4  C2  OXE d   1      -4.929  -1.315   2.220  0.00  0.00    -0.078 A 
ATOM      5  C3  OXE d   1      -4.017  -0.700   1.367  0.00  0.00     0.003 A 
ATOM      6  C4  OXE d   1      -3.024   0.143   1.881  0.00  0.00    -0.002 A 
ATOM      7  C5  OXE d   1      -3.003   0.469   3.241  0.00  0.00    -0.002 A 
ATOM      8  C6  OXE d   1      -3.984  -0.048   4.081  0.00  0.00     0.003 A 
ENDROOT
TORSDOF 0
ENDMDL
