MODEL 1
REMARK minimizedAffinity 8.3291626
REMARK minimizedRMSD -1
REMARK  0 active torsions:
REMARK  status: ('A' for Active; 'I' for Inactive)
ROOT
ATOM      1  C2' OXE d   1      -2.721  -0.370   4.488  0.00  0.00     0.078 C 
ATOM      2  C1' OXE d   1      -2.625   0.380   1.784  0.00  0.00     0.078 C 
ATOM      3  C1  OXE d   1      -3.833  -0.388   2.259  0.00  0.00    -0.078 A 
ATOM      4  C2  OXE d   1      -3.850  -0.792   3.572  0.00  0.00    -0.078 A 
ATOM      5  C3  OXE d   1      -4.965  -1.456   4.075  0.00  0.00     0.003 A 
ATOM      6  C4  OXE d   1      -6.000  -1.852   3.219  0.00  0.00    -0.002 A 
ATOM      7  C5  OXE d   1      -5.984  -1.485   1.869  0.00  0.00    -0.002 A 
ATOM      8  C6  OXE d   1      -4.930  -0.719   1.383  0.00  0.00     0.003 A 
ENDROOT
TORSDOF 0
ENDMDL
