MODEL 1
REMARK minimizedAffinity 8.82807827
REMARK minimizedRMSD -1
REMARK  0 active torsions:
REMARK  status: ('A' for Active; 'I' for Inactive)
ROOT
ATOM      1  C2' OXE d   1      -0.275  -0.321   1.475  0.00  0.00     0.078 C 
ATOM      2  C1' OXE d   1       0.210  -3.080   1.648  0.00  0.00     0.078 C 
ATOM      3  C1  OXE d   1       0.929  -2.306   0.572  0.00  0.00    -0.078 A 
ATOM      4  C2  OXE d   1       0.650  -0.965   0.465  0.00  0.00    -0.078 A 
ATOM      5  C3  OXE d   1       1.327  -0.193  -0.475  0.00  0.00     0.003 A 
ATOM      6  C4  OXE d   1       2.174  -0.798  -1.412  0.00  0.00    -0.002 A 
ATOM      7  C5  OXE d   1       2.441  -2.169  -1.346  0.00  0.00    -0.002 A 
ATOM      8  C6  OXE d   1       1.861  -2.929  -0.335  0.00  0.00     0.003 A 
ENDROOT
TORSDOF 0
ENDMDL
