MODEL 1
REMARK minimizedAffinity 2.35755992
REMARK minimizedRMSD -1
REMARK  0 active torsions:
REMARK  status: ('A' for Active; 'I' for Inactive)
ROOT
ATOM      1  C2' OXE d   1      -4.582  -5.642  -2.826  0.00  0.00     0.078 C 
ATOM      2  C1' OXE d   1      -6.000  -6.000  -5.223  0.00  0.00     0.078 C 
ATOM      3  C1  OXE d   1      -5.296  -4.682  -5.011  0.00  0.00    -0.078 A 
ATOM      4  C2  OXE d   1      -4.644  -4.499  -3.816  0.00  0.00    -0.078 A 
ATOM      5  C3  OXE d   1      -3.933  -3.323  -3.592  0.00  0.00     0.003 A 
ATOM      6  C4  OXE d   1      -4.004  -2.267  -4.508  0.00  0.00    -0.002 A 
ATOM      7  C5  OXE d   1      -4.695  -2.418  -5.715  0.00  0.00    -0.002 A 
ATOM      8  C6  OXE d   1      -5.310  -3.632  -6.000  0.00  0.00     0.003 A 
ENDROOT
TORSDOF 0
ENDMDL
