MODEL 1
REMARK minimizedAffinity 3.18088436
REMARK minimizedRMSD -1
REMARK  0 active torsions:
REMARK  status: ('A' for Active; 'I' for Inactive)
ROOT
ATOM      1  C2' OXE d   1      -3.773  -3.111  -2.989  0.00  0.00     0.078 C 
ATOM      2  C1' OXE d   1      -3.783  -5.916  -2.890  0.00  0.00     0.078 C 
ATOM      3  C1  OXE d   1      -4.552  -5.249  -4.002  0.00  0.00    -0.078 A 
ATOM      4  C2  OXE d   1      -4.580  -3.875  -4.016  0.00  0.00    -0.078 A 
ATOM      5  C3  OXE d   1      -5.230  -3.209  -5.051  0.00  0.00     0.003 A 
ATOM      6  C4  OXE d   1      -5.983  -3.923  -5.991  0.00  0.00    -0.002 A 
ATOM      7  C5  OXE d   1      -6.000  -5.322  -5.972  0.00  0.00    -0.002 A 
ATOM      8  C6  OXE d   1      -5.257  -5.999  -5.012  0.00  0.00     0.003 A 
ENDROOT
TORSDOF 0
ENDMDL
