MODEL 1
REMARK minimizedAffinity 4.55628967
REMARK minimizedRMSD -1
REMARK  0 active torsions:
REMARK  status: ('A' for Active; 'I' for Inactive)
ROOT
ATOM      1  C2' OXE d   1      -5.626  -3.184  -5.784  0.00  0.00     0.078 C 
ATOM      2  C1' OXE d   1      -3.747  -2.278  -3.905  0.00  0.00     0.078 C 
ATOM      3  C1  OXE d   1      -4.428  -3.597  -3.639  0.00  0.00    -0.078 A 
ATOM      4  C2  OXE d   1      -5.380  -4.010  -4.540  0.00  0.00    -0.078 A 
ATOM      5  C3  OXE d   1      -5.999  -5.246  -4.371  0.00  0.00     0.003 A 
ATOM      6  C4  OXE d   1      -5.773  -5.999  -3.212  0.00  0.00    -0.002 A 
ATOM      7  C5  OXE d   1      -4.836  -5.577  -2.263  0.00  0.00    -0.002 A 
ATOM      8  C6  OXE d   1      -4.126  -4.402  -2.482  0.00  0.00     0.003 A 
ENDROOT
TORSDOF 0
ENDMDL
