MODEL 1
REMARK minimizedAffinity 5.80847597
REMARK minimizedRMSD -1
REMARK  0 active torsions:
REMARK  status: ('A' for Active; 'I' for Inactive)
ROOT
ATOM      1  C2' OXE d   1      -6.000  -2.890  -5.648  0.00  0.00     0.078 C 
ATOM      2  C1' OXE d   1      -6.000  -5.675  -5.998  0.00  0.00     0.078 C 
ATOM      3  C1  OXE d   1      -5.568  -5.135  -4.658  0.00  0.00    -0.078 A 
ATOM      4  C2  OXE d   1      -5.527  -3.769  -4.510  0.00  0.00    -0.078 A 
ATOM      5  C3  OXE d   1      -5.189  -3.218  -3.278  0.00  0.00     0.003 A 
ATOM      6  C4  OXE d   1      -4.743  -4.038  -2.234  0.00  0.00    -0.002 A 
ATOM      7  C5  OXE d   1      -4.740  -5.430  -2.375  0.00  0.00    -0.002 A 
ATOM      8  C6  OXE d   1      -5.189  -5.995  -3.564  0.00  0.00     0.003 A 
ENDROOT
TORSDOF 0
ENDMDL
