MODEL 1
REMARK minimizedAffinity 0.714976072
REMARK minimizedRMSD -1
REMARK  0 active torsions:
REMARK  status: ('A' for Active; 'I' for Inactive)
ROOT
ATOM      1  C2' OXE d   1      -2.279  -5.958  -2.243  0.00  0.00     0.078 C 
ATOM      2  C1' OXE d   1      -2.224  -3.562  -3.705  0.00  0.00     0.078 C 
ATOM      3  C1  OXE d   1      -3.567  -4.199  -3.448  0.00  0.00    -0.078 A 
ATOM      4  C2  OXE d   1      -3.580  -5.395  -2.772  0.00  0.00    -0.078 A 
ATOM      5  C3  OXE d   1      -4.796  -5.997  -2.461  0.00  0.00     0.003 A 
ATOM      6  C4  OXE d   1      -5.995  -5.475  -2.962  0.00  0.00    -0.002 A 
ATOM      7  C5  OXE d   1      -6.000  -4.279  -3.687  0.00  0.00    -0.002 A 
ATOM      8  C6  OXE d   1      -4.801  -3.607  -3.902  0.00  0.00     0.003 A 
ENDROOT
TORSDOF 0
ENDMDL
