MODEL 1
REMARK minimizedAffinity 1.69647813
REMARK minimizedRMSD -1
REMARK  0 active torsions:
REMARK  status: ('A' for Active; 'I' for Inactive)
ROOT
ATOM      1  C2' OXE d   1      -5.487  -3.153  -2.273  0.00  0.00     0.078 C 
ATOM      2  C1' OXE d   1      -4.599  -5.816  -2.261  0.00  0.00     0.078 C 
ATOM      3  C1  OXE d   1      -5.067  -5.236  -3.573  0.00  0.00    -0.078 A 
ATOM      4  C2  OXE d   1      -5.543  -3.947  -3.560  0.00  0.00    -0.078 A 
ATOM      5  C3  OXE d   1      -5.936  -3.346  -4.752  0.00  0.00     0.003 A 
ATOM      6  C4  OXE d   1      -5.995  -4.091  -5.936  0.00  0.00    -0.002 A 
ATOM      7  C5  OXE d   1      -5.551  -5.417  -5.963  0.00  0.00    -0.002 A 
ATOM      8  C6  OXE d   1      -5.045  -5.990  -4.802  0.00  0.00     0.003 A 
ENDROOT
TORSDOF 0
ENDMDL
