MODEL 1
REMARK minimizedAffinity 2.65939689
REMARK minimizedRMSD -1
REMARK  0 active torsions:
REMARK  status: ('A' for Active; 'I' for Inactive)
ROOT
ATOM      1  C2' OXE d   1      -3.441  -2.472  -3.725  0.00  0.00     0.078 C 
ATOM      2  C1' OXE d   1      -5.204  -2.530  -5.909  0.00  0.00     0.078 C 
ATOM      3  C1  OXE d   1      -5.158  -3.740  -5.009  0.00  0.00    -0.078 A 
ATOM      4  C2  OXE d   1      -4.259  -3.721  -3.970  0.00  0.00    -0.078 A 
ATOM      5  C3  OXE d   1      -4.214  -4.789  -3.078  0.00  0.00     0.003 A 
ATOM      6  C4  OXE d   1      -4.967  -5.945  -3.318  0.00  0.00    -0.002 A 
ATOM      7  C5  OXE d   1      -5.860  -6.000  -4.393  0.00  0.00    -0.002 A 
ATOM      8  C6  OXE d   1      -5.999  -4.892  -5.221  0.00  0.00     0.003 A 
ENDROOT
TORSDOF 0
ENDMDL
