MODEL 1
REMARK minimizedAffinity 2.32344723
REMARK minimizedRMSD -1
REMARK  0 active torsions:
REMARK  status: ('A' for Active; 'I' for Inactive)
ROOT
ATOM      1  C2' OXE d   1      -6.000  -6.000  -3.756  0.00  0.00     0.078 C 
ATOM      2  C1' OXE d   1      -3.740  -5.006  -2.419  0.00  0.00     0.078 C 
ATOM      3  C1  OXE d   1      -4.195  -4.286  -3.664  0.00  0.00    -0.078 A 
ATOM      4  C2  OXE d   1      -5.273  -4.807  -4.338  0.00  0.00    -0.078 A 
ATOM      5  C3  OXE d   1      -5.767  -4.150  -5.461  0.00  0.00     0.003 A 
ATOM      6  C4  OXE d   1      -5.083  -3.053  -5.999  0.00  0.00    -0.002 A 
ATOM      7  C5  OXE d   1      -3.959  -2.530  -5.351  0.00  0.00    -0.002 A 
ATOM      8  C6  OXE d   1      -3.528  -3.108  -4.162  0.00  0.00     0.003 A 
ENDROOT
TORSDOF 0
ENDMDL
