MODEL 1
REMARK minimizedAffinity 4.81335449
REMARK minimizedRMSD -1
REMARK  0 active torsions:
REMARK  status: ('A' for Active; 'I' for Inactive)
ROOT
ATOM      1  C2' OXE d   1      -2.999   0.966   2.177  0.00  0.00     0.078 C 
ATOM      2  C1' OXE d   1      -4.885   1.813   4.076  0.00  0.00     0.078 C 
ATOM      3  C1  OXE d   1      -4.962   0.385   3.597  0.00  0.00    -0.078 A 
ATOM      4  C2  OXE d   1      -4.064  -0.008   2.633  0.00  0.00    -0.078 A 
ATOM      5  C3  OXE d   1      -4.056  -1.329   2.196  0.00  0.00     0.003 A 
ATOM      6  C4  OXE d   1      -5.051  -2.221   2.615  0.00  0.00    -0.002 A 
ATOM      7  C5  OXE d   1      -5.999  -1.830   3.567  0.00  0.00    -0.002 A 
ATOM      8  C6  OXE d   1      -5.942  -0.546   4.098  0.00  0.00     0.003 A 
ENDROOT
TORSDOF 0
ENDMDL
