MODEL 1
REMARK minimizedAffinity 11.2268248
REMARK minimizedRMSD -1
REMARK  0 active torsions:
REMARK  status: ('A' for Active; 'I' for Inactive)
ROOT
ATOM      1  C2' OXE d   1      -4.116   1.667   4.405  0.00  0.00     0.078 C 
ATOM      2  C1' OXE d   1      -2.553   0.877   2.212  0.00  0.00     0.078 C 
ATOM      3  C1  OXE d   1      -3.766   0.046   2.547  0.00  0.00    -0.078 A 
ATOM      4  C2  OXE d   1      -4.499   0.413   3.650  0.00  0.00    -0.078 A 
ATOM      5  C3  OXE d   1      -5.659  -0.286   3.971  0.00  0.00     0.003 A 
ATOM      6  C4  OXE d   1      -6.000  -1.451   3.274  0.00  0.00    -0.002 A 
ATOM      7  C5  OXE d   1      -5.245  -1.866   2.171  0.00  0.00    -0.002 A 
ATOM      8  C6  OXE d   1      -4.152  -1.106   1.769  0.00  0.00     0.003 A 
ENDROOT
TORSDOF 0
ENDMDL
