MODEL 1
REMARK minimizedAffinity 8.57228947
REMARK minimizedRMSD -1
REMARK  0 active torsions:
REMARK  status: ('A' for Active; 'I' for Inactive)
ROOT
ATOM      1  C2' OXE d   1      -2.537   0.832   1.927  0.00  0.00     0.078 C 
ATOM      2  C1' OXE d   1      -2.235  -0.869   4.139  0.00  0.00     0.078 C 
ATOM      3  C1  OXE d   1      -3.565  -0.871   3.427  0.00  0.00    -0.078 A 
ATOM      4  C2  OXE d   1      -3.719  -0.001   2.374  0.00  0.00    -0.078 A 
ATOM      5  C3  OXE d   1      -4.907  -0.001   1.649  0.00  0.00     0.003 A 
ATOM      6  C4  OXE d   1      -5.998  -0.767   2.075  0.00  0.00    -0.002 A 
ATOM      7  C5  OXE d   1      -5.875  -1.631   3.169  0.00  0.00    -0.002 A 
ATOM      8  C6  OXE d   1      -4.654  -1.726   3.828  0.00  0.00     0.003 A 
ENDROOT
TORSDOF 0
ENDMDL
