MODEL 1
REMARK minimizedAffinity 8.77480793
REMARK minimizedRMSD -1
REMARK  0 active torsions:
REMARK  status: ('A' for Active; 'I' for Inactive)
ROOT
ATOM      1  C2' OXE d   1      -5.920  -3.149  -5.997  0.00  0.00     0.078 C 
ATOM      2  C1' OXE d   1      -6.000  -5.955  -5.999  0.00  0.00     0.078 C 
ATOM      3  C1  OXE d   1      -5.458  -5.268  -4.771  0.00  0.00    -0.078 A 
ATOM      4  C2  OXE d   1      -5.380  -3.896  -4.797  0.00  0.00    -0.078 A 
ATOM      5  C3  OXE d   1      -4.939  -3.209  -3.669  0.00  0.00     0.003 A 
ATOM      6  C4  OXE d   1      -4.432  -3.908  -2.567  0.00  0.00    -0.002 A 
ATOM      7  C5  OXE d   1      -4.466  -5.306  -2.536  0.00  0.00    -0.002 A 
ATOM      8  C6  OXE d   1      -5.014  -5.999  -3.610  0.00  0.00     0.003 A 
ENDROOT
TORSDOF 0
ENDMDL
