MODEL 1
REMARK minimizedAffinity 6.22798967
REMARK minimizedRMSD -1
REMARK  0 active torsions:
REMARK  status: ('A' for Active; 'I' for Inactive)
ROOT
ATOM      1  C2' OXE d   1       0.774  -5.258  -2.426  0.00  0.00     0.078 C 
ATOM      2  C1' OXE d   1       0.133  -3.282  -4.315  0.00  0.00     0.078 C 
ATOM      3  C1  OXE d   1       1.054  -2.901  -3.183  0.00  0.00    -0.078 A 
ATOM      4  C2  OXE d   1       1.325  -3.861  -2.238  0.00  0.00    -0.078 A 
ATOM      5  C3  OXE d   1       2.211  -3.578  -1.203  0.00  0.00     0.003 A 
ATOM      6  C4  OXE d   1       2.709  -2.281  -1.030  0.00  0.00    -0.002 A 
ATOM      7  C5  OXE d   1       2.414  -1.278  -1.959  0.00  0.00    -0.002 A 
ATOM      8  C6  OXE d   1       1.624  -1.582  -3.062  0.00  0.00     0.003 A 
ENDROOT
TORSDOF 0
ENDMDL
