MODEL 1
REMARK minimizedAffinity 11.5532703
REMARK minimizedRMSD -1
REMARK  0 active torsions:
REMARK  status: ('A' for Active; 'I' for Inactive)
ROOT
ATOM      1  C2' OXE d   1      -5.991  -2.659  -4.108  0.00  0.00     0.078 C 
ATOM      2  C1' OXE d   1      -3.197  -2.577  -3.845  0.00  0.00     0.078 C 
ATOM      3  C1  OXE d   1      -3.916  -3.800  -3.333  0.00  0.00    -0.078 A 
ATOM      4  C2  OXE d   1      -5.287  -3.811  -3.423  0.00  0.00    -0.078 A 
ATOM      5  C3  OXE d   1      -5.996  -4.937  -3.016  0.00  0.00     0.003 A 
ATOM      6  C4  OXE d   1      -5.339  -5.994  -2.375  0.00  0.00    -0.002 A 
ATOM      7  C5  OXE d   1      -3.947  -5.986  -2.236  0.00  0.00    -0.002 A 
ATOM      8  C6  OXE d   1      -3.218  -4.917  -2.747  0.00  0.00     0.003 A 
ENDROOT
TORSDOF 0
ENDMDL
