MODEL 1
REMARK minimizedAffinity -4.29656172
REMARK minimizedRMSD -1
REMARK  3 active torsions:
REMARK  status: ('A' for Active; 'I' for Inactive)
REMARK    1  A    between atoms: C3'_2  and  C2'_3 
REMARK    2  A    between atoms: C2'_3  and  C1'_4 
REMARK    3  A    between atoms: C1'_4  and  C1_5 
ROOT
ATOM      1  C1  N4B d   1      -0.324   0.027  -0.179  0.00  0.00    -0.075 A 
ATOM      2  C2  N4B d   1       0.350  -0.425   0.977  0.00  0.00     0.002 A 
ATOM      3  C3  N4B d   1       0.351   0.344   2.115  0.00  0.00     0.002 A 
ATOM      4  C4  N4B d   1      -0.297   1.570   2.115  0.00  0.00    -0.004 A 
ATOM      5  C5  N4B d   1      -0.967   1.987   1.003  0.00  0.00     0.002 A 
ATOM      6  C6  N4B d   1      -0.979   1.223  -0.147  0.00  0.00     0.002 A 
ENDROOT
BRANCH   1   7
ATOM      7  C1' N4B d   1      -0.279  -0.738  -1.474  0.00  0.00     0.057 C 
BRANCH   7   8
ATOM      8  C2' N4B d   1       0.022  -2.205  -1.179  0.00  0.00     0.009 C 
BRANCH   8   9
ATOM      9  C3' N4B d   1      -1.143  -3.109  -1.542  0.00  0.00     0.004 C 
ATOM     10  C4' N4B d   1      -1.511  -3.028  -2.994  0.00  0.00     0.003 C 
ENDBRANCH   8   9
ENDBRANCH   7   8
ENDBRANCH   1   7
TORSDOF 3
ENDMDL
