MODEL 1
REMARK minimizedAffinity -5.32215595
REMARK minimizedRMSD -1
REMARK  3 active torsions:
REMARK  status: ('A' for Active; 'I' for Inactive)
REMARK    1  A    between atoms: C3'_2  and  C2'_3 
REMARK    2  A    between atoms: C2'_3  and  C1'_4 
REMARK    3  A    between atoms: C1'_4  and  C1_5 
ROOT
ATOM      1  C1  N4B d   1      -0.020   0.166   0.233  0.00  0.00    -0.075 A 
ATOM      2  C2  N4B d   1      -0.846   1.086  -0.449  0.00  0.00     0.002 A 
ATOM      3  C3  N4B d   1      -1.530   2.046   0.255  0.00  0.00     0.002 A 
ATOM      4  C4  N4B d   1      -1.419   2.094   1.637  0.00  0.00    -0.004 A 
ATOM      5  C5  N4B d   1      -0.599   1.217   2.285  0.00  0.00     0.002 A 
ATOM      6  C6  N4B d   1       0.098   0.249   1.590  0.00  0.00     0.002 A 
ENDROOT
BRANCH   1   7
ATOM      7  C1' N4B d   1       0.681  -0.956  -0.485  0.00  0.00     0.057 C 
BRANCH   7   8
ATOM      8  C2' N4B d   1      -0.361  -1.898  -1.079  0.00  0.00     0.009 C 
BRANCH   8   9
ATOM      9  C3' N4B d   1      -0.047  -3.354  -0.780  0.00  0.00     0.004 C 
ATOM     10  C4' N4B d   1      -1.227  -4.256  -0.986  0.00  0.00     0.003 C 
ENDBRANCH   8   9
ENDBRANCH   7   8
ENDBRANCH   1   7
TORSDOF 3
ENDMDL
