MODEL 1
REMARK minimizedAffinity -3.44814229
REMARK minimizedRMSD -1
REMARK  3 active torsions:
REMARK  status: ('A' for Active; 'I' for Inactive)
REMARK    1  A    between atoms: C3'_2  and  C2'_3 
REMARK    2  A    between atoms: C2'_3  and  C1'_4 
REMARK    3  A    between atoms: C1'_4  and  C1_5 
ROOT
ATOM      1  C1  N4B d   1      -0.063  -0.267   0.073  0.00  0.00    -0.075 A 
ATOM      2  C2  N4B d   1      -0.899   0.738  -0.461  0.00  0.00     0.002 A 
ATOM      3  C3  N4B d   1      -1.355   1.752   0.345  0.00  0.00     0.002 A 
ATOM      4  C4  N4B d   1      -1.006   1.771   1.687  0.00  0.00    -0.004 A 
ATOM      5  C5  N4B d   1      -0.178   0.810   2.190  0.00  0.00     0.002 A 
ATOM      6  C6  N4B d   1       0.291  -0.213   1.390  0.00  0.00     0.002 A 
ENDROOT
BRANCH   1   7
ATOM      7  C1' N4B d   1       0.390  -1.443  -0.749  0.00  0.00     0.057 C 
BRANCH   7   8
ATOM      8  C2' N4B d   1      -0.801  -2.006  -1.517  0.00  0.00     0.009 C 
BRANCH   8   9
ATOM      9  C3' N4B d   1      -0.706  -3.512  -1.689  0.00  0.00     0.004 C 
ATOM     10  C4' N4B d   1      -0.734  -4.249  -0.383  0.00  0.00     0.003 C 
ENDBRANCH   8   9
ENDBRANCH   7   8
ENDBRANCH   1   7
TORSDOF 3
ENDMDL
