MODEL 1
REMARK minimizedAffinity -5.60646248
REMARK minimizedRMSD -1
REMARK  3 active torsions:
REMARK  status: ('A' for Active; 'I' for Inactive)
REMARK    1  A    between atoms: C3'_2  and  C2'_3 
REMARK    2  A    between atoms: C2'_3  and  C1'_4 
REMARK    3  A    between atoms: C1'_4  and  C1_5 
ROOT
ATOM      1  C1  N4B d   1       0.288  -0.156  -0.334  0.00  0.00    -0.075 A 
ATOM      2  C2  N4B d   1       0.989  -0.244   0.889  0.00  0.00     0.002 A 
ATOM      3  C3  N4B d   1       0.561   0.475   1.978  0.00  0.00     0.002 A 
ATOM      4  C4  N4B d   1      -0.547   1.300   1.863  0.00  0.00    -0.004 A 
ATOM      5  C5  N4B d   1      -1.233   1.360   0.685  0.00  0.00     0.002 A 
ATOM      6  C6  N4B d   1      -0.818   0.640  -0.417  0.00  0.00     0.002 A 
ENDROOT
BRANCH   1   7
ATOM      7  C1' N4B d   1       0.768  -0.856  -1.576  0.00  0.00     0.057 C 
BRANCH   7   8
ATOM      8  C2' N4B d   1       0.633  -2.364  -1.384  0.00  0.00     0.009 C 
BRANCH   8   9
ATOM      9  C3' N4B d   1      -0.341  -2.978  -2.375  0.00  0.00     0.004 C 
ATOM     10  C4' N4B d   1      -1.614  -3.438  -1.729  0.00  0.00     0.003 C 
ENDBRANCH   8   9
ENDBRANCH   7   8
ENDBRANCH   1   7
TORSDOF 3
ENDMDL
