MODEL 1
REMARK minimizedAffinity -4.10105991
REMARK minimizedRMSD -1
REMARK  3 active torsions:
REMARK  status: ('A' for Active; 'I' for Inactive)
REMARK    1  A    between atoms: C3'_2  and  C2'_3 
REMARK    2  A    between atoms: C2'_3  and  C1'_4 
REMARK    3  A    between atoms: C1'_4  and  C1_5 
ROOT
ATOM      1  C1  N4B d   1      -0.024   0.493   0.473  0.00  0.00    -0.075 A 
ATOM      2  C2  N4B d   1      -0.157   1.224  -0.728  0.00  0.00     0.002 A 
ATOM      3  C3  N4B d   1      -0.297   2.590  -0.688  0.00  0.00     0.002 A 
ATOM      4  C4  N4B d   1      -0.326   3.241   0.536  0.00  0.00    -0.004 A 
ATOM      5  C5  N4B d   1      -0.170   2.530   1.690  0.00  0.00     0.002 A 
ATOM      6  C6  N4B d   1      -0.025   1.157   1.665  0.00  0.00     0.002 A 
ENDROOT
BRANCH   1   7
ATOM      7  C1' N4B d   1       0.046  -1.010   0.484  0.00  0.00     0.057 C 
BRANCH   7   8
ATOM      8  C2' N4B d   1       0.459  -1.502  -0.900  0.00  0.00     0.009 C 
BRANCH   8   9
ATOM      9  C3' N4B d   1       0.562  -3.017  -0.957  0.00  0.00     0.004 C 
ATOM     10  C4' N4B d   1      -0.742  -3.699  -0.667  0.00  0.00     0.003 C 
ENDBRANCH   8   9
ENDBRANCH   7   8
ENDBRANCH   1   7
TORSDOF 3
ENDMDL
