MODEL 1
REMARK minimizedAffinity -4.51248789
REMARK minimizedRMSD -1
REMARK  3 active torsions:
REMARK  status: ('A' for Active; 'I' for Inactive)
REMARK    1  A    between atoms: C3'_2  and  C2'_3 
REMARK    2  A    between atoms: C2'_3  and  C1'_4 
REMARK    3  A    between atoms: C1'_4  and  C1_5 
ROOT
ATOM      1  C1  N4B d   1       0.210  -0.366  -0.630  0.00  0.00    -0.075 A 
ATOM      2  C2  N4B d   1      -0.736   0.574  -1.097  0.00  0.00     0.002 A 
ATOM      3  C3  N4B d   1      -1.314   1.459  -0.221  0.00  0.00     0.002 A 
ATOM      4  C4  N4B d   1      -0.979   1.411   1.124  0.00  0.00    -0.004 A 
ATOM      5  C5  N4B d   1      -0.046   0.517   1.562  0.00  0.00     0.002 A 
ATOM      6  C6  N4B d   1       0.547  -0.375   0.692  0.00  0.00     0.002 A 
ENDROOT
BRANCH   1   7
ATOM      7  C1' N4B d   1       0.805  -1.410  -1.535  0.00  0.00     0.057 C 
BRANCH   7   8
ATOM      8  C2' N4B d   1       0.397  -2.794  -1.039  0.00  0.00     0.009 C 
BRANCH   8   9
ATOM      9  C3' N4B d   1      -0.772  -3.358  -1.828  0.00  0.00     0.004 C 
ATOM     10  C4' N4B d   1      -1.327  -4.614  -1.226  0.00  0.00     0.003 C 
ENDBRANCH   8   9
ENDBRANCH   7   8
ENDBRANCH   1   7
TORSDOF 3
ENDMDL
