MODEL 1
REMARK minimizedAffinity 8.98589802
REMARK minimizedRMSD -1
REMARK  1 active torsions:
REMARK  status: ('A' for Active; 'I' for Inactive)
REMARK    1  A    between atoms: N_2  and  C1_3 
ROOT
ATOM      1  C1  UNL d   1       3.497  -2.106   3.947  0.00  0.00     0.143 A 
ATOM      2  C2  UNL d   1       4.692  -2.153   3.222  0.00  0.00    -0.057 A 
ATOM      3  C3  UNL d   1       5.932  -2.226   3.868  0.00  0.00     0.033 A 
ATOM      4  C4  UNL d   1       6.000  -2.223   5.257  0.00  0.00    -0.042 A 
ATOM      5  C5  UNL d   1       4.826  -2.152   5.999  0.00  0.00     0.033 A 
ATOM      6  C6  UNL d   1       3.591  -2.086   5.348  0.00  0.00    -0.057 A 
ENDROOT
BRANCH   1   7
ATOM      7  N   UNL d   1       2.239  -1.933   3.364  0.00  0.00    -0.732 N 
ATOM      8  C   UNL d   1       1.936  -0.739   2.606  0.00  0.00     0.284 C 
ATOM      9  H3  UNL d   1       1.883  -2.791   2.949  0.00  0.00     0.395 HD
ENDBRANCH   1   7
TORSDOF 1
ENDMDL
