MODEL 1
REMARK minimizedAffinity 1.20361435
REMARK minimizedRMSD -1
REMARK  1 active torsions:
REMARK  status: ('A' for Active; 'I' for Inactive)
REMARK    1  A    between atoms: N_2  and  C1_3 
ROOT
ATOM      1  C1  UNL d   1       3.723   5.632  -2.128  0.00  0.00     0.143 A 
ATOM      2  C2  UNL d   1       5.089   5.804  -1.879  0.00  0.00    -0.057 A 
ATOM      3  C3  UNL d   1       5.999   6.000  -2.924  0.00  0.00     0.033 A 
ATOM      4  C4  UNL d   1       5.562   5.998  -4.245  0.00  0.00    -0.042 A 
ATOM      5  C5  UNL d   1       4.212   5.804  -4.518  0.00  0.00     0.033 A 
ATOM      6  C6  UNL d   1       3.307   5.616  -3.469  0.00  0.00    -0.057 A 
ENDROOT
BRANCH   1   7
ATOM      7  N   UNL d   1       2.783   5.335  -1.138  0.00  0.00    -0.732 N 
ATOM      8  C   UNL d   1       1.498   5.999  -1.120  0.00  0.00     0.284 C 
ATOM      9  H3  UNL d   1       2.740   4.340  -0.929  0.00  0.00     0.395 HD
ENDBRANCH   1   7
TORSDOF 1
ENDMDL
