MODEL 1
REMARK minimizedAffinity 2.01968789
REMARK minimizedRMSD -1
REMARK  1 active torsions:
REMARK  status: ('A' for Active; 'I' for Inactive)
REMARK    1  A    between atoms: N_2  and  C1_3 
ROOT
ATOM      1  C1  UNL d   1       4.387  -1.984   4.129  0.00  0.00     0.143 A 
ATOM      2  C2  UNL d   1       3.278  -2.658   4.651  0.00  0.00    -0.057 A 
ATOM      3  C3  UNL d   1       1.979  -2.354   4.228  0.00  0.00     0.033 A 
ATOM      4  C4  UNL d   1       1.763  -1.348   3.293  0.00  0.00    -0.042 A 
ATOM      5  C5  UNL d   1       2.848  -0.648   2.778  0.00  0.00     0.033 A 
ATOM      6  C6  UNL d   1       4.144  -0.960   3.200  0.00  0.00    -0.057 A 
ENDROOT
BRANCH   1   7
ATOM      7  N   UNL d   1       5.696  -2.172   4.581  0.00  0.00    -0.732 N 
ATOM      8  C   UNL d   1       5.992  -2.181   5.998  0.00  0.00     0.284 C 
ATOM      9  H3  UNL d   1       6.193  -2.881   4.048  0.00  0.00     0.395 HD
ENDBRANCH   1   7
TORSDOF 1
ENDMDL
