MODEL 1
REMARK minimizedAffinity 3.23323345
REMARK minimizedRMSD -1
REMARK  1 active torsions:
REMARK  status: ('A' for Active; 'I' for Inactive)
REMARK    1  A    between atoms: N_2  and  C1_3 
ROOT
ATOM      1  C1  UNL d   1       1.880  -2.488   5.162  0.00  0.00     0.143 A 
ATOM      2  C2  UNL d   1       3.043  -3.266   5.195  0.00  0.00    -0.057 A 
ATOM      3  C3  UNL d   1       3.009  -4.607   5.595  0.00  0.00     0.033 A 
ATOM      4  C4  UNL d   1       1.811  -5.188   5.998  0.00  0.00    -0.042 A 
ATOM      5  C5  UNL d   1       0.647  -4.428   5.996  0.00  0.00     0.033 A 
ATOM      6  C6  UNL d   1       0.687  -3.091   5.590  0.00  0.00    -0.057 A 
ENDROOT
BRANCH   1   7
ATOM      7  N   UNL d   1       1.866  -1.123   4.868  0.00  0.00    -0.732 N 
ATOM      8  C   UNL d   1       2.231  -0.648   3.551  0.00  0.00     0.284 C 
ATOM      9  H3  UNL d   1       1.063  -0.647   5.274  0.00  0.00     0.395 HD
ENDBRANCH   1   7
TORSDOF 1
ENDMDL
