MODEL 1
REMARK minimizedAffinity -1.01917171
REMARK minimizedRMSD -1
REMARK  1 active torsions:
REMARK  status: ('A' for Active; 'I' for Inactive)
REMARK    1  A    between atoms: N_2  and  C1_3 
ROOT
ATOM      1  C1  UNL d   1      -0.546   0.506   1.081  0.00  0.00     0.143 A 
ATOM      2  C2  UNL d   1       0.831   0.273   1.172  0.00  0.00    -0.057 A 
ATOM      3  C3  UNL d   1       1.541  -0.302   0.110  0.00  0.00     0.033 A 
ATOM      4  C4  UNL d   1       0.879  -0.681  -1.053  0.00  0.00    -0.042 A 
ATOM      5  C5  UNL d   1      -0.493  -0.481  -1.155  0.00  0.00     0.033 A 
ATOM      6  C6  UNL d   1      -1.196   0.099  -0.094  0.00  0.00    -0.057 A 
ENDROOT
BRANCH   1   7
ATOM      7  N   UNL d   1      -1.325   0.983   2.138  0.00  0.00    -0.732 N 
ATOM      8  C   UNL d   1      -0.818   2.010   3.023  0.00  0.00     0.284 C 
ATOM      9  H3  UNL d   1      -2.301   1.103   1.878  0.00  0.00     0.395 HD
ENDBRANCH   1   7
TORSDOF 1
ENDMDL
