MODEL 1
REMARK minimizedAffinity -2.36884522
REMARK minimizedRMSD -1
REMARK  1 active torsions:
REMARK  status: ('A' for Active; 'I' for Inactive)
REMARK    1  A    between atoms: N_2  and  C1_3 
ROOT
ATOM      1  C1  UNL d   1       0.483  -0.144  -0.046  0.00  0.00     0.143 A 
ATOM      2  C2  UNL d   1      -0.018  -1.379  -0.469  0.00  0.00    -0.057 A 
ATOM      3  C3  UNL d   1      -1.372  -1.544  -0.786  0.00  0.00     0.033 A 
ATOM      4  C4  UNL d   1      -2.257  -0.478  -0.656  0.00  0.00    -0.042 A 
ATOM      5  C5  UNL d   1      -1.786   0.752  -0.213  0.00  0.00     0.033 A 
ATOM      6  C6  UNL d   1      -0.431   0.912   0.095  0.00  0.00    -0.057 A 
ENDROOT
BRANCH   1   7
ATOM      7  N   UNL d   1       1.799   0.058   0.377  0.00  0.00    -0.732 N 
ATOM      8  C   UNL d   1       2.358   1.391   0.437  0.00  0.00     0.284 C 
ATOM      9  H3  UNL d   1       2.048  -0.533   1.167  0.00  0.00     0.395 HD
ENDBRANCH   1   7
TORSDOF 1
ENDMDL
