MODEL 1
REMARK minimizedAffinity 0.822458148
REMARK minimizedRMSD -1
REMARK  1 active torsions:
REMARK  status: ('A' for Active; 'I' for Inactive)
REMARK    1  A    between atoms: N_2  and  C1_3 
ROOT
ATOM      1  C1  UNL d   1       2.503  -0.997   3.585  0.00  0.00     0.143 A 
ATOM      2  C2  UNL d   1       3.241   0.191   3.623  0.00  0.00    -0.057 A 
ATOM      3  C3  UNL d   1       3.091   1.171   2.635  0.00  0.00     0.033 A 
ATOM      4  C4  UNL d   1       2.217   0.968   1.572  0.00  0.00    -0.042 A 
ATOM      5  C5  UNL d   1       1.491  -0.216   1.501  0.00  0.00     0.033 A 
ATOM      6  C6  UNL d   1       1.641  -1.189   2.494  0.00  0.00    -0.057 A 
ENDROOT
BRANCH   1   7
ATOM      7  N   UNL d   1       2.680  -2.052   4.484  0.00  0.00    -0.732 N 
ATOM      8  C   UNL d   1       3.404  -1.853   5.721  0.00  0.00     0.284 C 
ATOM      9  H3  UNL d   1       1.845  -2.626   4.579  0.00  0.00     0.395 HD
ENDBRANCH   1   7
TORSDOF 1
ENDMDL
