MODEL 1
REMARK minimizedAffinity -1.61357033
REMARK minimizedRMSD -1
REMARK  1 active torsions:
REMARK  status: ('A' for Active; 'I' for Inactive)
REMARK    1  A    between atoms: N_2  and  C1_3 
ROOT
ATOM      1  C1  UNL d   1      -0.557  -1.333   3.896  0.00  0.00     0.143 A 
ATOM      2  C2  UNL d   1      -1.027  -0.317   3.058  0.00  0.00    -0.057 A 
ATOM      3  C3  UNL d   1      -2.381  -0.231   2.710  0.00  0.00     0.033 A 
ATOM      4  C4  UNL d   1      -3.286  -1.180   3.173  0.00  0.00    -0.042 A 
ATOM      5  C5  UNL d   1      -2.836  -2.213   3.988  0.00  0.00     0.033 A 
ATOM      6  C6  UNL d   1      -1.484  -2.290   4.337  0.00  0.00    -0.057 A 
ENDROOT
BRANCH   1   7
ATOM      7  N   UNL d   1       0.793  -1.530   4.198  0.00  0.00    -0.732 N 
ATOM      8  C   UNL d   1       1.818  -1.231   3.221  0.00  0.00     0.284 C 
ATOM      9  H3  UNL d   1       1.025  -1.241   5.146  0.00  0.00     0.395 HD
ENDBRANCH   1   7
TORSDOF 1
ENDMDL
