MODEL 1
REMARK minimizedAffinity -3.49069619
REMARK minimizedRMSD -1
REMARK  1 active torsions:
REMARK  status: ('A' for Active; 'I' for Inactive)
REMARK    1  A    between atoms: N_2  and  C1_3 
ROOT
ATOM      1  C1  UNL d   1       0.610  -1.085   0.102  0.00  0.00     0.143 A 
ATOM      2  C2  UNL d   1      -0.217  -0.106   0.663  0.00  0.00    -0.057 A 
ATOM      3  C3  UNL d   1      -1.512   0.116   0.178  0.00  0.00     0.033 A 
ATOM      4  C4  UNL d   1      -1.993  -0.621  -0.899  0.00  0.00    -0.042 A 
ATOM      5  C5  UNL d   1      -1.179  -1.582  -1.489  0.00  0.00     0.033 A 
ATOM      6  C6  UNL d   1       0.110  -1.804  -0.996  0.00  0.00    -0.057 A 
ENDROOT
BRANCH   1   7
ATOM      7  N   UNL d   1       1.942  -1.286   0.474  0.00  0.00    -0.732 N 
ATOM      8  C   UNL d   1       2.968  -1.474  -0.529  0.00  0.00     0.284 C 
ATOM      9  H3  UNL d   1       2.222  -0.689   1.249  0.00  0.00     0.395 HD
ENDBRANCH   1   7
TORSDOF 1
ENDMDL
