MODEL 1
REMARK minimizedAffinity -2.62090564
REMARK minimizedRMSD -1
REMARK  1 active torsions:
REMARK  status: ('A' for Active; 'I' for Inactive)
REMARK    1  A    between atoms: C1_2  and  C2_3 
ROOT
ATOM      1  C2  UNL d   1       3.447   0.441  -1.332  0.00  0.00    -0.077 A 
ATOM      2  C3  UNL d   1       4.680   1.038  -1.034  0.00  0.00     0.002 A 
ATOM      3  C4  UNL d   1       5.701   1.062  -1.986  0.00  0.00     0.002 A 
ATOM      4  C5  UNL d   1       5.499   0.494  -3.242  0.00  0.00    -0.004 A 
ATOM      5  C6  UNL d   1       4.277  -0.104  -3.547  0.00  0.00     0.002 A 
ATOM      6  C7  UNL d   1       3.255  -0.130  -2.597  0.00  0.00     0.002 A 
ENDROOT
BRANCH   1   7
ATOM      7  C1  UNL d   1       2.327   0.457  -0.325  0.00  0.00     0.055 C 
ATOM      8  C   UNL d   1       0.971   0.564  -1.006  0.00  0.00     0.019 C 
ENDBRANCH   1   7
TORSDOF 1
ENDMDL
