MODEL 1
REMARK minimizedAffinity 2.22549391
REMARK minimizedRMSD -1
REMARK  1 active torsions:
REMARK  status: ('A' for Active; 'I' for Inactive)
REMARK    1  A    between atoms: C1_2  and  C2_3 
ROOT
ATOM      1  C2  UNL d   1       0.390   1.261  -0.471  0.00  0.00    -0.077 A 
ATOM      2  C3  UNL d   1      -0.937   0.941  -0.789  0.00  0.00     0.002 A 
ATOM      3  C4  UNL d   1      -1.979   1.790  -0.409  0.00  0.00     0.002 A 
ATOM      4  C5  UNL d   1      -1.704   2.965   0.286  0.00  0.00    -0.004 A 
ATOM      5  C6  UNL d   1      -0.387   3.292   0.609  0.00  0.00     0.002 A 
ATOM      6  C7  UNL d   1       0.655   2.444   0.231  0.00  0.00     0.002 A 
ENDROOT
BRANCH   1   7
ATOM      7  C1  UNL d   1       1.519   0.372  -0.923  0.00  0.00     0.055 C 
ATOM      8  C   UNL d   1       2.710   0.468   0.020  0.00  0.00     0.019 C 
ENDBRANCH   1   7
TORSDOF 1
ENDMDL
