MODEL 1
REMARK minimizedAffinity 8.45669651
REMARK minimizedRMSD -1
REMARK  1 active torsions:
REMARK  status: ('A' for Active; 'I' for Inactive)
REMARK    1  A    between atoms: C1_2  and  C2_3 
ROOT
ATOM      1  C2  UNL d   1       3.000   0.514   0.534  0.00  0.00    -0.077 A 
ATOM      2  C3  UNL d   1       3.663   0.535  -0.701  0.00  0.00     0.002 A 
ATOM      3  C4  UNL d   1       2.989   0.178  -1.870  0.00  0.00     0.002 A 
ATOM      4  C5  UNL d   1       1.649  -0.199  -1.816  0.00  0.00    -0.004 A 
ATOM      5  C6  UNL d   1       0.981  -0.225  -0.593  0.00  0.00     0.002 A 
ATOM      6  C7  UNL d   1       1.654   0.131   0.577  0.00  0.00     0.002 A 
ENDROOT
BRANCH   1   7
ATOM      7  C1  UNL d   1       3.711   0.946   1.790  0.00  0.00     0.055 C 
ATOM      8  C   UNL d   1       4.767   2.001   1.493  0.00  0.00     0.019 C 
ENDBRANCH   1   7
TORSDOF 1
ENDMDL
