MODEL 1
REMARK minimizedAffinity 2.7982235
REMARK minimizedRMSD -1
REMARK  1 active torsions:
REMARK  status: ('A' for Active; 'I' for Inactive)
REMARK    1  A    between atoms: C1_2  and  C2_3 
ROOT
ATOM      1  C2  UNL d   1       1.384   0.042  -0.513  0.00  0.00    -0.077 A 
ATOM      2  C3  UNL d   1       1.662   0.120   0.859  0.00  0.00     0.002 A 
ATOM      3  C4  UNL d   1       2.936   0.484   1.302  0.00  0.00     0.002 A 
ATOM      4  C5  UNL d   1       3.939   0.775   0.380  0.00  0.00    -0.004 A 
ATOM      5  C6  UNL d   1       3.673   0.698  -0.987  0.00  0.00     0.002 A 
ATOM      6  C7  UNL d   1       2.401   0.334  -1.431  0.00  0.00     0.002 A 
ENDROOT
BRANCH   1   7
ATOM      7  C1  UNL d   1      -0.002  -0.302  -0.993  0.00  0.00     0.055 C 
ATOM      8  C   UNL d   1      -0.755   0.940  -1.444  0.00  0.00     0.019 C 
ENDBRANCH   1   7
TORSDOF 1
ENDMDL
