MODEL 1
REMARK minimizedAffinity 5.72902107
REMARK minimizedRMSD -1
REMARK  1 active torsions:
REMARK  status: ('A' for Active; 'I' for Inactive)
REMARK    1  A    between atoms: C1_2  and  C2_3 
ROOT
ATOM      1  C2  UNL d   1       1.510   1.465   0.694  0.00  0.00    -0.077 A 
ATOM      2  C3  UNL d   1       0.642   2.557   0.553  0.00  0.00     0.002 A 
ATOM      3  C4  UNL d   1      -0.352   2.548  -0.427  0.00  0.00     0.002 A 
ATOM      4  C5  UNL d   1      -0.491   1.449  -1.271  0.00  0.00    -0.004 A 
ATOM      5  C6  UNL d   1       0.368   0.358  -1.140  0.00  0.00     0.002 A 
ATOM      6  C7  UNL d   1       1.363   0.365  -0.162  0.00  0.00     0.002 A 
ENDROOT
BRANCH   1   7
ATOM      7  C1  UNL d   1       2.551   1.451   1.783  0.00  0.00     0.055 C 
ATOM      8  C   UNL d   1       2.348   0.276   2.728  0.00  0.00     0.019 C 
ENDBRANCH   1   7
TORSDOF 1
ENDMDL
