MODEL 1
REMARK minimizedAffinity 2.43506002
REMARK minimizedRMSD -1
REMARK  1 active torsions:
REMARK  status: ('A' for Active; 'I' for Inactive)
REMARK    1  A    between atoms: C1_2  and  C2_3 
ROOT
ATOM      1  C2  UNL d   1       2.719   0.143  -2.023  0.00  0.00    -0.077 A 
ATOM      2  C3  UNL d   1       1.421  -0.385  -2.073  0.00  0.00     0.002 A 
ATOM      3  C4  UNL d   1       0.718  -0.644  -0.894  0.00  0.00     0.002 A 
ATOM      4  C5  UNL d   1       1.303  -0.375   0.341  0.00  0.00    -0.004 A 
ATOM      5  C6  UNL d   1       2.594   0.148   0.402  0.00  0.00     0.002 A 
ATOM      6  C7  UNL d   1       3.299   0.406  -0.775  0.00  0.00     0.002 A 
ENDROOT
BRANCH   1   7
ATOM      7  C1  UNL d   1       3.460   0.469  -3.293  0.00  0.00     0.055 C 
ATOM      8  C   UNL d   1       3.462  -0.713  -4.252  0.00  0.00     0.019 C 
ENDBRANCH   1   7
TORSDOF 1
ENDMDL
