MODEL 1
REMARK minimizedAffinity 7.74470615
REMARK minimizedRMSD -1
REMARK  1 active torsions:
REMARK  status: ('A' for Active; 'I' for Inactive)
REMARK    1  A    between atoms: C1_2  and  C2_3 
ROOT
ATOM      1  C2  UNL d   1       4.951   1.877  -1.945  0.00  0.00    -0.077 A 
ATOM      2  C3  UNL d   1       5.136   1.886  -0.556  0.00  0.00     0.002 A 
ATOM      3  C4  UNL d   1       4.265   1.181   0.277  0.00  0.00     0.002 A 
ATOM      4  C5  UNL d   1       3.206   0.459  -0.271  0.00  0.00    -0.004 A 
ATOM      5  C6  UNL d   1       3.013   0.446  -1.651  0.00  0.00     0.002 A 
ATOM      6  C7  UNL d   1       3.881   1.151  -2.485  0.00  0.00     0.002 A 
ENDROOT
BRANCH   1   7
ATOM      7  C1  UNL d   1       5.918   2.597  -2.849  0.00  0.00     0.055 C 
ATOM      8  C   UNL d   1       5.537   4.061  -3.014  0.00  0.00     0.019 C 
ENDBRANCH   1   7
TORSDOF 1
ENDMDL
