MODEL 1
REMARK minimizedAffinity 5.37359762
REMARK minimizedRMSD -1
REMARK  0 active torsions:
REMARK  status: ('A' for Active; 'I' for Inactive)
ROOT
ATOM      1  C1  BNZ d   1      -5.962   5.999   4.589  0.00  0.00     0.000 A 
ATOM      2  C2  BNZ d   1      -5.964   5.985   3.219  0.00  0.00     0.000 A 
ATOM      3  C3  BNZ d   1      -5.987   4.805   2.531  0.00  0.00     0.000 A 
ATOM      4  C4  BNZ d   1      -5.966   3.640   3.211  0.00  0.00     0.000 A 
ATOM      5  C5  BNZ d   1      -5.955   3.637   4.591  0.00  0.00     0.000 A 
ATOM      6  C6  BNZ d   1      -5.972   4.827   5.281  0.00  0.00     0.000 A 
ENDROOT
TORSDOF 0
ENDMDL
