MODEL 1
REMARK minimizedAffinity 4.56303501
REMARK minimizedRMSD -1
REMARK  0 active torsions:
REMARK  status: ('A' for Active; 'I' for Inactive)
ROOT
ATOM      1  C1  BNZ d   1       4.074   2.418  -1.299  0.00  0.00     0.000 A 
ATOM      2  C2  BNZ d   1       3.181   1.422  -1.590  0.00  0.00     0.000 A 
ATOM      3  C3  BNZ d   1       2.605   0.685  -0.593  0.00  0.00     0.000 A 
ATOM      4  C4  BNZ d   1       2.952   0.918   0.689  0.00  0.00     0.000 A 
ATOM      5  C5  BNZ d   1       3.858   1.913   0.998  0.00  0.00     0.000 A 
ATOM      6  C6  BNZ d   1       4.407   2.678  -0.005  0.00  0.00     0.000 A 
ENDROOT
TORSDOF 0
ENDMDL
