MODEL 1
REMARK minimizedAffinity 1.17011321
REMARK minimizedRMSD -1
REMARK  0 active torsions:
REMARK  status: ('A' for Active; 'I' for Inactive)
ROOT
ATOM      1  C1  BNZ d   1       3.638   2.161  -0.238  0.00  0.00     0.000 A 
ATOM      2  C2  BNZ d   1       3.656   1.321   0.843  0.00  0.00     0.000 A 
ATOM      3  C3  BNZ d   1       3.027   0.108   0.797  0.00  0.00     0.000 A 
ATOM      4  C4  BNZ d   1       2.348  -0.245  -0.314  0.00  0.00     0.000 A 
ATOM      5  C5  BNZ d   1       2.313   0.595  -1.408  0.00  0.00     0.000 A 
ATOM      6  C6  BNZ d   1       2.980   1.798  -1.373  0.00  0.00     0.000 A 
ENDROOT
TORSDOF 0
ENDMDL
