MODEL 1
REMARK minimizedAffinity 7.75081539
REMARK minimizedRMSD -1
REMARK  0 active torsions:
REMARK  status: ('A' for Active; 'I' for Inactive)
ROOT
ATOM      1  C1  BNZ d   1      -1.219  -4.365  -1.778  0.00  0.00     0.000 A 
ATOM      2  C2  BNZ d   1      -0.446  -4.373  -0.648  0.00  0.00     0.000 A 
ATOM      3  C3  BNZ d   1      -0.739  -5.206   0.396  0.00  0.00     0.000 A 
ATOM      4  C4  BNZ d   1      -1.827  -5.999   0.325  0.00  0.00     0.000 A 
ATOM      5  C5  BNZ d   1      -2.623  -5.996  -0.803  0.00  0.00     0.000 A 
ATOM      6  C6  BNZ d   1      -2.302  -5.185  -1.868  0.00  0.00     0.000 A 
ENDROOT
TORSDOF 0
ENDMDL
