MODEL 1
REMARK minimizedAffinity -1.69678676
REMARK minimizedRMSD -1
REMARK  0 active torsions:
REMARK  status: ('A' for Active; 'I' for Inactive)
ROOT
ATOM      1  C1  BNZ d   1      -5.032   3.556  -1.226  0.00  0.00     0.000 A 
ATOM      2  C2  BNZ d   1      -4.440   2.800  -0.250  0.00  0.00     0.000 A 
ATOM      3  C3  BNZ d   1      -4.476   1.434  -0.305  0.00  0.00     0.000 A 
ATOM      4  C4  BNZ d   1      -5.136   0.828  -1.313  0.00  0.00     0.000 A 
ATOM      5  C5  BNZ d   1      -5.745   1.577  -2.300  0.00  0.00     0.000 A 
ATOM      6  C6  BNZ d   1      -5.674   2.951  -2.262  0.00  0.00     0.000 A 
ENDROOT
TORSDOF 0
ENDMDL
