MODEL 1
REMARK minimizedAffinity 1.27765071
REMARK minimizedRMSD -1
REMARK  0 active torsions:
REMARK  status: ('A' for Active; 'I' for Inactive)
ROOT
ATOM      1  C1  BNZ d   1       2.037  -0.745   0.915  0.00  0.00     0.000 A 
ATOM      2  C2  BNZ d   1       0.731  -1.103   0.711  0.00  0.00     0.000 A 
ATOM      3  C3  BNZ d   1       0.001  -0.542  -0.300  0.00  0.00     0.000 A 
ATOM      4  C4  BNZ d   1       0.565   0.403  -1.079  0.00  0.00     0.000 A 
ATOM      5  C5  BNZ d   1       1.878   0.781  -0.880  0.00  0.00     0.000 A 
ATOM      6  C6  BNZ d   1       2.621   0.186   0.113  0.00  0.00     0.000 A 
ENDROOT
TORSDOF 0
ENDMDL
