MODEL 1
REMARK minimizedAffinity -3.70136189
REMARK minimizedRMSD -1
REMARK  0 active torsions:
REMARK  status: ('A' for Active; 'I' for Inactive)
ROOT
ATOM      1  C1  BNZ d   1      -4.097   5.036  -0.187  0.00  0.00     0.000 A 
ATOM      2  C2  BNZ d   1      -5.321   4.444  -0.026  0.00  0.00     0.000 A 
ATOM      3  C3  BNZ d   1      -5.597   3.238  -0.606  0.00  0.00     0.000 A 
ATOM      4  C4  BNZ d   1      -4.664   2.645  -1.379  0.00  0.00     0.000 A 
ATOM      5  C5  BNZ d   1      -3.428   3.233  -1.558  0.00  0.00     0.000 A 
ATOM      6  C6  BNZ d   1      -3.140   4.429  -0.941  0.00  0.00     0.000 A 
ENDROOT
TORSDOF 0
ENDMDL
