MODEL 1
REMARK minimizedAffinity -1.52802396
REMARK minimizedRMSD -1
REMARK  0 active torsions:
REMARK  status: ('A' for Active; 'I' for Inactive)
ROOT
ATOM      1  C1  BNZ d   1      -0.899   1.421   3.001  0.00  0.00     0.000 A 
ATOM      2  C2  BNZ d   1      -2.105   1.103   2.437  0.00  0.00     0.000 A 
ATOM      3  C3  BNZ d   1      -2.186   0.187   1.426  0.00  0.00     0.000 A 
ATOM      4  C4  BNZ d   1      -1.057  -0.380   0.954  0.00  0.00     0.000 A 
ATOM      5  C5  BNZ d   1       0.168  -0.064   1.506  0.00  0.00     0.000 A 
ATOM      6  C6  BNZ d   1       0.241   0.830   2.550  0.00  0.00     0.000 A 
ENDROOT
TORSDOF 0
ENDMDL
