MODEL 1
REMARK minimizedAffinity 4.48829699
REMARK minimizedRMSD -1
REMARK  0 active torsions:
REMARK  status: ('A' for Active; 'I' for Inactive)
ROOT
ATOM      1  C1  BNZ d   1      -1.914   1.125   1.900  0.00  0.00     0.000 A 
ATOM      2  C2  BNZ d   1      -2.690   2.077   1.294  0.00  0.00     0.000 A 
ATOM      3  C3  BNZ d   1      -3.583   1.733   0.317  0.00  0.00     0.000 A 
ATOM      4  C4  BNZ d   1      -3.669   0.447  -0.080  0.00  0.00     0.000 A 
ATOM      5  C5  BNZ d   1      -2.886  -0.522   0.515  0.00  0.00     0.000 A 
ATOM      6  C6  BNZ d   1      -2.017  -0.179   1.525  0.00  0.00     0.000 A 
ENDROOT
TORSDOF 0
ENDMDL
