MODEL 1
REMARK minimizedAffinity -0.245745644
REMARK minimizedRMSD -1
REMARK  0 active torsions:
REMARK  status: ('A' for Active; 'I' for Inactive)
ROOT
ATOM      1  C1  BNZ d   1       0.068  -4.503  -5.502  0.00  0.00     0.000 A 
ATOM      2  C2  BNZ d   1       0.654  -3.334  -5.910  0.00  0.00     0.000 A 
ATOM      3  C3  BNZ d   1       0.077  -2.127  -5.629  0.00  0.00     0.000 A 
ATOM      4  C4  BNZ d   1      -1.103  -2.091  -4.978  0.00  0.00     0.000 A 
ATOM      5  C5  BNZ d   1      -1.712  -3.261  -4.569  0.00  0.00     0.000 A 
ATOM      6  C6  BNZ d   1      -1.109  -4.473  -4.819  0.00  0.00     0.000 A 
ENDROOT
TORSDOF 0
ENDMDL
