MODEL 1
REMARK minimizedAffinity 0.129274189
REMARK minimizedRMSD -1
REMARK  0 active torsions:
REMARK  status: ('A' for Active; 'I' for Inactive)
ROOT
ATOM      1  C1  BNZ d   1      -1.064  -3.688  -3.208  0.00  0.00     0.000 A 
ATOM      2  C2  BNZ d   1       0.080  -3.961  -3.909  0.00  0.00     0.000 A 
ATOM      3  C3  BNZ d   1       0.030  -4.638  -5.095  0.00  0.00     0.000 A 
ATOM      4  C4  BNZ d   1      -1.159  -5.075  -5.559  0.00  0.00     0.000 A 
ATOM      5  C5  BNZ d   1      -2.320  -4.816  -4.860  0.00  0.00     0.000 A 
ATOM      6  C6  BNZ d   1      -2.270  -4.101  -3.685  0.00  0.00     0.000 A 
ENDROOT
TORSDOF 0
ENDMDL
