MODEL 1
REMARK minimizedAffinity 5.08519602
REMARK minimizedRMSD -1
REMARK  0 active torsions:
REMARK  status: ('A' for Active; 'I' for Inactive)
ROOT
ATOM      1  C1  DEN d   1       2.643  -2.280  -0.634  0.00  0.00     0.130 A 
ATOM      2  C2  DEN d   1       3.484  -1.447  -1.489  0.00  0.00    -0.031 A 
ATOM      3  C3  DEN d   1       3.103  -0.037  -1.270  0.00  0.00     0.027 A 
ATOM      4  C4  DEN d   1       1.305   0.932   0.305  0.00  0.00     0.027 A 
ATOM      5  C5  DEN d   1       0.327   0.615   1.222  0.00  0.00    -0.003 A 
ATOM      6  C6  DEN d   1       0.032  -0.680   1.557  0.00  0.00     0.001 A 
ATOM      7  C7  DEN d   1       0.753  -1.705   1.003  0.00  0.00     0.017 A 
ATOM      8  C8  DEN d   1       1.735  -1.394   0.072  0.00  0.00    -0.094 A 
ATOM      9  C9  DEN d   1       2.027  -0.078  -0.244  0.00  0.00    -0.072 A 
ENDROOT
TORSDOF 0
ENDMDL
