MODEL 1
REMARK minimizedAffinity -0.76973176
REMARK minimizedRMSD -1
REMARK  0 active torsions:
REMARK  status: ('A' for Active; 'I' for Inactive)
ROOT
ATOM      1  C1  DEN d   1       2.191  -2.045   0.193  0.00  0.00     0.130 A 
ATOM      2  C2  DEN d   1       1.206  -1.385   1.045  0.00  0.00    -0.031 A 
ATOM      3  C3  DEN d   1       1.233   0.060   0.740  0.00  0.00     0.027 A 
ATOM      4  C4  DEN d   1       2.694   1.331  -0.963  0.00  0.00     0.027 A 
ATOM      5  C5  DEN d   1       3.687   1.201  -1.909  0.00  0.00    -0.003 A 
ATOM      6  C6  DEN d   1       4.269  -0.006  -2.194  0.00  0.00     0.001 A 
ATOM      7  C7  DEN d   1       3.832  -1.138  -1.559  0.00  0.00     0.017 A 
ATOM      8  C8  DEN d   1       2.837  -1.013  -0.598  0.00  0.00    -0.094 A 
ATOM      9  C9  DEN d   1       2.252   0.214  -0.333  0.00  0.00    -0.072 A 
ENDROOT
TORSDOF 0
ENDMDL
