MODEL 1
REMARK minimizedAffinity -1.03939009
REMARK minimizedRMSD -1
REMARK  0 active torsions:
REMARK  status: ('A' for Active; 'I' for Inactive)
ROOT
ATOM      1  C1  DEN d   1       1.024  -1.088   0.682  0.00  0.00     0.130 A 
ATOM      2  C2  DEN d   1       0.399   0.195   0.989  0.00  0.00    -0.031 A 
ATOM      3  C3  DEN d   1       1.106   1.242   0.223  0.00  0.00     0.027 A 
ATOM      4  C4  DEN d   1       3.094   1.000  -1.402  0.00  0.00     0.027 A 
ATOM      5  C5  DEN d   1       3.975   0.109  -1.973  0.00  0.00    -0.003 A 
ATOM      6  C6  DEN d   1       3.956  -1.228  -1.676  0.00  0.00     0.001 A 
ATOM      7  C7  DEN d   1       3.008  -1.720  -0.817  0.00  0.00     0.017 A 
ATOM      8  C8  DEN d   1       2.121  -0.826  -0.232  0.00  0.00    -0.094 A 
ATOM      9  C9  DEN d   1       2.149   0.520  -0.554  0.00  0.00    -0.072 A 
ENDROOT
TORSDOF 0
ENDMDL
