MODEL 1
REMARK minimizedAffinity 1.45873165
REMARK minimizedRMSD -1
REMARK  0 active torsions:
REMARK  status: ('A' for Active; 'I' for Inactive)
ROOT
ATOM      1  C1  DEN d   1       3.818  -1.497  -1.388  0.00  0.00     0.130 A 
ATOM      2  C2  DEN d   1       4.671  -0.525  -2.067  0.00  0.00    -0.031 A 
ATOM      3  C3  DEN d   1       4.155   0.826  -1.763  0.00  0.00     0.027 A 
ATOM      4  C4  DEN d   1       2.133   1.502  -0.312  0.00  0.00     0.027 A 
ATOM      5  C5  DEN d   1       1.097   1.026   0.460  0.00  0.00    -0.003 A 
ATOM      6  C6  DEN d   1       0.876  -0.314   0.642  0.00  0.00     0.001 A 
ATOM      7  C7  DEN d   1       1.731  -1.224   0.079  0.00  0.00     0.017 A 
ATOM      8  C8  DEN d   1       2.774  -0.753  -0.707  0.00  0.00    -0.094 A 
ATOM      9  C9  DEN d   1       2.987   0.606  -0.868  0.00  0.00    -0.072 A 
ENDROOT
TORSDOF 0
ENDMDL
