MODEL 1
REMARK minimizedAffinity 5.21464252
REMARK minimizedRMSD -1
REMARK  0 active torsions:
REMARK  status: ('A' for Active; 'I' for Inactive)
ROOT
ATOM      1  C1  DEN d   1       3.020   0.007  -1.627  0.00  0.00     0.130 A 
ATOM      2  C2  DEN d   1       3.111  -1.435  -1.836  0.00  0.00    -0.031 A 
ATOM      3  C3  DEN d   1       2.280  -2.099  -0.812  0.00  0.00     0.027 A 
ATOM      4  C4  DEN d   1       0.865  -1.039   1.066  0.00  0.00     0.027 A 
ATOM      5  C5  DEN d   1       0.483   0.149   1.649  0.00  0.00    -0.003 A 
ATOM      6  C6  DEN d   1       0.943   1.361   1.207  0.00  0.00     0.001 A 
ATOM      7  C7  DEN d   1       1.777   1.415   0.122  0.00  0.00     0.017 A 
ATOM      8  C8  DEN d   1       2.172   0.221  -0.468  0.00  0.00    -0.094 A 
ATOM      9  C9  DEN d   1       1.686  -0.993  -0.013  0.00  0.00    -0.072 A 
ENDROOT
TORSDOF 0
ENDMDL
