MODEL 1
REMARK minimizedAffinity -3.19053698
REMARK minimizedRMSD -1
REMARK  0 active torsions:
REMARK  status: ('A' for Active; 'I' for Inactive)
ROOT
ATOM      1  C1  DEN d   1       1.157   1.103   0.155  0.00  0.00     0.130 A 
ATOM      2  C2  DEN d   1       0.476   0.167   1.046  0.00  0.00    -0.031 A 
ATOM      3  C3  DEN d   1       1.134  -1.148   0.916  0.00  0.00     0.027 A 
ATOM      4  C4  DEN d   1       3.134  -1.822  -0.567  0.00  0.00     0.027 A 
ATOM      5  C5  DEN d   1       4.039  -1.374  -1.504  0.00  0.00    -0.003 A 
ATOM      6  C6  DEN d   1       4.025  -0.087  -1.975  0.00  0.00     0.001 A 
ATOM      7  C7  DEN d   1       3.116   0.808  -1.476  0.00  0.00     0.017 A 
ATOM      8  C8  DEN d   1       2.196   0.361  -0.537  0.00  0.00    -0.094 A 
ATOM      9  C9  DEN d   1       2.234  -0.940  -0.065  0.00  0.00    -0.072 A 
ENDROOT
TORSDOF 0
ENDMDL
