MODEL 1
REMARK minimizedAffinity -7.12456751
REMARK minimizedRMSD -1
REMARK  0 active torsions:
REMARK  status: ('A' for Active; 'I' for Inactive)
ROOT
ATOM      1  C1  DEN d   1       3.834  -1.247  -1.717  0.00  0.00     0.130 A 
ATOM      2  C2  DEN d   1       4.426   0.020  -2.140  0.00  0.00    -0.031 A 
ATOM      3  C3  DEN d   1       3.609   1.115  -1.580  0.00  0.00     0.027 A 
ATOM      4  C4  DEN d   1       1.500   0.974  -0.102  0.00  0.00     0.027 A 
ATOM      5  C5  DEN d   1       0.614   0.116   0.510  0.00  0.00    -0.003 A 
ATOM      6  C6  DEN d   1       0.718  -1.245   0.396  0.00  0.00     0.001 A 
ATOM      7  C7  DEN d   1       1.758  -1.789  -0.311  0.00  0.00     0.017 A 
ATOM      8  C8  DEN d   1       2.651  -0.930  -0.937  0.00  0.00    -0.094 A 
ATOM      9  C9  DEN d   1       2.536   0.443  -0.800  0.00  0.00    -0.072 A 
ENDROOT
TORSDOF 0
ENDMDL
