MODEL 1
REMARK minimizedAffinity -5.2749114
REMARK minimizedRMSD -1
REMARK  0 active torsions:
REMARK  status: ('A' for Active; 'I' for Inactive)
ROOT
ATOM      1  C1  DEN d   1       3.923  -1.260  -1.741  0.00  0.00     0.130 A 
ATOM      2  C2  DEN d   1       4.320  -0.004  -2.372  0.00  0.00    -0.031 A 
ATOM      3  C3  DEN d   1       3.402   1.053  -1.902  0.00  0.00     0.027 A 
ATOM      4  C4  DEN d   1       1.420   0.870  -0.262  0.00  0.00     0.027 A 
ATOM      5  C5  DEN d   1       0.689   0.006   0.524  0.00  0.00    -0.003 A 
ATOM      6  C6  DEN d   1       0.962  -1.334   0.584  0.00  0.00     0.001 A 
ATOM      7  C7  DEN d   1       2.020  -1.844  -0.121  0.00  0.00     0.017 A 
ATOM      8  C8  DEN d   1       2.757  -0.981  -0.922  0.00  0.00    -0.094 A 
ATOM      9  C9  DEN d   1       2.473   0.374  -0.960  0.00  0.00    -0.072 A 
ENDROOT
TORSDOF 0
ENDMDL
