MODEL 1
REMARK minimizedAffinity 8.1790905
REMARK minimizedRMSD -1
REMARK  0 active torsions:
REMARK  status: ('A' for Active; 'I' for Inactive)
ROOT
ATOM      1  C1  DEN d   1       2.777   1.713  -0.248  0.00  0.00     0.130 A 
ATOM      2  C2  DEN d   1       1.877   2.495   0.595  0.00  0.00    -0.031 A 
ATOM      3  C3  DEN d   1       1.025   1.555   1.349  0.00  0.00     0.027 A 
ATOM      4  C4  DEN d   1       1.013  -1.024   1.297  0.00  0.00     0.027 A 
ATOM      5  C5  DEN d   1       1.589  -2.138   0.727  0.00  0.00    -0.003 A 
ATOM      6  C6  DEN d   1       2.569  -2.047  -0.225  0.00  0.00     0.001 A 
ATOM      7  C7  DEN d   1       3.036  -0.815  -0.603  0.00  0.00     0.017 A 
ATOM      8  C8  DEN d   1       2.455   0.312  -0.038  0.00  0.00    -0.094 A 
ATOM      9  C9  DEN d   1       1.474   0.199   0.932  0.00  0.00    -0.072 A 
ENDROOT
TORSDOF 0
ENDMDL
