MODEL 1
REMARK minimizedAffinity 9.59734821
REMARK minimizedRMSD -1
REMARK  0 active torsions:
REMARK  status: ('A' for Active; 'I' for Inactive)
ROOT
ATOM      1  C1  DEN d   1       0.069   5.215  -1.914  0.00  0.00     0.130 A 
ATOM      2  C2  DEN d   1      -1.115   6.000  -1.576  0.00  0.00    -0.031 A 
ATOM      3  C3  DEN d   1      -2.286   5.352  -2.200  0.00  0.00     0.027 A 
ATOM      4  C4  DEN d   1      -2.382   3.217  -3.644  0.00  0.00     0.027 A 
ATOM      5  C5  DEN d   1      -1.631   2.211  -4.212  0.00  0.00    -0.003 A 
ATOM      6  C6  DEN d   1      -0.268   2.156  -4.084  0.00  0.00     0.001 A 
ATOM      7  C7  DEN d   1       0.382   3.099  -3.332  0.00  0.00     0.017 A 
ATOM      8  C8  DEN d   1      -0.368   4.120  -2.762  0.00  0.00    -0.094 A 
ATOM      9  C9  DEN d   1      -1.746   4.152  -2.893  0.00  0.00    -0.072 A 
ENDROOT
TORSDOF 0
ENDMDL
