MODEL 1
REMARK minimizedAffinity 6.62803698
REMARK minimizedRMSD -1
REMARK  0 active torsions:
REMARK  status: ('A' for Active; 'I' for Inactive)
ROOT
ATOM      1  C1  DEN d   1       0.013  -1.575   0.901  0.00  0.00     0.130 A 
ATOM      2  C2  DEN d   1      -0.850  -0.947   1.898  0.00  0.00    -0.031 A 
ATOM      3  C3  DEN d   1      -0.385   0.440   2.095  0.00  0.00     0.027 A 
ATOM      4  C4  DEN d   1       1.573   1.673   0.956  0.00  0.00     0.027 A 
ATOM      5  C5  DEN d   1       2.601   1.549   0.048  0.00  0.00    -0.003 A 
ATOM      6  C6  DEN d   1       2.858   0.375  -0.609  0.00  0.00     0.001 A 
ATOM      7  C7  DEN d   1       2.048  -0.710  -0.400  0.00  0.00     0.017 A 
ATOM      8  C8  DEN d   1       1.014  -0.595   0.519  0.00  0.00    -0.094 A 
ATOM      9  C9  DEN d   1       0.763   0.604   1.164  0.00  0.00    -0.072 A 
ENDROOT
TORSDOF 0
ENDMDL
