MODEL 1
REMARK minimizedAffinity 1.90106273
REMARK minimizedRMSD -1
REMARK  0 active torsions:
REMARK  status: ('A' for Active; 'I' for Inactive)
ROOT
ATOM      1  C1  DEN d   1       3.718   0.107  -0.799  0.00  0.00     0.130 A 
ATOM      2  C2  DEN d   1       3.829  -1.186  -1.468  0.00  0.00    -0.031 A 
ATOM      3  C3  DEN d   1       2.635  -1.983  -1.121  0.00  0.00     0.027 A 
ATOM      4  C4  DEN d   1       0.633  -1.342   0.373  0.00  0.00     0.027 A 
ATOM      5  C5  DEN d   1       0.098  -0.353   1.169  0.00  0.00    -0.003 A 
ATOM      6  C6  DEN d   1       0.742   0.835   1.390  0.00  0.00     0.001 A 
ATOM      7  C7  DEN d   1       1.939   1.083   0.772  0.00  0.00     0.017 A 
ATOM      8  C8  DEN d   1       2.489   0.088  -0.026  0.00  0.00    -0.094 A 
ATOM      9  C9  DEN d   1       1.817  -1.101  -0.246  0.00  0.00    -0.072 A 
ENDROOT
TORSDOF 0
ENDMDL
