MODEL 1
REMARK minimizedAffinity -6.1380291
REMARK minimizedRMSD -1
REMARK  0 active torsions:
REMARK  status: ('A' for Active; 'I' for Inactive)
ROOT
ATOM      1  C1  DEN d   1       0.895  -2.071   0.685  0.00  0.00     0.130 A 
ATOM      2  C2  DEN d   1      -0.141  -1.294   1.360  0.00  0.00    -0.031 A 
ATOM      3  C3  DEN d   1       0.095   0.134   1.066  0.00  0.00     0.027 A 
ATOM      4  C4  DEN d   1       1.950   1.210  -0.367  0.00  0.00     0.027 A 
ATOM      5  C5  DEN d   1       3.066   0.957  -1.133  0.00  0.00    -0.003 A 
ATOM      6  C6  DEN d   1       3.553  -0.310  -1.317  0.00  0.00     0.001 A 
ATOM      7  C7  DEN d   1       2.895  -1.377  -0.765  0.00  0.00     0.017 A 
ATOM      8  C8  DEN d   1       1.773  -1.129   0.015  0.00  0.00    -0.094 A 
ATOM      9  C9  DEN d   1       1.289   0.158   0.179  0.00  0.00    -0.072 A 
ENDROOT
TORSDOF 0
ENDMDL
