MODEL 1
REMARK minimizedAffinity 1.84921801
REMARK minimizedRMSD -1
REMARK  0 active torsions:
REMARK  status: ('A' for Active; 'I' for Inactive)
ROOT
ATOM      1  C1  DEN d   1       3.492  -1.381  -1.481  0.00  0.00     0.130 A 
ATOM      2  C2  DEN d   1       4.234  -0.224  -1.973  0.00  0.00    -0.031 A 
ATOM      3  C3  DEN d   1       3.599   0.992  -1.425  0.00  0.00     0.027 A 
ATOM      4  C4  DEN d   1       1.553   1.192   0.132  0.00  0.00     0.027 A 
ATOM      5  C5  DEN d   1       0.582   0.485   0.807  0.00  0.00    -0.003 A 
ATOM      6  C6  DEN d   1       0.494  -0.880   0.740  0.00  0.00     0.001 A 
ATOM      7  C7  DEN d   1       1.420  -1.585   0.018  0.00  0.00     0.017 A 
ATOM      8  C8  DEN d   1       2.396  -0.879  -0.672  0.00  0.00    -0.094 A 
ATOM      9  C9  DEN d   1       2.476   0.500  -0.582  0.00  0.00    -0.072 A 
ENDROOT
TORSDOF 0
ENDMDL
