MODEL 1
REMARK minimizedAffinity 3.00896335
REMARK minimizedRMSD -1
REMARK  0 active torsions:
REMARK  status: ('A' for Active; 'I' for Inactive)
ROOT
ATOM      1  C1  BNZ d   1       1.759   1.049  -0.786  0.00  0.00     0.000 A 
ATOM      2  C2  BNZ d   1       2.005   1.954  -1.784  0.00  0.00     0.000 A 
ATOM      3  C3  BNZ d   1       3.116   2.750  -1.748  0.00  0.00     0.000 A 
ATOM      4  C4  BNZ d   1       3.957   2.669  -0.697  0.00  0.00     0.000 A 
ATOM      5  C5  BNZ d   1       3.717   1.769   0.322  0.00  0.00     0.000 A 
ATOM      6  C6  BNZ d   1       2.619   0.942   0.264  0.00  0.00     0.000 A 
ENDROOT
TORSDOF 0
ENDMDL
