MODEL 1
REMARK minimizedAffinity 4.77324581
REMARK minimizedRMSD -1
REMARK  0 active torsions:
REMARK  status: ('A' for Active; 'I' for Inactive)
ROOT
ATOM      1  C1  BNZ d   1      -3.965   4.979   3.981  0.00  0.00     0.000 A 
ATOM      2  C2  BNZ d   1      -3.971   5.903   4.992  0.00  0.00     0.000 A 
ATOM      3  C3  BNZ d   1      -4.972   5.917   5.922  0.00  0.00     0.000 A 
ATOM      4  C4  BNZ d   1      -5.987   5.035   5.817  0.00  0.00     0.000 A 
ATOM      5  C5  BNZ d   1      -6.000   4.103   4.799  0.00  0.00     0.000 A 
ATOM      6  C6  BNZ d   1      -4.970   4.066   3.887  0.00  0.00     0.000 A 
ENDROOT
TORSDOF 0
ENDMDL
