MODEL 1
REMARK minimizedAffinity 2.81593347
REMARK minimizedRMSD -1
REMARK  0 active torsions:
REMARK  status: ('A' for Active; 'I' for Inactive)
ROOT
ATOM      1  C1  BNZ d   1      -4.653  -0.132  -2.586  0.00  0.00     0.000 A 
ATOM      2  C2  BNZ d   1      -3.940  -0.427  -1.454  0.00  0.00     0.000 A 
ATOM      3  C3  BNZ d   1      -4.082   0.326  -0.322  0.00  0.00     0.000 A 
ATOM      4  C4  BNZ d   1      -4.905   1.395  -0.335  0.00  0.00     0.000 A 
ATOM      5  C5  BNZ d   1      -5.623   1.710  -1.472  0.00  0.00     0.000 A 
ATOM      6  C6  BNZ d   1      -5.507   0.927  -2.597  0.00  0.00     0.000 A 
ENDROOT
TORSDOF 0
ENDMDL
