MODEL 1
REMARK minimizedAffinity 5.1508379
REMARK minimizedRMSD -1
REMARK  0 active torsions:
REMARK  status: ('A' for Active; 'I' for Inactive)
ROOT
ATOM      1  C1  BNZ d   1       2.761  -0.225   0.130  0.00  0.00     0.000 A 
ATOM      2  C2  BNZ d   1       3.206   0.859   0.840  0.00  0.00     0.000 A 
ATOM      3  C3  BNZ d   1       3.720   1.951   0.200  0.00  0.00     0.000 A 
ATOM      4  C4  BNZ d   1       3.827   1.943  -1.145  0.00  0.00     0.000 A 
ATOM      5  C5  BNZ d   1       3.392   0.854  -1.874  0.00  0.00     0.000 A 
ATOM      6  C6  BNZ d   1       2.838  -0.228  -1.228  0.00  0.00     0.000 A 
ENDROOT
TORSDOF 0
ENDMDL
