MODEL 1
REMARK minimizedAffinity 6.40113401
REMARK minimizedRMSD -1
REMARK  0 active torsions:
REMARK  status: ('A' for Active; 'I' for Inactive)
ROOT
ATOM      1  C1  BNZ d   1       4.932   2.280   0.204  0.00  0.00     0.000 A 
ATOM      2  C2  BNZ d   1       3.955   1.537   0.811  0.00  0.00     0.000 A 
ATOM      3  C3  BNZ d   1       3.061   0.816   0.069  0.00  0.00     0.000 A 
ATOM      4  C4  BNZ d   1       3.121   0.870  -1.277  0.00  0.00     0.000 A 
ATOM      5  C5  BNZ d   1       4.094   1.622  -1.904  0.00  0.00     0.000 A 
ATOM      6  C6  BNZ d   1       5.016   2.316  -1.154  0.00  0.00     0.000 A 
ENDROOT
TORSDOF 0
ENDMDL
