MODEL 1
REMARK minimizedAffinity -1.03301072
REMARK minimizedRMSD -1
REMARK  0 active torsions:
REMARK  status: ('A' for Active; 'I' for Inactive)
ROOT
ATOM      1  C1  BNZ d   1      -5.919   3.431   4.028  0.00  0.00     0.000 A 
ATOM      2  C2  BNZ d   1      -5.920   3.611   5.385  0.00  0.00     0.000 A 
ATOM      3  C3  BNZ d   1      -5.936   4.867   5.925  0.00  0.00     0.000 A 
ATOM      4  C4  BNZ d   1      -5.910   5.939   5.108  0.00  0.00     0.000 A 
ATOM      5  C5  BNZ d   1      -5.900   5.774   3.737  0.00  0.00     0.000 A 
ATOM      6  C6  BNZ d   1      -5.923   4.509   3.197  0.00  0.00     0.000 A 
ENDROOT
TORSDOF 0
ENDMDL
