MODEL 1
REMARK minimizedAffinity 2.56987071
REMARK minimizedRMSD -1
REMARK  0 active torsions:
REMARK  status: ('A' for Active; 'I' for Inactive)
ROOT
ATOM      1  C1  BNZ d   1      -5.680   0.567  -1.401  0.00  0.00     0.000 A 
ATOM      2  C2  BNZ d   1      -5.933   0.547  -2.747  0.00  0.00     0.000 A 
ATOM      3  C3  BNZ d   1      -4.938   0.267  -3.642  0.00  0.00     0.000 A 
ATOM      4  C4  BNZ d   1      -3.685   0.046  -3.193  0.00  0.00     0.000 A 
ATOM      5  C5  BNZ d   1      -3.413   0.072  -1.839  0.00  0.00     0.000 A 
ATOM      6  C6  BNZ d   1      -4.425   0.316  -0.940  0.00  0.00     0.000 A 
ENDROOT
TORSDOF 0
ENDMDL
