MODEL 1
REMARK minimizedAffinity 1.37158728
REMARK minimizedRMSD -1
REMARK  0 active torsions:
REMARK  status: ('A' for Active; 'I' for Inactive)
ROOT
ATOM      1  C1  BNZ d   1      -5.948   5.345   3.693  0.00  0.00     0.000 A 
ATOM      2  C2  BNZ d   1      -5.376   4.103   3.616  0.00  0.00     0.000 A 
ATOM      3  C3  BNZ d   1      -4.860   3.500   4.728  0.00  0.00     0.000 A 
ATOM      4  C4  BNZ d   1      -4.880   4.155   5.907  0.00  0.00     0.000 A 
ATOM      5  C5  BNZ d   1      -5.445   5.411   5.999  0.00  0.00     0.000 A 
ATOM      6  C6  BNZ d   1      -5.999   5.999   4.885  0.00  0.00     0.000 A 
ENDROOT
TORSDOF 0
ENDMDL
