MODEL 1
REMARK minimizedAffinity 9.76598835
REMARK minimizedRMSD -1
REMARK  0 active torsions:
REMARK  status: ('A' for Active; 'I' for Inactive)
ROOT
ATOM      1  C1  BNZ d   1      -5.151   1.222  -1.570  0.00  0.00     0.000 A 
ATOM      2  C2  BNZ d   1      -5.205   2.590  -1.553  0.00  0.00     0.000 A 
ATOM      3  C3  BNZ d   1      -4.731   3.295  -0.482  0.00  0.00     0.000 A 
ATOM      4  C4  BNZ d   1      -4.241   2.632   0.585  0.00  0.00     0.000 A 
ATOM      5  C5  BNZ d   1      -4.188   1.252   0.586  0.00  0.00     0.000 A 
ATOM      6  C6  BNZ d   1      -4.630   0.547  -0.510  0.00  0.00     0.000 A 
ENDROOT
TORSDOF 0
ENDMDL
