MODEL 1
REMARK minimizedAffinity 0.327438712
REMARK minimizedRMSD -1
REMARK  0 active torsions:
REMARK  status: ('A' for Active; 'I' for Inactive)
ROOT
ATOM      1  C1  BNZ d   1      -5.313   3.750   2.838  0.00  0.00     0.000 A 
ATOM      2  C2  BNZ d   1      -4.965   3.744   4.162  0.00  0.00     0.000 A 
ATOM      3  C3  BNZ d   1      -5.154   4.852   4.940  0.00  0.00     0.000 A 
ATOM      4  C4  BNZ d   1      -5.653   5.975   4.385  0.00  0.00     0.000 A 
ATOM      5  C5  BNZ d   1      -6.000   6.000   3.049  0.00  0.00     0.000 A 
ATOM      6  C6  BNZ d   1      -5.844   4.871   2.278  0.00  0.00     0.000 A 
ENDROOT
TORSDOF 0
ENDMDL
