MODEL 1
REMARK minimizedAffinity 10.3333168
REMARK minimizedRMSD -1
REMARK  0 active torsions:
REMARK  status: ('A' for Active; 'I' for Inactive)
ROOT
ATOM      1  C1  BNZ d   1       4.998   2.544  -1.796  0.00  0.00     0.000 A 
ATOM      2  C2  BNZ d   1       3.697   2.120  -1.743  0.00  0.00     0.000 A 
ATOM      3  C3  BNZ d   1       3.182   1.582  -0.597  0.00  0.00     0.000 A 
ATOM      4  C4  BNZ d   1       3.978   1.432   0.481  0.00  0.00     0.000 A 
ATOM      5  C5  BNZ d   1       5.295   1.846   0.440  0.00  0.00     0.000 A 
ATOM      6  C6  BNZ d   1       5.799   2.422  -0.703  0.00  0.00     0.000 A 
ENDROOT
TORSDOF 0
ENDMDL
