MODEL 1
REMARK minimizedAffinity 0.770603478
REMARK minimizedRMSD -1
REMARK  0 active torsions:
REMARK  status: ('A' for Active; 'I' for Inactive)
ROOT
ATOM      1  C1  BNZ d   1      -0.606  -3.949   4.135  0.00  0.00     0.000 A 
ATOM      2  C2  BNZ d   1      -1.505  -4.979   4.079  0.00  0.00     0.000 A 
ATOM      3  C3  BNZ d   1      -1.464  -5.995   4.993  0.00  0.00     0.000 A 
ATOM      4  C4  BNZ d   1      -0.500  -5.999   5.936  0.00  0.00     0.000 A 
ATOM      5  C5  BNZ d   1       0.420  -4.972   6.000  0.00  0.00     0.000 A 
ATOM      6  C6  BNZ d   1       0.352  -3.931   5.102  0.00  0.00     0.000 A 
ENDROOT
TORSDOF 0
ENDMDL
