MODEL 1
REMARK minimizedAffinity 15.9181194
REMARK minimizedRMSD -1
REMARK  0 active torsions:
REMARK  status: ('A' for Active; 'I' for Inactive)
ROOT
ATOM      1  N1  IND d   1       1.067  -2.395  -0.197  0.00  0.00    -0.196 N 
ATOM      2  C2  IND d   1       2.288  -1.934   0.213  0.00  0.00     0.054 A 
ATOM      3  C3  IND d   1       3.249  -2.847  -0.053  0.00  0.00    -0.031 A 
ATOM      4  C4  IND d   1       3.060  -5.120  -1.247  0.00  0.00     0.051 A 
ATOM      5  C5  IND d   1       2.144  -5.989  -1.771  0.00  0.00    -0.031 A 
ATOM      6  C6  IND d   1       0.796  -5.697  -1.801  0.00  0.00     0.015 A 
ATOM      7  C7  IND d   1       0.312  -4.515  -1.315  0.00  0.00    -0.016 A 
ATOM      8  C8  IND d   1       1.238  -3.634  -0.775  0.00  0.00    -0.047 A 
ATOM      9  C9  IND d   1       2.603  -3.943  -0.704  0.00  0.00    -0.096 A 
ATOM     10  HN1 IND d   1       0.319  -1.981  -0.108  0.00  0.00     0.298 HD
ENDROOT
TORSDOF 0
ENDMDL
