MODEL 1
REMARK minimizedAffinity 7.17403936
REMARK minimizedRMSD -1
REMARK  0 active torsions:
REMARK  status: ('A' for Active; 'I' for Inactive)
ROOT
ATOM      1  N1  IND d   1      -2.336  -5.989  -4.069  0.00  0.00    -0.196 N 
ATOM      2  C2  IND d   1      -3.191  -5.750  -5.109  0.00  0.00     0.054 A 
ATOM      3  C3  IND d   1      -2.630  -4.892  -5.991  0.00  0.00    -0.031 A 
ATOM      4  C4  IND d   1      -0.284  -3.833  -5.977  0.00  0.00     0.051 A 
ATOM      5  C5  IND d   1       0.844  -3.724  -5.213  0.00  0.00    -0.031 A 
ATOM      6  C6  IND d   1       0.973  -4.379  -4.006  0.00  0.00     0.015 A 
ATOM      7  C7  IND d   1      -0.021  -5.181  -3.520  0.00  0.00    -0.016 A 
ATOM      8  C8  IND d   1      -1.170  -5.289  -4.290  0.00  0.00    -0.047 A 
ATOM      9  C9  IND d   1      -1.324  -4.593  -5.496  0.00  0.00    -0.096 A 
ATOM     10  HN1 IND d   1      -2.500  -6.491  -3.391  0.00  0.00     0.298 HD
ENDROOT
TORSDOF 0
ENDMDL
