MODEL 1
REMARK minimizedAffinity 5.19339657
REMARK minimizedRMSD -1
REMARK  0 active torsions:
REMARK  status: ('A' for Active; 'I' for Inactive)
ROOT
ATOM      1  N1  IND d   1      -2.589  -1.641   4.185  0.00  0.00    -0.196 N 
ATOM      2  C2  IND d   1      -1.678  -2.020   5.131  0.00  0.00     0.054 A 
ATOM      3  C3  IND d   1      -2.237  -2.892   6.000  0.00  0.00    -0.031 A 
ATOM      4  C4  IND d   1      -4.600  -3.913   6.000  0.00  0.00     0.051 A 
ATOM      5  C5  IND d   1      -5.803  -3.844   5.355  0.00  0.00    -0.031 A 
ATOM      6  C6  IND d   1      -6.000  -3.023   4.264  0.00  0.00     0.015 A 
ATOM      7  C7  IND d   1      -4.992  -2.244   3.768  0.00  0.00    -0.016 A 
ATOM      8  C8  IND d   1      -3.771  -2.307   4.424  0.00  0.00    -0.047 A 
ATOM      9  C9  IND d   1      -3.578  -3.106   5.558  0.00  0.00    -0.096 A 
ATOM     10  HN1 IND d   1      -2.448  -1.081   3.549  0.00  0.00     0.298 HD
ENDROOT
TORSDOF 0
ENDMDL
