MODEL 1
REMARK minimizedAffinity 22.3299637
REMARK minimizedRMSD -1
REMARK  0 active torsions:
REMARK  status: ('A' for Active; 'I' for Inactive)
ROOT
ATOM      1  N1  IND d   1       2.085  -5.191  -1.131  0.00  0.00    -0.196 N 
ATOM      2  C2  IND d   1       0.749  -5.020  -1.367  0.00  0.00     0.054 A 
ATOM      3  C3  IND d   1       0.386  -3.743  -1.111  0.00  0.00    -0.031 A 
ATOM      4  C4  IND d   1       1.838  -1.742  -0.392  0.00  0.00     0.051 A 
ATOM      5  C5  IND d   1       3.111  -1.415  -0.015  0.00  0.00    -0.031 A 
ATOM      6  C6  IND d   1       4.127  -2.348   0.006  0.00  0.00     0.015 A 
ATOM      7  C7  IND d   1       3.911  -3.646  -0.360  0.00  0.00    -0.016 A 
ATOM      8  C8  IND d   1       2.618  -3.984  -0.736  0.00  0.00    -0.047 A 
ATOM      9  C9  IND d   1       1.573  -3.051  -0.719  0.00  0.00    -0.096 A 
ATOM     10  HN1 IND d   1       2.518  -5.929  -1.214  0.00  0.00     0.298 HD
ENDROOT
TORSDOF 0
ENDMDL
