MODEL 1
REMARK minimizedAffinity 5.60485792
REMARK minimizedRMSD -1
REMARK  0 active torsions:
REMARK  status: ('A' for Active; 'I' for Inactive)
ROOT
ATOM      1  N1  IND d   1      -2.583  -5.969  -5.998  0.00  0.00    -0.196 N 
ATOM      2  C2  IND d   1      -3.854  -5.465  -5.983  0.00  0.00     0.054 A 
ATOM      3  C3  IND d   1      -3.823  -4.114  -5.943  0.00  0.00    -0.031 A 
ATOM      4  C4  IND d   1      -1.801  -2.521  -5.999  0.00  0.00     0.051 A 
ATOM      5  C5  IND d   1      -0.435  -2.514  -5.978  0.00  0.00    -0.031 A 
ATOM      6  C6  IND d   1       0.300  -3.682  -5.964  0.00  0.00     0.015 A 
ATOM      7  C7  IND d   1      -0.306  -4.906  -5.984  0.00  0.00    -0.016 A 
ATOM      8  C8  IND d   1      -1.694  -4.917  -5.999  0.00  0.00    -0.047 A 
ATOM      9  C9  IND d   1      -2.446  -3.735  -5.969  0.00  0.00    -0.096 A 
ATOM     10  HN1 IND d   1      -2.374  -6.803  -6.007  0.00  0.00     0.298 HD
ENDROOT
TORSDOF 0
ENDMDL
