MODEL 1
REMARK minimizedAffinity -2.68909979
REMARK minimizedRMSD -1
REMARK  0 active torsions:
REMARK  status: ('A' for Active; 'I' for Inactive)
ROOT
ATOM      1  N1  IND d   1       0.757  -4.288  -5.611  0.00  0.00    -0.196 N 
ATOM      2  C2  IND d   1      -0.474  -4.098  -5.050  0.00  0.00     0.054 A 
ATOM      3  C3  IND d   1      -0.488  -4.561  -3.779  0.00  0.00    -0.031 A 
ATOM      4  C4  IND d   1       1.425  -5.574  -2.387  0.00  0.00     0.051 A 
ATOM      5  C5  IND d   1       2.726  -5.982  -2.480  0.00  0.00    -0.031 A 
ATOM      6  C6  IND d   1       3.453  -5.841  -3.645  0.00  0.00     0.015 A 
ATOM      7  C7  IND d   1       2.907  -5.274  -4.761  0.00  0.00    -0.016 A 
ATOM      8  C8  IND d   1       1.584  -4.864  -4.672  0.00  0.00    -0.047 A 
ATOM      9  C9  IND d   1       0.828  -5.044  -3.506  0.00  0.00    -0.096 A 
ATOM     10  HN1 IND d   1       0.979  -4.081  -6.416  0.00  0.00     0.298 HD
ENDROOT
TORSDOF 0
ENDMDL
