MODEL 1
REMARK minimizedAffinity 6.45024586
REMARK minimizedRMSD -1
REMARK  0 active torsions:
REMARK  status: ('A' for Active; 'I' for Inactive)
ROOT
ATOM      1  N1  IND d   1      -3.689  -4.155  -5.996  0.00  0.00    -0.196 N 
ATOM      2  C2  IND d   1      -3.696  -5.522  -5.991  0.00  0.00     0.054 A 
ATOM      3  C3  IND d   1      -2.431  -5.999  -6.000  0.00  0.00    -0.031 A 
ATOM      4  C4  IND d   1      -0.199  -4.718  -5.918  0.00  0.00     0.051 A 
ATOM      5  C5  IND d   1       0.318  -3.453  -5.948  0.00  0.00    -0.031 A 
ATOM      6  C6  IND d   1      -0.489  -2.335  -5.994  0.00  0.00     0.015 A 
ATOM      7  C7  IND d   1      -1.852  -2.441  -6.000  0.00  0.00    -0.016 A 
ATOM      8  C8  IND d   1      -2.381  -3.723  -5.976  0.00  0.00    -0.047 A 
ATOM      9  C9  IND d   1      -1.566  -4.863  -5.973  0.00  0.00    -0.096 A 
ATOM     10  HN1 IND d   1      -4.384  -3.650  -6.008  0.00  0.00     0.298 HD
ENDROOT
TORSDOF 0
ENDMDL
