MODEL 1
REMARK minimizedAffinity 3.26651192
REMARK minimizedRMSD -1
REMARK  0 active torsions:
REMARK  status: ('A' for Active; 'I' for Inactive)
ROOT
ATOM      1  N1  IND d   1      -0.767  -2.543  -5.864  0.00  0.00    -0.196 N 
ATOM      2  C2  IND d   1      -1.597  -1.458  -5.908  0.00  0.00     0.054 A 
ATOM      3  C3  IND d   1      -2.886  -1.855  -5.998  0.00  0.00    -0.031 A 
ATOM      4  C4  IND d   1      -3.870  -4.234  -5.988  0.00  0.00     0.051 A 
ATOM      5  C5  IND d   1      -3.504  -5.551  -6.000  0.00  0.00    -0.031 A 
ATOM      6  C6  IND d   1      -2.180  -5.940  -5.964  0.00  0.00     0.015 A 
ATOM      7  C7  IND d   1      -1.169  -5.023  -5.903  0.00  0.00    -0.016 A 
ATOM      8  C8  IND d   1      -1.537  -3.685  -5.897  0.00  0.00    -0.047 A 
ATOM      9  C9  IND d   1      -2.876  -3.283  -5.976  0.00  0.00    -0.096 A 
ATOM     10  HN1 IND d   1       0.091  -2.517  -5.823  0.00  0.00     0.298 HD
ENDROOT
TORSDOF 0
ENDMDL
