MODEL 1
REMARK minimizedAffinity 7.63596344
REMARK minimizedRMSD -1
REMARK  0 active torsions:
REMARK  status: ('A' for Active; 'I' for Inactive)
ROOT
ATOM      1  N1  IND d   1      -4.577  -3.827  -6.000  0.00  0.00    -0.196 N 
ATOM      2  C2  IND d   1      -5.073  -5.101  -5.995  0.00  0.00     0.054 A 
ATOM      3  C3  IND d   1      -4.063  -6.000  -5.999  0.00  0.00    -0.031 A 
ATOM      4  C4  IND d   1      -1.521  -5.603  -5.913  0.00  0.00     0.051 A 
ATOM      5  C5  IND d   1      -0.584  -4.609  -5.942  0.00  0.00    -0.031 A 
ATOM      6  C6  IND d   1      -0.938  -3.276  -5.990  0.00  0.00     0.015 A 
ATOM      7  C7  IND d   1      -2.247  -2.886  -6.000  0.00  0.00    -0.016 A 
ATOM      8  C8  IND d   1      -3.201  -3.893  -5.977  0.00  0.00    -0.047 A 
ATOM      9  C9  IND d   1      -2.848  -5.249  -5.971  0.00  0.00    -0.096 A 
ATOM     10  HN1 IND d   1      -5.045  -3.106  -6.015  0.00  0.00     0.298 HD
ENDROOT
TORSDOF 0
ENDMDL
