MODEL 1
REMARK minimizedAffinity 17.8477764
REMARK minimizedRMSD -1
REMARK  0 active torsions:
REMARK  status: ('A' for Active; 'I' for Inactive)
ROOT
ATOM      1  C   UNL d   1       1.311  -3.015  -0.939  0.00  0.00     0.124 A 
ATOM      2  C1  UNL d   1       2.285  -2.070  -0.648  0.00  0.00     0.062 A 
ATOM      3  C2  UNL d   1       3.623  -2.444  -0.575  0.00  0.00     0.162 A 
ATOM      4  C3  UNL d   1       3.997  -3.770  -0.795  0.00  0.00    -0.034 A 
ATOM      5  C4  UNL d   1       3.011  -4.715  -1.087  0.00  0.00     0.162 A 
ATOM      6  C5  UNL d   1       1.675  -4.336  -1.159  0.00  0.00     0.062 A 
ATOM      7  F   UNL d   1       0.735  -5.250  -1.441  0.00  0.00    -0.097 F 
ATOM      8  F1  UNL d   1       3.335  -5.998  -1.305  0.00  0.00    -0.096 F 
ATOM      9  I   UNL d   1       5.997  -4.334  -0.688  0.00  0.00    -0.060 I 
ATOM     10  F2  UNL d   1       4.543  -1.510  -0.291  0.00  0.00    -0.096 F 
ATOM     11  F3  UNL d   1       1.936  -0.793  -0.434  0.00  0.00    -0.097 F 
ATOM     12  F4  UNL d   1       0.023  -2.653  -1.008  0.00  0.00    -0.092 F 
ENDROOT
TORSDOF 0
ENDMDL
