MODEL 1
REMARK minimizedAffinity 11.9927969
REMARK minimizedRMSD -1
REMARK  0 active torsions:
REMARK  status: ('A' for Active; 'I' for Inactive)
ROOT
ATOM      1  C   UNL d   1       1.364   4.007  -1.130  0.00  0.00     0.124 A 
ATOM      2  C1  UNL d   1       0.137   3.360  -1.097  0.00  0.00     0.062 A 
ATOM      3  C2  UNL d   1      -0.257   2.663   0.042  0.00  0.00     0.162 A 
ATOM      4  C3  UNL d   1       0.578   2.611   1.159  0.00  0.00    -0.034 A 
ATOM      5  C4  UNL d   1       1.811   3.264   1.118  0.00  0.00     0.162 A 
ATOM      6  C5  UNL d   1       2.200   3.959  -0.023  0.00  0.00     0.062 A 
ATOM      7  F   UNL d   1       3.386   4.584  -0.054  0.00  0.00    -0.097 F 
ATOM      8  F1  UNL d   1       2.638   3.235   2.173  0.00  0.00    -0.096 F 
ATOM      9  I   UNL d   1      -0.006   1.570   2.864  0.00  0.00    -0.060 I 
ATOM     10  F2  UNL d   1      -1.448   2.046   0.047  0.00  0.00    -0.096 F 
ATOM     11  F3  UNL d   1      -0.673   3.404  -2.165  0.00  0.00    -0.097 F 
ATOM     12  F4  UNL d   1       1.740   4.676  -2.227  0.00  0.00    -0.092 F 
ENDROOT
TORSDOF 0
ENDMDL
