MODEL 1
REMARK minimizedAffinity 16.2796173
REMARK minimizedRMSD -1
REMARK  0 active torsions:
REMARK  status: ('A' for Active; 'I' for Inactive)
ROOT
ATOM      1  C   UNL d   1       0.896   3.762  -1.005  0.00  0.00     0.124 A 
ATOM      2  C1  UNL d   1       1.867   3.795  -0.014  0.00  0.00     0.062 A 
ATOM      3  C2  UNL d   1       1.684   3.087   1.170  0.00  0.00     0.162 A 
ATOM      4  C3  UNL d   1       0.525   2.336   1.369  0.00  0.00    -0.034 A 
ATOM      5  C4  UNL d   1      -0.448   2.308   0.367  0.00  0.00     0.162 A 
ATOM      6  C5  UNL d   1      -0.260   3.018  -0.814  0.00  0.00     0.062 A 
ATOM      7  F   UNL d   1      -1.199   2.984  -1.770  0.00  0.00    -0.097 F 
ATOM      8  F1  UNL d   1      -1.574   1.597   0.526  0.00  0.00    -0.096 F 
ATOM      9  I   UNL d   1       0.247   1.275   3.137  0.00  0.00    -0.060 I 
ATOM     10  F2  UNL d   1       2.639   3.137   2.110  0.00  0.00    -0.096 F 
ATOM     11  F3  UNL d   1       2.985   4.514  -0.196  0.00  0.00    -0.097 F 
ATOM     12  F4  UNL d   1       1.075   4.445  -2.143  0.00  0.00    -0.092 F 
ENDROOT
TORSDOF 0
ENDMDL
