MODEL 1
REMARK minimizedAffinity 13.9268112
REMARK minimizedRMSD -1
REMARK  0 active torsions:
REMARK  status: ('A' for Active; 'I' for Inactive)
ROOT
ATOM      1  C   UNL d   1      -2.063   3.135  -0.220  0.00  0.00     0.124 A 
ATOM      2  C1  UNL d   1      -0.847   2.498  -0.425  0.00  0.00     0.062 A 
ATOM      3  C2  UNL d   1      -0.081   2.086   0.661  0.00  0.00     0.162 A 
ATOM      4  C3  UNL d   1      -0.529   2.309   1.964  0.00  0.00    -0.034 A 
ATOM      5  C4  UNL d   1      -1.752   2.952   2.162  0.00  0.00     0.162 A 
ATOM      6  C5  UNL d   1      -2.514   3.362   1.073  0.00  0.00     0.062 A 
ATOM      7  F   UNL d   1      -3.689   3.977   1.273  0.00  0.00    -0.097 F 
ATOM      8  F1  UNL d   1      -2.212   3.182   3.401  0.00  0.00    -0.096 F 
ATOM      9  I   UNL d   1       0.614   1.695   3.591  0.00  0.00    -0.060 I 
ATOM     10  F2  UNL d   1       1.090   1.472   0.434  0.00  0.00    -0.096 F 
ATOM     11  F3  UNL d   1      -0.409   2.279  -1.673  0.00  0.00    -0.097 F 
ATOM     12  F4  UNL d   1      -2.798   3.531  -1.267  0.00  0.00    -0.092 F 
ENDROOT
TORSDOF 0
ENDMDL
