MODEL 1
REMARK minimizedAffinity 19.3275528
REMARK minimizedRMSD -1
REMARK  0 active torsions:
REMARK  status: ('A' for Active; 'I' for Inactive)
ROOT
ATOM      1  C   UNL d   1       2.102  -4.035  -1.774  0.00  0.00     0.124 A 
ATOM      2  C1  UNL d   1       2.264  -4.277  -3.131  0.00  0.00     0.062 A 
ATOM      3  C2  UNL d   1       1.151  -4.387  -3.959  0.00  0.00     0.162 A 
ATOM      4  C3  UNL d   1      -0.134  -4.253  -3.434  0.00  0.00    -0.034 A 
ATOM      5  C4  UNL d   1      -0.289  -4.009  -2.068  0.00  0.00     0.162 A 
ATOM      6  C5  UNL d   1       0.827  -3.901  -1.244  0.00  0.00     0.062 A 
ATOM      7  F   UNL d   1       0.668  -3.666   0.067  0.00  0.00    -0.097 F 
ATOM      8  F1  UNL d   1      -1.510  -3.875  -1.529  0.00  0.00    -0.096 F 
ATOM      9  I   UNL d   1      -1.800  -4.415  -4.670  0.00  0.00    -0.060 I 
ATOM     10  F2  UNL d   1       1.337  -4.622  -5.267  0.00  0.00    -0.096 F 
ATOM     11  F3  UNL d   1       3.495  -4.408  -3.645  0.00  0.00    -0.097 F 
ATOM     12  F4  UNL d   1       3.175  -3.931  -0.978  0.00  0.00    -0.092 F 
ENDROOT
TORSDOF 0
ENDMDL
