MODEL 1
REMARK minimizedAffinity 13.4233351
REMARK minimizedRMSD -1
REMARK  0 active torsions:
REMARK  status: ('A' for Active; 'I' for Inactive)
ROOT
ATOM      1  C   UNL d   1       1.893   0.928   1.034  0.00  0.00     0.124 A 
ATOM      2  C1  UNL d   1       1.850   0.778  -0.345  0.00  0.00     0.062 A 
ATOM      3  C2  UNL d   1       0.971   1.545  -1.105  0.00  0.00     0.162 A 
ATOM      4  C3  UNL d   1       0.128   2.469  -0.487  0.00  0.00    -0.034 A 
ATOM      5  C4  UNL d   1       0.177   2.613   0.901  0.00  0.00     0.162 A 
ATOM      6  C5  UNL d   1       1.057   1.845   1.656  0.00  0.00     0.062 A 
ATOM      7  F   UNL d   1       1.098   1.991   2.988  0.00  0.00    -0.097 F 
ATOM      8  F1  UNL d   1      -0.619   3.492   1.527  0.00  0.00    -0.096 F 
ATOM      9  I   UNL d   1      -1.188   3.616  -1.620  0.00  0.00    -0.060 I 
ATOM     10  F2  UNL d   1       0.950   1.379  -2.436  0.00  0.00    -0.096 F 
ATOM     11  F3  UNL d   1       2.656  -0.107  -0.948  0.00  0.00    -0.097 F 
ATOM     12  F4  UNL d   1       2.740   0.189   1.763  0.00  0.00    -0.092 F 
ENDROOT
TORSDOF 0
ENDMDL
