MODEL 1
REMARK minimizedAffinity 1.06678689
REMARK minimizedRMSD -1
REMARK  2 active torsions:
REMARK  status: ('A' for Active; 'I' for Inactive)
REMARK    1  A    between atoms: C1_2  and  C2_3 
REMARK    2  A    between atoms: C2_3  and  C3_4 
ROOT
ATOM      1  C3  UNL d   1       4.815  -3.166   4.879  0.00  0.00    -0.075 A 
ATOM      2  C4  UNL d   1       4.085  -3.036   3.688  0.00  0.00     0.002 A 
ATOM      3  C5  UNL d   1       3.012  -2.149   3.608  0.00  0.00     0.002 A 
ATOM      4  C6  UNL d   1       2.649  -1.388   4.717  0.00  0.00    -0.004 A 
ATOM      5  C7  UNL d   1       3.356  -1.521   5.911  0.00  0.00     0.002 A 
ATOM      6  C8  UNL d   1       4.433  -2.405   5.992  0.00  0.00     0.002 A 
ENDROOT
BRANCH   1   7
ATOM      7  C2  UNL d   1       5.996  -4.103   4.964  0.00  0.00     0.056 C 
BRANCH   7   8
ATOM      8  C1  UNL d   1       5.806  -5.258   5.953  0.00  0.00     0.007 C 
ATOM      9  C   UNL d   1       4.398  -5.837   5.938  0.00  0.00     0.009 C 
ENDBRANCH   7   8
ENDBRANCH   1   7
TORSDOF 2
ENDMDL
