MODEL 1
REMARK minimizedAffinity 0.249889746
REMARK minimizedRMSD -1
REMARK  2 active torsions:
REMARK  status: ('A' for Active; 'I' for Inactive)
REMARK    1  A    between atoms: C1_2  and  C2_3 
REMARK    2  A    between atoms: C2_3  and  C3_4 
ROOT
ATOM      1  C3  UNL d   1       5.370   5.104  -3.906  0.00  0.00    -0.075 A 
ATOM      2  C4  UNL d   1       5.827   3.792  -4.095  0.00  0.00     0.002 A 
ATOM      3  C5  UNL d   1       5.260   2.979  -5.077  0.00  0.00     0.002 A 
ATOM      4  C6  UNL d   1       4.225   3.463  -5.874  0.00  0.00    -0.004 A 
ATOM      5  C7  UNL d   1       3.752   4.759  -5.684  0.00  0.00     0.002 A 
ATOM      6  C8  UNL d   1       4.320   5.576  -4.705  0.00  0.00     0.002 A 
ENDROOT
BRANCH   1   7
ATOM      7  C2  UNL d   1       5.999   5.999  -2.865  0.00  0.00     0.056 C 
BRANCH   7   8
ATOM      8  C1  UNL d   1       5.681   5.594  -1.421  0.00  0.00     0.007 C 
ATOM      9  C   UNL d   1       4.290   4.996  -1.257  0.00  0.00     0.009 C 
ENDBRANCH   7   8
ENDBRANCH   1   7
TORSDOF 2
ENDMDL
