MODEL 1
REMARK minimizedAffinity 16.8387814
REMARK minimizedRMSD -1
REMARK  2 active torsions:
REMARK  status: ('A' for Active; 'I' for Inactive)
REMARK    1  A    between atoms: C1_2  and  C2_3 
REMARK    2  A    between atoms: C2_3  and  C3_4 
ROOT
ATOM      1  C3  UNL d   1       2.199   5.261   0.983  0.00  0.00    -0.075 A 
ATOM      2  C4  UNL d   1       1.511   5.999   1.957  0.00  0.00     0.002 A 
ATOM      3  C5  UNL d   1       0.239   5.607   2.376  0.00  0.00     0.002 A 
ATOM      4  C6  UNL d   1      -0.363   4.480   1.822  0.00  0.00    -0.004 A 
ATOM      5  C7  UNL d   1       0.304   3.748   0.842  0.00  0.00     0.002 A 
ATOM      6  C8  UNL d   1       1.578   4.136   0.424  0.00  0.00     0.002 A 
ENDROOT
BRANCH   1   7
ATOM      7  C2  UNL d   1       3.588   5.663   0.547  0.00  0.00     0.056 C 
BRANCH   7   8
ATOM      8  C1  UNL d   1       4.173   4.781  -0.562  0.00  0.00     0.007 C 
ATOM      9  C   UNL d   1       5.538   5.252  -1.046  0.00  0.00     0.009 C 
ENDBRANCH   7   8
ENDBRANCH   1   7
TORSDOF 2
ENDMDL
