MODEL 1
REMARK minimizedAffinity -0.969237626
REMARK minimizedRMSD -1
REMARK  2 active torsions:
REMARK  status: ('A' for Active; 'I' for Inactive)
REMARK    1  A    between atoms: C1_2  and  C2_3 
REMARK    2  A    between atoms: C2_3  and  C3_4 
ROOT
ATOM      1  C3  UNL d   1       4.171  -2.627   4.406  0.00  0.00    -0.075 A 
ATOM      2  C4  UNL d   1       4.822  -2.589   5.648  0.00  0.00     0.002 A 
ATOM      3  C5  UNL d   1       5.735  -3.584   6.000  0.00  0.00     0.002 A 
ATOM      4  C6  UNL d   1       6.000  -4.633   5.122  0.00  0.00    -0.004 A 
ATOM      5  C7  UNL d   1       5.346  -4.689   3.893  0.00  0.00     0.002 A 
ATOM      6  C8  UNL d   1       4.436  -3.693   3.536  0.00  0.00     0.002 A 
ENDROOT
BRANCH   1   7
ATOM      7  C2  UNL d   1       3.205  -1.537   4.007  0.00  0.00     0.056 C 
BRANCH   7   8
ATOM      8  C1  UNL d   1       2.670  -1.671   2.577  0.00  0.00     0.007 C 
ATOM      9  C   UNL d   1       3.373  -0.755   1.585  0.00  0.00     0.009 C 
ENDBRANCH   7   8
ENDBRANCH   1   7
TORSDOF 2
ENDMDL
