MODEL 1
REMARK minimizedAffinity 1.25223732
REMARK minimizedRMSD -1
REMARK  2 active torsions:
REMARK  status: ('A' for Active; 'I' for Inactive)
REMARK    1  A    between atoms: C1_2  and  C2_3 
REMARK    2  A    between atoms: C2_3  and  C3_4 
ROOT
ATOM      1  C3  UNL d   1       5.345   5.330  -2.930  0.00  0.00    -0.075 A 
ATOM      2  C4  UNL d   1       5.904   4.178  -3.503  0.00  0.00     0.002 A 
ATOM      3  C5  UNL d   1       5.309   3.579  -4.614  0.00  0.00     0.002 A 
ATOM      4  C6  UNL d   1       4.145   4.117  -5.159  0.00  0.00    -0.004 A 
ATOM      5  C7  UNL d   1       3.571   5.251  -4.588  0.00  0.00     0.002 A 
ATOM      6  C8  UNL d   1       4.167   5.854  -3.479  0.00  0.00     0.002 A 
ENDROOT
BRANCH   1   7
ATOM      7  C2  UNL d   1       6.000   5.999  -1.746  0.00  0.00     0.056 C 
BRANCH   7   8
ATOM      8  C1  UNL d   1       5.142   5.999  -0.476  0.00  0.00     0.007 C 
ATOM      9  C   UNL d   1       4.498   4.650  -0.186  0.00  0.00     0.009 C 
ENDBRANCH   7   8
ENDBRANCH   1   7
TORSDOF 2
ENDMDL
