MODEL 1
REMARK minimizedAffinity 7.5679307
REMARK minimizedRMSD -1
REMARK  2 active torsions:
REMARK  status: ('A' for Active; 'I' for Inactive)
REMARK    1  A    between atoms: C1_2  and  C2_3 
REMARK    2  A    between atoms: C2_3  and  C3_4 
ROOT
ATOM      1  C3  UNL d   1       3.978  -2.555   3.726  0.00  0.00    -0.075 A 
ATOM      2  C4  UNL d   1       4.814  -3.652   3.474  0.00  0.00     0.002 A 
ATOM      3  C5  UNL d   1       5.806  -4.011   4.387  0.00  0.00     0.002 A 
ATOM      4  C6  UNL d   1       5.981  -3.274   5.556  0.00  0.00    -0.004 A 
ATOM      5  C7  UNL d   1       5.166  -2.172   5.809  0.00  0.00     0.002 A 
ATOM      6  C8  UNL d   1       4.170  -1.813   4.899  0.00  0.00     0.002 A 
ENDROOT
BRANCH   1   7
ATOM      7  C2  UNL d   1       2.883  -2.180   2.756  0.00  0.00     0.056 C 
BRANCH   7   8
ATOM      8  C1  UNL d   1       3.297  -1.121   1.728  0.00  0.00     0.007 C 
ATOM      9  C   UNL d   1       4.077  -1.696   0.554  0.00  0.00     0.009 C 
ENDBRANCH   7   8
ENDBRANCH   1   7
TORSDOF 2
ENDMDL
