MODEL 1
REMARK minimizedAffinity 1.96470618
REMARK minimizedRMSD -1
REMARK  2 active torsions:
REMARK  status: ('A' for Active; 'I' for Inactive)
REMARK    1  A    between atoms: C1_2  and  C2_3 
REMARK    2  A    between atoms: C2_3  and  C3_4 
ROOT
ATOM      1  C3  UNL d   1       4.967  -2.857   5.147  0.00  0.00    -0.075 A 
ATOM      2  C4  UNL d   1       4.151  -1.852   5.686  0.00  0.00     0.002 A 
ATOM      3  C5  UNL d   1       3.180  -1.230   4.900  0.00  0.00     0.002 A 
ATOM      4  C6  UNL d   1       3.020  -1.597   3.566  0.00  0.00    -0.004 A 
ATOM      5  C7  UNL d   1       3.836  -2.582   3.015  0.00  0.00     0.002 A 
ATOM      6  C8  UNL d   1       4.805  -3.209   3.800  0.00  0.00     0.002 A 
ENDROOT
BRANCH   1   7
ATOM      7  C2  UNL d   1       5.999  -3.555   6.000  0.00  0.00     0.056 C 
BRANCH   7   8
ATOM      8  C1  UNL d   1       5.938  -5.084   5.928  0.00  0.00     0.007 C 
ATOM      9  C   UNL d   1       4.519  -5.632   6.000  0.00  0.00     0.009 C 
ENDBRANCH   7   8
ENDBRANCH   1   7
TORSDOF 2
ENDMDL
