MODEL 1
REMARK minimizedAffinity -2.87123513
REMARK minimizedRMSD -1
REMARK  2 active torsions:
REMARK  status: ('A' for Active; 'I' for Inactive)
REMARK    1  A    between atoms: C1_2  and  C2_3 
REMARK    2  A    between atoms: C2_3  and  C3_4 
ROOT
ATOM      1  C3  UNL d   1       4.564  -3.170   4.578  0.00  0.00    -0.075 A 
ATOM      2  C4  UNL d   1       5.752  -2.473   4.843  0.00  0.00     0.002 A 
ATOM      3  C5  UNL d   1       5.725  -1.273   5.554  0.00  0.00     0.002 A 
ATOM      4  C6  UNL d   1       4.512  -0.750   5.999  0.00  0.00    -0.004 A 
ATOM      5  C7  UNL d   1       3.325  -1.426   5.727  0.00  0.00     0.002 A 
ATOM      6  C8  UNL d   1       3.349  -2.629   5.019  0.00  0.00     0.002 A 
ENDROOT
BRANCH   1   7
ATOM      7  C2  UNL d   1       4.589  -4.485   3.835  0.00  0.00     0.056 C 
BRANCH   7   8
ATOM      8  C1  UNL d   1       5.964  -4.855   3.269  0.00  0.00     0.007 C 
ATOM      9  C   UNL d   1       5.998  -4.890   1.747  0.00  0.00     0.009 C 
ENDBRANCH   7   8
ENDBRANCH   1   7
TORSDOF 2
ENDMDL
