MODEL 1
REMARK minimizedAffinity 9.47154427
REMARK minimizedRMSD -1
REMARK  2 active torsions:
REMARK  status: ('A' for Active; 'I' for Inactive)
REMARK    1  A    between atoms: C1_2  and  C2_3 
REMARK    2  A    between atoms: C2_3  and  C3_4 
ROOT
ATOM      1  C3  UNL d   1       3.719   5.225  -4.046  0.00  0.00    -0.075 A 
ATOM      2  C4  UNL d   1       3.951   3.921  -4.507  0.00  0.00     0.002 A 
ATOM      3  C5  UNL d   1       5.081   3.215  -4.096  0.00  0.00     0.002 A 
ATOM      4  C6  UNL d   1       5.998   3.805  -3.229  0.00  0.00    -0.004 A 
ATOM      5  C7  UNL d   1       5.787   5.106  -2.778  0.00  0.00     0.002 A 
ATOM      6  C8  UNL d   1       4.654   5.814  -3.184  0.00  0.00     0.002 A 
ENDROOT
BRANCH   1   7
ATOM      7  C2  UNL d   1       2.482   5.984  -4.463  0.00  0.00     0.056 C 
BRANCH   7   8
ATOM      8  C1  UNL d   1       1.361   5.973  -3.419  0.00  0.00     0.007 C 
ATOM      9  C   UNL d   1       1.615   4.998  -2.276  0.00  0.00     0.009 C 
ENDBRANCH   7   8
ENDBRANCH   1   7
TORSDOF 2
ENDMDL
