MODEL 1
REMARK minimizedAffinity -3.02218366
REMARK minimizedRMSD -1
REMARK  2 active torsions:
REMARK  status: ('A' for Active; 'I' for Inactive)
REMARK    1  A    between atoms: C1_2  and  C2_3 
REMARK    2  A    between atoms: C2_3  and  C3_4 
ROOT
ATOM      1  C3  UNL d   1       4.519  -3.104   4.723  0.00  0.00    -0.075 A 
ATOM      2  C4  UNL d   1       5.264  -3.383   5.878  0.00  0.00     0.002 A 
ATOM      3  C5  UNL d   1       5.992  -4.569   5.983  0.00  0.00     0.002 A 
ATOM      4  C6  UNL d   1       5.975  -5.494   4.941  0.00  0.00    -0.004 A 
ATOM      5  C7  UNL d   1       5.225  -5.234   3.796  0.00  0.00     0.002 A 
ATOM      6  C8  UNL d   1       4.500  -4.047   3.687  0.00  0.00     0.002 A 
ENDROOT
BRANCH   1   7
ATOM      7  C2  UNL d   1       3.754  -1.809   4.592  0.00  0.00     0.056 C 
BRANCH   7   8
ATOM      8  C1  UNL d   1       3.252  -1.243   5.925  0.00  0.00     0.007 C 
ATOM      9  C   UNL d   1       1.735  -1.134   5.998  0.00  0.00     0.009 C 
ENDBRANCH   7   8
ENDBRANCH   1   7
TORSDOF 2
ENDMDL
