MODEL 1
REMARK minimizedAffinity 4.19537401
REMARK minimizedRMSD -1
REMARK  2 active torsions:
REMARK  status: ('A' for Active; 'I' for Inactive)
REMARK    1  A    between atoms: C1_2  and  C2_3 
REMARK    2  A    between atoms: C2_3  and  C3_4 
ROOT
ATOM      1  C3  UNL d   1       4.866   4.895  -3.358  0.00  0.00    -0.075 A 
ATOM      2  C4  UNL d   1       5.997   4.684  -4.160  0.00  0.00     0.002 A 
ATOM      3  C5  UNL d   1       5.997   3.686  -5.135  0.00  0.00     0.002 A 
ATOM      4  C6  UNL d   1       4.874   2.882  -5.313  0.00  0.00    -0.004 A 
ATOM      5  C7  UNL d   1       3.751   3.072  -4.511  0.00  0.00     0.002 A 
ATOM      6  C8  UNL d   1       3.746   4.072  -3.538  0.00  0.00     0.002 A 
ENDROOT
BRANCH   1   7
ATOM      7  C2  UNL d   1       4.848   5.993  -2.321  0.00  0.00     0.056 C 
BRANCH   7   8
ATOM      8  C1  UNL d   1       5.232   5.527  -0.913  0.00  0.00     0.007 C 
ATOM      9  C   UNL d   1       4.032   5.123  -0.066  0.00  0.00     0.009 C 
ENDBRANCH   7   8
ENDBRANCH   1   7
TORSDOF 2
ENDMDL
