MODEL 1
REMARK minimizedAffinity 4.75445557
REMARK minimizedRMSD -1
REMARK  2 active torsions:
REMARK  status: ('A' for Active; 'I' for Inactive)
REMARK    1  A    between atoms: C1_2  and  C2_3 
REMARK    2  A    between atoms: C2_3  and  C3_4 
ROOT
ATOM      1  C3  UNL d   1       2.991  -0.613  -1.036  0.00  0.00    -0.075 A 
ATOM      2  C4  UNL d   1       3.734  -0.418  -2.209  0.00  0.00     0.002 A 
ATOM      3  C5  UNL d   1       4.486   0.744  -2.386  0.00  0.00     0.002 A 
ATOM      4  C6  UNL d   1       4.496   1.728  -1.400  0.00  0.00    -0.004 A 
ATOM      5  C7  UNL d   1       3.747   1.553  -0.238  0.00  0.00     0.002 A 
ATOM      6  C8  UNL d   1       2.998   0.389  -0.056  0.00  0.00     0.002 A 
ENDROOT
BRANCH   1   7
ATOM      7  C2  UNL d   1       2.198  -1.881  -0.825  0.00  0.00     0.056 C 
BRANCH   7   8
ATOM      8  C1  UNL d   1       2.969  -2.982  -0.090  0.00  0.00     0.007 C 
ATOM      9  C   UNL d   1       2.107  -4.189   0.257  0.00  0.00     0.009 C 
ENDBRANCH   7   8
ENDBRANCH   1   7
TORSDOF 2
ENDMDL
