MODEL 1
REMARK minimizedAffinity 7.68147802
REMARK minimizedRMSD -1
REMARK  2 active torsions:
REMARK  status: ('A' for Active; 'I' for Inactive)
REMARK    1  A    between atoms: C1_2  and  C2_3 
REMARK    2  A    between atoms: C2_3  and  C3_4 
ROOT
ATOM      1  C3  UNL d   1       3.801   2.262   2.090  0.00  0.00    -0.075 A 
ATOM      2  C4  UNL d   1       4.939   2.465   1.295  0.00  0.00     0.002 A 
ATOM      3  C5  UNL d   1       4.998   1.951  -0.001  0.00  0.00     0.002 A 
ATOM      4  C6  UNL d   1       3.928   1.221  -0.514  0.00  0.00    -0.004 A 
ATOM      5  C7  UNL d   1       2.800   0.999   0.273  0.00  0.00     0.002 A 
ATOM      6  C8  UNL d   1       2.736   1.516   1.568  0.00  0.00     0.002 A 
ENDROOT
BRANCH   1   7
ATOM      7  C2  UNL d   1       3.718   2.841   3.482  0.00  0.00     0.056 C 
BRANCH   7   8
ATOM      8  C1  UNL d   1       2.828   2.040   4.438  0.00  0.00     0.007 C 
ATOM      9  C   UNL d   1       3.480   1.780   5.790  0.00  0.00     0.009 C 
ENDBRANCH   7   8
ENDBRANCH   1   7
TORSDOF 2
ENDMDL
