MODEL 1
REMARK minimizedAffinity 5.68370867
REMARK minimizedRMSD -1
REMARK  2 active torsions:
REMARK  status: ('A' for Active; 'I' for Inactive)
REMARK    1  A    between atoms: C1_2  and  C2_3 
REMARK    2  A    between atoms: C2_3  and  C3_4 
ROOT
ATOM      1  C3  UNL d   1       3.380   3.600   5.959  0.00  0.00    -0.075 A 
ATOM      2  C4  UNL d   1       2.354   2.643   5.971  0.00  0.00     0.002 A 
ATOM      3  C5  UNL d   1       2.657   1.281   5.995  0.00  0.00     0.002 A 
ATOM      4  C6  UNL d   1       3.984   0.859   5.996  0.00  0.00    -0.004 A 
ATOM      5  C7  UNL d   1       5.011   1.801   5.968  0.00  0.00     0.002 A 
ATOM      6  C8  UNL d   1       4.711   3.164   5.949  0.00  0.00     0.002 A 
ENDROOT
BRANCH   1   7
ATOM      7  C2  UNL d   1       3.060   5.076   5.964  0.00  0.00     0.056 C 
BRANCH   7   8
ATOM      8  C1  UNL d   1       4.270   5.977   5.700  0.00  0.00     0.007 C 
ATOM      9  C   UNL d   1       5.601   5.289   5.970  0.00  0.00     0.009 C 
ENDBRANCH   7   8
ENDBRANCH   1   7
TORSDOF 2
ENDMDL
