MODEL 1
REMARK minimizedAffinity -1.95609105
REMARK minimizedRMSD -1
REMARK  2 active torsions:
REMARK  status: ('A' for Active; 'I' for Inactive)
REMARK    1  A    between atoms: C1_2  and  C2_3 
REMARK    2  A    between atoms: C2_3  and  C3_4 
ROOT
ATOM      1  C3  UNL d   1       3.557   3.325   4.735  0.00  0.00    -0.075 A 
ATOM      2  C4  UNL d   1       2.987   4.026   5.806  0.00  0.00     0.002 A 
ATOM      3  C5  UNL d   1       2.587   5.354   5.651  0.00  0.00     0.002 A 
ATOM      4  C6  UNL d   1       2.762   5.999   4.429  0.00  0.00    -0.004 A 
ATOM      5  C7  UNL d   1       3.343   5.317   3.362  0.00  0.00     0.002 A 
ATOM      6  C8  UNL d   1       3.740   3.987   3.513  0.00  0.00     0.002 A 
ENDROOT
BRANCH   1   7
ATOM      7  C2  UNL d   1       3.965   1.879   4.888  0.00  0.00     0.056 C 
BRANCH   7   8
ATOM      8  C1  UNL d   1       2.889   0.992   5.523  0.00  0.00     0.007 C 
ATOM      9  C   UNL d   1       1.857   0.488   4.523  0.00  0.00     0.009 C 
ENDBRANCH   7   8
ENDBRANCH   1   7
TORSDOF 2
ENDMDL
