MODEL 1
REMARK minimizedAffinity 6.22217989
REMARK minimizedRMSD -1
REMARK  2 active torsions:
REMARK  status: ('A' for Active; 'I' for Inactive)
REMARK    1  A    between atoms: C1_2  and  C2_3 
REMARK    2  A    between atoms: C2_3  and  C3_4 
ROOT
ATOM      1  C3  UNL d   1      -2.477   0.761  -0.339  0.00  0.00    -0.075 A 
ATOM      2  C4  UNL d   1      -3.679   0.227  -0.825  0.00  0.00     0.002 A 
ATOM      3  C5  UNL d   1      -4.865   0.383  -0.108  0.00  0.00     0.002 A 
ATOM      4  C6  UNL d   1      -4.864   1.065   1.107  0.00  0.00    -0.004 A 
ATOM      5  C7  UNL d   1      -3.672   1.586   1.608  0.00  0.00     0.002 A 
ATOM      6  C8  UNL d   1      -2.485   1.435   0.889  0.00  0.00     0.002 A 
ENDROOT
BRANCH   1   7
ATOM      7  C2  UNL d   1      -1.196   0.621  -1.125  0.00  0.00     0.056 C 
BRANCH   7   8
ATOM      8  C1  UNL d   1       0.011   1.310  -0.479  0.00  0.00     0.007 C 
ATOM      9  C   UNL d   1       1.221   0.395  -0.340  0.00  0.00     0.009 C 
ENDBRANCH   7   8
ENDBRANCH   1   7
TORSDOF 2
ENDMDL
