MODEL 1
REMARK minimizedAffinity -0.410988837
REMARK minimizedRMSD -1
REMARK  2 active torsions:
REMARK  status: ('A' for Active; 'I' for Inactive)
REMARK    1  A    between atoms: C1_2  and  C2_3 
REMARK    2  A    between atoms: C2_3  and  C3_4 
ROOT
ATOM      1  C3  UNL d   1      -2.065   3.310   3.651  0.00  0.00    -0.075 A 
ATOM      2  C4  UNL d   1      -1.589   2.695   2.484  0.00  0.00     0.002 A 
ATOM      3  C5  UNL d   1      -2.468   2.055   1.611  0.00  0.00     0.002 A 
ATOM      4  C6  UNL d   1      -3.831   2.012   1.897  0.00  0.00    -0.004 A 
ATOM      5  C7  UNL d   1      -4.314   2.605   3.062  0.00  0.00     0.002 A 
ATOM      6  C8  UNL d   1      -3.436   3.250   3.935  0.00  0.00     0.002 A 
ENDROOT
BRANCH   1   7
ATOM      7  C2  UNL d   1      -1.123   4.030   4.585  0.00  0.00     0.056 C 
BRANCH   7   8
ATOM      8  C1  UNL d   1      -0.002   4.794   3.873  0.00  0.00     0.007 C 
ATOM      9  C   UNL d   1       0.497   5.999   4.659  0.00  0.00     0.009 C 
ENDBRANCH   7   8
ENDBRANCH   1   7
TORSDOF 2
ENDMDL
