MODEL 1
REMARK minimizedAffinity -2.14910078
REMARK minimizedRMSD -1
REMARK  2 active torsions:
REMARK  status: ('A' for Active; 'I' for Inactive)
REMARK    1  A    between atoms: C1_2  and  C2_3 
REMARK    2  A    between atoms: C2_3  and  C3_4 
ROOT
ATOM      1  C3  UNL d   1       2.753   3.410   5.012  0.00  0.00    -0.075 A 
ATOM      2  C4  UNL d   1       4.099   3.640   5.333  0.00  0.00     0.002 A 
ATOM      3  C5  UNL d   1       4.545   4.927   5.635  0.00  0.00     0.002 A 
ATOM      4  C6  UNL d   1       3.657   6.000   5.609  0.00  0.00    -0.004 A 
ATOM      5  C7  UNL d   1       2.321   5.786   5.276  0.00  0.00     0.002 A 
ATOM      6  C8  UNL d   1       1.871   4.498   4.978  0.00  0.00     0.002 A 
ENDROOT
BRANCH   1   7
ATOM      7  C2  UNL d   1       2.257   2.016   4.714  0.00  0.00     0.056 C 
BRANCH   7   8
ATOM      8  C1  UNL d   1       2.633   1.506   3.318  0.00  0.00     0.007 C 
ATOM      9  C   UNL d   1       1.716   0.397   2.818  0.00  0.00     0.009 C 
ENDBRANCH   7   8
ENDBRANCH   1   7
TORSDOF 2
ENDMDL
