MODEL 1
REMARK minimizedAffinity -6.657619
REMARK minimizedRMSD -1
REMARK  0 active torsions:
REMARK  status: ('A' for Active; 'I' for Inactive)
ROOT
ATOM      1  C1  DEN d   1      -0.902   0.474  -0.879  0.00  0.00     0.130 A 
ATOM      2  C2  DEN d   1       0.503   0.076  -0.924  0.00  0.00    -0.031 A 
ATOM      3  C3  DEN d   1       0.858  -0.493   0.392  0.00  0.00     0.027 A 
ATOM      4  C4  DEN d   1      -0.624  -0.800   2.481  0.00  0.00     0.027 A 
ATOM      5  C5  DEN d   1      -1.883  -0.601   3.003  0.00  0.00    -0.003 A 
ATOM      6  C6  DEN d   1      -2.885  -0.004   2.285  0.00  0.00     0.001 A 
ATOM      7  C7  DEN d   1      -2.659   0.374   0.988  0.00  0.00     0.017 A 
ATOM      8  C8  DEN d   1      -1.390   0.184   0.457  0.00  0.00    -0.094 A 
ATOM      9  C9  DEN d   1      -0.393  -0.432   1.195  0.00  0.00    -0.072 A 
ENDROOT
TORSDOF 0
ENDMDL
