MODEL 1
REMARK minimizedAffinity -2.5342536
REMARK minimizedRMSD -1
REMARK  0 active torsions:
REMARK  status: ('A' for Active; 'I' for Inactive)
ROOT
ATOM      1  C1  DEN d   1       1.718   0.207  -2.088  0.00  0.00     0.130 A 
ATOM      2  C2  DEN d   1       0.748  -0.400  -2.995  0.00  0.00    -0.031 A 
ATOM      3  C3  DEN d   1      -0.361  -0.940  -2.183  0.00  0.00     0.027 A 
ATOM      4  C4  DEN d   1      -0.670  -0.890   0.377  0.00  0.00     0.027 A 
ATOM      5  C5  DEN d   1      -0.105  -0.494   1.569  0.00  0.00    -0.003 A 
ATOM      6  C6  DEN d   1       1.114   0.129   1.627  0.00  0.00     0.001 A 
ATOM      7  C7  DEN d   1       1.787   0.414   0.468  0.00  0.00     0.017 A 
ATOM      8  C8  DEN d   1       1.226   0.011  -0.737  0.00  0.00    -0.094 A 
ATOM      9  C9  DEN d   1      -0.013  -0.607  -0.775  0.00  0.00    -0.072 A 
ENDROOT
TORSDOF 0
ENDMDL
