MODEL 1
REMARK minimizedAffinity -5.14883041
REMARK minimizedRMSD -1
REMARK  0 active torsions:
REMARK  status: ('A' for Active; 'I' for Inactive)
ROOT
ATOM      1  C1  DEN d   1      -1.707   0.121   1.559  0.00  0.00     0.130 A 
ATOM      2  C2  DEN d   1      -1.051  -0.105   2.844  0.00  0.00    -0.031 A 
ATOM      3  C3  DEN d   1       0.367  -0.424   2.584  0.00  0.00     0.027 A 
ATOM      4  C4  DEN d   1       1.606  -0.585   0.327  0.00  0.00     0.027 A 
ATOM      5  C5  DEN d   1       1.466  -0.487  -1.039  0.00  0.00    -0.003 A 
ATOM      6  C6  DEN d   1       0.262  -0.215  -1.633  0.00  0.00     0.001 A 
ATOM      7  C7  DEN d   1      -0.842   0.013  -0.855  0.00  0.00     0.017 A 
ATOM      8  C8  DEN d   1      -0.711  -0.091   0.524  0.00  0.00    -0.094 A 
ATOM      9  C9  DEN d   1       0.518  -0.355   1.105  0.00  0.00    -0.072 A 
ENDROOT
TORSDOF 0
ENDMDL
