MODEL 1
REMARK minimizedAffinity -3.18706226
REMARK minimizedRMSD -1
REMARK  0 active torsions:
REMARK  status: ('A' for Active; 'I' for Inactive)
ROOT
ATOM      1  C1  DEN d   1      -2.458  -0.014   3.139  0.00  0.00     0.130 A 
ATOM      2  C2  DEN d   1      -3.447   0.382   2.141  0.00  0.00    -0.031 A 
ATOM      3  C3  DEN d   1      -2.805   0.323   0.812  0.00  0.00     0.027 A 
ATOM      4  C4  DEN d   1      -0.388  -0.344   0.207  0.00  0.00     0.027 A 
ATOM      5  C5  DEN d   1       0.826  -0.748   0.717  0.00  0.00    -0.003 A 
ATOM      6  C6  DEN d   1       1.039  -0.901   2.061  0.00  0.00     0.001 A 
ATOM      7  C7  DEN d   1       0.009  -0.692   2.939  0.00  0.00     0.017 A 
ATOM      8  C8  DEN d   1      -1.216  -0.278   2.434  0.00  0.00    -0.094 A 
ATOM      9  C9  DEN d   1      -1.415  -0.141   1.070  0.00  0.00    -0.072 A 
ENDROOT
TORSDOF 0
ENDMDL
