MODEL 1
REMARK minimizedAffinity -5.4306097
REMARK minimizedRMSD -1
REMARK  0 active torsions:
REMARK  status: ('A' for Active; 'I' for Inactive)
ROOT
ATOM      1  C1  DEN d   1      -0.123  -1.354   0.210  0.00  0.00     0.130 A 
ATOM      2  C2  DEN d   1      -0.319   0.085   0.358  0.00  0.00    -0.031 A 
ATOM      3  C3  DEN d   1       0.080   0.733  -0.908  0.00  0.00     0.027 A 
ATOM      4  C4  DEN d   1       0.972  -0.348  -3.073  0.00  0.00     0.027 A 
ATOM      5  C5  DEN d   1       1.320  -1.539  -3.673  0.00  0.00    -0.003 A 
ATOM      6  C6  DEN d   1       1.244  -2.737  -3.014  0.00  0.00     0.001 A 
ATOM      7  C7  DEN d   1       0.767  -2.778  -1.731  0.00  0.00     0.017 A 
ATOM      8  C8  DEN d   1       0.421  -1.581  -1.117  0.00  0.00    -0.094 A 
ATOM      9  C9  DEN d   1       0.493  -0.381  -1.803  0.00  0.00    -0.072 A 
ENDROOT
TORSDOF 0
ENDMDL
