MODEL 1
REMARK minimizedAffinity -4.23862982
REMARK minimizedRMSD -1
REMARK  0 active torsions:
REMARK  status: ('A' for Active; 'I' for Inactive)
ROOT
ATOM      1  C1  DEN d   1       1.778  -1.390   0.383  0.00  0.00     0.130 A 
ATOM      2  C2  DEN d   1       0.889  -0.575   1.207  0.00  0.00    -0.031 A 
ATOM      3  C3  DEN d   1      -0.049   0.127   0.310  0.00  0.00     0.027 A 
ATOM      4  C4  DEN d   1      -0.216   0.030  -2.262  0.00  0.00     0.027 A 
ATOM      5  C5  DEN d   1       0.332  -0.514  -3.403  0.00  0.00    -0.003 A 
ATOM      6  C6  DEN d   1       1.412  -1.355  -3.364  0.00  0.00     0.001 A 
ATOM      7  C7  DEN d   1       1.952  -1.712  -2.157  0.00  0.00     0.017 A 
ATOM      8  C8  DEN d   1       1.410  -1.161  -1.003  0.00  0.00    -0.094 A 
ATOM      9  C9  DEN d   1       0.310  -0.323  -1.062  0.00  0.00    -0.072 A 
ENDROOT
TORSDOF 0
ENDMDL
