MODEL 1
REMARK minimizedAffinity -0.780483127
REMARK minimizedRMSD -1
REMARK  0 active torsions:
REMARK  status: ('A' for Active; 'I' for Inactive)
ROOT
ATOM      1  C1  DEN d   1       1.468  -0.123   1.662  0.00  0.00     0.130 A 
ATOM      2  C2  DEN d   1       0.571  -0.053   2.812  0.00  0.00    -0.031 A 
ATOM      3  C3  DEN d   1      -0.798   0.179   2.310  0.00  0.00     0.027 A 
ATOM      4  C4  DEN d   1      -1.612   0.431  -0.124  0.00  0.00     0.027 A 
ATOM      5  C5  DEN d   1      -1.217   0.456  -1.443  0.00  0.00    -0.003 A 
ATOM      6  C6  DEN d   1       0.095   0.325  -1.815  0.00  0.00     0.001 A 
ATOM      7  C7  DEN d   1       1.054   0.118  -0.859  0.00  0.00     0.017 A 
ATOM      8  C8  DEN d   1       0.664   0.099   0.474  0.00  0.00    -0.094 A 
ATOM      9  C9  DEN d   1      -0.669   0.220   0.828  0.00  0.00    -0.072 A 
ENDROOT
TORSDOF 0
ENDMDL
