MODEL 1
REMARK minimizedAffinity -2.02549219
REMARK minimizedRMSD -1
REMARK  0 active torsions:
REMARK  status: ('A' for Active; 'I' for Inactive)
ROOT
ATOM      1  C1  DEN d   1       1.065  -0.115   0.539  0.00  0.00     0.130 A 
ATOM      2  C2  DEN d   1       0.502  -0.211  -0.806  0.00  0.00    -0.031 A 
ATOM      3  C3  DEN d   1      -0.966  -0.104  -0.695  0.00  0.00     0.027 A 
ATOM      4  C4  DEN d   1      -2.416   0.203   1.416  0.00  0.00     0.027 A 
ATOM      5  C5  DEN d   1      -2.390   0.326   2.788  0.00  0.00    -0.003 A 
ATOM      6  C6  DEN d   1      -1.223   0.277   3.503  0.00  0.00     0.001 A 
ATOM      7  C7  DEN d   1      -0.028   0.145   2.845  0.00  0.00     0.017 A 
ATOM      8  C8  DEN d   1      -0.047   0.014   1.463  0.00  0.00    -0.094 A 
ATOM      9  C9  DEN d   1      -1.237   0.078   0.757  0.00  0.00    -0.072 A 
ENDROOT
TORSDOF 0
ENDMDL
