MODEL 1
REMARK minimizedAffinity -2.55793333
REMARK minimizedRMSD -1
REMARK  0 active torsions:
REMARK  status: ('A' for Active; 'I' for Inactive)
ROOT
ATOM      1  C1  DEN d   1       1.421  -0.402   1.319  0.00  0.00     0.130 A 
ATOM      2  C2  DEN d   1       0.727  -0.305   2.600  0.00  0.00    -0.031 A 
ATOM      3  C3  DEN d   1      -0.649   0.163   2.339  0.00  0.00     0.027 A 
ATOM      4  C4  DEN d   1      -1.768   0.739   0.088  0.00  0.00     0.027 A 
ATOM      5  C5  DEN d   1      -1.574   0.822  -1.273  0.00  0.00    -0.003 A 
ATOM      6  C6  DEN d   1      -0.368   0.538  -1.858  0.00  0.00     0.001 A 
ATOM      7  C7  DEN d   1       0.678   0.113  -1.083  0.00  0.00     0.017 A 
ATOM      8  C8  DEN d   1       0.493   0.034   0.291  0.00  0.00    -0.094 A 
ATOM      9  C9  DEN d   1      -0.737   0.314   0.862  0.00  0.00    -0.072 A 
ENDROOT
TORSDOF 0
ENDMDL
