MODEL 1
REMARK minimizedAffinity -2.27996778
REMARK minimizedRMSD -1
REMARK  0 active torsions:
REMARK  status: ('A' for Active; 'I' for Inactive)
ROOT
ATOM      1  C1  DEN d   1      -0.356  -1.415  -0.674  0.00  0.00     0.130 A 
ATOM      2  C2  DEN d   1      -0.152  -0.192   0.096  0.00  0.00    -0.031 A 
ATOM      3  C3  DEN d   1       0.692   0.717  -0.705  0.00  0.00     0.027 A 
ATOM      4  C4  DEN d   1       1.694   0.353  -3.053  0.00  0.00     0.027 A 
ATOM      5  C5  DEN d   1       1.806  -0.534  -4.101  0.00  0.00    -0.003 A 
ATOM      6  C6  DEN d   1       1.238  -1.781  -4.066  0.00  0.00     0.001 A 
ATOM      7  C7  DEN d   1       0.494  -2.157  -2.979  0.00  0.00     0.017 A 
ATOM      8  C8  DEN d   1       0.383  -1.271  -1.916  0.00  0.00    -0.094 A 
ATOM      9  C9  DEN d   1       0.954  -0.011  -1.975  0.00  0.00    -0.072 A 
ENDROOT
TORSDOF 0
ENDMDL
