MODEL 1
REMARK minimizedAffinity -1.66033244
REMARK minimizedRMSD -1
REMARK  0 active torsions:
REMARK  status: ('A' for Active; 'I' for Inactive)
ROOT
ATOM      1  C1  DEN d   1       1.589  -0.317   1.460  0.00  0.00     0.130 A 
ATOM      2  C2  DEN d   1       0.771  -0.177   2.662  0.00  0.00    -0.031 A 
ATOM      3  C3  DEN d   1      -0.599   0.182   2.243  0.00  0.00     0.027 A 
ATOM      4  C4  DEN d   1      -1.529   0.528  -0.138  0.00  0.00     0.027 A 
ATOM      5  C5  DEN d   1      -1.211   0.529  -1.478  0.00  0.00    -0.003 A 
ATOM      6  C6  DEN d   1       0.060   0.284  -1.928  0.00  0.00     0.001 A 
ATOM      7  C7  DEN d   1       1.050  -0.017  -1.031  0.00  0.00     0.017 A 
ATOM      8  C8  DEN d   1       0.739  -0.013   0.323  0.00  0.00    -0.094 A 
ATOM      9  C9  DEN d   1      -0.554   0.225   0.756  0.00  0.00    -0.072 A 
ENDROOT
TORSDOF 0
ENDMDL
