MODEL 1
REMARK minimizedAffinity -3.32899308
REMARK minimizedRMSD -1
REMARK  0 active torsions:
REMARK  status: ('A' for Active; 'I' for Inactive)
ROOT
ATOM      1  C1  DEN d   1      -1.138  -1.106   2.532  0.00  0.00     0.130 A 
ATOM      2  C2  DEN d   1      -0.538  -0.429   3.679  0.00  0.00    -0.031 A 
ATOM      3  C3  DEN d   1       0.475   0.518   3.171  0.00  0.00     0.027 A 
ATOM      4  C4  DEN d   1       1.166   1.002   0.734  0.00  0.00     0.027 A 
ATOM      5  C5  DEN d   1       0.945   0.665  -0.584  0.00  0.00    -0.003 A 
ATOM      6  C6  DEN d   1       0.046  -0.302  -0.950  0.00  0.00     0.001 A 
ATOM      7  C7  DEN d   1      -0.698  -0.934   0.010  0.00  0.00     0.017 A 
ATOM      8  C8  DEN d   1      -0.476  -0.606   1.341  0.00  0.00    -0.094 A 
ATOM      9  C9  DEN d   1       0.428   0.383   1.690  0.00  0.00    -0.072 A 
ENDROOT
TORSDOF 0
ENDMDL
