MODEL 1
REMARK minimizedAffinity -1.98998189
REMARK minimizedRMSD -1
REMARK  0 active torsions:
REMARK  status: ('A' for Active; 'I' for Inactive)
ROOT
ATOM      1  C1  DEN d   1      -1.289  -1.067  -1.646  0.00  0.00     0.130 A 
ATOM      2  C2  DEN d   1      -1.027   0.186  -0.944  0.00  0.00    -0.031 A 
ATOM      3  C3  DEN d   1       0.236   0.746  -1.465  0.00  0.00     0.027 A 
ATOM      4  C4  DEN d   1       1.800  -0.198  -3.286  0.00  0.00     0.027 A 
ATOM      5  C5  DEN d   1       2.002  -1.241  -4.162  0.00  0.00    -0.003 A 
ATOM      6  C6  DEN d   1       1.146  -2.308  -4.236  0.00  0.00     0.001 A 
ATOM      7  C7  DEN d   1       0.023  -2.333  -3.452  0.00  0.00     0.017 A 
ATOM      8  C8  DEN d   1      -0.183  -1.288  -2.561  0.00  0.00    -0.094 A 
ATOM      9  C9  DEN d   1       0.687  -0.213  -2.509  0.00  0.00    -0.072 A 
ENDROOT
TORSDOF 0
ENDMDL
