MODEL 1
REMARK minimizedAffinity -2.63214135
REMARK minimizedRMSD -1
REMARK  0 active torsions:
REMARK  status: ('A' for Active; 'I' for Inactive)
ROOT
ATOM      1  C1  DEN d   1      -0.339  -1.080  -0.203  0.00  0.00     0.130 A 
ATOM      2  C2  DEN d   1       0.121   0.035   0.621  0.00  0.00    -0.031 A 
ATOM      3  C3  DEN d   1       1.071   0.832  -0.181  0.00  0.00     0.027 A 
ATOM      4  C4  DEN d   1       1.867   0.453  -2.605  0.00  0.00     0.027 A 
ATOM      5  C5  DEN d   1       1.762  -0.369  -3.705  0.00  0.00    -0.003 A 
ATOM      6  C6  DEN d   1       0.983  -1.495  -3.703  0.00  0.00     0.001 A 
ATOM      7  C7  DEN d   1       0.242  -1.806  -2.594  0.00  0.00     0.017 A 
ATOM      8  C8  DEN d   1       0.347  -0.986  -1.478  0.00  0.00    -0.094 A 
ATOM      9  C9  DEN d   1       1.131   0.155  -1.504  0.00  0.00    -0.072 A 
ENDROOT
TORSDOF 0
ENDMDL
