MODEL 1
REMARK minimizedAffinity -4.37023973
REMARK minimizedRMSD -1
REMARK  0 active torsions:
REMARK  status: ('A' for Active; 'I' for Inactive)
ROOT
ATOM      1  C1  DEN d   1       3.579   1.151  -3.719  0.00  0.00     0.130 A 
ATOM      2  C2  DEN d   1       4.697   0.504  -4.401  0.00  0.00    -0.031 A 
ATOM      3  C3  DEN d   1       4.325  -0.902  -4.654  0.00  0.00     0.027 A 
ATOM      4  C4  DEN d   1       2.138  -2.134  -4.062  0.00  0.00     0.027 A 
ATOM      5  C5  DEN d   1       0.902  -2.004  -3.468  0.00  0.00    -0.003 A 
ATOM      6  C6  DEN d   1       0.489  -0.833  -2.890  0.00  0.00     0.001 A 
ATOM      7  C7  DEN d   1       1.301   0.269  -2.934  0.00  0.00     0.017 A 
ATOM      8  C8  DEN d   1       2.552   0.144  -3.525  0.00  0.00    -0.094 A 
ATOM      9  C9  DEN d   1       2.946  -1.045  -4.115  0.00  0.00    -0.072 A 
ENDROOT
TORSDOF 0
ENDMDL
