MODEL 1
REMARK minimizedAffinity -5.46755838
REMARK minimizedRMSD -1
REMARK  0 active torsions:
REMARK  status: ('A' for Active; 'I' for Inactive)
ROOT
ATOM      1  C1  DEN d   1       1.319   0.799   1.015  0.00  0.00     0.130 A 
ATOM      2  C2  DEN d   1       1.108   0.634  -0.420  0.00  0.00    -0.031 A 
ATOM      3  C3  DEN d   1      -0.156  -0.105  -0.614  0.00  0.00     0.027 A 
ATOM      4  C4  DEN d   1      -1.800  -1.000   1.161  0.00  0.00     0.027 A 
ATOM      5  C5  DEN d   1      -2.041  -1.113   2.513  0.00  0.00    -0.003 A 
ATOM      6  C6  DEN d   1      -1.169  -0.630   3.452  0.00  0.00     0.001 A 
ATOM      7  C7  DEN d   1      -0.036   0.028   3.053  0.00  0.00     0.017 A 
ATOM      8  C8  DEN d   1       0.217   0.139   1.692  0.00  0.00    -0.094 A 
ATOM      9  C9  DEN d   1      -0.682  -0.345   0.757  0.00  0.00    -0.072 A 
ENDROOT
TORSDOF 0
ENDMDL
