MODEL 1
REMARK minimizedAffinity -4.62134933
REMARK minimizedRMSD -1
REMARK  0 active torsions:
REMARK  status: ('A' for Active; 'I' for Inactive)
ROOT
ATOM      1  C1  DEN d   1       0.951  -1.849  -3.066  0.00  0.00     0.130 A 
ATOM      2  C2  DEN d   1       0.752  -0.936  -4.188  0.00  0.00    -0.031 A 
ATOM      3  C3  DEN d   1       0.441   0.400  -3.640  0.00  0.00     0.027 A 
ATOM      4  C4  DEN d   1       0.255   1.140  -1.176  0.00  0.00     0.027 A 
ATOM      5  C5  DEN d   1       0.330   0.716   0.132  0.00  0.00    -0.003 A 
ATOM      6  C6  DEN d   1       0.580  -0.589   0.463  0.00  0.00     0.001 A 
ATOM      7  C7  DEN d   1       0.811  -1.508  -0.526  0.00  0.00     0.017 A 
ATOM      8  C8  DEN d   1       0.730  -1.090  -1.848  0.00  0.00    -0.094 A 
ATOM      9  C9  DEN d   1       0.488   0.237  -2.162  0.00  0.00    -0.072 A 
ENDROOT
TORSDOF 0
ENDMDL
