MODEL 1
REMARK minimizedAffinity -4.06140471
REMARK minimizedRMSD -1
REMARK  0 active torsions:
REMARK  status: ('A' for Active; 'I' for Inactive)
ROOT
ATOM      1  C1  DEN d   1      -1.571  -0.574   1.902  0.00  0.00     0.130 A 
ATOM      2  C2  DEN d   1      -0.878  -0.302   3.158  0.00  0.00    -0.031 A 
ATOM      3  C3  DEN d   1       0.411   0.344   2.838  0.00  0.00     0.027 A 
ATOM      4  C4  DEN d   1       1.392   0.950   0.531  0.00  0.00     0.027 A 
ATOM      5  C5  DEN d   1       1.176   0.904  -0.828  0.00  0.00    -0.003 A 
ATOM      6  C6  DEN d   1       0.053   0.336  -1.370  0.00  0.00     0.001 A 
ATOM      7  C7  DEN d   1      -0.918  -0.168  -0.545  0.00  0.00     0.017 A 
ATOM      8  C8  DEN d   1      -0.703  -0.132   0.826  0.00  0.00    -0.094 A 
ATOM      9  C9  DEN d   1       0.433   0.457   1.355  0.00  0.00    -0.072 A 
ENDROOT
TORSDOF 0
ENDMDL
