MODEL 1
REMARK minimizedAffinity -4.03827047
REMARK minimizedRMSD -1
REMARK  0 active torsions:
REMARK  status: ('A' for Active; 'I' for Inactive)
ROOT
ATOM      1  C1  DEN d   1      -1.019   0.404   1.664  0.00  0.00     0.130 A 
ATOM      2  C2  DEN d   1      -0.509   0.050   2.986  0.00  0.00    -0.031 A 
ATOM      3  C3  DEN d   1       0.737  -0.722   2.803  0.00  0.00     0.027 A 
ATOM      4  C4  DEN d   1       1.921  -1.395   0.613  0.00  0.00     0.027 A 
ATOM      5  C5  DEN d   1       1.860  -1.332  -0.762  0.00  0.00    -0.003 A 
ATOM      6  C6  DEN d   1       0.826  -0.720  -1.419  0.00  0.00     0.001 A 
ATOM      7  C7  DEN d   1      -0.167  -0.107  -0.701  0.00  0.00     0.017 A 
ATOM      8  C8  DEN d   1      -0.116  -0.173   0.685  0.00  0.00    -0.094 A 
ATOM      9  C9  DEN d   1       0.944  -0.786   1.331  0.00  0.00    -0.072 A 
ENDROOT
TORSDOF 0
ENDMDL
