MODEL 1
REMARK minimizedAffinity 1.75542974
REMARK minimizedRMSD -1
REMARK  0 active torsions:
REMARK  status: ('A' for Active; 'I' for Inactive)
ROOT
ATOM      1  C2' OXE d   1       2.422   5.476  -2.704  0.00  0.00     0.078 C 
ATOM      2  C1' OXE d   1       5.015   5.538  -1.631  0.00  0.00     0.078 C 
ATOM      3  C1  OXE d   1       4.867   5.700  -3.123  0.00  0.00    -0.078 A 
ATOM      4  C2  OXE d   1       3.598   5.621  -3.645  0.00  0.00    -0.078 A 
ATOM      5  C3  OXE d   1       3.400   5.819  -5.009  0.00  0.00     0.003 A 
ATOM      6  C4  OXE d   1       4.495   5.943  -5.873  0.00  0.00    -0.002 A 
ATOM      7  C5  OXE d   1       5.798   5.986  -5.367  0.00  0.00    -0.002 A 
ATOM      8  C6  OXE d   1       5.998   5.909  -3.993  0.00  0.00     0.003 A 
ENDROOT
TORSDOF 0
ENDMDL
