MODEL 1
REMARK minimizedAffinity 3.28380966
REMARK minimizedRMSD -1
REMARK  0 active torsions:
REMARK  status: ('A' for Active; 'I' for Inactive)
ROOT
ATOM      1  C2' OXE d   1       2.305   4.328  -2.824  0.00  0.00     0.078 C 
ATOM      2  C1' OXE d   1       4.356   5.594  -1.384  0.00  0.00     0.078 C 
ATOM      3  C1  OXE d   1       4.587   5.327  -2.851  0.00  0.00    -0.078 A 
ATOM      4  C2  OXE d   1       3.597   4.666  -3.537  0.00  0.00    -0.078 A 
ATOM      5  C3  OXE d   1       3.736   4.443  -4.904  0.00  0.00     0.003 A 
ATOM      6  C4  OXE d   1       4.937   4.750  -5.553  0.00  0.00    -0.002 A 
ATOM      7  C5  OXE d   1       5.974   5.388  -4.864  0.00  0.00    -0.002 A 
ATOM      8  C6  OXE d   1       5.799   5.722  -3.526  0.00  0.00     0.003 A 
ENDROOT
TORSDOF 0
ENDMDL
