MODEL 1
REMARK minimizedAffinity 9.17282009
REMARK minimizedRMSD -1
REMARK  0 active torsions:
REMARK  status: ('A' for Active; 'I' for Inactive)
ROOT
ATOM      1  C2' OXE d   1      -0.377  -1.315  -4.431  0.00  0.00     0.078 C 
ATOM      2  C1' OXE d   1       2.145  -2.150  -3.526  0.00  0.00     0.078 C 
ATOM      3  C1  OXE d   1       1.033  -2.047  -2.512  0.00  0.00    -0.078 A 
ATOM      4  C2  OXE d   1      -0.186  -1.592  -2.955  0.00  0.00    -0.078 A 
ATOM      5  C3  OXE d   1      -1.260  -1.530  -2.073  0.00  0.00     0.003 A 
ATOM      6  C4  OXE d   1      -1.072  -1.779  -0.708  0.00  0.00    -0.002 A 
ATOM      7  C5  OXE d   1       0.172  -2.204  -0.229  0.00  0.00    -0.002 A 
ATOM      8  C6  OXE d   1       1.221  -2.384  -1.123  0.00  0.00     0.003 A 
ENDROOT
TORSDOF 0
ENDMDL
