MODEL 1
REMARK minimizedAffinity 24.603447
REMARK minimizedRMSD -1
REMARK  0 active torsions:
REMARK  status: ('A' for Active; 'I' for Inactive)
ROOT
ATOM      1  C2' OXE d   1      -1.971  -2.092  -0.126  0.00  0.00     0.078 C 
ATOM      2  C1' OXE d   1       0.775  -1.678  -0.538  0.00  0.00     0.078 C 
ATOM      3  C1  OXE d   1      -0.096  -1.877  -1.752  0.00  0.00    -0.078 A 
ATOM      4  C2  OXE d   1      -1.431  -2.125  -1.539  0.00  0.00    -0.078 A 
ATOM      5  C3  OXE d   1      -2.289  -2.262  -2.627  0.00  0.00     0.003 A 
ATOM      6  C4  OXE d   1      -1.780  -2.301  -3.931  0.00  0.00    -0.002 A 
ATOM      7  C5  OXE d   1      -0.418  -2.090  -4.168  0.00  0.00    -0.002 A 
ATOM      8  C6  OXE d   1       0.429  -1.834  -3.095  0.00  0.00     0.003 A 
ENDROOT
TORSDOF 0
ENDMDL
