MODEL 1
REMARK minimizedAffinity 12.0744267
REMARK minimizedRMSD -1
REMARK  0 active torsions:
REMARK  status: ('A' for Active; 'I' for Inactive)
ROOT
ATOM      1  C2' OXE d   1       0.646  -3.288   0.445  0.00  0.00     0.078 C 
ATOM      2  C1' OXE d   1      -1.687  -1.800  -0.030  0.00  0.00     0.078 C 
ATOM      3  C1  OXE d   1      -0.694  -1.931  -1.158  0.00  0.00    -0.078 A 
ATOM      4  C2  OXE d   1       0.466  -2.621  -0.902  0.00  0.00    -0.078 A 
ATOM      5  C3  OXE d   1       1.391  -2.818  -1.923  0.00  0.00     0.003 A 
ATOM      6  C4  OXE d   1       1.222  -2.189  -3.163  0.00  0.00    -0.002 A 
ATOM      7  C5  OXE d   1       0.066  -1.448  -3.432  0.00  0.00    -0.002 A 
ATOM      8  C6  OXE d   1      -0.919  -1.345  -2.456  0.00  0.00     0.003 A 
ENDROOT
TORSDOF 0
ENDMDL
