MODEL 1
REMARK minimizedAffinity 18.1535187
REMARK minimizedRMSD -1
REMARK  0 active torsions:
REMARK  status: ('A' for Active; 'I' for Inactive)
ROOT
ATOM      1  C2' OXE d   1       2.112  -1.590   5.177  0.00  0.00     0.078 C 
ATOM      2  C1' OXE d   1       3.144  -1.666   2.568  0.00  0.00     0.078 C 
ATOM      3  C1  OXE d   1       3.977  -2.269   3.671  0.00  0.00    -0.078 A 
ATOM      4  C2  OXE d   1       3.485  -2.185   4.952  0.00  0.00    -0.078 A 
ATOM      5  C3  OXE d   1       4.187  -2.774   6.000  0.00  0.00     0.003 A 
ATOM      6  C4  OXE d   1       5.461  -3.313   5.784  0.00  0.00    -0.002 A 
ATOM      7  C5  OXE d   1       5.998  -3.372   4.494  0.00  0.00    -0.002 A 
ATOM      8  C6  OXE d   1       5.252  -2.894   3.423  0.00  0.00     0.003 A 
ENDROOT
TORSDOF 0
ENDMDL
