MODEL 1
REMARK minimizedAffinity 0.544736445
REMARK minimizedRMSD -1
REMARK  0 active torsions:
REMARK  status: ('A' for Active; 'I' for Inactive)
ROOT
ATOM      1  C2' OXE d   1       0.497  -2.397   0.204  0.00  0.00     0.078 C 
ATOM      2  C1' OXE d   1       1.139  -2.347  -2.528  0.00  0.00     0.078 C 
ATOM      3  C1  OXE d   1      -0.318  -2.267  -2.146  0.00  0.00    -0.078 A 
ATOM      4  C2  OXE d   1      -0.626  -2.339  -0.809  0.00  0.00    -0.078 A 
ATOM      5  C3  OXE d   1      -1.950  -2.214  -0.399  0.00  0.00     0.003 A 
ATOM      6  C4  OXE d   1      -2.983  -2.171  -1.343  0.00  0.00    -0.002 A 
ATOM      7  C5  OXE d   1      -2.694  -2.136  -2.711  0.00  0.00    -0.002 A 
ATOM      8  C6  OXE d   1      -1.367  -2.141  -3.127  0.00  0.00     0.003 A 
ENDROOT
TORSDOF 0
ENDMDL
