MODEL 1
REMARK minimizedAffinity 6.73715878
REMARK minimizedRMSD -1
REMARK  0 active torsions:
REMARK  status: ('A' for Active; 'I' for Inactive)
ROOT
ATOM      1  C2' OXE d   1       2.737   6.000  -4.146  0.00  0.00     0.078 C 
ATOM      2  C1' OXE d   1       4.256   3.854  -5.131  0.00  0.00     0.078 C 
ATOM      3  C1  OXE d   1       4.614   4.406  -3.774  0.00  0.00    -0.078 A 
ATOM      4  C2  OXE d   1       3.896   5.486  -3.320  0.00  0.00    -0.078 A 
ATOM      5  C3  OXE d   1       4.150   5.999  -2.051  0.00  0.00     0.003 A 
ATOM      6  C4  OXE d   1       5.230   5.525  -1.298  0.00  0.00    -0.002 A 
ATOM      7  C5  OXE d   1       6.000   4.451  -1.758  0.00  0.00    -0.002 A 
ATOM      8  C6  OXE d   1       5.679   3.854  -2.973  0.00  0.00     0.003 A 
ENDROOT
TORSDOF 0
ENDMDL
