MODEL 1
REMARK minimizedAffinity 18.1241417
REMARK minimizedRMSD -1
REMARK  0 active torsions:
REMARK  status: ('A' for Active; 'I' for Inactive)
ROOT
ATOM      1  C2' OXE d   1       0.444  -2.720   0.725  0.00  0.00     0.078 C 
ATOM      2  C1' OXE d   1      -1.697  -1.048   0.020  0.00  0.00     0.078 C 
ATOM      3  C1  OXE d   1      -0.924  -1.708  -1.094  0.00  0.00    -0.078 A 
ATOM      4  C2  OXE d   1       0.151  -2.488  -0.742  0.00  0.00    -0.078 A 
ATOM      5  C3  OXE d   1       0.865  -3.164  -1.727  0.00  0.00     0.003 A 
ATOM      6  C4  OXE d   1       0.594  -2.935  -3.082  0.00  0.00    -0.002 A 
ATOM      7  C5  OXE d   1      -0.472  -2.113  -3.463  0.00  0.00    -0.002 A 
ATOM      8  C6  OXE d   1      -1.266  -1.527  -2.483  0.00  0.00     0.003 A 
ENDROOT
TORSDOF 0
ENDMDL
