MODEL 1
REMARK minimizedAffinity 14.0098019
REMARK minimizedRMSD -1
REMARK  0 active torsions:
REMARK  status: ('A' for Active; 'I' for Inactive)
ROOT
ATOM      1  C2' OXE d   1       2.409  -2.745  -4.473  0.00  0.00     0.078 C 
ATOM      2  C1' OXE d   1       2.739  -0.213  -5.638  0.00  0.00     0.078 C 
ATOM      3  C1  OXE d   1       3.801  -0.690  -4.680  0.00  0.00    -0.078 A 
ATOM      4  C2  OXE d   1       3.608  -1.911  -4.078  0.00  0.00    -0.078 A 
ATOM      5  C3  OXE d   1       4.584  -2.422  -3.228  0.00  0.00     0.003 A 
ATOM      6  C4  OXE d   1       5.685  -1.639  -2.860  0.00  0.00    -0.002 A 
ATOM      7  C5  OXE d   1       5.880  -0.377  -3.431  0.00  0.00    -0.002 A 
ATOM      8  C6  OXE d   1       4.972   0.094  -4.372  0.00  0.00     0.003 A 
ENDROOT
TORSDOF 0
ENDMDL
