MODEL 1
REMARK minimizedAffinity 9.52289295
REMARK minimizedRMSD -1
REMARK  0 active torsions:
REMARK  status: ('A' for Active; 'I' for Inactive)
ROOT
ATOM      1  C2' OXE d   1       2.875   3.750  -0.570  0.00  0.00     0.078 C 
ATOM      2  C1' OXE d   1       1.495   5.228  -2.518  0.00  0.00     0.078 C 
ATOM      3  C1  OXE d   1       0.954   5.241  -1.110  0.00  0.00    -0.078 A 
ATOM      4  C2  OXE d   1       1.609   4.478  -0.174  0.00  0.00    -0.078 A 
ATOM      5  C3  OXE d   1       1.184   4.498   1.152  0.00  0.00     0.003 A 
ATOM      6  C4  OXE d   1       0.006   5.166   1.508  0.00  0.00    -0.002 A 
ATOM      7  C5  OXE d   1      -0.698   5.918   0.562  0.00  0.00    -0.002 A 
ATOM      8  C6  OXE d   1      -0.215   6.000  -0.739  0.00  0.00     0.003 A 
ENDROOT
TORSDOF 0
ENDMDL
