MODEL 1
REMARK minimizedAffinity 12.6472912
REMARK minimizedRMSD -1
REMARK  0 active torsions:
REMARK  status: ('A' for Active; 'I' for Inactive)
ROOT
ATOM      1  C2' OXE d   1       0.499  -3.021   1.175  0.00  0.00     0.078 C 
ATOM      2  C1' OXE d   1       0.555  -5.048  -0.766  0.00  0.00     0.078 C 
ATOM      3  C1  OXE d   1       0.082  -3.681  -1.191  0.00  0.00    -0.078 A 
ATOM      4  C2  OXE d   1       0.013  -2.707  -0.224  0.00  0.00    -0.078 A 
ATOM      5  C3  OXE d   1      -0.365  -1.414  -0.573  0.00  0.00     0.003 A 
ATOM      6  C4  OXE d   1      -0.823  -1.134  -1.866  0.00  0.00    -0.002 A 
ATOM      7  C5  OXE d   1      -0.799  -2.122  -2.857  0.00  0.00    -0.002 A 
ATOM      8  C6  OXE d   1      -0.310  -3.386  -2.547  0.00  0.00     0.003 A 
ENDROOT
TORSDOF 0
ENDMDL
