MODEL 1
REMARK minimizedAffinity 7.12501049
REMARK minimizedRMSD -1
REMARK  0 active torsions:
REMARK  status: ('A' for Active; 'I' for Inactive)
ROOT
ATOM      1  C2' OXE d   1      -2.087  -2.452  -3.693  0.00  0.00     0.078 C 
ATOM      2  C1' OXE d   1       0.576  -3.206  -3.222  0.00  0.00     0.078 C 
ATOM      3  C1  OXE d   1      -0.195  -2.594  -2.079  0.00  0.00    -0.078 A 
ATOM      4  C2  OXE d   1      -1.482  -2.185  -2.331  0.00  0.00    -0.078 A 
ATOM      5  C3  OXE d   1      -2.255  -1.664  -1.298  0.00  0.00     0.003 A 
ATOM      6  C4  OXE d   1      -1.685  -1.410  -0.044  0.00  0.00    -0.002 A 
ATOM      7  C5  OXE d   1      -0.363  -1.783   0.222  0.00  0.00    -0.002 A 
ATOM      8  C6  OXE d   1       0.381  -2.413  -0.769  0.00  0.00     0.003 A 
ENDROOT
TORSDOF 0
ENDMDL
