MODEL 1
REMARK minimizedAffinity 12.8540287
REMARK minimizedRMSD -1
REMARK  0 active torsions:
REMARK  status: ('A' for Active; 'I' for Inactive)
ROOT
ATOM      1  C2' OXE d   1       1.225  -3.411  -3.230  0.00  0.00     0.078 C 
ATOM      2  C1' OXE d   1       0.761  -4.098  -0.547  0.00  0.00     0.078 C 
ATOM      3  C1  OXE d   1       0.077  -2.867  -1.087  0.00  0.00    -0.078 A 
ATOM      4  C2  OXE d   1       0.347  -2.512  -2.387  0.00  0.00    -0.078 A 
ATOM      5  C3  OXE d   1      -0.301  -1.417  -2.951  0.00  0.00     0.003 A 
ATOM      6  C4  OXE d   1      -1.104  -0.585  -2.162  0.00  0.00    -0.002 A 
ATOM      7  C5  OXE d   1      -1.361  -0.906  -0.825  0.00  0.00    -0.002 A 
ATOM      8  C6  OXE d   1      -0.813  -2.064  -0.285  0.00  0.00     0.003 A 
ENDROOT
TORSDOF 0
ENDMDL
