MODEL 1
REMARK minimizedAffinity 12.9027977
REMARK minimizedRMSD -1
REMARK  0 active torsions:
REMARK  status: ('A' for Active; 'I' for Inactive)
ROOT
ATOM      1  C2' OXE d   1       0.690  -2.222  -0.042  0.00  0.00     0.078 C 
ATOM      2  C1' OXE d   1      -1.229  -0.436  -1.046  0.00  0.00     0.078 C 
ATOM      3  C1  OXE d   1      -1.091  -1.775  -1.726  0.00  0.00    -0.078 A 
ATOM      4  C2  OXE d   1      -0.118  -2.625  -1.257  0.00  0.00    -0.078 A 
ATOM      5  C3  OXE d   1       0.014  -3.894  -1.812  0.00  0.00     0.003 A 
ATOM      6  C4  OXE d   1      -0.730  -4.255  -2.942  0.00  0.00    -0.002 A 
ATOM      7  C5  OXE d   1      -1.699  -3.389  -3.460  0.00  0.00    -0.002 A 
ATOM      8  C6  OXE d   1      -1.921  -2.165  -2.838  0.00  0.00     0.003 A 
ENDROOT
TORSDOF 0
ENDMDL
