MODEL 1
REMARK minimizedAffinity 6.19757128
REMARK minimizedRMSD -1
REMARK  0 active torsions:
REMARK  status: ('A' for Active; 'I' for Inactive)
ROOT
ATOM      1  C2' OXE d   1       0.399  -3.958   0.373  0.00  0.00     0.078 C 
ATOM      2  C1' OXE d   1       0.482  -5.999  -1.552  0.00  0.00     0.078 C 
ATOM      3  C1  OXE d   1       0.041  -4.628  -1.999  0.00  0.00    -0.078 A 
ATOM      4  C2  OXE d   1      -0.041  -3.647  -1.041  0.00  0.00    -0.078 A 
ATOM      5  C3  OXE d   1      -0.389  -2.350  -1.410  0.00  0.00     0.003 A 
ATOM      6  C4  OXE d   1      -0.804  -2.073  -2.718  0.00  0.00    -0.002 A 
ATOM      7  C5  OXE d   1      -0.766  -3.067  -3.701  0.00  0.00    -0.002 A 
ATOM      8  C6  OXE d   1      -0.306  -4.337  -3.368  0.00  0.00     0.003 A 
ENDROOT
TORSDOF 0
ENDMDL
