MODEL 1
REMARK minimizedAffinity 15.6804276
REMARK minimizedRMSD -1
REMARK  0 active torsions:
REMARK  status: ('A' for Active; 'I' for Inactive)
ROOT
ATOM      1  C2' OXE d   1       4.962  -2.225  -2.023  0.00  0.00     0.078 C 
ATOM      2  C1' OXE d   1       4.452  -3.898  -4.219  0.00  0.00     0.078 C 
ATOM      3  C1  OXE d   1       4.682  -2.432  -4.490  0.00  0.00    -0.078 A 
ATOM      4  C2  OXE d   1       4.885  -1.613  -3.405  0.00  0.00    -0.078 A 
ATOM      5  C3  OXE d   1       5.156  -0.262  -3.603  0.00  0.00     0.003 A 
ATOM      6  C4  OXE d   1       5.072   0.298  -4.884  0.00  0.00    -0.002 A 
ATOM      7  C5  OXE d   1       4.828  -0.512  -5.998  0.00  0.00    -0.002 A 
ATOM      8  C6  OXE d   1       4.673  -1.883  -5.823  0.00  0.00     0.003 A 
ENDROOT
TORSDOF 0
ENDMDL
