MODEL 1
REMARK minimizedAffinity 13.9761744
REMARK minimizedRMSD -1
REMARK  0 active torsions:
REMARK  status: ('A' for Active; 'I' for Inactive)
ROOT
ATOM      1  C2' OXE d   1       0.990  -3.663  -4.140  0.00  0.00     0.078 C 
ATOM      2  C1' OXE d   1      -1.787  -3.293  -4.320  0.00  0.00     0.078 C 
ATOM      3  C1  OXE d   1      -1.066  -2.658  -3.157  0.00  0.00    -0.078 A 
ATOM      4  C2  OXE d   1       0.285  -2.883  -3.051  0.00  0.00    -0.078 A 
ATOM      5  C3  OXE d   1       1.007  -2.276  -2.028  0.00  0.00     0.003 A 
ATOM      6  C4  OXE d   1       0.346  -1.564  -1.020  0.00  0.00    -0.002 A 
ATOM      7  C5  OXE d   1      -1.036  -1.356  -1.087  0.00  0.00    -0.002 A 
ATOM      8  C6  OXE d   1      -1.749  -1.859  -2.169  0.00  0.00     0.003 A 
ENDROOT
TORSDOF 0
ENDMDL
