MODEL 1
REMARK minimizedAffinity 1.0048815
REMARK minimizedRMSD -1
REMARK  0 active torsions:
REMARK  status: ('A' for Active; 'I' for Inactive)
ROOT
ATOM      1  C2' OXE d   1       0.004  -2.091  -1.711  0.00  0.00     0.078 C 
ATOM      2  C1' OXE d   1       2.254  -2.588  -3.313  0.00  0.00     0.078 C 
ATOM      3  C1  OXE d   1       0.896  -2.675  -3.962  0.00  0.00    -0.078 A 
ATOM      4  C2  OXE d   1      -0.202  -2.476  -3.160  0.00  0.00    -0.078 A 
ATOM      5  C3  OXE d   1      -1.477  -2.491  -3.719  0.00  0.00     0.003 A 
ATOM      6  C4  OXE d   1      -1.659  -2.858  -5.058  0.00  0.00    -0.002 A 
ATOM      7  C5  OXE d   1      -0.556  -3.104  -5.883  0.00  0.00    -0.002 A 
ATOM      8  C6  OXE d   1       0.727  -2.975  -5.362  0.00  0.00     0.003 A 
ENDROOT
TORSDOF 0
ENDMDL
