MODEL 1
REMARK minimizedAffinity 9.9029932
REMARK minimizedRMSD -1
REMARK  0 active torsions:
REMARK  status: ('A' for Active; 'I' for Inactive)
ROOT
ATOM      1  C2' OXE d   1      -1.443  -2.537  -4.062  0.00  0.00     0.078 C 
ATOM      2  C1' OXE d   1       0.887  -3.823  -3.170  0.00  0.00     0.078 C 
ATOM      3  C1  OXE d   1       0.105  -3.010  -2.169  0.00  0.00    -0.078 A 
ATOM      4  C2  OXE d   1      -1.008  -2.346  -2.625  0.00  0.00    -0.078 A 
ATOM      5  C3  OXE d   1      -1.796  -1.627  -1.731  0.00  0.00     0.003 A 
ATOM      6  C4  OXE d   1      -1.381  -1.448  -0.406  0.00  0.00    -0.002 A 
ATOM      7  C5  OXE d   1      -0.229  -2.082   0.070  0.00  0.00    -0.002 A 
ATOM      8  C6  OXE d   1       0.501  -2.900  -0.786  0.00  0.00     0.003 A 
ENDROOT
TORSDOF 0
ENDMDL
