MODEL 1
REMARK minimizedAffinity -1.18946576
REMARK minimizedRMSD -1
REMARK  0 active torsions:
REMARK  status: ('A' for Active; 'I' for Inactive)
ROOT
ATOM      1  O1  BZF d   1      -0.596   1.565   0.382  0.00  0.00    -0.204 OA
ATOM      2  C2  BZF d   1       0.009   2.239  -0.661  0.00  0.00     0.174 A 
ATOM      3  C3  BZF d   1       0.757   1.398  -1.404  0.00  0.00    -0.012 A 
ATOM      4  C3A BZF d   1       0.537   0.101  -0.840  0.00  0.00    -0.107 A 
ATOM      5  C4  BZF d   1       0.992  -1.148  -1.152  0.00  0.00     0.055 A 
ATOM      6  C5  BZF d   1       0.645  -2.195  -0.359  0.00  0.00    -0.016 A 
ATOM      7  C6  BZF d   1      -0.150  -2.028   0.756  0.00  0.00     0.022 A 
ATOM      8  C7  BZF d   1      -0.630  -0.809   1.103  0.00  0.00     0.029 A 
ATOM      9  C7A BZF d   1      -0.308   0.245   0.284  0.00  0.00     0.058 A 
ENDROOT
TORSDOF 0
ENDMDL
