MODEL 1
REMARK minimizedAffinity -6.05236578
REMARK minimizedRMSD -1
REMARK  0 active torsions:
REMARK  status: ('A' for Active; 'I' for Inactive)
ROOT
ATOM      1  O1  BZF d   1       0.003   0.093  -1.129  0.00  0.00    -0.204 OA
ATOM      2  C2  BZF d   1      -0.369   0.774   0.014  0.00  0.00     0.174 A 
ATOM      3  C3  BZF d   1      -0.679  -0.088   1.004  0.00  0.00    -0.012 A 
ATOM      4  C3A BZF d   1      -0.400  -1.387   0.473  0.00  0.00    -0.107 A 
ATOM      5  C4  BZF d   1      -0.493  -2.650   0.984  0.00  0.00     0.055 A 
ATOM      6  C5  BZF d   1      -0.214  -3.710   0.181  0.00  0.00    -0.016 A 
ATOM      7  C6  BZF d   1       0.155  -3.544  -1.138  0.00  0.00     0.022 A 
ATOM      8  C7  BZF d   1       0.265  -2.311  -1.689  0.00  0.00     0.029 A 
ATOM      9  C7A BZF d   1       0.016  -1.236  -0.870  0.00  0.00     0.058 A 
ENDROOT
TORSDOF 0
ENDMDL
