MODEL 1
REMARK minimizedAffinity -1.81245565
REMARK minimizedRMSD -1
REMARK  0 active torsions:
REMARK  status: ('A' for Active; 'I' for Inactive)
ROOT
ATOM      1  O1  BZF d   1      -0.031  -2.205  -0.553  0.00  0.00    -0.204 OA
ATOM      2  C2  BZF d   1      -0.627  -2.682   0.598  0.00  0.00     0.174 A 
ATOM      3  C3  BZF d   1      -1.008  -1.665   1.397  0.00  0.00    -0.012 A 
ATOM      4  C3A BZF d   1      -0.708  -0.476   0.660  0.00  0.00    -0.107 A 
ATOM      5  C4  BZF d   1      -0.872   0.855   0.919  0.00  0.00     0.055 A 
ATOM      6  C5  BZF d   1      -0.407   1.764   0.021  0.00  0.00    -0.016 A 
ATOM      7  C6  BZF d   1       0.229   1.378  -1.140  0.00  0.00     0.022 A 
ATOM      8  C7  BZF d   1       0.410   0.070  -1.442  0.00  0.00     0.029 A 
ATOM      9  C7A BZF d   1      -0.088  -0.852  -0.554  0.00  0.00     0.058 A 
ENDROOT
TORSDOF 0
ENDMDL
