MODEL 1
REMARK minimizedAffinity -1.82141483
REMARK minimizedRMSD -1
REMARK  0 active torsions:
REMARK  status: ('A' for Active; 'I' for Inactive)
ROOT
ATOM      1  O1  BZF d   1       0.346  -2.318  -0.609  0.00  0.00    -0.204 OA
ATOM      2  C2  BZF d   1      -0.391  -2.949   0.374  0.00  0.00     0.174 A 
ATOM      3  C3  BZF d   1      -0.903  -2.050   1.240  0.00  0.00    -0.012 A 
ATOM      4  C3A BZF d   1      -0.535  -0.771   0.715  0.00  0.00    -0.107 A 
ATOM      5  C4  BZF d   1      -0.765   0.512   1.122  0.00  0.00     0.055 A 
ATOM      6  C5  BZF d   1      -0.204   1.536   0.427  0.00  0.00    -0.016 A 
ATOM      7  C6  BZF d   1       0.595   1.314  -0.675  0.00  0.00     0.022 A 
ATOM      8  C7  BZF d   1       0.848   0.059  -1.120  0.00  0.00     0.029 A 
ATOM      9  C7A BZF d   1       0.256  -0.977  -0.439  0.00  0.00     0.058 A 
ENDROOT
TORSDOF 0
ENDMDL
