MODEL 1
REMARK minimizedAffinity -3.2074852
REMARK minimizedRMSD -1
REMARK  0 active torsions:
REMARK  status: ('A' for Active; 'I' for Inactive)
ROOT
ATOM      1  O1  BZF d   1       0.908   0.314  -0.897  0.00  0.00    -0.204 OA
ATOM      2  C2  BZF d   1       0.271   1.381  -0.294  0.00  0.00     0.174 A 
ATOM      3  C3  BZF d   1      -0.662   0.950   0.579  0.00  0.00    -0.012 A 
ATOM      4  C3A BZF d   1      -0.540  -0.476   0.586  0.00  0.00    -0.107 A 
ATOM      5  C4  BZF d   1      -1.185  -1.470   1.265  0.00  0.00     0.055 A 
ATOM      6  C5  BZF d   1      -0.879  -2.765   0.988  0.00  0.00    -0.016 A 
ATOM      7  C6  BZF d   1       0.061  -3.101   0.036  0.00  0.00     0.022 A 
ATOM      8  C7  BZF d   1       0.730  -2.150  -0.660  0.00  0.00     0.029 A 
ATOM      9  C7A BZF d   1       0.447  -0.840  -0.359  0.00  0.00     0.058 A 
ENDROOT
TORSDOF 0
ENDMDL
