MODEL 1
REMARK minimizedAffinity -3.4685955
REMARK minimizedRMSD -1
REMARK  0 active torsions:
REMARK  status: ('A' for Active; 'I' for Inactive)
ROOT
ATOM      1  O1  BZF d   1       0.068  -2.247   0.859  0.00  0.00    -0.204 OA
ATOM      2  C2  BZF d   1       0.940  -2.902   0.011  0.00  0.00     0.174 A 
ATOM      3  C3  BZF d   1       1.337  -2.089  -0.989  0.00  0.00    -0.012 A 
ATOM      4  C3A BZF d   1       0.744  -0.820  -0.699  0.00  0.00    -0.107 A 
ATOM      5  C4  BZF d   1       0.780   0.397  -1.318  0.00  0.00     0.055 A 
ATOM      6  C5  BZF d   1       0.031   1.415  -0.819  0.00  0.00    -0.016 A 
ATOM      7  C6  BZF d   1      -0.769   1.251   0.293  0.00  0.00     0.022 A 
ATOM      8  C7  BZF d   1      -0.834   0.064   0.944  0.00  0.00     0.029 A 
ATOM      9  C7A BZF d   1      -0.053  -0.958   0.461  0.00  0.00     0.058 A 
ENDROOT
TORSDOF 0
ENDMDL
