MODEL 1
REMARK minimizedAffinity -4.63862848
REMARK minimizedRMSD -1
REMARK  0 active torsions:
REMARK  status: ('A' for Active; 'I' for Inactive)
ROOT
ATOM      1  O1  BZF d   1       1.084  -0.487  -2.636  0.00  0.00    -0.204 OA
ATOM      2  C2  BZF d   1       0.726   0.846  -2.567  0.00  0.00     0.174 A 
ATOM      3  C3  BZF d   1       0.224   1.143  -1.351  0.00  0.00    -0.012 A 
ATOM      4  C3A BZF d   1       0.356  -0.057  -0.585  0.00  0.00    -0.107 A 
ATOM      5  C4  BZF d   1       0.049  -0.387   0.704  0.00  0.00     0.055 A 
ATOM      6  C5  BZF d   1       0.236  -1.667   1.121  0.00  0.00    -0.016 A 
ATOM      7  C6  BZF d   1       0.723  -2.642   0.276  0.00  0.00     0.022 A 
ATOM      8  C7  BZF d   1       1.047  -2.362  -1.010  0.00  0.00     0.029 A 
ATOM      9  C7A BZF d   1       0.890  -1.062  -1.425  0.00  0.00     0.058 A 
ENDROOT
TORSDOF 0
ENDMDL
