MODEL 1
REMARK minimizedAffinity -4.95375156
REMARK minimizedRMSD -1
REMARK  0 active torsions:
REMARK  status: ('A' for Active; 'I' for Inactive)
ROOT
ATOM      1  O1  BZF d   1       0.135  -2.876  -0.887  0.00  0.00    -0.204 OA
ATOM      2  C2  BZF d   1      -0.397  -3.688   0.096  0.00  0.00     0.174 A 
ATOM      3  C3  BZF d   1      -0.699  -2.970   1.197  0.00  0.00    -0.012 A 
ATOM      4  C3A BZF d   1      -0.420  -1.611   0.849  0.00  0.00    -0.107 A 
ATOM      5  C4  BZF d   1      -0.534  -0.427   1.521  0.00  0.00     0.055 A 
ATOM      6  C5  BZF d   1      -0.107   0.716   0.922  0.00  0.00    -0.016 A 
ATOM      7  C6  BZF d   1       0.443   0.711  -0.343  0.00  0.00     0.022 A 
ATOM      8  C7  BZF d   1       0.572  -0.438  -1.051  0.00  0.00     0.029 A 
ATOM      9  C7A BZF d   1       0.111  -1.590  -0.461  0.00  0.00     0.058 A 
ENDROOT
TORSDOF 0
ENDMDL
