MODEL 1
REMARK minimizedAffinity 1.45395696
REMARK minimizedRMSD -1
REMARK  0 active torsions:
REMARK  status: ('A' for Active; 'I' for Inactive)
ROOT
ATOM      1  O1  BZF d   1       2.870   2.331   0.023  0.00  0.00    -0.204 OA
ATOM      2  C2  BZF d   1       2.612   3.404   0.853  0.00  0.00     0.174 A 
ATOM      3  C3  BZF d   1       1.348   3.354   1.321  0.00  0.00    -0.012 A 
ATOM      4  C3A BZF d   1       0.810   2.126   0.820  0.00  0.00    -0.107 A 
ATOM      5  C4  BZF d   1      -0.400   1.507   0.954  0.00  0.00     0.055 A 
ATOM      6  C5  BZF d   1      -0.629   0.351   0.277  0.00  0.00    -0.016 A 
ATOM      7  C6  BZF d   1       0.325  -0.210  -0.546  0.00  0.00     0.022 A 
ATOM      8  C7  BZF d   1       1.542   0.365  -0.707  0.00  0.00     0.029 A 
ATOM      9  C7A BZF d   1       1.789   1.515   0.002  0.00  0.00     0.058 A 
ENDROOT
TORSDOF 0
ENDMDL
