MODEL 1
REMARK minimizedAffinity -6.29226255
REMARK minimizedRMSD -1
REMARK  0 active torsions:
REMARK  status: ('A' for Active; 'I' for Inactive)
ROOT
ATOM      1  O1  BZF d   1      -0.056   0.034  -1.872  0.00  0.00    -0.204 OA
ATOM      2  C2  BZF d   1      -0.219   0.826  -0.752  0.00  0.00     0.174 A 
ATOM      3  C3  BZF d   1      -0.369   0.067   0.353  0.00  0.00    -0.012 A 
ATOM      4  C3A BZF d   1      -0.204  -1.282  -0.092  0.00  0.00    -0.107 A 
ATOM      5  C4  BZF d   1      -0.226  -2.490   0.545  0.00  0.00     0.055 A 
ATOM      6  C5  BZF d   1      -0.103  -3.627  -0.190  0.00  0.00    -0.016 A 
ATOM      7  C6  BZF d   1       0.039  -3.593  -1.562  0.00  0.00     0.022 A 
ATOM      8  C7  BZF d   1       0.072  -2.418  -2.237  0.00  0.00     0.029 A 
ATOM      9  C7A BZF d   1      -0.019  -1.267  -1.493  0.00  0.00     0.058 A 
ENDROOT
TORSDOF 0
ENDMDL
