MODEL 1
REMARK minimizedAffinity -2.3069663
REMARK minimizedRMSD -1
REMARK  0 active torsions:
REMARK  status: ('A' for Active; 'I' for Inactive)
ROOT
ATOM      1  O1  BZF d   1       0.860  -2.354  -0.810  0.00  0.00    -0.204 OA
ATOM      2  C2  BZF d   1       0.275  -3.187   0.124  0.00  0.00     0.174 A 
ATOM      3  C3  BZF d   1      -0.571  -2.498   0.917  0.00  0.00    -0.012 A 
ATOM      4  C3A BZF d   1      -0.582  -1.168   0.389  0.00  0.00    -0.107 A 
ATOM      5  C4  BZF d   1      -1.243  -0.026   0.738  0.00  0.00     0.055 A 
ATOM      6  C5  BZF d   1      -0.976   1.124   0.064  0.00  0.00    -0.016 A 
ATOM      7  C6  BZF d   1      -0.051   1.168  -0.958  0.00  0.00     0.022 A 
ATOM      8  C7  BZF d   1       0.626   0.059  -1.344  0.00  0.00     0.029 A 
ATOM      9  C7A BZF d   1       0.334  -1.111  -0.686  0.00  0.00     0.058 A 
ENDROOT
TORSDOF 0
ENDMDL
