MODEL 1
REMARK minimizedAffinity -5.84510994
REMARK minimizedRMSD -1
REMARK  0 active torsions:
REMARK  status: ('A' for Active; 'I' for Inactive)
ROOT
ATOM      1  O1  BZF d   1       0.570  -2.484  -1.016  0.00  0.00    -0.204 OA
ATOM      2  C2  BZF d   1       0.106  -3.330  -0.028  0.00  0.00     0.174 A 
ATOM      3  C3  BZF d   1      -0.516  -2.634   0.945  0.00  0.00    -0.012 A 
ATOM      4  C3A BZF d   1      -0.517  -1.276   0.495  0.00  0.00    -0.107 A 
ATOM      5  C4  BZF d   1      -1.004  -0.113   1.019  0.00  0.00     0.055 A 
ATOM      6  C5  BZF d   1      -0.776   1.054   0.362  0.00  0.00    -0.016 A 
ATOM      7  C6  BZF d   1      -0.061   1.096  -0.817  0.00  0.00     0.022 A 
ATOM      8  C7  BZF d   1       0.438  -0.032  -1.378  0.00  0.00     0.029 A 
ATOM      9  C7A BZF d   1       0.181  -1.217  -0.734  0.00  0.00     0.058 A 
ENDROOT
TORSDOF 0
ENDMDL
