MODEL 1
REMARK minimizedAffinity -4.35013485
REMARK minimizedRMSD -1
REMARK  0 active torsions:
REMARK  status: ('A' for Active; 'I' for Inactive)
ROOT
ATOM      1  O1  BZF d   1       0.069  -1.243  -2.257  0.00  0.00    -0.204 OA
ATOM      2  C2  BZF d   1       0.004  -2.564  -2.657  0.00  0.00     0.174 A 
ATOM      3  C3  BZF d   1      -0.302  -3.364  -1.616  0.00  0.00    -0.012 A 
ATOM      4  C3A BZF d   1      -0.527  -2.480  -0.514  0.00  0.00    -0.107 A 
ATOM      5  C4  BZF d   1      -0.879  -2.676   0.791  0.00  0.00     0.055 A 
ATOM      6  C5  BZF d   1      -0.944  -1.605   1.625  0.00  0.00    -0.016 A 
ATOM      7  C6  BZF d   1      -0.659  -0.327   1.191  0.00  0.00     0.022 A 
ATOM      8  C7  BZF d   1      -0.310  -0.083  -0.096  0.00  0.00     0.029 A 
ATOM      9  C7A BZF d   1      -0.275  -1.158  -0.949  0.00  0.00     0.058 A 
ENDROOT
TORSDOF 0
ENDMDL
