MODEL 1
REMARK minimizedAffinity -4.93680954
REMARK minimizedRMSD -1
REMARK  0 active torsions:
REMARK  status: ('A' for Active; 'I' for Inactive)
ROOT
ATOM      1  O1  BZF d   1       0.363   0.572  -0.665  0.00  0.00    -0.204 OA
ATOM      2  C2  BZF d   1      -0.580   1.201   0.124  0.00  0.00     0.174 A 
ATOM      3  C3  BZF d   1      -1.212   0.310   0.916  0.00  0.00    -0.012 A 
ATOM      4  C3A BZF d   1      -0.564  -0.940   0.668  0.00  0.00    -0.107 A 
ATOM      5  C4  BZF d   1      -0.732  -2.201   1.166  0.00  0.00     0.055 A 
ATOM      6  C5  BZF d   1       0.016  -3.216   0.660  0.00  0.00    -0.016 A 
ATOM      7  C6  BZF d   1       0.936  -3.009  -0.346  0.00  0.00     0.022 A 
ATOM      8  C7  BZF d   1       1.143  -1.775  -0.868  0.00  0.00     0.029 A 
ATOM      9  C7A BZF d   1       0.412  -0.741  -0.336  0.00  0.00     0.058 A 
ENDROOT
TORSDOF 0
ENDMDL
