MODEL 1
REMARK minimizedAffinity -4.13841486
REMARK minimizedRMSD -1
REMARK  0 active torsions:
REMARK  status: ('A' for Active; 'I' for Inactive)
ROOT
ATOM      1  O1  BZF d   1       1.684   0.487   0.693  0.00  0.00    -0.204 OA
ATOM      2  C2  BZF d   1       0.912   1.593   0.393  0.00  0.00     0.174 A 
ATOM      3  C3  BZF d   1      -0.328   1.223   0.012  0.00  0.00    -0.012 A 
ATOM      4  C3A BZF d   1      -0.360  -0.199   0.168  0.00  0.00    -0.107 A 
ATOM      5  C4  BZF d   1      -1.325  -1.144  -0.036  0.00  0.00     0.055 A 
ATOM      6  C5  BZF d   1      -1.012  -2.455   0.140  0.00  0.00    -0.016 A 
ATOM      7  C6  BZF d   1       0.254  -2.856   0.512  0.00  0.00     0.022 A 
ATOM      8  C7  BZF d   1       1.242  -1.955   0.730  0.00  0.00     0.029 A 
ATOM      9  C7A BZF d   1       0.921  -0.628   0.586  0.00  0.00     0.058 A 
ENDROOT
TORSDOF 0
ENDMDL
