MODEL 1
REMARK minimizedAffinity -4.2787447
REMARK minimizedRMSD -1
REMARK  0 active torsions:
REMARK  status: ('A' for Active; 'I' for Inactive)
ROOT
ATOM      1  O1  BZF d   1       1.630   0.406  -0.122  0.00  0.00    -0.204 OA
ATOM      2  C2  BZF d   1       1.145   1.655   0.217  0.00  0.00     0.174 A 
ATOM      3  C3  BZF d   1      -0.100   1.562   0.727  0.00  0.00    -0.012 A 
ATOM      4  C3A BZF d   1      -0.377   0.160   0.791  0.00  0.00    -0.107 A 
ATOM      5  C4  BZF d   1      -1.450  -0.567   1.222  0.00  0.00     0.055 A 
ATOM      6  C5  BZF d   1      -1.433  -1.918   1.080  0.00  0.00    -0.016 A 
ATOM      7  C6  BZF d   1      -0.363  -2.574   0.507  0.00  0.00     0.022 A 
ATOM      8  C7  BZF d   1       0.726  -1.897   0.069  0.00  0.00     0.029 A 
ATOM      9  C7A BZF d   1       0.725  -0.534   0.241  0.00  0.00     0.058 A 
ENDROOT
TORSDOF 0
ENDMDL
