MODEL 1
REMARK minimizedAffinity -3.14796901
REMARK minimizedRMSD -1
REMARK  0 active torsions:
REMARK  status: ('A' for Active; 'I' for Inactive)
ROOT
ATOM      1  O1  BZF d   1       1.374   0.317  -0.616  0.00  0.00    -0.204 OA
ATOM      2  C2  BZF d   1       0.051  -0.077  -0.655  0.00  0.00     0.174 A 
ATOM      3  C3  BZF d   1      -0.743   0.853  -0.087  0.00  0.00    -0.012 A 
ATOM      4  C3A BZF d   1       0.129   1.936   0.251  0.00  0.00    -0.107 A 
ATOM      5  C4  BZF d   1      -0.071   3.157   0.829  0.00  0.00     0.055 A 
ATOM      6  C5  BZF d   1       1.003   3.950   1.086  0.00  0.00    -0.016 A 
ATOM      7  C6  BZF d   1       2.289   3.551   0.784  0.00  0.00     0.022 A 
ATOM      8  C7  BZF d   1       2.536   2.350   0.206  0.00  0.00     0.029 A 
ATOM      9  C7A BZF d   1       1.450   1.561  -0.086  0.00  0.00     0.058 A 
ENDROOT
TORSDOF 0
ENDMDL
