MODEL 1
REMARK minimizedAffinity -4.06866884
REMARK minimizedRMSD -1
REMARK  0 active torsions:
REMARK  status: ('A' for Active; 'I' for Inactive)
ROOT
ATOM      1  O1  BZF d   1      -0.047  -2.402  -0.961  0.00  0.00    -0.204 OA
ATOM      2  C2  BZF d   1      -0.580  -3.171   0.055  0.00  0.00     0.174 A 
ATOM      3  C3  BZF d   1      -0.931  -2.400   1.105  0.00  0.00    -0.012 A 
ATOM      4  C3A BZF d   1      -0.682  -1.056   0.684  0.00  0.00    -0.107 A 
ATOM      5  C4  BZF d   1      -0.847   0.161   1.282  0.00  0.00     0.055 A 
ATOM      6  C5  BZF d   1      -0.438   1.279   0.627  0.00  0.00    -0.016 A 
ATOM      7  C6  BZF d   1       0.144   1.218  -0.622  0.00  0.00     0.022 A 
ATOM      8  C7  BZF d   1       0.324   0.034  -1.257  0.00  0.00     0.029 A 
ATOM      9  C7A BZF d   1      -0.119  -1.095  -0.612  0.00  0.00     0.058 A 
ENDROOT
TORSDOF 0
ENDMDL
