MODEL 1
REMARK minimizedAffinity -3.04918265
REMARK minimizedRMSD -1
REMARK  0 active torsions:
REMARK  status: ('A' for Active; 'I' for Inactive)
ROOT
ATOM      1  O1  BZF d   1      -0.367  -2.706   1.076  0.00  0.00    -0.204 OA
ATOM      2  C2  BZF d   1       0.751  -3.108   0.371  0.00  0.00     0.174 A 
ATOM      3  C3  BZF d   1       1.117  -2.167  -0.522  0.00  0.00    -0.012 A 
ATOM      4  C3A BZF d   1       0.224  -1.071  -0.303  0.00  0.00    -0.107 A 
ATOM      5  C4  BZF d   1       0.095   0.164  -0.871  0.00  0.00     0.055 A 
ATOM      6  C5  BZF d   1      -0.928   0.968  -0.479  0.00  0.00    -0.016 A 
ATOM      7  C6  BZF d   1      -1.841   0.568   0.474  0.00  0.00     0.022 A 
ATOM      8  C7  BZF d   1      -1.752  -0.646   1.070  0.00  0.00     0.029 A 
ATOM      9  C7A BZF d   1      -0.700  -1.448   0.699  0.00  0.00     0.058 A 
ENDROOT
TORSDOF 0
ENDMDL
