MODEL 1
REMARK minimizedAffinity -5.58440208
REMARK minimizedRMSD -1
REMARK  0 active torsions:
REMARK  status: ('A' for Active; 'I' for Inactive)
ROOT
ATOM      1  C   UNL d   1       2.714   0.837  -3.407  0.00  0.00    -0.002 A 
ATOM      2  C1  UNL d   1       3.075  -0.361  -2.806  0.00  0.00     0.010 A 
ATOM      3  C2  UNL d   1       2.256  -0.945  -1.838  0.00  0.00     0.041 A 
ATOM      4  C3  UNL d   1       1.055  -0.300  -1.481  0.00  0.00    -0.075 A 
ATOM      5  S   UNL d   1      -0.105  -0.830  -0.321  0.00  0.00     0.015 SA
ATOM      6  C4  UNL d   1      -1.107   0.521  -0.596  0.00  0.00     0.022 A 
ATOM      7  C5  UNL d   1      -0.584   1.366  -1.547  0.00  0.00     0.026 A 
ATOM      8  C6  UNL d   1       0.670   0.907  -2.073  0.00  0.00    -0.082 A 
ATOM      9  C7  UNL d   1       1.523   1.474  -3.050  0.00  0.00     0.045 A 
ENDROOT
TORSDOF 0
ENDMDL
