MODEL 1
REMARK minimizedAffinity 1.24042666
REMARK minimizedRMSD -1
REMARK  0 active torsions:
REMARK  status: ('A' for Active; 'I' for Inactive)
ROOT
ATOM      1  C   UNL d   1      -2.564   0.586   3.919  0.00  0.00    -0.002 A 
ATOM      2  C1  UNL d   1      -2.080   1.884   3.999  0.00  0.00     0.010 A 
ATOM      3  C2  UNL d   1      -1.248   2.395   3.001  0.00  0.00     0.041 A 
ATOM      4  C3  UNL d   1      -0.909   1.572   1.909  0.00  0.00    -0.075 A 
ATOM      5  S   UNL d   1       0.093   1.985   0.568  0.00  0.00     0.015 SA
ATOM      6  C4  UNL d   1      -0.099   0.448  -0.144  0.00  0.00     0.022 A 
ATOM      7  C5  UNL d   1      -0.905  -0.372   0.610  0.00  0.00     0.026 A 
ATOM      8  C6  UNL d   1      -1.386   0.262   1.805  0.00  0.00    -0.082 A 
ATOM      9  C7  UNL d   1      -2.226  -0.227   2.833  0.00  0.00     0.045 A 
ENDROOT
TORSDOF 0
ENDMDL
