MODEL 1
REMARK minimizedAffinity -5.98673296
REMARK minimizedRMSD -1
REMARK  0 active torsions:
REMARK  status: ('A' for Active; 'I' for Inactive)
ROOT
ATOM      1  C   UNL d   1       3.048   0.526  -2.250  0.00  0.00    -0.002 A 
ATOM      2  C1  UNL d   1       2.230   1.570  -2.661  0.00  0.00     0.010 A 
ATOM      3  C2  UNL d   1       0.952   1.726  -2.122  0.00  0.00     0.041 A 
ATOM      4  C3  UNL d   1       0.505   0.807  -1.152  0.00  0.00    -0.075 A 
ATOM      5  S   UNL d   1      -1.022   0.801  -0.352  0.00  0.00     0.015 SA
ATOM      6  C4  UNL d   1      -0.626  -0.586   0.555  0.00  0.00     0.022 A 
ATOM      7  C5  UNL d   1       0.637  -1.047   0.267  0.00  0.00     0.026 A 
ATOM      8  C6  UNL d   1       1.310  -0.251  -0.721  0.00  0.00    -0.082 A 
ATOM      9  C7  UNL d   1       2.601  -0.383  -1.287  0.00  0.00     0.045 A 
ENDROOT
TORSDOF 0
ENDMDL
