MODEL 1
REMARK minimizedAffinity -3.83206201
REMARK minimizedRMSD -1
REMARK  0 active torsions:
REMARK  status: ('A' for Active; 'I' for Inactive)
ROOT
ATOM      1  C   UNL d   1       2.744  -1.546  -1.024  0.00  0.00    -0.002 A 
ATOM      2  C1  UNL d   1       1.810  -0.990  -0.161  0.00  0.00     0.010 A 
ATOM      3  C2  UNL d   1       1.171   0.209  -0.482  0.00  0.00     0.041 A 
ATOM      4  C3  UNL d   1       1.487   0.845  -1.699  0.00  0.00    -0.075 A 
ATOM      5  S   UNL d   1       0.830   2.320  -2.303  0.00  0.00     0.015 SA
ATOM      6  C4  UNL d   1       1.772   2.246  -3.721  0.00  0.00     0.022 A 
ATOM      7  C5  UNL d   1       2.575   1.130  -3.749  0.00  0.00     0.026 A 
ATOM      8  C6  UNL d   1       2.423   0.304  -2.585  0.00  0.00    -0.082 A 
ATOM      9  C7  UNL d   1       3.055  -0.912  -2.229  0.00  0.00     0.045 A 
ENDROOT
TORSDOF 0
ENDMDL
