MODEL 1
REMARK minimizedAffinity -4.00354481
REMARK minimizedRMSD -1
REMARK  0 active torsions:
REMARK  status: ('A' for Active; 'I' for Inactive)
ROOT
ATOM      1  C   UNL d   1       2.346  -0.150  -2.611  0.00  0.00    -0.002 A 
ATOM      2  C1  UNL d   1       1.666   1.040  -2.823  0.00  0.00     0.010 A 
ATOM      3  C2  UNL d   1       0.534   1.356  -2.069  0.00  0.00     0.041 A 
ATOM      4  C3  UNL d   1       0.095   0.447  -1.086  0.00  0.00    -0.075 A 
ATOM      5  S   UNL d   1      -1.265   0.623  -0.041  0.00  0.00     0.015 SA
ATOM      6  C4  UNL d   1      -0.974  -0.877   0.713  0.00  0.00     0.022 A 
ATOM      7  C5  UNL d   1       0.129  -1.510   0.192  0.00  0.00     0.026 A 
ATOM      8  C6  UNL d   1       0.764  -0.757  -0.852  0.00  0.00    -0.082 A 
ATOM      9  C7  UNL d   1       1.908  -1.049  -1.635  0.00  0.00     0.045 A 
ENDROOT
TORSDOF 0
ENDMDL
