MODEL 1
REMARK minimizedAffinity -4.49897814
REMARK minimizedRMSD -1
REMARK  0 active torsions:
REMARK  status: ('A' for Active; 'I' for Inactive)
ROOT
ATOM      1  C   UNL d   1       1.603   1.142  -2.874  0.00  0.00    -0.002 A 
ATOM      2  C1  UNL d   1       0.588   1.973  -2.420  0.00  0.00     0.010 A 
ATOM      3  C2  UNL d   1      -0.318   1.526  -1.457  0.00  0.00     0.041 A 
ATOM      4  C3  UNL d   1      -0.186   0.218  -0.951  0.00  0.00    -0.075 A 
ATOM      5  S   UNL d   1      -1.179  -0.545   0.235  0.00  0.00     0.015 SA
ATOM      6  C4  UNL d   1      -0.279  -1.990   0.167  0.00  0.00     0.022 A 
ATOM      7  C5  UNL d   1       0.757  -1.911  -0.733  0.00  0.00     0.026 A 
ATOM      8  C6  UNL d   1       0.829  -0.637  -1.391  0.00  0.00    -0.082 A 
ATOM      9  C7  UNL d   1       1.731  -0.155  -2.369  0.00  0.00     0.045 A 
ENDROOT
TORSDOF 0
ENDMDL
