MODEL 1
REMARK minimizedAffinity -4.81172228
REMARK minimizedRMSD -1
REMARK  0 active torsions:
REMARK  status: ('A' for Active; 'I' for Inactive)
ROOT
ATOM      1  C   UNL d   1       3.569   0.157  -2.284  0.00  0.00    -0.002 A 
ATOM      2  C1  UNL d   1       3.016   1.403  -2.545  0.00  0.00     0.010 A 
ATOM      3  C2  UNL d   1       1.801   1.776  -1.966  0.00  0.00     0.041 A 
ATOM      4  C3  UNL d   1       1.146   0.867  -1.111  0.00  0.00    -0.075 A 
ATOM      5  S   UNL d   1      -0.350   1.107  -0.290  0.00  0.00     0.015 SA
ATOM      6  C4  UNL d   1      -0.290  -0.438   0.427  0.00  0.00     0.022 A 
ATOM      7  C5  UNL d   1       0.837  -1.133   0.059  0.00  0.00     0.026 A 
ATOM      8  C6  UNL d   1       1.684  -0.392  -0.833  0.00  0.00    -0.082 A 
ATOM      9  C7  UNL d   1       2.917  -0.741  -1.436  0.00  0.00     0.045 A 
ENDROOT
TORSDOF 0
ENDMDL
