MODEL 1
REMARK minimizedAffinity -5.48647213
REMARK minimizedRMSD -1
REMARK  0 active torsions:
REMARK  status: ('A' for Active; 'I' for Inactive)
ROOT
ATOM      1  C   UNL d   1       3.291   0.408  -1.959  0.00  0.00    -0.002 A 
ATOM      2  C1  UNL d   1       2.620   1.462  -2.564  0.00  0.00     0.010 A 
ATOM      3  C2  UNL d   1       1.275   1.704  -2.279  0.00  0.00     0.041 A 
ATOM      4  C3  UNL d   1       0.608   0.862  -1.367  0.00  0.00    -0.075 A 
ATOM      5  S   UNL d   1      -1.038   0.968  -0.866  0.00  0.00     0.015 SA
ATOM      6  C4  UNL d   1      -0.889  -0.383   0.163  0.00  0.00     0.022 A 
ATOM      7  C5  UNL d   1       0.378  -0.914   0.137  0.00  0.00     0.026 A 
ATOM      8  C6  UNL d   1       1.263  -0.205  -0.745  0.00  0.00    -0.082 A 
ATOM      9  C7  UNL d   1       2.626  -0.425  -1.055  0.00  0.00     0.045 A 
ENDROOT
TORSDOF 0
ENDMDL
