MODEL 1
REMARK minimizedAffinity -5.98685408
REMARK minimizedRMSD -1
REMARK  0 active torsions:
REMARK  status: ('A' for Active; 'I' for Inactive)
ROOT
ATOM      1  C   UNL d   1       3.483  -0.028  -1.873  0.00  0.00    -0.002 A 
ATOM      2  C1  UNL d   1       2.816   0.968  -2.573  0.00  0.00     0.010 A 
ATOM      3  C2  UNL d   1       1.506   1.316  -2.236  0.00  0.00     0.041 A 
ATOM      4  C3  UNL d   1       0.873   0.641  -1.174  0.00  0.00    -0.075 A 
ATOM      5  S   UNL d   1      -0.726   0.901  -0.584  0.00  0.00     0.015 SA
ATOM      6  C4  UNL d   1      -0.561  -0.304   0.610  0.00  0.00     0.022 A 
ATOM      7  C5  UNL d   1       0.678  -0.899   0.574  0.00  0.00     0.026 A 
ATOM      8  C6  UNL d   1       1.525  -0.364  -0.454  0.00  0.00    -0.082 A 
ATOM      9  C7  UNL d   1       2.852  -0.695  -0.820  0.00  0.00     0.045 A 
ENDROOT
TORSDOF 0
ENDMDL
