MODEL 1
REMARK minimizedAffinity 10.6258736
REMARK minimizedRMSD -1
REMARK  2 active torsions:
REMARK  status: ('A' for Active; 'I' for Inactive)
REMARK    1  A    between atoms: C1_2  and  C2_3 
REMARK    2  A    between atoms: C2_3  and  C3_4 
ROOT
ATOM      1  C3  UNL d   1      -1.854   2.257  -2.110  0.00  0.00    -0.075 A 
ATOM      2  C4  UNL d   1      -0.493   2.011  -2.341  0.00  0.00     0.002 A 
ATOM      3  C5  UNL d   1       0.410   1.969  -1.278  0.00  0.00     0.002 A 
ATOM      4  C6  UNL d   1      -0.034   2.183   0.025  0.00  0.00    -0.004 A 
ATOM      5  C7  UNL d   1      -1.381   2.445   0.265  0.00  0.00     0.002 A 
ATOM      6  C8  UNL d   1      -2.287   2.483  -0.797  0.00  0.00     0.002 A 
ENDROOT
BRANCH   1   7
ATOM      7  C2  UNL d   1      -2.841   2.274  -3.253  0.00  0.00     0.056 C 
BRANCH   7   8
ATOM      8  C1  UNL d   1      -3.452   3.652  -3.529  0.00  0.00     0.007 C 
ATOM      9  C   UNL d   1      -2.935   4.292  -4.810  0.00  0.00     0.009 C 
ENDBRANCH   7   8
ENDBRANCH   1   7
TORSDOF 2
ENDMDL
