MODEL 1
REMARK minimizedAffinity 10.9202356
REMARK minimizedRMSD -1
REMARK  2 active torsions:
REMARK  status: ('A' for Active; 'I' for Inactive)
REMARK    1  A    between atoms: C1_2  and  C2_3 
REMARK    2  A    between atoms: C2_3  and  C3_4 
ROOT
ATOM      1  C3  UNL d   1      -1.564   1.656  -1.861  0.00  0.00    -0.075 A 
ATOM      2  C4  UNL d   1      -2.165   0.863  -0.872  0.00  0.00     0.002 A 
ATOM      3  C5  UNL d   1      -3.497   0.467  -0.994  0.00  0.00     0.002 A 
ATOM      4  C6  UNL d   1      -4.246   0.866  -2.099  0.00  0.00    -0.004 A 
ATOM      5  C7  UNL d   1      -3.665   1.667  -3.079  0.00  0.00     0.002 A 
ATOM      6  C8  UNL d   1      -2.331   2.061  -2.961  0.00  0.00     0.002 A 
ENDROOT
BRANCH   1   7
ATOM      7  C2  UNL d   1      -0.114   2.063  -1.749  0.00  0.00     0.056 C 
BRANCH   7   8
ATOM      8  C1  UNL d   1       0.174   3.485  -2.242  0.00  0.00     0.007 C 
ATOM      9  C   UNL d   1       0.904   4.340  -1.215  0.00  0.00     0.009 C 
ENDBRANCH   7   8
ENDBRANCH   1   7
TORSDOF 2
ENDMDL
