MODEL 1
REMARK minimizedAffinity 4.56308556
REMARK minimizedRMSD -1
REMARK  2 active torsions:
REMARK  status: ('A' for Active; 'I' for Inactive)
REMARK    1  A    between atoms: C1_2  and  C2_3 
REMARK    2  A    between atoms: C2_3  and  C3_4 
ROOT
ATOM      1  C3  UNL d   1       0.060   3.864   0.789  0.00  0.00    -0.075 A 
ATOM      2  C4  UNL d   1      -0.781   3.153   1.658  0.00  0.00     0.002 A 
ATOM      3  C5  UNL d   1      -0.377   2.873   2.963  0.00  0.00     0.002 A 
ATOM      4  C6  UNL d   1       0.874   3.290   3.413  0.00  0.00    -0.004 A 
ATOM      5  C7  UNL d   1       1.724   3.982   2.554  0.00  0.00     0.002 A 
ATOM      6  C8  UNL d   1       1.321   4.267   1.249  0.00  0.00     0.002 A 
ENDROOT
BRANCH   1   7
ATOM      7  C2  UNL d   1      -0.382   4.196  -0.616  0.00  0.00     0.056 C 
BRANCH   7   8
ATOM      8  C1  UNL d   1      -0.671   2.968  -1.485  0.00  0.00     0.007 C 
ATOM      9  C   UNL d   1      -0.250   1.658  -0.833  0.00  0.00     0.009 C 
ENDBRANCH   7   8
ENDBRANCH   1   7
TORSDOF 2
ENDMDL
