MODEL 1
REMARK minimizedAffinity -5.79018593
REMARK minimizedRMSD -1
REMARK  0 active torsions:
REMARK  status: ('A' for Active; 'I' for Inactive)
ROOT
ATOM      1  C   UNL d   1      -0.697   0.001  -0.058  0.00  0.00     0.078 C 
ATOM      2  C1  UNL d   1       0.514  -0.608   0.584  0.00  0.00    -0.077 A 
ATOM      3  C2  UNL d   1       0.396  -1.693   1.461  0.00  0.00    -0.001 A 
ATOM      4  C3  UNL d   1       1.531  -2.244   2.059  0.00  0.00     0.003 A 
ATOM      5  C4  UNL d   1       2.791  -1.715   1.787  0.00  0.00    -0.005 A 
ATOM      6  C5  UNL d   1       2.918  -0.634   0.917  0.00  0.00     0.003 A 
ATOM      7  C6  UNL d   1       1.784  -0.082   0.318  0.00  0.00    -0.001 A 
ENDROOT
TORSDOF 0
ENDMDL
