MODEL 1
REMARK minimizedAffinity -5.60155964
REMARK minimizedRMSD -1
REMARK  0 active torsions:
REMARK  status: ('A' for Active; 'I' for Inactive)
ROOT
ATOM      1  C   UNL d   1       1.900  -1.982   3.195  0.00  0.00     0.078 C 
ATOM      2  C1  UNL d   1       2.058  -1.076   2.011  0.00  0.00    -0.077 A 
ATOM      3  C2  UNL d   1       3.307  -0.543   1.672  0.00  0.00    -0.001 A 
ATOM      4  C3  UNL d   1       3.437   0.307   0.572  0.00  0.00     0.003 A 
ATOM      5  C4  UNL d   1       2.321   0.632  -0.197  0.00  0.00    -0.005 A 
ATOM      6  C5  UNL d   1       1.073   0.107   0.134  0.00  0.00     0.003 A 
ATOM      7  C6  UNL d   1       0.942  -0.743   1.233  0.00  0.00    -0.001 A 
ENDROOT
TORSDOF 0
ENDMDL
