MODEL 1
REMARK minimizedAffinity -3.21913981
REMARK minimizedRMSD -1
REMARK  0 active torsions:
REMARK  status: ('A' for Active; 'I' for Inactive)
ROOT
ATOM      1  C   UNL d   1       3.125  -0.111   1.193  0.00  0.00     0.078 C 
ATOM      2  C1  UNL d   1       1.657  -0.092   0.892  0.00  0.00    -0.077 A 
ATOM      3  C2  UNL d   1       1.041   1.056   0.377  0.00  0.00    -0.001 A 
ATOM      4  C3  UNL d   1      -0.329   1.063   0.110  0.00  0.00     0.003 A 
ATOM      5  C4  UNL d   1      -1.095  -0.074   0.355  0.00  0.00    -0.005 A 
ATOM      6  C5  UNL d   1      -0.492  -1.220   0.869  0.00  0.00     0.003 A 
ATOM      7  C6  UNL d   1       0.878  -1.229   1.137  0.00  0.00    -0.001 A 
ENDROOT
TORSDOF 0
ENDMDL
