MODEL 1
REMARK minimizedAffinity -4.21706629
REMARK minimizedRMSD -1
REMARK  0 active torsions:
REMARK  status: ('A' for Active; 'I' for Inactive)
ROOT
ATOM      1  C   UNL d   1      -1.155  -0.265   1.071  0.00  0.00     0.078 C 
ATOM      2  C1  UNL d   1       0.320  -0.196   0.811  0.00  0.00    -0.077 A 
ATOM      3  C2  UNL d   1       1.058  -1.353   0.532  0.00  0.00    -0.001 A 
ATOM      4  C3  UNL d   1       2.432  -1.276   0.301  0.00  0.00     0.003 A 
ATOM      5  C4  UNL d   1       3.081  -0.044   0.349  0.00  0.00    -0.005 A 
ATOM      6  C5  UNL d   1       2.356   1.112   0.628  0.00  0.00     0.003 A 
ATOM      7  C6  UNL d   1       0.982   1.037   0.859  0.00  0.00    -0.001 A 
ENDROOT
TORSDOF 0
ENDMDL
