MODEL 1
REMARK minimizedAffinity -4.30499315
REMARK minimizedRMSD -1
REMARK  0 active torsions:
REMARK  status: ('A' for Active; 'I' for Inactive)
ROOT
ATOM      1  C   UNL d   1       3.348  -0.506   1.133  0.00  0.00     0.078 C 
ATOM      2  C1  UNL d   1       1.898  -0.300   0.813  0.00  0.00    -0.077 A 
ATOM      3  C2  UNL d   1       1.435   0.926   0.321  0.00  0.00    -0.001 A 
ATOM      4  C3  UNL d   1       0.080   1.107   0.037  0.00  0.00     0.003 A 
ATOM      5  C4  UNL d   1      -0.823   0.066   0.242  0.00  0.00    -0.005 A 
ATOM      6  C5  UNL d   1      -0.372  -1.158   0.733  0.00  0.00     0.003 A 
ATOM      7  C6  UNL d   1       0.982  -1.340   1.018  0.00  0.00    -0.001 A 
ENDROOT
TORSDOF 0
ENDMDL
