MODEL 1
REMARK minimizedAffinity -5.9140954
REMARK minimizedRMSD -1
REMARK  0 active torsions:
REMARK  status: ('A' for Active; 'I' for Inactive)
ROOT
ATOM      1  C   UNL d   1      -0.832   0.535  -0.525  0.00  0.00     0.078 C 
ATOM      2  C1  UNL d   1       0.484   0.518   0.194  0.00  0.00    -0.077 A 
ATOM      3  C2  UNL d   1       0.870   1.583   1.017  0.00  0.00    -0.001 A 
ATOM      4  C3  UNL d   1       2.102   1.558   1.673  0.00  0.00     0.003 A 
ATOM      5  C4  UNL d   1       2.958   0.471   1.512  0.00  0.00    -0.005 A 
ATOM      6  C5  UNL d   1       2.584  -0.593   0.694  0.00  0.00     0.003 A 
ATOM      7  C6  UNL d   1       1.352  -0.570   0.037  0.00  0.00    -0.001 A 
ENDROOT
TORSDOF 0
ENDMDL
