MODEL 1
REMARK minimizedAffinity -3.91585207
REMARK minimizedRMSD -1
REMARK  0 active torsions:
REMARK  status: ('A' for Active; 'I' for Inactive)
ROOT
ATOM      1  C   UNL d   1       0.251  -2.067   1.372  0.00  0.00     0.078 C 
ATOM      2  C1  UNL d   1       0.989  -0.901   0.786  0.00  0.00    -0.077 A 
ATOM      3  C2  UNL d   1       2.388  -0.888   0.727  0.00  0.00    -0.001 A 
ATOM      4  C3  UNL d   1       3.063   0.208   0.188  0.00  0.00     0.003 A 
ATOM      5  C4  UNL d   1       2.346   1.302  -0.295  0.00  0.00    -0.005 A 
ATOM      6  C5  UNL d   1       0.954   1.300  -0.239  0.00  0.00     0.003 A 
ATOM      7  C6  UNL d   1       0.278   0.204   0.300  0.00  0.00    -0.001 A 
ENDROOT
TORSDOF 0
ENDMDL
