MODEL 1
REMARK minimizedAffinity 3.60260105
REMARK minimizedRMSD -1
REMARK  0 active torsions:
REMARK  status: ('A' for Active; 'I' for Inactive)
ROOT
ATOM      1  C   UNL d   1      -4.108   2.255  -2.920  0.00  0.00     0.078 C 
ATOM      2  C1  UNL d   1      -4.763   2.634  -1.625  0.00  0.00    -0.077 A 
ATOM      3  C2  UNL d   1      -5.385   1.669  -0.823  0.00  0.00    -0.001 A 
ATOM      4  C3  UNL d   1      -6.000   2.037   0.375  0.00  0.00     0.003 A 
ATOM      5  C4  UNL d   1      -6.000   3.370   0.781  0.00  0.00    -0.005 A 
ATOM      6  C5  UNL d   1      -5.386   4.337  -0.012  0.00  0.00     0.003 A 
ATOM      7  C6  UNL d   1      -4.770   3.971  -1.210  0.00  0.00    -0.001 A 
ENDROOT
TORSDOF 0
ENDMDL
