MODEL 1
REMARK minimizedAffinity 6.31349897
REMARK minimizedRMSD -1
REMARK  0 active torsions:
REMARK  status: ('A' for Active; 'I' for Inactive)
ROOT
ATOM      1  C   UNL d   1       2.136  -1.780   3.665  0.00  0.00     0.020 A 
ATOM      2  C1  UNL d   1       1.501  -0.886   2.803  0.00  0.00     0.020 A 
ATOM      3  C2  UNL d   1       2.255  -0.124   1.908  0.00  0.00     0.034 A 
ATOM      4  C3  UNL d   1       3.648  -0.255   1.873  0.00  0.00     0.017 A 
ATOM      5  C4  UNL d   1       4.284  -1.152   2.738  0.00  0.00     0.017 A 
ATOM      6  C5  UNL d   1       3.524  -1.912   3.632  0.00  0.00     0.034 A 
ATOM      7 Cl   UNL d   1       5.999  -1.367   2.753  0.00  0.00    -0.070 Cl
ATOM      8 Cl1  UNL d   1       4.517   0.719   0.740  0.00  0.00    -0.070 Cl
ENDROOT
TORSDOF 0
ENDMDL
