MODEL 1
REMARK minimizedAffinity 6.3753767
REMARK minimizedRMSD -1
REMARK  0 active torsions:
REMARK  status: ('A' for Active; 'I' for Inactive)
ROOT
ATOM      1  C   UNL d   1       1.217  -4.363   4.704  0.00  0.00     0.020 A 
ATOM      2  C1  UNL d   1       2.422  -4.965   5.060  0.00  0.00     0.020 A 
ATOM      3  C2  UNL d   1       3.605  -4.222   5.050  0.00  0.00     0.034 A 
ATOM      4  C3  UNL d   1       3.584  -2.872   4.682  0.00  0.00     0.017 A 
ATOM      5  C4  UNL d   1       2.373  -2.268   4.324  0.00  0.00     0.017 A 
ATOM      6  C5  UNL d   1       1.192  -3.017   4.336  0.00  0.00     0.034 A 
ATOM      7 Cl   UNL d   1       2.268  -0.607   3.858  0.00  0.00    -0.070 Cl
ATOM      8 Cl1  UNL d   1       5.083  -2.013   4.691  0.00  0.00    -0.070 Cl
ENDROOT
TORSDOF 0
ENDMDL
