MODEL 1
REMARK minimizedAffinity 6.73246622
REMARK minimizedRMSD -1
REMARK  0 active torsions:
REMARK  status: ('A' for Active; 'I' for Inactive)
ROOT
ATOM      1  C   UNL d   1       4.519  -2.627   6.000  0.00  0.00     0.020 A 
ATOM      2  C1  UNL d   1       4.972  -1.780   4.989  0.00  0.00     0.020 A 
ATOM      3  C2  UNL d   1       4.102  -1.374   3.975  0.00  0.00     0.034 A 
ATOM      4  C3  UNL d   1       2.774  -1.816   3.969  0.00  0.00     0.017 A 
ATOM      5  C4  UNL d   1       2.319  -2.666   4.984  0.00  0.00     0.017 A 
ATOM      6  C5  UNL d   1       3.195  -3.068   5.997  0.00  0.00     0.034 A 
ATOM      7 Cl   UNL d   1       0.695  -3.251   5.044  0.00  0.00    -0.070 Cl
ATOM      8 Cl1  UNL d   1       1.753  -1.274   2.684  0.00  0.00    -0.070 Cl
ENDROOT
TORSDOF 0
ENDMDL
