MODEL 1
REMARK minimizedAffinity 8.27324867
REMARK minimizedRMSD -1
REMARK  0 active torsions:
REMARK  status: ('A' for Active; 'I' for Inactive)
ROOT
ATOM      1  C   UNL d   1      -5.977   2.646  -4.614  0.00  0.00     0.020 A 
ATOM      2  C1  UNL d   1      -5.993   2.603  -3.220  0.00  0.00     0.020 A 
ATOM      3  C2  UNL d   1      -5.999   1.373  -2.560  0.00  0.00     0.034 A 
ATOM      4  C3  UNL d   1      -5.991   0.181  -3.293  0.00  0.00     0.017 A 
ATOM      5  C4  UNL d   1      -5.976   0.225  -4.691  0.00  0.00     0.017 A 
ATOM      6  C5  UNL d   1      -5.969   1.459  -5.348  0.00  0.00     0.034 A 
ATOM      7 Cl   UNL d   1      -5.964  -1.204  -5.664  0.00  0.00    -0.070 Cl
ATOM      8 Cl1  UNL d   1      -6.000  -1.305  -2.410  0.00  0.00    -0.070 Cl
ENDROOT
TORSDOF 0
ENDMDL
