MODEL 1
REMARK minimizedAffinity 4.44711447
REMARK minimizedRMSD -1
REMARK  0 active torsions:
REMARK  status: ('A' for Active; 'I' for Inactive)
ROOT
ATOM      1  C   UNL d   1       2.047  -1.382   2.864  0.00  0.00     0.020 A 
ATOM      2  C1  UNL d   1       1.764  -1.877   4.136  0.00  0.00     0.020 A 
ATOM      3  C2  UNL d   1       2.796  -2.369   4.939  0.00  0.00     0.034 A 
ATOM      4  C3  UNL d   1       4.115  -2.366   4.471  0.00  0.00     0.017 A 
ATOM      5  C4  UNL d   1       4.397  -1.869   3.193  0.00  0.00     0.017 A 
ATOM      6  C5  UNL d   1       3.361  -1.378   2.394  0.00  0.00     0.034 A 
ATOM      7 Cl   UNL d   1       6.000  -1.833   2.546  0.00  0.00    -0.070 Cl
ATOM      8 Cl1  UNL d   1       5.340  -2.989   5.517  0.00  0.00    -0.070 Cl
ENDROOT
TORSDOF 0
ENDMDL
