MODEL 1
REMARK minimizedAffinity 10.5048018
REMARK minimizedRMSD -1
REMARK  0 active torsions:
REMARK  status: ('A' for Active; 'I' for Inactive)
ROOT
ATOM      1  C   UNL d   1       2.525   2.349   3.288  0.00  0.00     0.020 A 
ATOM      2  C1  UNL d   1       3.251   1.845   2.209  0.00  0.00     0.020 A 
ATOM      3  C2  UNL d   1       2.828   2.099   0.903  0.00  0.00     0.034 A 
ATOM      4  C3  UNL d   1       1.676   2.859   0.672  0.00  0.00     0.017 A 
ATOM      5  C4  UNL d   1       0.948   3.365   1.755  0.00  0.00     0.017 A 
ATOM      6  C5  UNL d   1       1.376   3.107   3.061  0.00  0.00     0.034 A 
ATOM      7 Cl   UNL d   1      -0.484   4.311   1.549  0.00  0.00    -0.070 Cl
ATOM      8 Cl1  UNL d   1       1.211   3.135  -0.970  0.00  0.00    -0.070 Cl
ENDROOT
TORSDOF 0
ENDMDL
