MODEL 1
REMARK minimizedAffinity 3.75440693
REMARK minimizedRMSD -1
REMARK  0 active torsions:
REMARK  status: ('A' for Active; 'I' for Inactive)
ROOT
ATOM      1  C4' PXY d   1      -4.173  -0.458   0.349  0.00  0.00     0.077 C 
ATOM      2  C1' PXY d   1       1.559  -0.933  -0.230  0.00  0.00     0.077 C 
ATOM      3  C1  PXY d   1       0.055  -0.801  -0.089  0.00  0.00    -0.082 A 
ATOM      4  C2  PXY d   1      -0.506  -0.959   1.099  0.00  0.00     0.003 A 
ATOM      5  C3  PXY d   1      -1.868  -0.875   1.239  0.00  0.00     0.003 A 
ATOM      6  C4  PXY d   1      -2.658  -0.573   0.162  0.00  0.00    -0.082 A 
ATOM      7  C5  PXY d   1      -2.091  -0.400  -1.051  0.00  0.00     0.003 A 
ATOM      8  C6  PXY d   1      -0.711  -0.530  -1.180  0.00  0.00     0.003 A 
ENDROOT
TORSDOF 0
ENDMDL
