MODEL 1
REMARK minimizedAffinity 2.08210158
REMARK minimizedRMSD -1
REMARK  0 active torsions:
REMARK  status: ('A' for Active; 'I' for Inactive)
ROOT
ATOM      1  C4' PXY d   1      -4.901  -0.617   1.286  0.00  0.00     0.077 C 
ATOM      2  C1' PXY d   1       0.785  -0.685   0.244  0.00  0.00     0.077 C 
ATOM      3  C1  PXY d   1      -0.705  -0.678   0.525  0.00  0.00    -0.082 A 
ATOM      4  C2  PXY d   1      -1.529  -0.098  -0.333  0.00  0.00     0.003 A 
ATOM      5  C3  PXY d   1      -2.876  -0.054  -0.078  0.00  0.00     0.003 A 
ATOM      6  C4  PXY d   1      -3.390  -0.656   1.039  0.00  0.00    -0.082 A 
ATOM      7  C5  PXY d   1      -2.557  -1.259   1.913  0.00  0.00     0.003 A 
ATOM      8  C6  PXY d   1      -1.189  -1.257   1.657  0.00  0.00     0.003 A 
ENDROOT
TORSDOF 0
ENDMDL
