MODEL 1
REMARK minimizedAffinity 0.373501718
REMARK minimizedRMSD -1
REMARK  0 active torsions:
REMARK  status: ('A' for Active; 'I' for Inactive)
ROOT
ATOM      1  C4' PXY d   1       2.021  -4.488   1.812  0.00  0.00     0.077 C 
ATOM      2  C1' PXY d   1      -1.290   0.142   0.804  0.00  0.00     0.077 C 
ATOM      3  C1  PXY d   1      -0.423  -1.071   1.082  0.00  0.00    -0.082 A 
ATOM      4  C2  PXY d   1       0.453  -1.469   0.174  0.00  0.00     0.003 A 
ATOM      5  C3  PXY d   1       1.222  -2.583   0.395  0.00  0.00     0.003 A 
ATOM      6  C4  PXY d   1       1.132  -3.264   1.579  0.00  0.00    -0.082 A 
ATOM      7  C5  PXY d   1       0.248  -2.856   2.515  0.00  0.00     0.003 A 
ATOM      8  C6  PXY d   1      -0.553  -1.748   2.254  0.00  0.00     0.003 A 
ENDROOT
TORSDOF 0
ENDMDL
