MODEL 1
REMARK minimizedAffinity -2.88035321
REMARK minimizedRMSD -1
REMARK  0 active torsions:
REMARK  status: ('A' for Active; 'I' for Inactive)
ROOT
ATOM      1  C4' PXY d   1      -3.660   0.011   2.092  0.00  0.00     0.077 C 
ATOM      2  C1' PXY d   1       1.475  -2.618   1.724  0.00  0.00     0.077 C 
ATOM      3  C1  PXY d   1       0.132  -1.920   1.812  0.00  0.00    -0.082 A 
ATOM      4  C2  PXY d   1      -0.605  -2.055   2.902  0.00  0.00     0.003 A 
ATOM      5  C3  PXY d   1      -1.836  -1.456   2.986  0.00  0.00     0.003 A 
ATOM      6  C4  PXY d   1      -2.294  -0.668   1.964  0.00  0.00    -0.082 A 
ATOM      7  C5  PXY d   1      -1.543  -0.517   0.852  0.00  0.00     0.003 A 
ATOM      8  C6  PXY d   1      -0.314  -1.167   0.771  0.00  0.00     0.003 A 
ENDROOT
TORSDOF 0
ENDMDL
