MODEL 1
REMARK minimizedAffinity 0.059497118
REMARK minimizedRMSD -1
REMARK  0 active torsions:
REMARK  status: ('A' for Active; 'I' for Inactive)
ROOT
ATOM      1  C4' PXY d   1       2.302  -4.513   1.940  0.00  0.00     0.077 C 
ATOM      2  C1' PXY d   1      -0.800   0.212   0.729  0.00  0.00     0.077 C 
ATOM      3  C1  PXY d   1       0.012  -1.025   1.059  0.00  0.00    -0.082 A 
ATOM      4  C2  PXY d   1       0.878  -1.494   0.176  0.00  0.00     0.003 A 
ATOM      5  C3  PXY d   1       1.597  -2.630   0.445  0.00  0.00     0.003 A 
ATOM      6  C4  PXY d   1       1.467  -3.262   1.653  0.00  0.00    -0.082 A 
ATOM      7  C5  PXY d   1       0.593  -2.784   2.564  0.00  0.00     0.003 A 
ATOM      8  C6  PXY d   1      -0.157  -1.653   2.255  0.00  0.00     0.003 A 
ENDROOT
TORSDOF 0
ENDMDL
