MODEL 1
REMARK minimizedAffinity 5.05063486
REMARK minimizedRMSD -1
REMARK  0 active torsions:
REMARK  status: ('A' for Active; 'I' for Inactive)
ROOT
ATOM      1  C4' PXY d   1       0.845  -0.852  -0.949  0.00  0.00     0.077 C 
ATOM      2  C1' PXY d   1      -3.245   0.013   3.044  0.00  0.00     0.077 C 
ATOM      3  C1  PXY d   1      -2.180  -0.222   1.991  0.00  0.00    -0.082 A 
ATOM      4  C2  PXY d   1      -0.911   0.020   2.278  0.00  0.00     0.003 A 
ATOM      5  C3  PXY d   1       0.061  -0.157   1.327  0.00  0.00     0.003 A 
ATOM      6  C4  PXY d   1      -0.263  -0.637   0.087  0.00  0.00    -0.082 A 
ATOM      7  C5  PXY d   1      -1.554  -0.897  -0.211  0.00  0.00     0.003 A 
ATOM      8  C6  PXY d   1      -2.530  -0.671   0.755  0.00  0.00     0.003 A 
ENDROOT
TORSDOF 0
ENDMDL
