MODEL 1
REMARK minimizedAffinity -3.19788194
REMARK minimizedRMSD -1
REMARK  0 active torsions:
REMARK  status: ('A' for Active; 'I' for Inactive)
ROOT
ATOM      1  C4' PXY d   1      -2.126  -0.348   1.092  0.00  0.00     0.077 C 
ATOM      2  C1' PXY d   1       2.359  -0.858  -2.519  0.00  0.00     0.077 C 
ATOM      3  C1  PXY d   1       1.190  -0.729  -1.562  0.00  0.00    -0.082 A 
ATOM      4  C2  PXY d   1      -0.046  -0.775  -2.030  0.00  0.00     0.003 A 
ATOM      5  C3  PXY d   1      -1.115  -0.628  -1.183  0.00  0.00     0.003 A 
ATOM      6  C4  PXY d   1      -0.916  -0.484   0.164  0.00  0.00    -0.082 A 
ATOM      7  C5  PXY d   1       0.343  -0.446   0.650  0.00  0.00     0.003 A 
ATOM      8  C6  PXY d   1       1.414  -0.556  -0.231  0.00  0.00     0.003 A 
ENDROOT
TORSDOF 0
ENDMDL
