MODEL 1
REMARK minimizedAffinity -2.22712922
REMARK minimizedRMSD -1
REMARK  0 active torsions:
REMARK  status: ('A' for Active; 'I' for Inactive)
ROOT
ATOM      1  C2' OXE d   1      -0.292   0.381  -3.163  0.00  0.00     0.078 C 
ATOM      2  C1' OXE d   1      -0.442  -1.769  -1.364  0.00  0.00     0.078 C 
ATOM      3  C1  OXE d   1      -0.274  -0.384  -0.792  0.00  0.00    -0.078 A 
ATOM      4  C2  OXE d   1      -0.155   0.657  -1.681  0.00  0.00    -0.078 A 
ATOM      5  C3  OXE d   1      -0.053   1.961  -1.206  0.00  0.00     0.003 A 
ATOM      6  C4  OXE d   1       0.083   2.207   0.166  0.00  0.00    -0.002 A 
ATOM      7  C5  OXE d   1       0.005   1.157   1.087  0.00  0.00    -0.002 A 
ATOM      8  C6  OXE d   1      -0.216  -0.137   0.627  0.00  0.00     0.003 A 
ENDROOT
TORSDOF 0
ENDMDL
