MODEL 1
REMARK minimizedAffinity -2.35981584
REMARK minimizedRMSD -1
REMARK  0 active torsions:
REMARK  status: ('A' for Active; 'I' for Inactive)
ROOT
ATOM      1  C2' OXE d   1       0.046  -2.085  -2.162  0.00  0.00     0.078 C 
ATOM      2  C1' OXE d   1      -0.577   0.475  -3.132  0.00  0.00     0.078 C 
ATOM      3  C1  OXE d   1      -0.286   0.332  -1.659  0.00  0.00    -0.078 A 
ATOM      4  C2  OXE d   1      -0.028  -0.932  -1.185  0.00  0.00    -0.078 A 
ATOM      5  C3  OXE d   1       0.300  -1.111   0.156  0.00  0.00     0.003 A 
ATOM      6  C4  OXE d   1       0.219  -0.041   1.055  0.00  0.00    -0.002 A 
ATOM      7  C5  OXE d   1      -0.081   1.247   0.600  0.00  0.00    -0.002 A 
ATOM      8  C6  OXE d   1      -0.294   1.458  -0.757  0.00  0.00     0.003 A 
ENDROOT
TORSDOF 0
ENDMDL
