MODEL 1
REMARK minimizedAffinity -2.57878017
REMARK minimizedRMSD -1
REMARK  0 active torsions:
REMARK  status: ('A' for Active; 'I' for Inactive)
ROOT
ATOM      1  C2' OXE d   1      -1.506   2.905   1.405  0.00  0.00     0.078 C 
ATOM      2  C1' OXE d   1      -1.375   2.445  -1.361  0.00  0.00     0.078 C 
ATOM      3  C1  OXE d   1      -0.696   1.453  -0.450  0.00  0.00    -0.078 A 
ATOM      4  C2  OXE d   1      -0.725   1.710   0.900  0.00  0.00    -0.078 A 
ATOM      5  C3  OXE d   1      -0.162   0.799   1.788  0.00  0.00     0.003 A 
ATOM      6  C4  OXE d   1       0.567  -0.298   1.312  0.00  0.00    -0.002 A 
ATOM      7  C5  OXE d   1       0.643  -0.557  -0.061  0.00  0.00    -0.002 A 
ATOM      8  C6  OXE d   1      -0.018   0.283  -0.951  0.00  0.00     0.003 A 
ENDROOT
TORSDOF 0
ENDMDL
