MODEL 1
REMARK minimizedAffinity -3.79115129
REMARK minimizedRMSD -1
REMARK  0 active torsions:
REMARK  status: ('A' for Active; 'I' for Inactive)
ROOT
ATOM      1  C2' OXE d   1       1.660  -0.011   1.949  0.00  0.00     0.078 C 
ATOM      2  C1' OXE d   1       0.233  -0.894  -0.302  0.00  0.00     0.078 C 
ATOM      3  C1  OXE d   1      -0.316   0.286   0.461  0.00  0.00    -0.078 A 
ATOM      4  C2  OXE d   1       0.363   0.681   1.588  0.00  0.00    -0.078 A 
ATOM      5  C3  OXE d   1      -0.070   1.798   2.298  0.00  0.00     0.003 A 
ATOM      6  C4  OXE d   1      -1.275   2.427   1.963  0.00  0.00    -0.002 A 
ATOM      7  C5  OXE d   1      -2.004   2.014   0.843  0.00  0.00    -0.002 A 
ATOM      8  C6  OXE d   1      -1.517   0.975   0.058  0.00  0.00     0.003 A 
ENDROOT
TORSDOF 0
ENDMDL
