MODEL 1
REMARK minimizedAffinity -4.50777578
REMARK minimizedRMSD -1
REMARK  0 active torsions:
REMARK  status: ('A' for Active; 'I' for Inactive)
ROOT
ATOM      1  C2' OXE d   1       1.210  -0.000   1.769  0.00  0.00     0.078 C 
ATOM      2  C1' OXE d   1       0.045  -0.552  -0.725  0.00  0.00     0.078 C 
ATOM      3  C1  OXE d   1      -0.471   0.638   0.045  0.00  0.00    -0.078 A 
ATOM      4  C2  OXE d   1       0.072   0.873   1.285  0.00  0.00    -0.078 A 
ATOM      5  C3  OXE d   1      -0.329   1.989   2.013  0.00  0.00     0.003 A 
ATOM      6  C4  OXE d   1      -1.389   2.786   1.563  0.00  0.00    -0.002 A 
ATOM      7  C5  OXE d   1      -1.984   2.540   0.321  0.00  0.00    -0.002 A 
ATOM      8  C6  OXE d   1      -1.509   1.498  -0.468  0.00  0.00     0.003 A 
ENDROOT
TORSDOF 0
ENDMDL
