MODEL 1
REMARK minimizedAffinity -4.90080643
REMARK minimizedRMSD -1
REMARK  0 active torsions:
REMARK  status: ('A' for Active; 'I' for Inactive)
ROOT
ATOM      1  C2' OXE d   1       1.744  -0.180   1.785  0.00  0.00     0.078 C 
ATOM      2  C1' OXE d   1       0.003  -1.287  -0.119  0.00  0.00     0.078 C 
ATOM      3  C1  OXE d   1      -0.291   0.107   0.378  0.00  0.00    -0.078 A 
ATOM      4  C2  OXE d   1       0.539   0.622   1.344  0.00  0.00    -0.078 A 
ATOM      5  C3  OXE d   1       0.344   1.924   1.797  0.00  0.00     0.003 A 
ATOM      6  C4  OXE d   1      -0.779   2.655   1.391  0.00  0.00    -0.002 A 
ATOM      7  C5  OXE d   1      -1.659   2.133   0.438  0.00  0.00    -0.002 A 
ATOM      8  C6  OXE d   1      -1.407   0.880  -0.109  0.00  0.00     0.003 A 
ENDROOT
TORSDOF 0
ENDMDL
