MODEL 1
REMARK minimizedAffinity 0.740098953
REMARK minimizedRMSD -1
REMARK  0 active torsions:
REMARK  status: ('A' for Active; 'I' for Inactive)
ROOT
ATOM      1  C2' OXE d   1      -1.127   2.358   1.470  0.00  0.00     0.078 C 
ATOM      2  C1' OXE d   1      -0.800   1.332  -1.123  0.00  0.00     0.078 C 
ATOM      3  C1  OXE d   1       0.150   0.856  -0.053  0.00  0.00    -0.078 A 
ATOM      4  C2  OXE d   1       0.012   1.399   1.202  0.00  0.00    -0.078 A 
ATOM      5  C3  OXE d   1       0.828   0.954   2.239  0.00  0.00     0.003 A 
ATOM      6  C4  OXE d   1       1.886   0.074   1.981  0.00  0.00    -0.002 A 
ATOM      7  C5  OXE d   1       2.068  -0.461   0.701  0.00  0.00    -0.002 A 
ATOM      8  C6  OXE d   1       1.185  -0.113  -0.315  0.00  0.00     0.003 A 
ENDROOT
TORSDOF 0
ENDMDL
