MODEL 1
REMARK minimizedAffinity -3.18216538
REMARK minimizedRMSD -1
REMARK  0 active torsions:
REMARK  status: ('A' for Active; 'I' for Inactive)
ROOT
ATOM      1  C2' OXE d   1       1.246  -0.156   1.858  0.00  0.00     0.078 C 
ATOM      2  C1' OXE d   1       0.285   2.387   2.560  0.00  0.00     0.078 C 
ATOM      3  C1  OXE d   1      -0.295   1.729   1.333  0.00  0.00    -0.078 A 
ATOM      4  C2  OXE d   1       0.214   0.505   0.971  0.00  0.00    -0.078 A 
ATOM      5  C3  OXE d   1      -0.325  -0.169  -0.122  0.00  0.00     0.003 A 
ATOM      6  C4  OXE d   1      -1.272   0.454  -0.943  0.00  0.00    -0.002 A 
ATOM      7  C5  OXE d   1      -1.775   1.717  -0.615  0.00  0.00    -0.002 A 
ATOM      8  C6  OXE d   1      -1.329   2.349   0.541  0.00  0.00     0.003 A 
ENDROOT
TORSDOF 0
ENDMDL
