MODEL 1
REMARK minimizedAffinity -2.31760669
REMARK minimizedRMSD -1
REMARK  0 active torsions:
REMARK  status: ('A' for Active; 'I' for Inactive)
ROOT
ATOM      1  C2' OXE d   1      -1.558  -3.002  -1.883  0.00  0.00     0.078 C 
ATOM      2  C1' OXE d   1       0.475  -1.722  -0.432  0.00  0.00     0.078 C 
ATOM      3  C1  OXE d   1       0.537  -3.224  -0.554  0.00  0.00    -0.078 A 
ATOM      4  C2  OXE d   1      -0.488  -3.846  -1.226  0.00  0.00    -0.078 A 
ATOM      5  C3  OXE d   1      -0.451  -5.225  -1.414  0.00  0.00     0.003 A 
ATOM      6  C4  OXE d   1       0.537  -5.999  -0.794  0.00  0.00    -0.002 A 
ATOM      7  C5  OXE d   1       1.568  -5.389  -0.071  0.00  0.00    -0.002 A 
ATOM      8  C6  OXE d   1       1.606  -4.002   0.022  0.00  0.00     0.003 A 
ENDROOT
TORSDOF 0
ENDMDL
