MODEL 1
REMARK minimizedAffinity -4.25066233
REMARK minimizedRMSD -1
REMARK  0 active torsions:
REMARK  status: ('A' for Active; 'I' for Inactive)
ROOT
ATOM      1  C2' OXE d   1       0.379   1.420   2.648  0.00  0.00     0.078 C 
ATOM      2  C1' OXE d   1      -1.584   3.182   1.689  0.00  0.00     0.078 C 
ATOM      3  C1  OXE d   1      -0.760   2.428   0.675  0.00  0.00    -0.078 A 
ATOM      4  C2  OXE d   1       0.229   1.603   1.153  0.00  0.00    -0.078 A 
ATOM      5  C3  OXE d   1       0.982   0.842   0.263  0.00  0.00     0.003 A 
ATOM      6  C4  OXE d   1       0.844   1.024  -1.118  0.00  0.00    -0.002 A 
ATOM      7  C5  OXE d   1      -0.131   1.889  -1.626  0.00  0.00    -0.002 A 
ATOM      8  C6  OXE d   1      -0.968   2.565  -0.745  0.00  0.00     0.003 A 
ENDROOT
TORSDOF 0
ENDMDL
