MODEL 1
REMARK minimizedAffinity 5.9171772
REMARK minimizedRMSD -1
REMARK  1 active torsions:
REMARK  status: ('A' for Active; 'I' for Inactive)
REMARK    1  A    between atoms: C1_2  and  C2_3 
ROOT
ATOM      1  C2  UNL d   1      -3.113   1.958   3.279  0.00  0.00    -0.076 A 
ATOM      2  C3  UNL d   1      -2.295   3.059   2.967  0.00  0.00     0.004 A 
ATOM      3  C4  UNL d   1      -1.105   2.891   2.260  0.00  0.00    -0.003 A 
ATOM      4  C5  UNL d   1      -0.714   1.620   1.854  0.00  0.00     0.000 A 
ATOM      5  C6  UNL d   1      -1.521   0.519   2.140  0.00  0.00     0.000 A 
ATOM      6  C7  UNL d   1      -2.732   0.673   2.837  0.00  0.00    -0.073 A 
ATOM      7  C8  UNL d   1      -3.561  -0.549   3.123  0.00  0.00     0.078 C 
ENDROOT
BRANCH   1   8
ATOM      8  C1  UNL d   1      -4.378   2.198   4.071  0.00  0.00     0.053 C 
ATOM      9  C   UNL d   1      -4.097   2.624   5.504  0.00  0.00     0.018 C 
ENDBRANCH   1   8
TORSDOF 1
ENDMDL
