MODEL 1
REMARK minimizedAffinity -5.95967007
REMARK minimizedRMSD -1
REMARK  1 active torsions:
REMARK  status: ('A' for Active; 'I' for Inactive)
REMARK    1  A    between atoms: C1_2  and  C2_3 
ROOT
ATOM      1  C2  UNL d   1      -1.570  -0.416   1.509  0.00  0.00    -0.076 A 
ATOM      2  C3  UNL d   1      -2.776  -0.517   2.224  0.00  0.00     0.004 A 
ATOM      3  C4  UNL d   1      -3.219   0.527   3.036  0.00  0.00    -0.003 A 
ATOM      4  C5  UNL d   1      -2.462   1.688   3.146  0.00  0.00     0.000 A 
ATOM      5  C6  UNL d   1      -1.272   1.812   2.430  0.00  0.00     0.000 A 
ATOM      6  C7  UNL d   1      -0.820   0.777   1.595  0.00  0.00    -0.073 A 
ATOM      7  C8  UNL d   1       0.474   0.962   0.851  0.00  0.00     0.078 C 
ENDROOT
BRANCH   1   8
ATOM      8  C1  UNL d   1      -1.127  -1.590   0.666  0.00  0.00     0.053 C 
ATOM      9  C   UNL d   1      -2.127  -1.932  -0.427  0.00  0.00     0.018 C 
ENDBRANCH   1   8
TORSDOF 1
ENDMDL
