MODEL 1
REMARK minimizedAffinity -3.3713963
REMARK minimizedRMSD -1
REMARK  1 active torsions:
REMARK  status: ('A' for Active; 'I' for Inactive)
REMARK    1  A    between atoms: C1_2  and  C2_3 
ROOT
ATOM      1  C2  UNL d   1      -1.300   1.532   1.782  0.00  0.00    -0.076 A 
ATOM      2  C3  UNL d   1      -0.167   2.055   1.134  0.00  0.00     0.004 A 
ATOM      3  C4  UNL d   1       0.843   1.216   0.667  0.00  0.00    -0.003 A 
ATOM      4  C5  UNL d   1       0.737  -0.160   0.840  0.00  0.00     0.000 A 
ATOM      5  C6  UNL d   1      -0.388  -0.697   1.465  0.00  0.00     0.000 A 
ATOM      6  C7  UNL d   1      -1.423   0.134   1.927  0.00  0.00    -0.073 A 
ATOM      7  C8  UNL d   1      -2.611  -0.499   2.599  0.00  0.00     0.078 C 
ENDROOT
BRANCH   1   8
ATOM      8  C1  UNL d   1      -2.351   2.493   2.291  0.00  0.00     0.053 C 
ATOM      9  C   UNL d   1      -2.943   2.057   3.622  0.00  0.00     0.018 C 
ENDBRANCH   1   8
TORSDOF 1
ENDMDL
