MODEL 1
REMARK minimizedAffinity -0.436662495
REMARK minimizedRMSD -1
REMARK  1 active torsions:
REMARK  status: ('A' for Active; 'I' for Inactive)
REMARK    1  A    between atoms: C1_2  and  C2_3 
ROOT
ATOM      1  C2  UNL d   1      -1.179   1.499   1.576  0.00  0.00    -0.076 A 
ATOM      2  C3  UNL d   1       0.029   2.032   1.094  0.00  0.00     0.004 A 
ATOM      3  C4  UNL d   1       1.133   1.214   0.863  0.00  0.00    -0.003 A 
ATOM      4  C5  UNL d   1       1.047  -0.152   1.109  0.00  0.00     0.000 A 
ATOM      5  C6  UNL d   1      -0.149  -0.701   1.571  0.00  0.00     0.000 A 
ATOM      6  C7  UNL d   1      -1.276   0.108   1.794  0.00  0.00    -0.073 A 
ATOM      7  C8  UNL d   1      -2.538  -0.537   2.298  0.00  0.00     0.078 C 
ENDROOT
BRANCH   1   8
ATOM      8  C1  UNL d   1      -2.335   2.439   1.834  0.00  0.00     0.053 C 
ATOM      9  C   UNL d   1      -2.993   2.197   3.184  0.00  0.00     0.018 C 
ENDBRANCH   1   8
TORSDOF 1
ENDMDL
