MODEL 1
REMARK minimizedAffinity 0.814540625
REMARK minimizedRMSD -1
REMARK  1 active torsions:
REMARK  status: ('A' for Active; 'I' for Inactive)
REMARK    1  A    between atoms: C1_2  and  C2_3 
ROOT
ATOM      1  C2  UNL d   1      -0.263   0.577   1.459  0.00  0.00    -0.076 A 
ATOM      2  C3  UNL d   1      -0.449   1.970   1.481  0.00  0.00     0.004 A 
ATOM      3  C4  UNL d   1      -1.487   2.544   2.214  0.00  0.00    -0.003 A 
ATOM      4  C5  UNL d   1      -2.355   1.734   2.936  0.00  0.00     0.000 A 
ATOM      5  C6  UNL d   1      -2.176   0.351   2.940  0.00  0.00     0.000 A 
ATOM      6  C7  UNL d   1      -1.125  -0.242   2.220  0.00  0.00    -0.073 A 
ATOM      7  C8  UNL d   1      -0.981  -1.739   2.254  0.00  0.00     0.078 C 
ENDROOT
BRANCH   1   8
ATOM      8  C1  UNL d   1       0.863   0.010   0.625  0.00  0.00     0.053 C 
ATOM      9  C   UNL d   1       1.688   1.092  -0.054  0.00  0.00     0.018 C 
ENDBRANCH   1   8
TORSDOF 1
ENDMDL
