MODEL 1
REMARK minimizedAffinity -0.491194069
REMARK minimizedRMSD -1
REMARK  1 active torsions:
REMARK  status: ('A' for Active; 'I' for Inactive)
REMARK    1  A    between atoms: C1_2  and  C2_3 
ROOT
ATOM      1  C2  UNL d   1      -2.359   1.829   2.608  0.00  0.00    -0.076 A 
ATOM      2  C3  UNL d   1      -1.383   2.819   2.401  0.00  0.00     0.004 A 
ATOM      3  C4  UNL d   1      -0.127   2.492   1.893  0.00  0.00    -0.003 A 
ATOM      4  C5  UNL d   1       0.173   1.170   1.582  0.00  0.00     0.000 A 
ATOM      5  C6  UNL d   1      -0.790   0.178   1.765  0.00  0.00     0.000 A 
ATOM      6  C7  UNL d   1      -2.067   0.493   2.262  0.00  0.00    -0.073 A 
ATOM      7  C8  UNL d   1      -3.064  -0.618   2.445  0.00  0.00     0.078 C 
ENDROOT
BRANCH   1   8
ATOM      8  C1  UNL d   1      -3.694   2.239   3.188  0.00  0.00     0.053 C 
ATOM      9  C   UNL d   1      -3.750   2.071   4.699  0.00  0.00     0.018 C 
ENDBRANCH   1   8
TORSDOF 1
ENDMDL
