MODEL 1
REMARK minimizedAffinity -4.7092967
REMARK minimizedRMSD -1
REMARK  1 active torsions:
REMARK  status: ('A' for Active; 'I' for Inactive)
REMARK    1  A    between atoms: C1_2  and  C2_3 
ROOT
ATOM      1  C2  UNL d   1      -2.165   1.510   2.780  0.00  0.00    -0.076 A 
ATOM      2  C3  UNL d   1      -1.969   2.868   2.476  0.00  0.00     0.004 A 
ATOM      3  C4  UNL d   1      -0.929   3.274   1.641  0.00  0.00    -0.003 A 
ATOM      4  C5  UNL d   1      -0.067   2.327   1.097  0.00  0.00     0.000 A 
ATOM      5  C6  UNL d   1      -0.257   0.974   1.375  0.00  0.00     0.000 A 
ATOM      6  C7  UNL d   1      -1.311   0.547   2.201  0.00  0.00    -0.073 A 
ATOM      7  C8  UNL d   1      -1.466  -0.925   2.471  0.00  0.00     0.078 C 
ENDROOT
BRANCH   1   8
ATOM      8  C1  UNL d   1      -3.293   1.132   3.713  0.00  0.00     0.053 C 
ATOM      9  C   UNL d   1      -3.850   2.329   4.469  0.00  0.00     0.018 C 
ENDBRANCH   1   8
TORSDOF 1
ENDMDL
