MODEL 1
REMARK minimizedAffinity -0.775985718
REMARK minimizedRMSD -1
REMARK  1 active torsions:
REMARK  status: ('A' for Active; 'I' for Inactive)
REMARK    1  A    between atoms: C1_2  and  C2_3 
ROOT
ATOM      1  C2  UNL d   1       1.614   0.347   1.261  0.00  0.00    -0.076 A 
ATOM      2  C3  UNL d   1       1.371   1.436   0.407  0.00  0.00     0.004 A 
ATOM      3  C4  UNL d   1       0.154   2.116   0.438  0.00  0.00    -0.003 A 
ATOM      4  C5  UNL d   1      -0.839   1.717   1.326  0.00  0.00     0.000 A 
ATOM      5  C6  UNL d   1      -0.608   0.650   2.194  0.00  0.00     0.000 A 
ATOM      6  C7  UNL d   1       0.619  -0.035   2.185  0.00  0.00    -0.073 A 
ATOM      7  C8  UNL d   1       0.811  -1.183   3.139  0.00  0.00     0.078 C 
ENDROOT
BRANCH   1   8
ATOM      8  C1  UNL d   1       2.943  -0.368   1.163  0.00  0.00     0.053 C 
ATOM      9  C   UNL d   1       3.116  -1.095  -0.162  0.00  0.00     0.018 C 
ENDBRANCH   1   8
TORSDOF 1
ENDMDL
