MODEL 1
REMARK minimizedAffinity 5.67284727
REMARK minimizedRMSD -1
REMARK  1 active torsions:
REMARK  status: ('A' for Active; 'I' for Inactive)
REMARK    1  A    between atoms: C1_2  and  C2_3 
ROOT
ATOM      1  C2  UNL d   1      -1.039   0.752   1.825  0.00  0.00    -0.076 A 
ATOM      2  C3  UNL d   1       0.171   0.398   1.204  0.00  0.00     0.004 A 
ATOM      3  C4  UNL d   1       1.102   1.370   0.841  0.00  0.00    -0.003 A 
ATOM      4  C5  UNL d   1       0.838   2.712   1.094  0.00  0.00     0.000 A 
ATOM      5  C6  UNL d   1      -0.350   3.079   1.725  0.00  0.00     0.000 A 
ATOM      6  C7  UNL d   1      -1.292   2.111   2.113  0.00  0.00    -0.073 A 
ATOM      7  C8  UNL d   1      -2.558   2.564   2.785  0.00  0.00     0.078 C 
ENDROOT
BRANCH   1   8
ATOM      8  C1  UNL d   1      -2.023  -0.343   2.172  0.00  0.00     0.053 C 
ATOM      9  C   UNL d   1      -1.346  -1.689   2.379  0.00  0.00     0.018 C 
ENDBRANCH   1   8
TORSDOF 1
ENDMDL
