MODEL 1
REMARK minimizedAffinity -0.889829934
REMARK minimizedRMSD -1
REMARK  1 active torsions:
REMARK  status: ('A' for Active; 'I' for Inactive)
REMARK    1  A    between atoms: C1_2  and  C2_3 
ROOT
ATOM      1  C2  UNL d   1      -1.667   0.523   1.950  0.00  0.00    -0.076 A 
ATOM      2  C3  UNL d   1      -2.675   1.132   2.718  0.00  0.00     0.004 A 
ATOM      3  C4  UNL d   1      -2.561   2.458   3.129  0.00  0.00    -0.003 A 
ATOM      4  C5  UNL d   1      -1.438   3.199   2.779  0.00  0.00     0.000 A 
ATOM      5  C6  UNL d   1      -0.436   2.617   2.002  0.00  0.00     0.000 A 
ATOM      6  C7  UNL d   1      -0.543   1.285   1.566  0.00  0.00    -0.073 A 
ATOM      7  C8  UNL d   1       0.570   0.706   0.736  0.00  0.00     0.078 C 
ENDROOT
BRANCH   1   8
ATOM      8  C1  UNL d   1      -1.833  -0.927   1.557  0.00  0.00     0.053 C 
ATOM      9  C   UNL d   1      -0.882  -1.847   2.307  0.00  0.00     0.018 C 
ENDBRANCH   1   8
TORSDOF 1
ENDMDL
