MODEL 1
REMARK minimizedAffinity -5.01460648
REMARK minimizedRMSD -1
REMARK  1 active torsions:
REMARK  status: ('A' for Active; 'I' for Inactive)
REMARK    1  A    between atoms: C1_2  and  C2_3 
ROOT
ATOM      1  C2  UNL d   1      -0.086   0.179   1.204  0.00  0.00    -0.076 A 
ATOM      2  C3  UNL d   1      -0.374   1.555   1.242  0.00  0.00     0.004 A 
ATOM      3  C4  UNL d   1      -1.602   2.018   1.712  0.00  0.00    -0.003 A 
ATOM      4  C5  UNL d   1      -2.561   1.113   2.153  0.00  0.00     0.000 A 
ATOM      5  C6  UNL d   1      -2.286  -0.254   2.139  0.00  0.00     0.000 A 
ATOM      6  C7  UNL d   1      -1.047  -0.737   1.683  0.00  0.00    -0.073 A 
ATOM      7  C8  UNL d   1      -0.806  -2.221   1.685  0.00  0.00     0.078 C 
ENDROOT
BRANCH   1   8
ATOM      8  C1  UNL d   1       1.252  -0.266   0.658  0.00  0.00     0.053 C 
ATOM      9  C   UNL d   1       1.804   0.694  -0.385  0.00  0.00     0.018 C 
ENDBRANCH   1   8
TORSDOF 1
ENDMDL
