MODEL 1
REMARK minimizedAffinity -1.39867687
REMARK minimizedRMSD -1
REMARK  1 active torsions:
REMARK  status: ('A' for Active; 'I' for Inactive)
REMARK    1  A    between atoms: C1_2  and  C2_3 
ROOT
ATOM      1  C2  UNL d   1      -1.362  -3.061  -2.967  0.00  0.00    -0.076 A 
ATOM      2  C3  UNL d   1      -0.947  -2.954  -4.305  0.00  0.00     0.004 A 
ATOM      3  C4  UNL d   1       0.190  -3.620  -4.759  0.00  0.00    -0.003 A 
ATOM      4  C5  UNL d   1       0.929  -4.406  -3.882  0.00  0.00     0.000 A 
ATOM      5  C6  UNL d   1       0.522  -4.538  -2.555  0.00  0.00     0.000 A 
ATOM      6  C7  UNL d   1      -0.631  -3.886  -2.085  0.00  0.00    -0.073 A 
ATOM      7  C8  UNL d   1      -1.021  -4.058  -0.643  0.00  0.00     0.078 C 
ENDROOT
BRANCH   1   8
ATOM      8  C1  UNL d   1      -2.588  -2.293  -2.525  0.00  0.00     0.053 C 
ATOM      9  C   UNL d   1      -3.853  -3.136  -2.574  0.00  0.00     0.018 C 
ENDBRANCH   1   8
TORSDOF 1
ENDMDL
