MODEL 1
REMARK minimizedAffinity -3.49825907
REMARK minimizedRMSD -1
REMARK  1 active torsions:
REMARK  status: ('A' for Active; 'I' for Inactive)
REMARK    1  A    between atoms: C1_2  and  C2_3 
ROOT
ATOM      1  C2  UNL d   1      -1.178   0.398   1.770  0.00  0.00    -0.076 A 
ATOM      2  C3  UNL d   1      -2.348   0.430   2.548  0.00  0.00     0.004 A 
ATOM      3  C4  UNL d   1      -3.023   1.628   2.780  0.00  0.00    -0.003 A 
ATOM      4  C5  UNL d   1      -2.538   2.813   2.236  0.00  0.00     0.000 A 
ATOM      5  C6  UNL d   1      -1.389   2.796   1.447  0.00  0.00     0.000 A 
ATOM      6  C7  UNL d   1      -0.706   1.595   1.190  0.00  0.00    -0.073 A 
ATOM      7  C8  UNL d   1       0.532   1.637   0.337  0.00  0.00     0.078 C 
ENDROOT
BRANCH   1   8
ATOM      8  C1  UNL d   1      -0.474  -0.926   1.575  0.00  0.00     0.053 C 
ATOM      9  C   UNL d   1       0.219  -1.409   2.840  0.00  0.00     0.018 C 
ENDBRANCH   1   8
TORSDOF 1
ENDMDL
