MODEL 1
REMARK minimizedAffinity -5.45362949
REMARK minimizedRMSD -1
REMARK  0 active torsions:
REMARK  status: ('A' for Active; 'I' for Inactive)
ROOT
ATOM      1  C   UNL d   1      -2.047   3.079   1.148  0.00  0.00    -0.002 A 
ATOM      2  C1  UNL d   1      -1.359   3.536   0.032  0.00  0.00     0.010 A 
ATOM      3  C2  UNL d   1      -0.448   2.709  -0.628  0.00  0.00     0.041 A 
ATOM      4  C3  UNL d   1      -0.239   1.402  -0.145  0.00  0.00    -0.075 A 
ATOM      5  S   UNL d   1       0.827   0.213  -0.793  0.00  0.00     0.015 SA
ATOM      6  C4  UNL d   1       0.394  -0.930   0.395  0.00  0.00     0.022 A 
ATOM      7  C5  UNL d   1      -0.539  -0.433   1.273  0.00  0.00     0.026 A 
ATOM      8  C6  UNL d   1      -0.920   0.920   0.976  0.00  0.00    -0.082 A 
ATOM      9  C7  UNL d   1      -1.837   1.782   1.624  0.00  0.00     0.045 A 
ENDROOT
TORSDOF 0
ENDMDL
