MODEL 1
REMARK minimizedAffinity -3.42220092
REMARK minimizedRMSD -1
REMARK  0 active torsions:
REMARK  status: ('A' for Active; 'I' for Inactive)
ROOT
ATOM      1  C   UNL d   1      -1.191   0.705   2.293  0.00  0.00    -0.002 A 
ATOM      2  C1  UNL d   1      -1.354   1.761   1.407  0.00  0.00     0.010 A 
ATOM      3  C2  UNL d   1      -0.833   1.689   0.114  0.00  0.00     0.041 A 
ATOM      4  C3  UNL d   1      -0.140   0.527  -0.279  0.00  0.00    -0.075 A 
ATOM      5  S   UNL d   1       0.582   0.215  -1.813  0.00  0.00     0.015 SA
ATOM      6  C4  UNL d   1       1.123  -1.327  -1.329  0.00  0.00     0.022 A 
ATOM      7  C5  UNL d   1       0.770  -1.613  -0.031  0.00  0.00     0.026 A 
ATOM      8  C6  UNL d   1       0.036  -0.550   0.595  0.00  0.00    -0.082 A 
ATOM      9  C7  UNL d   1      -0.503  -0.446   1.900  0.00  0.00     0.045 A 
ENDROOT
TORSDOF 0
ENDMDL
