MODEL 1
REMARK minimizedAffinity -4.58312225
REMARK minimizedRMSD -1
REMARK  0 active torsions:
REMARK  status: ('A' for Active; 'I' for Inactive)
ROOT
ATOM      1  C   UNL d   1      -2.347   1.749   1.175  0.00  0.00    -0.002 A 
ATOM      2  C1  UNL d   1      -2.726   1.598  -0.151  0.00  0.00     0.010 A 
ATOM      3  C2  UNL d   1      -1.919   0.892  -1.044  0.00  0.00     0.041 A 
ATOM      4  C3  UNL d   1      -0.713   0.333  -0.578  0.00  0.00    -0.075 A 
ATOM      5  S   UNL d   1       0.434  -0.574  -1.492  0.00  0.00     0.015 SA
ATOM      6  C4  UNL d   1       1.455  -0.783  -0.143  0.00  0.00     0.022 A 
ATOM      7  C5  UNL d   1       0.948  -0.182   0.985  0.00  0.00     0.026 A 
ATOM      8  C6  UNL d   1      -0.310   0.471   0.753  0.00  0.00    -0.082 A 
ATOM      9  C7  UNL d   1      -1.150   1.193   1.634  0.00  0.00     0.045 A 
ENDROOT
TORSDOF 0
ENDMDL
