MODEL 1
REMARK minimizedAffinity -3.54933596
REMARK minimizedRMSD -1
REMARK  0 active torsions:
REMARK  status: ('A' for Active; 'I' for Inactive)
ROOT
ATOM      1  C   UNL d   1      -1.920   0.842   1.968  0.00  0.00    -0.002 A 
ATOM      2  C1  UNL d   1      -1.941   1.897   1.066  0.00  0.00     0.010 A 
ATOM      3  C2  UNL d   1      -1.062   1.923  -0.018  0.00  0.00     0.041 A 
ATOM      4  C3  UNL d   1      -0.154   0.859  -0.184  0.00  0.00    -0.075 A 
ATOM      5  S   UNL d   1       1.015   0.676  -1.439  0.00  0.00     0.015 SA
ATOM      6  C4  UNL d   1       1.570  -0.807  -0.808  0.00  0.00     0.022 A 
ATOM      7  C5  UNL d   1       0.891  -1.169   0.331  0.00  0.00     0.026 A 
ATOM      8  C6  UNL d   1      -0.114  -0.215   0.709  0.00  0.00    -0.082 A 
ATOM      9  C7  UNL d   1      -1.017  -0.211   1.799  0.00  0.00     0.045 A 
ENDROOT
TORSDOF 0
ENDMDL
