MODEL 1
REMARK minimizedAffinity -2.51708889
REMARK minimizedRMSD -1
REMARK  0 active torsions:
REMARK  status: ('A' for Active; 'I' for Inactive)
ROOT
ATOM      1  C   UNL d   1       0.647  -3.441  -3.128  0.00  0.00    -0.002 A 
ATOM      2  C1  UNL d   1       1.235  -3.826  -1.931  0.00  0.00     0.010 A 
ATOM      3  C2  UNL d   1       1.153  -3.007  -0.803  0.00  0.00     0.041 A 
ATOM      4  C3  UNL d   1       0.462  -1.784  -0.899  0.00  0.00    -0.075 A 
ATOM      5  S   UNL d   1       0.231  -0.620   0.352  0.00  0.00     0.015 SA
ATOM      6  C4  UNL d   1      -0.654   0.416  -0.672  0.00  0.00     0.022 A 
ATOM      7  C5  UNL d   1      -0.780  -0.098  -1.941  0.00  0.00     0.026 A 
ATOM      8  C6  UNL d   1      -0.140  -1.374  -2.092  0.00  0.00    -0.082 A 
ATOM      9  C7  UNL d   1      -0.038  -2.227  -3.218  0.00  0.00     0.045 A 
ENDROOT
TORSDOF 0
ENDMDL
