MODEL 1
REMARK minimizedAffinity 2.10008669
REMARK minimizedRMSD -1
REMARK  0 active torsions:
REMARK  status: ('A' for Active; 'I' for Inactive)
ROOT
ATOM      1  C   UNL d   1       1.036   0.387  -1.844  0.00  0.00    -0.002 A 
ATOM      2  C1  UNL d   1       0.374   1.607  -1.834  0.00  0.00     0.010 A 
ATOM      3  C2  UNL d   1      -0.324   2.027  -0.700  0.00  0.00     0.041 A 
ATOM      4  C3  UNL d   1      -0.344   1.194   0.436  0.00  0.00    -0.075 A 
ATOM      5  S   UNL d   1      -1.133   1.503   1.937  0.00  0.00     0.015 SA
ATOM      6  C4  UNL d   1      -0.609   0.023   2.602  0.00  0.00     0.022 A 
ATOM      7  C5  UNL d   1       0.150  -0.701   1.714  0.00  0.00     0.026 A 
ATOM      8  C6  UNL d   1       0.316  -0.038   0.451  0.00  0.00    -0.082 A 
ATOM      9  C7  UNL d   1       1.014  -0.437  -0.715  0.00  0.00     0.045 A 
ENDROOT
TORSDOF 0
ENDMDL
