MODEL 1
REMARK minimizedAffinity 0.866443872
REMARK minimizedRMSD -1
REMARK  0 active torsions:
REMARK  status: ('A' for Active; 'I' for Inactive)
ROOT
ATOM      1  C   UNL d   1       1.038  -2.982  -2.746  0.00  0.00    -0.002 A 
ATOM      2  C1  UNL d   1       1.250  -3.530  -1.489  0.00  0.00     0.010 A 
ATOM      3  C2  UNL d   1       1.125  -2.744  -0.342  0.00  0.00     0.041 A 
ATOM      4  C3  UNL d   1       0.779  -1.386  -0.480  0.00  0.00    -0.075 A 
ATOM      5  S   UNL d   1       0.569  -0.232   0.784  0.00  0.00     0.015 SA
ATOM      6  C4  UNL d   1       0.192   1.015  -0.315  0.00  0.00     0.022 A 
ATOM      7  C5  UNL d   1       0.221   0.579  -1.619  0.00  0.00     0.026 A 
ATOM      8  C6  UNL d   1       0.559  -0.811  -1.736  0.00  0.00    -0.082 A 
ATOM      9  C7  UNL d   1       0.694  -1.634  -2.880  0.00  0.00     0.045 A 
ENDROOT
TORSDOF 0
ENDMDL
