MODEL 1
REMARK minimizedAffinity -1.1829375
REMARK minimizedRMSD -1
REMARK  0 active torsions:
REMARK  status: ('A' for Active; 'I' for Inactive)
ROOT
ATOM      1  C   UNL d   1      -1.129   1.160   2.106  0.00  0.00    -0.002 A 
ATOM      2  C1  UNL d   1      -1.569   1.813   0.964  0.00  0.00     0.010 A 
ATOM      3  C2  UNL d   1      -1.249   1.321  -0.304  0.00  0.00     0.041 A 
ATOM      4  C3  UNL d   1      -0.473   0.150  -0.404  0.00  0.00    -0.075 A 
ATOM      5  S   UNL d   1       0.040  -0.636  -1.851  0.00  0.00     0.015 SA
ATOM      6  C4  UNL d   1       0.855  -1.858  -0.986  0.00  0.00     0.022 A 
ATOM      7  C5  UNL d   1       0.749  -1.686   0.374  0.00  0.00     0.026 A 
ATOM      8  C6  UNL d   1      -0.019  -0.526   0.731  0.00  0.00    -0.082 A 
ATOM      9  C7  UNL d   1      -0.359  -0.002   2.002  0.00  0.00     0.045 A 
ENDROOT
TORSDOF 0
ENDMDL
