MODEL 1
REMARK minimizedAffinity -1.2615726
REMARK minimizedRMSD -1
REMARK  0 active torsions:
REMARK  status: ('A' for Active; 'I' for Inactive)
ROOT
ATOM      1  C   UNL d   1      -1.884   1.662   1.882  0.00  0.00    -0.002 A 
ATOM      2  C1  UNL d   1      -2.057   2.038   0.558  0.00  0.00     0.010 A 
ATOM      3  C2  UNL d   1      -1.363   1.386  -0.462  0.00  0.00     0.041 A 
ATOM      4  C3  UNL d   1      -0.483   0.338  -0.126  0.00  0.00    -0.075 A 
ATOM      5  S   UNL d   1       0.472  -0.605  -1.208  0.00  0.00     0.015 SA
ATOM      6  C4  UNL d   1       1.133  -1.529   0.062  0.00  0.00     0.022 A 
ATOM      7  C5  UNL d   1       0.648  -1.142   1.289  0.00  0.00     0.026 A 
ATOM      8  C6  UNL d   1      -0.292  -0.060   1.200  0.00  0.00    -0.082 A 
ATOM      9  C7  UNL d   1      -1.010   0.622   2.212  0.00  0.00     0.045 A 
ENDROOT
TORSDOF 0
ENDMDL
