MODEL 1
REMARK minimizedAffinity -4.25955296
REMARK minimizedRMSD -1
REMARK  0 active torsions:
REMARK  status: ('A' for Active; 'I' for Inactive)
ROOT
ATOM      1  C   UNL d   1       0.540  -1.419   1.377  0.00  0.00    -0.002 A 
ATOM      2  C1  UNL d   1       0.040  -0.937   2.579  0.00  0.00     0.010 A 
ATOM      3  C2  UNL d   1      -0.634   0.285   2.628  0.00  0.00     0.041 A 
ATOM      4  C3  UNL d   1      -0.800   1.020   1.437  0.00  0.00    -0.075 A 
ATOM      5  S   UNL d   1      -1.593   2.540   1.257  0.00  0.00     0.015 SA
ATOM      6  C4  UNL d   1      -1.287   2.585  -0.419  0.00  0.00     0.022 A 
ATOM      7  C5  UNL d   1      -0.598   1.475  -0.847  0.00  0.00     0.026 A 
ATOM      8  C6  UNL d   1      -0.306   0.555   0.215  0.00  0.00    -0.082 A 
ATOM      9  C7  UNL d   1       0.373  -0.687   0.199  0.00  0.00     0.045 A 
ENDROOT
TORSDOF 0
ENDMDL
