MODEL 1
REMARK minimizedAffinity -3.01327395
REMARK minimizedRMSD -1
REMARK  0 active torsions:
REMARK  status: ('A' for Active; 'I' for Inactive)
ROOT
ATOM      1  C   UNL d   1      -1.959   0.679   1.840  0.00  0.00    -0.002 A 
ATOM      2  C1  UNL d   1      -2.109   1.916   1.229  0.00  0.00     0.010 A 
ATOM      3  C2  UNL d   1      -1.229   2.323   0.225  0.00  0.00     0.041 A 
ATOM      4  C3  UNL d   1      -0.187   1.457  -0.161  0.00  0.00    -0.075 A 
ATOM      5  S   UNL d   1       1.009   1.743  -1.369  0.00  0.00     0.015 SA
ATOM      6  C4  UNL d   1       1.747   0.230  -1.104  0.00  0.00     0.022 A 
ATOM      7  C5  UNL d   1       1.109  -0.489  -0.121  0.00  0.00     0.026 A 
ATOM      8  C6  UNL d   1      -0.016   0.206   0.438  0.00  0.00    -0.082 A 
ATOM      9  C7  UNL d   1      -0.924  -0.178   1.455  0.00  0.00     0.045 A 
ENDROOT
TORSDOF 0
ENDMDL
