MODEL 1
REMARK minimizedAffinity -5.6539135
REMARK minimizedRMSD -1
REMARK  0 active torsions:
REMARK  status: ('A' for Active; 'I' for Inactive)
ROOT
ATOM      1  C   UNL d   1      -2.084   2.251   1.144  0.00  0.00    -0.002 A 
ATOM      2  C1  UNL d   1      -1.452   3.234   0.395  0.00  0.00     0.010 A 
ATOM      3  C2  UNL d   1      -0.289   2.945  -0.320  0.00  0.00     0.041 A 
ATOM      4  C3  UNL d   1       0.233   1.638  -0.272  0.00  0.00    -0.075 A 
ATOM      5  S   UNL d   1       1.646   1.053  -1.069  0.00  0.00     0.015 SA
ATOM      6  C4  UNL d   1       1.444  -0.517  -0.436  0.00  0.00     0.022 A 
ATOM      7  C5  UNL d   1       0.332  -0.610   0.366  0.00  0.00     0.026 A 
ATOM      8  C6  UNL d   1      -0.385   0.630   0.473  0.00  0.00    -0.082 A 
ATOM      9  C7  UNL d   1      -1.562   0.955   1.189  0.00  0.00     0.045 A 
ENDROOT
TORSDOF 0
ENDMDL
