MODEL 1
REMARK minimizedAffinity -5.32963896
REMARK minimizedRMSD -1
REMARK  0 active torsions:
REMARK  status: ('A' for Active; 'I' for Inactive)
ROOT
ATOM      1  C   UNL d   1      -0.586   4.022  -0.226  0.00  0.00    -0.002 A 
ATOM      2  C1  UNL d   1      -1.514   3.643   0.733  0.00  0.00     0.010 A 
ATOM      3  C2  UNL d   1      -1.544   2.332   1.213  0.00  0.00     0.041 A 
ATOM      4  C3  UNL d   1      -0.615   1.400   0.709  0.00  0.00    -0.075 A 
ATOM      5  S   UNL d   1      -0.464  -0.259   1.151  0.00  0.00     0.015 SA
ATOM      6  C4  UNL d   1       0.837  -0.504   0.077  0.00  0.00     0.022 A 
ATOM      7  C5  UNL d   1       1.161   0.642  -0.610  0.00  0.00     0.026 A 
ATOM      8  C6  UNL d   1       0.330   1.759  -0.256  0.00  0.00    -0.082 A 
ATOM      9  C7  UNL d   1       0.334   3.095  -0.723  0.00  0.00     0.045 A 
ENDROOT
TORSDOF 0
ENDMDL
