MODEL 1
REMARK minimizedAffinity -5.8820982
REMARK minimizedRMSD -1
REMARK  0 active torsions:
REMARK  status: ('A' for Active; 'I' for Inactive)
ROOT
ATOM      1  C   UNL d   1      -0.569   4.301  -1.760  0.00  0.00    -0.002 A 
ATOM      2  C1  UNL d   1      -1.816   3.857  -1.343  0.00  0.00     0.010 A 
ATOM      3  C2  UNL d   1      -2.031   2.507  -1.060  0.00  0.00     0.041 A 
ATOM      4  C3  UNL d   1      -0.960   1.602  -1.202  0.00  0.00    -0.075 A 
ATOM      5  S   UNL d   1      -0.990  -0.097  -0.911  0.00  0.00     0.015 SA
ATOM      6  C4  UNL d   1       0.652  -0.273  -1.332  0.00  0.00     0.022 A 
ATOM      7  C5  UNL d   1       1.224   0.925  -1.690  0.00  0.00     0.026 A 
ATOM      8  C6  UNL d   1       0.305   2.025  -1.620  0.00  0.00    -0.082 A 
ATOM      9  C7  UNL d   1       0.490   3.400  -1.900  0.00  0.00     0.045 A 
ENDROOT
TORSDOF 0
ENDMDL
