MODEL 1
REMARK minimizedAffinity -3.98065519
REMARK minimizedRMSD -1
REMARK  0 active torsions:
REMARK  status: ('A' for Active; 'I' for Inactive)
ROOT
ATOM      1  C   UNL d   1       2.269  -1.033   0.197  0.00  0.00    -0.002 A 
ATOM      2  C1  UNL d   1       1.328  -1.707   0.963  0.00  0.00     0.010 A 
ATOM      3  C2  UNL d   1       0.012  -1.248   1.037  0.00  0.00     0.041 A 
ATOM      4  C3  UNL d   1      -0.347  -0.090   0.320  0.00  0.00    -0.075 A 
ATOM      5  S   UNL d   1      -1.901   0.656   0.262  0.00  0.00     0.015 SA
ATOM      6  C4  UNL d   1      -1.353   1.887  -0.782  0.00  0.00     0.022 A 
ATOM      7  C5  UNL d   1      -0.020   1.748  -1.088  0.00  0.00     0.026 A 
ATOM      8  C6  UNL d   1       0.582   0.606  -0.458  0.00  0.00    -0.082 A 
ATOM      9  C7  UNL d   1       1.909   0.116  -0.513  0.00  0.00     0.045 A 
ENDROOT
TORSDOF 0
ENDMDL
