MODEL 1
REMARK minimizedAffinity -2.06982303
REMARK minimizedRMSD -1
REMARK  0 active torsions:
REMARK  status: ('A' for Active; 'I' for Inactive)
ROOT
ATOM      1  C   UNL d   1       2.157  -1.808   0.760  0.00  0.00    -0.002 A 
ATOM      2  C1  UNL d   1       1.014  -2.400   1.276  0.00  0.00     0.010 A 
ATOM      3  C2  UNL d   1      -0.239  -1.814   1.083  0.00  0.00     0.041 A 
ATOM      4  C3  UNL d   1      -0.324  -0.612   0.352  0.00  0.00    -0.075 A 
ATOM      5  S   UNL d   1      -1.750   0.285  -0.012  0.00  0.00     0.015 SA
ATOM      6  C4  UNL d   1      -0.875   1.474  -0.862  0.00  0.00     0.022 A 
ATOM      7  C5  UNL d   1       0.474   1.210  -0.878  0.00  0.00     0.026 A 
ATOM      8  C6  UNL d   1       0.814   0.002  -0.179  0.00  0.00    -0.082 A 
ATOM      9  C7  UNL d   1       2.069  -0.616   0.035  0.00  0.00     0.045 A 
ENDROOT
TORSDOF 0
ENDMDL
