MODEL 1
REMARK minimizedAffinity -2.6081183
REMARK minimizedRMSD -1
REMARK  0 active torsions:
REMARK  status: ('A' for Active; 'I' for Inactive)
ROOT
ATOM      1  C   UNL d   1       2.163  -2.300   0.472  0.00  0.00    -0.002 A 
ATOM      2  C1  UNL d   1       0.981  -2.716   1.067  0.00  0.00     0.010 A 
ATOM      3  C2  UNL d   1      -0.156  -1.906   1.032  0.00  0.00     0.041 A 
ATOM      4  C3  UNL d   1      -0.084  -0.659   0.381  0.00  0.00    -0.075 A 
ATOM      5  S   UNL d   1      -1.350   0.500   0.212  0.00  0.00     0.015 SA
ATOM      6  C4  UNL d   1      -0.351   1.575  -0.655  0.00  0.00     0.022 A 
ATOM      7  C5  UNL d   1       0.920   1.078  -0.820  0.00  0.00     0.026 A 
ATOM      8  C6  UNL d   1       1.095  -0.218  -0.226  0.00  0.00    -0.082 A 
ATOM      9  C7  UNL d   1       2.230  -1.062  -0.173  0.00  0.00     0.045 A 
ENDROOT
TORSDOF 0
ENDMDL
