MODEL 1
REMARK minimizedAffinity -4.29369783
REMARK minimizedRMSD -1
REMARK  0 active torsions:
REMARK  status: ('A' for Active; 'I' for Inactive)
ROOT
ATOM      1  C   UNL d   1       1.721  -2.150   0.056  0.00  0.00    -0.002 A 
ATOM      2  C1  UNL d   1       0.730  -2.535   0.948  0.00  0.00     0.010 A 
ATOM      3  C2  UNL d   1      -0.376  -1.716   1.178  0.00  0.00     0.041 A 
ATOM      4  C3  UNL d   1      -0.472  -0.490   0.489  0.00  0.00    -0.075 A 
ATOM      5  S   UNL d   1      -1.737   0.675   0.611  0.00  0.00     0.015 SA
ATOM      6  C4  UNL d   1      -0.992   1.712  -0.518  0.00  0.00     0.022 A 
ATOM      7  C5  UNL d   1       0.194   1.197  -0.986  0.00  0.00     0.026 A 
ATOM      8  C6  UNL d   1       0.513  -0.081  -0.414  0.00  0.00    -0.082 A 
ATOM      9  C7  UNL d   1       1.623  -0.934  -0.625  0.00  0.00     0.045 A 
ENDROOT
TORSDOF 0
ENDMDL
