MODEL 1
REMARK minimizedAffinity -3.08918381
REMARK minimizedRMSD -1
REMARK  0 active torsions:
REMARK  status: ('A' for Active; 'I' for Inactive)
ROOT
ATOM      1  C   UNL d   1      -1.226   0.371  -0.350  0.00  0.00    -0.002 A 
ATOM      2  C1  UNL d   1      -0.125   1.204  -0.208  0.00  0.00     0.010 A 
ATOM      3  C2  UNL d   1       1.095   0.697   0.243  0.00  0.00     0.041 A 
ATOM      4  C3  UNL d   1       1.192  -0.674   0.551  0.00  0.00    -0.075 A 
ATOM      5  S   UNL d   1       2.585  -1.516   1.119  0.00  0.00     0.015 SA
ATOM      6  C4  UNL d   1       1.751  -3.002   1.186  0.00  0.00     0.022 A 
ATOM      7  C5  UNL d   1       0.441  -2.876   0.789  0.00  0.00     0.026 A 
ATOM      8  C6  UNL d   1       0.097  -1.533   0.416  0.00  0.00    -0.082 A 
ATOM      9  C7  UNL d   1      -1.127  -0.988  -0.043  0.00  0.00     0.045 A 
ENDROOT
TORSDOF 0
ENDMDL
