MODEL 1
REMARK minimizedAffinity 2.82616448
REMARK minimizedRMSD -1
REMARK  0 active torsions:
REMARK  status: ('A' for Active; 'I' for Inactive)
ROOT
ATOM      1  C   UNL d   1       0.752   0.301   0.526  0.00  0.00    -0.002 A 
ATOM      2  C1  UNL d   1       0.352  -0.925   0.012  0.00  0.00     0.010 A 
ATOM      3  C2  UNL d   1      -0.554  -0.989  -1.048  0.00  0.00     0.041 A 
ATOM      4  C3  UNL d   1      -1.056   0.211  -1.590  0.00  0.00    -0.075 A 
ATOM      5  S   UNL d   1      -2.174   0.377  -2.891  0.00  0.00     0.015 SA
ATOM      6  C4  UNL d   1      -2.148   2.078  -2.796  0.00  0.00     0.022 A 
ATOM      7  C5  UNL d   1      -1.311   2.526  -1.801  0.00  0.00     0.026 A 
ATOM      8  C6  UNL d   1      -0.667   1.457  -1.090  0.00  0.00    -0.082 A 
ATOM      9  C7  UNL d   1       0.252   1.489  -0.014  0.00  0.00     0.045 A 
ENDROOT
TORSDOF 0
ENDMDL
