MODEL 1
REMARK minimizedAffinity -1.97125351
REMARK minimizedRMSD -1
REMARK  0 active torsions:
REMARK  status: ('A' for Active; 'I' for Inactive)
ROOT
ATOM      1  C   UNL d   1       1.765  -2.349   1.583  0.00  0.00    -0.002 A 
ATOM      2  C1  UNL d   1       0.389  -2.409   1.756  0.00  0.00     0.010 A 
ATOM      3  C2  UNL d   1      -0.449  -1.509   1.096  0.00  0.00     0.041 A 
ATOM      4  C3  UNL d   1       0.123  -0.540   0.248  0.00  0.00    -0.075 A 
ATOM      5  S   UNL d   1      -0.708   0.664  -0.664  0.00  0.00     0.015 SA
ATOM      6  C4  UNL d   1       0.743   1.286  -1.305  0.00  0.00     0.022 A 
ATOM      7  C5  UNL d   1       1.845   0.604  -0.845  0.00  0.00     0.026 A 
ATOM      8  C6  UNL d   1       1.505  -0.460   0.058  0.00  0.00    -0.082 A 
ATOM      9  C7  UNL d   1       2.329  -1.386   0.742  0.00  0.00     0.045 A 
ENDROOT
TORSDOF 0
ENDMDL
