MODEL 1
REMARK minimizedAffinity 9.14832592
REMARK minimizedRMSD -1
REMARK  2 active torsions:
REMARK  status: ('A' for Active; 'I' for Inactive)
REMARK    1  A    between atoms: C1_2  and  C2_3 
REMARK    2  A    between atoms: C2_3  and  C3_4 
ROOT
ATOM      1  C3  UNL d   1       4.562   3.255  -2.081  0.00  0.00    -0.075 A 
ATOM      2  C4  UNL d   1       5.304   4.436  -1.931  0.00  0.00     0.002 A 
ATOM      3  C5  UNL d   1       5.996   4.692  -0.748  0.00  0.00     0.002 A 
ATOM      4  C6  UNL d   1       5.948   3.779   0.303  0.00  0.00    -0.004 A 
ATOM      5  C7  UNL d   1       5.200   2.611   0.172  0.00  0.00     0.002 A 
ATOM      6  C8  UNL d   1       4.510   2.349  -1.013  0.00  0.00     0.002 A 
ENDROOT
BRANCH   1   7
ATOM      7  C2  UNL d   1       3.835   2.958  -3.371  0.00  0.00     0.056 C 
BRANCH   7   8
ATOM      8  C1  UNL d   1       2.330   3.241  -3.317  0.00  0.00     0.007 C 
ATOM      9  C   UNL d   1       1.993   4.721  -3.441  0.00  0.00     0.009 C 
ENDBRANCH   7   8
ENDBRANCH   1   7
TORSDOF 2
ENDMDL
