MODEL 1
REMARK minimizedAffinity 14.0419464
REMARK minimizedRMSD -1
REMARK  2 active torsions:
REMARK  status: ('A' for Active; 'I' for Inactive)
REMARK    1  A    between atoms: C1_2  and  C2_3 
REMARK    2  A    between atoms: C2_3  and  C3_4 
ROOT
ATOM      1  C3  UNL d   1       4.618   2.669  -0.795  0.00  0.00    -0.075 A 
ATOM      2  C4  UNL d   1       5.614   3.655  -0.760  0.00  0.00     0.002 A 
ATOM      3  C5  UNL d   1       5.999   4.230   0.452  0.00  0.00     0.002 A 
ATOM      4  C6  UNL d   1       5.386   3.835   1.639  0.00  0.00    -0.004 A 
ATOM      5  C7  UNL d   1       4.383   2.869   1.614  0.00  0.00     0.002 A 
ATOM      6  C8  UNL d   1       4.000   2.288   0.404  0.00  0.00     0.002 A 
ENDROOT
BRANCH   1   7
ATOM      7  C2  UNL d   1       4.218   2.021  -2.099  0.00  0.00     0.056 C 
BRANCH   7   8
ATOM      8  C1  UNL d   1       3.386   2.925  -3.015  0.00  0.00     0.007 C 
ATOM      9  C   UNL d   1       1.899   2.597  -2.993  0.00  0.00     0.009 C 
ENDBRANCH   7   8
ENDBRANCH   1   7
TORSDOF 2
ENDMDL
