MODEL 1
REMARK minimizedAffinity 9.12837219
REMARK minimizedRMSD -1
REMARK  2 active torsions:
REMARK  status: ('A' for Active; 'I' for Inactive)
REMARK    1  A    between atoms: C1_2  and  C2_3 
REMARK    2  A    between atoms: C2_3  and  C3_4 
ROOT
ATOM      1  C3  UNL d   1      -4.273   0.211   4.927  0.00  0.00    -0.075 A 
ATOM      2  C4  UNL d   1      -4.859  -1.012   5.282  0.00  0.00     0.002 A 
ATOM      3  C5  UNL d   1      -5.281  -1.907   4.298  0.00  0.00     0.002 A 
ATOM      4  C6  UNL d   1      -5.133  -1.586   2.951  0.00  0.00    -0.004 A 
ATOM      5  C7  UNL d   1      -4.567  -0.366   2.587  0.00  0.00     0.002 A 
ATOM      6  C8  UNL d   1      -4.139   0.529   3.569  0.00  0.00     0.002 A 
ENDROOT
BRANCH   1   7
ATOM      7  C2  UNL d   1      -3.786   1.171   5.987  0.00  0.00     0.056 C 
BRANCH   7   8
ATOM      8  C1  UNL d   1      -2.327   1.605   5.813  0.00  0.00     0.007 C 
ATOM      9  C   UNL d   1      -1.336   0.460   5.983  0.00  0.00     0.009 C 
ENDBRANCH   7   8
ENDBRANCH   1   7
TORSDOF 2
ENDMDL
