MODEL 1
REMARK minimizedAffinity 9.1295414
REMARK minimizedRMSD -1
REMARK  2 active torsions:
REMARK  status: ('A' for Active; 'I' for Inactive)
REMARK    1  A    between atoms: C1_2  and  C2_3 
REMARK    2  A    between atoms: C2_3  and  C3_4 
ROOT
ATOM      1  C3  UNL d   1       3.537  -2.966  -0.121  0.00  0.00    -0.075 A 
ATOM      2  C4  UNL d   1       2.852  -2.781   1.089  0.00  0.00     0.002 A 
ATOM      3  C5  UNL d   1       2.732  -1.508   1.648  0.00  0.00     0.002 A 
ATOM      4  C6  UNL d   1       3.303  -0.408   1.012  0.00  0.00    -0.004 A 
ATOM      5  C7  UNL d   1       4.000  -0.583  -0.182  0.00  0.00     0.002 A 
ATOM      6  C8  UNL d   1       4.118  -1.854  -0.746  0.00  0.00     0.002 A 
ENDROOT
BRANCH   1   7
ATOM      7  C2  UNL d   1       3.645  -4.336  -0.746  0.00  0.00     0.056 C 
BRANCH   7   8
ATOM      8  C1  UNL d   1       4.548  -5.304   0.025  0.00  0.00     0.007 C 
ATOM      9  C   UNL d   1       5.999  -4.848   0.091  0.00  0.00     0.009 C 
ENDBRANCH   7   8
ENDBRANCH   1   7
TORSDOF 2
ENDMDL
