MODEL 1
REMARK minimizedAffinity 8.4174242
REMARK minimizedRMSD -1
REMARK  2 active torsions:
REMARK  status: ('A' for Active; 'I' for Inactive)
REMARK    1  A    between atoms: C1_2  and  C2_3 
REMARK    2  A    between atoms: C2_3  and  C3_4 
ROOT
ATOM      1  C3  UNL d   1      -3.867   2.473   5.263  0.00  0.00    -0.075 A 
ATOM      2  C4  UNL d   1      -3.347   3.776   5.249  0.00  0.00     0.002 A 
ATOM      3  C5  UNL d   1      -4.142   4.860   5.620  0.00  0.00     0.002 A 
ATOM      4  C6  UNL d   1      -5.468   4.659   5.998  0.00  0.00    -0.004 A 
ATOM      5  C7  UNL d   1      -6.000   3.371   6.000  0.00  0.00     0.002 A 
ATOM      6  C8  UNL d   1      -5.205   2.283   5.634  0.00  0.00     0.002 A 
ENDROOT
BRANCH   1   7
ATOM      7  C2  UNL d   1      -3.002   1.292   4.892  0.00  0.00     0.056 C 
BRANCH   7   8
ATOM      8  C1  UNL d   1      -2.832   1.094   3.382  0.00  0.00     0.007 C 
ATOM      9  C   UNL d   1      -1.644   0.211   3.023  0.00  0.00     0.009 C 
ENDBRANCH   7   8
ENDBRANCH   1   7
TORSDOF 2
ENDMDL
