MODEL 1
REMARK minimizedAffinity 3.76976371
REMARK minimizedRMSD -1
REMARK  2 active torsions:
REMARK  status: ('A' for Active; 'I' for Inactive)
REMARK    1  A    between atoms: C1_2  and  C2_3 
REMARK    2  A    between atoms: C2_3  and  C3_4 
ROOT
ATOM      1  C3  UNL d   1      -5.971  -1.605  -3.333  0.00  0.00    -0.075 A 
ATOM      2  C4  UNL d   1      -5.997  -2.991  -3.542  0.00  0.00     0.002 A 
ATOM      3  C5  UNL d   1      -5.998  -3.513  -4.836  0.00  0.00     0.002 A 
ATOM      4  C6  UNL d   1      -5.984  -2.658  -5.935  0.00  0.00    -0.004 A 
ATOM      5  C7  UNL d   1      -5.974  -1.278  -5.740  0.00  0.00     0.002 A 
ATOM      6  C8  UNL d   1      -5.968  -0.754  -4.446  0.00  0.00     0.002 A 
ENDROOT
BRANCH   1   7
ATOM      7  C2  UNL d   1      -5.939  -1.034  -1.936  0.00  0.00     0.056 C 
BRANCH   7   8
ATOM      8  C1  UNL d   1      -5.988   0.496  -1.885  0.00  0.00     0.007 C 
ATOM      9  C   UNL d   1      -5.997   1.051  -0.467  0.00  0.00     0.009 C 
ENDBRANCH   7   8
ENDBRANCH   1   7
TORSDOF 2
ENDMDL
