MODEL 1
REMARK minimizedAffinity 20.5699387
REMARK minimizedRMSD -1
REMARK  2 active torsions:
REMARK  status: ('A' for Active; 'I' for Inactive)
REMARK    1  A    between atoms: C1_2  and  C2_3 
REMARK    2  A    between atoms: C2_3  and  C3_4 
ROOT
ATOM      1  C3  UNL d   1      -3.017   2.301   4.477  0.00  0.00    -0.075 A 
ATOM      2  C4  UNL d   1      -2.459   1.761   5.645  0.00  0.00     0.002 A 
ATOM      3  C5  UNL d   1      -1.528   0.725   5.571  0.00  0.00     0.002 A 
ATOM      4  C6  UNL d   1      -1.150   0.210   4.333  0.00  0.00    -0.004 A 
ATOM      5  C7  UNL d   1      -1.710   0.729   3.167  0.00  0.00     0.002 A 
ATOM      6  C8  UNL d   1      -2.639   1.768   3.238  0.00  0.00     0.002 A 
ENDROOT
BRANCH   1   7
ATOM      7  C2  UNL d   1      -4.003   3.442   4.548  0.00  0.00     0.056 C 
BRANCH   7   8
ATOM      8  C1  UNL d   1      -4.249   3.966   5.967  0.00  0.00     0.007 C 
ATOM      9  C   UNL d   1      -4.796   5.387   5.996  0.00  0.00     0.009 C 
ENDBRANCH   7   8
ENDBRANCH   1   7
TORSDOF 2
ENDMDL
