MODEL 1
REMARK minimizedAffinity 4.78821325
REMARK minimizedRMSD -1
REMARK  2 active torsions:
REMARK  status: ('A' for Active; 'I' for Inactive)
REMARK    1  A    between atoms: C1_2  and  C2_3 
REMARK    2  A    between atoms: C2_3  and  C3_4 
ROOT
ATOM      1  C3  UNL d   1       3.363  -1.215   0.057  0.00  0.00    -0.075 A 
ATOM      2  C4  UNL d   1       4.123  -1.898  -0.904  0.00  0.00     0.002 A 
ATOM      3  C5  UNL d   1       4.027  -3.285  -1.029  0.00  0.00     0.002 A 
ATOM      4  C6  UNL d   1       3.180  -4.005  -0.190  0.00  0.00    -0.004 A 
ATOM      5  C7  UNL d   1       2.432  -3.339   0.779  0.00  0.00     0.002 A 
ATOM      6  C8  UNL d   1       2.524  -1.952   0.903  0.00  0.00     0.002 A 
ENDROOT
BRANCH   1   7
ATOM      7  C2  UNL d   1       3.441   0.288   0.177  0.00  0.00     0.056 C 
BRANCH   7   8
ATOM      8  C1  UNL d   1       2.135   1.010  -0.171  0.00  0.00     0.007 C 
ATOM      9  C   UNL d   1       2.023   1.368  -1.647  0.00  0.00     0.009 C 
ENDBRANCH   7   8
ENDBRANCH   1   7
TORSDOF 2
ENDMDL
