MODEL 1
REMARK minimizedAffinity 8.73580074
REMARK minimizedRMSD -1
REMARK  2 active torsions:
REMARK  status: ('A' for Active; 'I' for Inactive)
REMARK    1  A    between atoms: C1_2  and  C2_3 
REMARK    2  A    between atoms: C2_3  and  C3_4 
ROOT
ATOM      1  C3  UNL d   1      -1.171  -4.514  -2.819  0.00  0.00    -0.075 A 
ATOM      2  C4  UNL d   1      -2.230  -5.168  -3.465  0.00  0.00     0.002 A 
ATOM      3  C5  UNL d   1      -2.002  -5.911  -4.624  0.00  0.00     0.002 A 
ATOM      4  C6  UNL d   1      -0.718  -6.000  -5.156  0.00  0.00    -0.004 A 
ATOM      5  C7  UNL d   1       0.338  -5.340  -4.532  0.00  0.00     0.002 A 
ATOM      6  C8  UNL d   1       0.114  -4.600  -3.370  0.00  0.00     0.002 A 
ENDROOT
BRANCH   1   7
ATOM      7  C2  UNL d   1      -1.406  -3.733  -1.548  0.00  0.00     0.056 C 
BRANCH   7   8
ATOM      8  C1  UNL d   1      -1.173  -4.541  -0.267  0.00  0.00     0.007 C 
ATOM      9  C   UNL d   1      -0.263  -3.836   0.730  0.00  0.00     0.009 C 
ENDBRANCH   7   8
ENDBRANCH   1   7
TORSDOF 2
ENDMDL
