MODEL 1
REMARK minimizedAffinity 13.5212383
REMARK minimizedRMSD -1
REMARK  2 active torsions:
REMARK  status: ('A' for Active; 'I' for Inactive)
REMARK    1  A    between atoms: C1_2  and  C2_3 
REMARK    2  A    between atoms: C2_3  and  C3_4 
ROOT
ATOM      1  C3  UNL d   1      -3.994   0.210   1.474  0.00  0.00    -0.075 A 
ATOM      2  C4  UNL d   1      -3.894   0.694   2.786  0.00  0.00     0.002 A 
ATOM      3  C5  UNL d   1      -2.697   0.582   3.493  0.00  0.00     0.002 A 
ATOM      4  C6  UNL d   1      -1.590  -0.024   2.903  0.00  0.00    -0.004 A 
ATOM      5  C7  UNL d   1      -1.682  -0.524   1.606  0.00  0.00     0.002 A 
ATOM      6  C8  UNL d   1      -2.878  -0.409   0.894  0.00  0.00     0.002 A 
ENDROOT
BRANCH   1   7
ATOM      7  C2  UNL d   1      -5.278   0.354   0.692  0.00  0.00     0.056 C 
BRANCH   7   8
ATOM      8  C1  UNL d   1      -5.076   0.789  -0.763  0.00  0.00     0.007 C 
ATOM      9  C   UNL d   1      -5.481  -0.279  -1.770  0.00  0.00     0.009 C 
ENDBRANCH   7   8
ENDBRANCH   1   7
TORSDOF 2
ENDMDL
