MODEL 1
REMARK minimizedAffinity 1.78475749
REMARK minimizedRMSD -1
REMARK  2 active torsions:
REMARK  status: ('A' for Active; 'I' for Inactive)
REMARK    1  A    between atoms: C1_2  and  C2_3 
REMARK    2  A    between atoms: C2_3  and  C3_4 
ROOT
ATOM      1  C3  UNL d   1      -0.382  -1.119   1.479  0.00  0.00    -0.075 A 
ATOM      2  C4  UNL d   1       0.755  -1.275   0.673  0.00  0.00     0.002 A 
ATOM      3  C5  UNL d   1       1.208  -0.224  -0.125  0.00  0.00     0.002 A 
ATOM      4  C6  UNL d   1       0.526   0.990  -0.135  0.00  0.00    -0.004 A 
ATOM      5  C7  UNL d   1      -0.615   1.152   0.649  0.00  0.00     0.002 A 
ATOM      6  C8  UNL d   1      -1.067   0.103   1.451  0.00  0.00     0.002 A 
ENDROOT
BRANCH   1   7
ATOM      7  C2  UNL d   1      -0.860  -2.243   2.367  0.00  0.00     0.056 C 
BRANCH   7   8
ATOM      8  C1  UNL d   1      -2.258  -2.021   2.955  0.00  0.00     0.007 C 
ATOM      9  C   UNL d   1      -3.239  -3.133   2.606  0.00  0.00     0.009 C 
ENDBRANCH   7   8
ENDBRANCH   1   7
TORSDOF 2
ENDMDL
