MODEL 1
REMARK minimizedAffinity -3.77303672
REMARK minimizedRMSD -1
REMARK  0 active torsions:
REMARK  status: ('A' for Active; 'I' for Inactive)
ROOT
ATOM      1  O1  BZF d   1      -0.009   1.040   1.309  0.00  0.00    -0.204 OA
ATOM      2  C2  BZF d   1      -1.098   1.238   0.482  0.00  0.00     0.174 A 
ATOM      3  C3  BZF d   1      -1.059   0.395  -0.570  0.00  0.00    -0.012 A 
ATOM      4  C3A BZF d   1       0.078  -0.441  -0.340  0.00  0.00    -0.107 A 
ATOM      5  C4  BZF d   1       0.631  -1.485  -1.027  0.00  0.00     0.055 A 
ATOM      6  C5  BZF d   1       1.785  -2.038  -0.570  0.00  0.00    -0.016 A 
ATOM      7  C6  BZF d   1       2.415  -1.571   0.564  0.00  0.00     0.022 A 
ATOM      8  C7  BZF d   1       1.903  -0.542   1.282  0.00  0.00     0.029 A 
ATOM      9  C7A BZF d   1       0.719  -0.002   0.842  0.00  0.00     0.058 A 
ENDROOT
TORSDOF 0
ENDMDL
