MODEL 1
REMARK minimizedAffinity -3.88867378
REMARK minimizedRMSD -1
REMARK  0 active torsions:
REMARK  status: ('A' for Active; 'I' for Inactive)
ROOT
ATOM      1  O1  BZF d   1      -0.528   0.741  -0.193  0.00  0.00    -0.204 OA
ATOM      2  C2  BZF d   1      -1.121  -0.115  -1.101  0.00  0.00     0.174 A 
ATOM      3  C3  BZF d   1      -0.405  -1.251  -1.225  0.00  0.00    -0.012 A 
ATOM      4  C3A BZF d   1       0.655  -1.134  -0.270  0.00  0.00    -0.107 A 
ATOM      5  C4  BZF d   1       1.687  -1.952   0.091  0.00  0.00     0.055 A 
ATOM      6  C5  BZF d   1       2.590  -1.510   1.006  0.00  0.00    -0.016 A 
ATOM      7  C6  BZF d   1       2.495  -0.257   1.574  0.00  0.00     0.022 A 
ATOM      8  C7  BZF d   1       1.485   0.588   1.250  0.00  0.00     0.029 A 
ATOM      9  C7A BZF d   1       0.553   0.132   0.351  0.00  0.00     0.058 A 
ENDROOT
TORSDOF 0
ENDMDL
