MODEL 1
REMARK minimizedAffinity -4.35150194
REMARK minimizedRMSD -1
REMARK  0 active torsions:
REMARK  status: ('A' for Active; 'I' for Inactive)
ROOT
ATOM      1  O1  BZF d   1      -1.232   0.312   1.090  0.00  0.00    -0.204 OA
ATOM      2  C2  BZF d   1      -1.572   1.012  -0.052  0.00  0.00     0.174 A 
ATOM      3  C3  BZF d   1      -0.564   0.983  -0.948  0.00  0.00    -0.012 A 
ATOM      4  C3A BZF d   1       0.434   0.140  -0.365  0.00  0.00    -0.107 A 
ATOM      5  C4  BZF d   1       1.662  -0.287  -0.782  0.00  0.00     0.055 A 
ATOM      6  C5  BZF d   1       2.417  -1.045   0.055  0.00  0.00    -0.016 A 
ATOM      7  C6  BZF d   1       1.978  -1.389   1.317  0.00  0.00     0.022 A 
ATOM      8  C7  BZF d   1       0.765  -0.993   1.773  0.00  0.00     0.029 A 
ATOM      9  C7A BZF d   1      -0.014  -0.255   0.917  0.00  0.00     0.058 A 
ENDROOT
TORSDOF 0
ENDMDL
