MODEL 1
REMARK minimizedAffinity -5.22172213
REMARK minimizedRMSD -1
REMARK  0 active torsions:
REMARK  status: ('A' for Active; 'I' for Inactive)
ROOT
ATOM      1  O1  BZF d   1       0.125   1.281   0.518  0.00  0.00    -0.204 OA
ATOM      2  C2  BZF d   1      -1.181   1.146   0.088  0.00  0.00     0.174 A 
ATOM      3  C3  BZF d   1      -1.397  -0.090  -0.409  0.00  0.00    -0.012 A 
ATOM      4  C3A BZF d   1      -0.172  -0.799  -0.197  0.00  0.00    -0.107 A 
ATOM      5  C4  BZF d   1       0.231  -2.076  -0.463  0.00  0.00     0.055 A 
ATOM      6  C5  BZF d   1       1.516  -2.432  -0.199  0.00  0.00    -0.016 A 
ATOM      7  C6  BZF d   1       2.424  -1.536   0.326  0.00  0.00     0.022 A 
ATOM      8  C7  BZF d   1       2.069  -0.259   0.612  0.00  0.00     0.029 A 
ATOM      9  C7A BZF d   1       0.763   0.094   0.377  0.00  0.00     0.058 A 
ENDROOT
TORSDOF 0
ENDMDL
