MODEL 1
REMARK minimizedAffinity -4.89558029
REMARK minimizedRMSD -1
REMARK  0 active torsions:
REMARK  status: ('A' for Active; 'I' for Inactive)
ROOT
ATOM      1  O1  BZF d   1       2.536   0.014   1.055  0.00  0.00    -0.204 OA
ATOM      2  C2  BZF d   1       2.955  -1.296   0.926  0.00  0.00     0.174 A 
ATOM      3  C3  BZF d   1       1.989  -2.054   0.367  0.00  0.00    -0.012 A 
ATOM      4  C3A BZF d   1       0.933  -1.143   0.048  0.00  0.00    -0.107 A 
ATOM      5  C4  BZF d   1      -0.290  -1.293  -0.540  0.00  0.00     0.055 A 
ATOM      6  C5  BZF d   1      -1.112  -0.215  -0.639  0.00  0.00    -0.016 A 
ATOM      7  C6  BZF d   1      -0.746   1.024  -0.155  0.00  0.00     0.022 A 
ATOM      8  C7  BZF d   1       0.459   1.222   0.432  0.00  0.00     0.029 A 
ATOM      9  C7A BZF d   1       1.306   0.143   0.503  0.00  0.00     0.058 A 
ENDROOT
TORSDOF 0
ENDMDL
