MODEL 1
REMARK minimizedAffinity -4.00030422
REMARK minimizedRMSD -1
REMARK  0 active torsions:
REMARK  status: ('A' for Active; 'I' for Inactive)
ROOT
ATOM      1  O1  BZF d   1       3.432   1.051  -0.297  0.00  0.00    -0.204 OA
ATOM      2  C2  BZF d   1       2.891   2.319  -0.206  0.00  0.00     0.174 A 
ATOM      3  C3  BZF d   1       1.546   2.273  -0.291  0.00  0.00    -0.012 A 
ATOM      4  C3A BZF d   1       1.220   0.881  -0.352  0.00  0.00    -0.107 A 
ATOM      5  C4  BZF d   1       0.042   0.196  -0.430  0.00  0.00     0.055 A 
ATOM      6  C5  BZF d   1       0.072  -1.158  -0.547  0.00  0.00    -0.016 A 
ATOM      7  C6  BZF d   1       1.260  -1.857  -0.594  0.00  0.00     0.022 A 
ATOM      8  C7  BZF d   1       2.455  -1.220  -0.515  0.00  0.00     0.029 A 
ATOM      9  C7A BZF d   1       2.427   0.144  -0.363  0.00  0.00     0.058 A 
ENDROOT
TORSDOF 0
ENDMDL
