MODEL 1
REMARK minimizedAffinity -4.76488018
REMARK minimizedRMSD -1
REMARK  0 active torsions:
REMARK  status: ('A' for Active; 'I' for Inactive)
ROOT
ATOM      1  O1  BZF d   1      -0.054   1.282  -0.158  0.00  0.00    -0.204 OA
ATOM      2  C2  BZF d   1      -0.776   0.114  -0.308  0.00  0.00     0.174 A 
ATOM      3  C3  BZF d   1       0.025  -0.963  -0.178  0.00  0.00    -0.012 A 
ATOM      4  C3A BZF d   1       1.312  -0.437   0.159  0.00  0.00    -0.107 A 
ATOM      5  C4  BZF d   1       2.521  -1.012   0.429  0.00  0.00     0.055 A 
ATOM      6  C5  BZF d   1       3.598  -0.214   0.650  0.00  0.00    -0.016 A 
ATOM      7  C6  BZF d   1       3.504   1.162   0.603  0.00  0.00     0.022 A 
ATOM      8  C7  BZF d   1       2.325   1.778   0.343  0.00  0.00     0.029 A 
ATOM      9  C7A BZF d   1       1.228   0.975   0.152  0.00  0.00     0.058 A 
ENDROOT
TORSDOF 0
ENDMDL
