MODEL 1
REMARK minimizedAffinity 4.26246023
REMARK minimizedRMSD -1
REMARK  3 active torsions:
REMARK  status: ('A' for Active; 'I' for Inactive)
REMARK    1  A    between atoms: C3'_2  and  C2'_3 
REMARK    2  A    between atoms: C2'_3  and  C1'_4 
REMARK    3  A    between atoms: C1'_4  and  C1_5 
ROOT
ATOM      1  C1  N4B d   1      -4.181   3.691  -4.720  0.00  0.00    -0.075 A 
ATOM      2  C2  N4B d   1      -5.273   3.715  -5.616  0.00  0.00     0.002 A 
ATOM      3  C3  N4B d   1      -6.000   4.868  -5.781  0.00  0.00     0.002 A 
ATOM      4  C4  N4B d   1      -5.667   5.999  -5.051  0.00  0.00    -0.004 A 
ATOM      5  C5  N4B d   1      -4.595   5.975  -4.208  0.00  0.00     0.002 A 
ATOM      6  C6  N4B d   1      -3.853   4.824  -4.034  0.00  0.00     0.002 A 
ENDROOT
BRANCH   1   7
ATOM      7  C1' N4B d   1      -3.410   2.430  -4.442  0.00  0.00     0.057 C 
BRANCH   7   8
ATOM      8  C2' N4B d   1      -3.339   2.209  -2.934  0.00  0.00     0.009 C 
BRANCH   8   9
ATOM      9  C3' N4B d   1      -3.787   0.812  -2.542  0.00  0.00     0.004 C 
ATOM     10  C4' N4B d   1      -4.515   0.104  -3.646  0.00  0.00     0.003 C 
ENDBRANCH   8   9
ENDBRANCH   7   8
ENDBRANCH   1   7
TORSDOF 3
ENDMDL
