MODEL 1
REMARK minimizedAffinity -0.624925256
REMARK minimizedRMSD -1
REMARK  3 active torsions:
REMARK  status: ('A' for Active; 'I' for Inactive)
REMARK    1  A    between atoms: C3'_2  and  C2'_3 
REMARK    2  A    between atoms: C2'_3  and  C1'_4 
REMARK    3  A    between atoms: C1'_4  and  C1_5 
ROOT
ATOM      1  C1  N4B d   1       2.598  -0.219  -0.260  0.00  0.00    -0.075 A 
ATOM      2  C2  N4B d   1       1.515  -0.382  -1.152  0.00  0.00     0.002 A 
ATOM      3  C3  N4B d   1       0.942   0.716  -1.744  0.00  0.00     0.002 A 
ATOM      4  C4  N4B d   1       1.421   1.984  -1.447  0.00  0.00    -0.004 A 
ATOM      5  C5  N4B d   1       2.483   2.131  -0.605  0.00  0.00     0.002 A 
ATOM      6  C6  N4B d   1       3.072   1.035  -0.005  0.00  0.00     0.002 A 
ENDROOT
BRANCH   1   7
ATOM      7  C1' N4B d   1       3.201  -1.383   0.478  0.00  0.00     0.057 C 
BRANCH   7   8
ATOM      8  C2' N4B d   1       2.102  -2.116   1.241  0.00  0.00     0.009 C 
BRANCH   8   9
ATOM      9  C3' N4B d   1       1.563  -1.289   2.396  0.00  0.00     0.004 C 
ATOM     10  C4' N4B d   1       0.076  -1.408   2.552  0.00  0.00     0.003 C 
ENDBRANCH   8   9
ENDBRANCH   7   8
ENDBRANCH   1   7
TORSDOF 3
ENDMDL
