MODEL 1
REMARK minimizedAffinity 2.63675308
REMARK minimizedRMSD -1
REMARK  3 active torsions:
REMARK  status: ('A' for Active; 'I' for Inactive)
REMARK    1  A    between atoms: C3'_2  and  C2'_3 
REMARK    2  A    between atoms: C2'_3  and  C1'_4 
REMARK    3  A    between atoms: C1'_4  and  C1_5 
ROOT
ATOM      1  C1  N4B d   1      -3.994   1.819  -5.314  0.00  0.00    -0.075 A 
ATOM      2  C2  N4B d   1      -4.875   1.289  -4.346  0.00  0.00     0.002 A 
ATOM      3  C3  N4B d   1      -4.901  -0.063  -4.110  0.00  0.00     0.002 A 
ATOM      4  C4  N4B d   1      -4.073  -0.904  -4.839  0.00  0.00    -0.004 A 
ATOM      5  C5  N4B d   1      -3.207  -0.381  -5.754  0.00  0.00     0.002 A 
ATOM      6  C6  N4B d   1      -3.167   0.977  -6.000  0.00  0.00     0.002 A 
ENDROOT
BRANCH   1   7
ATOM      7  C1' N4B d   1      -3.990   3.281  -5.669  0.00  0.00     0.057 C 
BRANCH   7   8
ATOM      8  C2' N4B d   1      -5.423   3.805  -5.652  0.00  0.00     0.009 C 
BRANCH   8   9
ATOM      9  C3' N4B d   1      -5.518   5.180  -5.014  0.00  0.00     0.004 C 
ATOM     10  C4' N4B d   1      -4.198   5.677  -4.506  0.00  0.00     0.003 C 
ENDBRANCH   8   9
ENDBRANCH   7   8
ENDBRANCH   1   7
TORSDOF 3
ENDMDL
