MODEL 1
REMARK minimizedAffinity 4.97801971
REMARK minimizedRMSD -1
REMARK  3 active torsions:
REMARK  status: ('A' for Active; 'I' for Inactive)
REMARK    1  A    between atoms: C3'_2  and  C2'_3 
REMARK    2  A    between atoms: C2'_3  and  C1'_4 
REMARK    3  A    between atoms: C1'_4  and  C1_5 
ROOT
ATOM      1  C1  N4B d   1      -0.620  -0.141   2.975  0.00  0.00    -0.075 A 
ATOM      2  C2  N4B d   1      -1.024  -1.083   2.002  0.00  0.00     0.002 A 
ATOM      3  C3  N4B d   1      -0.083  -1.836   1.343  0.00  0.00     0.002 A 
ATOM      4  C4  N4B d   1       1.262  -1.652   1.625  0.00  0.00    -0.004 A 
ATOM      5  C5  N4B d   1       1.642  -0.759   2.584  0.00  0.00     0.002 A 
ATOM      6  C6  N4B d   1       0.708   0.001   3.257  0.00  0.00     0.002 A 
ENDROOT
BRANCH   1   7
ATOM      7  C1' N4B d   1      -1.606   0.765   3.660  0.00  0.00     0.057 C 
BRANCH   7   8
ATOM      8  C2' N4B d   1      -2.831   0.939   2.767  0.00  0.00     0.009 C 
BRANCH   8   9
ATOM      9  C3' N4B d   1      -4.042   1.413   3.551  0.00  0.00     0.004 C 
ATOM     10  C4' N4B d   1      -3.739   1.654   5.000  0.00  0.00     0.003 C 
ENDBRANCH   8   9
ENDBRANCH   7   8
ENDBRANCH   1   7
TORSDOF 3
ENDMDL
