MODEL 1
REMARK minimizedAffinity 1.85986507
REMARK minimizedRMSD -1
REMARK  3 active torsions:
REMARK  status: ('A' for Active; 'I' for Inactive)
REMARK    1  A    between atoms: C3'_2  and  C2'_3 
REMARK    2  A    between atoms: C2'_3  and  C1'_4 
REMARK    3  A    between atoms: C1'_4  and  C1_5 
ROOT
ATOM      1  C1  N4B d   1       0.362  -0.691   2.322  0.00  0.00    -0.075 A 
ATOM      2  C2  N4B d   1       0.311  -0.437   0.933  0.00  0.00     0.002 A 
ATOM      3  C3  N4B d   1       1.237  -1.011   0.097  0.00  0.00     0.002 A 
ATOM      4  C4  N4B d   1       2.229  -1.823   0.625  0.00  0.00    -0.004 A 
ATOM      5  C5  N4B d   1       2.255  -2.084   1.964  0.00  0.00     0.002 A 
ATOM      6  C6  N4B d   1       1.329  -1.517   2.816  0.00  0.00     0.002 A 
ENDROOT
BRANCH   1   7
ATOM      7  C1' N4B d   1      -0.576  -0.018   3.286  0.00  0.00     0.057 C 
BRANCH   7   8
ATOM      8  C2' N4B d   1      -1.852   0.381   2.550  0.00  0.00     0.009 C 
BRANCH   8   9
ATOM      9  C3' N4B d   1      -2.401   1.709   3.042  0.00  0.00     0.004 C 
ATOM     10  C4' N4B d   1      -3.840   1.624   3.456  0.00  0.00     0.003 C 
ENDBRANCH   8   9
ENDBRANCH   7   8
ENDBRANCH   1   7
TORSDOF 3
ENDMDL
