MODEL 1
REMARK minimizedAffinity 4.65743446
REMARK minimizedRMSD -1
REMARK  3 active torsions:
REMARK  status: ('A' for Active; 'I' for Inactive)
REMARK    1  A    between atoms: C3'_2  and  C2'_3 
REMARK    2  A    between atoms: C2'_3  and  C1'_4 
REMARK    3  A    between atoms: C1'_4  and  C1_5 
ROOT
ATOM      1  C1  N4B d   1       0.280  -0.982   1.600  0.00  0.00    -0.075 A 
ATOM      2  C2  N4B d   1       1.412  -1.582   2.195  0.00  0.00     0.002 A 
ATOM      3  C3  N4B d   1       1.700  -1.345   3.517  0.00  0.00     0.002 A 
ATOM      4  C4  N4B d   1       0.884  -0.501   4.256  0.00  0.00    -0.004 A 
ATOM      5  C5  N4B d   1      -0.222   0.054   3.681  0.00  0.00     0.002 A 
ATOM      6  C6  N4B d   1      -0.525  -0.178   2.354  0.00  0.00     0.002 A 
ENDROOT
BRANCH   1   7
ATOM      7  C1' N4B d   1      -0.026  -1.143   0.136  0.00  0.00     0.057 C 
BRANCH   7   8
ATOM      8  C2' N4B d   1       1.185  -0.702  -0.680  0.00  0.00     0.009 C 
BRANCH   8   9
ATOM      9  C3' N4B d   1       0.789  -0.193  -2.055  0.00  0.00     0.004 C 
ATOM     10  C4' N4B d   1       1.408   1.133  -2.384  0.00  0.00     0.003 C 
ENDBRANCH   8   9
ENDBRANCH   7   8
ENDBRANCH   1   7
TORSDOF 3
ENDMDL
