MODEL 1
REMARK minimizedAffinity 7.21764851
REMARK minimizedRMSD -1
REMARK  3 active torsions:
REMARK  status: ('A' for Active; 'I' for Inactive)
REMARK    1  A    between atoms: C3'_2  and  C2'_3 
REMARK    2  A    between atoms: C2'_3  and  C1'_4 
REMARK    3  A    between atoms: C1'_4  and  C1_5 
ROOT
ATOM      1  C1  N4B d   1      -0.747   0.014   2.735  0.00  0.00    -0.075 A 
ATOM      2  C2  N4B d   1      -0.565  -0.913   1.686  0.00  0.00     0.002 A 
ATOM      3  C3  N4B d   1       0.632  -1.574   1.553  0.00  0.00     0.002 A 
ATOM      4  C4  N4B d   1       1.663  -1.310   2.442  0.00  0.00    -0.004 A 
ATOM      5  C5  N4B d   1       1.471  -0.432   3.468  0.00  0.00     0.002 A 
ATOM      6  C6  N4B d   1       0.272   0.236   3.616  0.00  0.00     0.002 A 
ENDROOT
BRANCH   1   7
ATOM      7  C1' N4B d   1      -2.007   0.824   2.870  0.00  0.00     0.057 C 
BRANCH   7   8
ATOM      8  C2' N4B d   1      -1.906   1.706   4.111  0.00  0.00     0.009 C 
BRANCH   8   9
ATOM      9  C3' N4B d   1      -3.251   2.293   4.502  0.00  0.00     0.004 C 
ATOM     10  C4' N4B d   1      -3.418   2.423   5.987  0.00  0.00     0.003 C 
ENDBRANCH   8   9
ENDBRANCH   7   8
ENDBRANCH   1   7
TORSDOF 3
ENDMDL
