MODEL 1
REMARK minimizedAffinity 5.85051775
REMARK minimizedRMSD -1
REMARK  3 active torsions:
REMARK  status: ('A' for Active; 'I' for Inactive)
REMARK    1  A    between atoms: C3'_2  and  C2'_3 
REMARK    2  A    between atoms: C2'_3  and  C1'_4 
REMARK    3  A    between atoms: C1'_4  and  C1_5 
ROOT
ATOM      1  C1  N4B d   1       0.394  -1.226   1.593  0.00  0.00    -0.075 A 
ATOM      2  C2  N4B d   1       0.699  -0.881   2.928  0.00  0.00     0.002 A 
ATOM      3  C3  N4B d   1      -0.239  -0.244   3.703  0.00  0.00     0.002 A 
ATOM      4  C4  N4B d   1      -1.476   0.073   3.162  0.00  0.00    -0.004 A 
ATOM      5  C5  N4B d   1      -1.771  -0.288   1.879  0.00  0.00     0.002 A 
ATOM      6  C6  N4B d   1      -0.840  -0.931   1.090  0.00  0.00     0.002 A 
ENDROOT
BRANCH   1   7
ATOM      7  C1' N4B d   1       1.417  -1.846   0.680  0.00  0.00     0.057 C 
BRANCH   7   8
ATOM      8  C2' N4B d   1       1.987  -0.769  -0.238  0.00  0.00     0.009 C 
BRANCH   8   9
ATOM      9  C3' N4B d   1       1.232  -0.687  -1.554  0.00  0.00     0.004 C 
ATOM     10  C4' N4B d   1       1.445   0.616  -2.265  0.00  0.00     0.003 C 
ENDBRANCH   8   9
ENDBRANCH   7   8
ENDBRANCH   1   7
TORSDOF 3
ENDMDL
