MODEL 1
REMARK minimizedAffinity 0.0667588413
REMARK minimizedRMSD -1
REMARK  0 active torsions:
REMARK  status: ('A' for Active; 'I' for Inactive)
ROOT
ATOM      1  C   UNL d   1       0.239   5.105  -1.611  0.00  0.00     0.077 C 
ATOM      2  C1  UNL d   1      -0.081   3.814  -0.917  0.00  0.00    -0.074 A 
ATOM      3  C2  UNL d   1      -0.961   3.780   0.169  0.00  0.00    -0.005 A 
ATOM      4  C3  UNL d   1      -1.256   2.571   0.798  0.00  0.00     0.006 A 
ATOM      5  C4  UNL d   1      -0.676   1.385   0.348  0.00  0.00    -0.005 A 
ATOM      6  C5  UNL d   1       0.206   1.398  -0.738  0.00  0.00    -0.074 A 
ATOM      7  C6  UNL d   1       0.831   0.131  -1.241  0.00  0.00     0.077 C 
ATOM      8  C7  UNL d   1       0.492   2.617  -1.369  0.00  0.00    -0.001 A 
ENDROOT
TORSDOF 0
ENDMDL
