MODEL 1
REMARK minimizedAffinity 4.74439383
REMARK minimizedRMSD -1
REMARK  0 active torsions:
REMARK  status: ('A' for Active; 'I' for Inactive)
ROOT
ATOM      1  C   UNL d   1       5.996  -4.360  -3.375  0.00  0.00     0.077 C 
ATOM      2  C1  UNL d   1       4.914  -4.122  -2.365  0.00  0.00    -0.074 A 
ATOM      3  C2  UNL d   1       4.009  -5.134  -2.027  0.00  0.00    -0.005 A 
ATOM      4  C3  UNL d   1       3.014  -4.900  -1.079  0.00  0.00     0.006 A 
ATOM      5  C4  UNL d   1       2.912  -3.654  -0.460  0.00  0.00    -0.005 A 
ATOM      6  C5  UNL d   1       3.808  -2.630  -0.783  0.00  0.00    -0.074 A 
ATOM      7  C6  UNL d   1       3.719  -1.288  -0.120  0.00  0.00     0.077 C 
ATOM      8  C7  UNL d   1       4.810  -2.875  -1.732  0.00  0.00    -0.001 A 
ENDROOT
TORSDOF 0
ENDMDL
