MODEL 1
REMARK minimizedAffinity -0.70502001
REMARK minimizedRMSD -1
REMARK  0 active torsions:
REMARK  status: ('A' for Active; 'I' for Inactive)
ROOT
ATOM      1  C   UNL d   1       1.540   1.397  -1.502  0.00  0.00     0.077 C 
ATOM      2  C1  UNL d   1       0.498   2.019  -0.622  0.00  0.00    -0.074 A 
ATOM      3  C2  UNL d   1       0.246   3.394  -0.668  0.00  0.00    -0.005 A 
ATOM      4  C3  UNL d   1      -0.733   3.957   0.151  0.00  0.00     0.006 A 
ATOM      5  C4  UNL d   1      -1.468   3.153   1.022  0.00  0.00    -0.005 A 
ATOM      6  C5  UNL d   1      -1.230   1.776   1.082  0.00  0.00    -0.074 A 
ATOM      7  C6  UNL d   1      -2.018   0.896   2.006  0.00  0.00     0.077 C 
ATOM      8  C7  UNL d   1      -0.250   1.217   0.251  0.00  0.00    -0.001 A 
ENDROOT
TORSDOF 0
ENDMDL
