MODEL 1
REMARK minimizedAffinity 2.680619
REMARK minimizedRMSD -1
REMARK  0 active torsions:
REMARK  status: ('A' for Active; 'I' for Inactive)
ROOT
ATOM      1  C   UNL d   1      -1.847   1.999   1.143  0.00  0.00     0.077 C 
ATOM      2  C1  UNL d   1      -0.713   1.153   0.646  0.00  0.00    -0.074 A 
ATOM      3  C2  UNL d   1       0.245   0.644   1.529  0.00  0.00    -0.005 A 
ATOM      4  C3  UNL d   1       1.289  -0.149   1.053  0.00  0.00     0.006 A 
ATOM      5  C4  UNL d   1       1.386  -0.441  -0.308  0.00  0.00    -0.005 A 
ATOM      6  C5  UNL d   1       0.437   0.058  -1.206  0.00  0.00    -0.074 A 
ATOM      7  C6  UNL d   1       0.521  -0.254  -2.670  0.00  0.00     0.077 C 
ATOM      8  C7  UNL d   1      -0.613   0.848  -0.719  0.00  0.00    -0.001 A 
ENDROOT
TORSDOF 0
ENDMDL
