MODEL 1
REMARK minimizedAffinity 3.08070683
REMARK minimizedRMSD -1
REMARK  0 active torsions:
REMARK  status: ('A' for Active; 'I' for Inactive)
ROOT
ATOM      1  C   UNL d   1       1.602   0.133   1.835  0.00  0.00     0.077 C 
ATOM      2  C1  UNL d   1       0.232   0.726   1.695  0.00  0.00    -0.074 A 
ATOM      3  C2  UNL d   1      -0.893   0.060   2.192  0.00  0.00    -0.005 A 
ATOM      4  C3  UNL d   1      -2.161   0.628   2.063  0.00  0.00     0.006 A 
ATOM      5  C4  UNL d   1      -2.316   1.866   1.438  0.00  0.00    -0.005 A 
ATOM      6  C5  UNL d   1      -1.202   2.547   0.936  0.00  0.00    -0.074 A 
ATOM      7  C6  UNL d   1      -1.350   3.882   0.269  0.00  0.00     0.077 C 
ATOM      8  C7  UNL d   1       0.069   1.973   1.075  0.00  0.00    -0.001 A 
ENDROOT
TORSDOF 0
ENDMDL
