MODEL 1
REMARK minimizedAffinity 0.0227146894
REMARK minimizedRMSD -1
REMARK  0 active torsions:
REMARK  status: ('A' for Active; 'I' for Inactive)
ROOT
ATOM      1  C   UNL d   1      -0.087   3.414  -0.973  0.00  0.00     0.077 C 
ATOM      2  C1  UNL d   1      -1.038   2.805   0.014  0.00  0.00    -0.074 A 
ATOM      3  C2  UNL d   1      -2.310   3.350   0.217  0.00  0.00    -0.005 A 
ATOM      4  C3  UNL d   1      -3.187   2.767   1.132  0.00  0.00     0.006 A 
ATOM      5  C4  UNL d   1      -2.802   1.634   1.850  0.00  0.00    -0.005 A 
ATOM      6  C5  UNL d   1      -1.535   1.074   1.659  0.00  0.00    -0.074 A 
ATOM      7  C6  UNL d   1      -1.109  -0.148   2.416  0.00  0.00     0.077 C 
ATOM      8  C7  UNL d   1      -0.662   1.662   0.734  0.00  0.00    -0.001 A 
ENDROOT
TORSDOF 0
ENDMDL
