MODEL 1
REMARK minimizedAffinity 5.86795378
REMARK minimizedRMSD -1
REMARK  0 active torsions:
REMARK  status: ('A' for Active; 'I' for Inactive)
ROOT
ATOM      1  C   UNL d   1      -2.186   0.861   1.899  0.00  0.00     0.077 C 
ATOM      2  C1  UNL d   1      -1.501   1.868   1.023  0.00  0.00    -0.074 A 
ATOM      3  C2  UNL d   1      -1.611   3.238   1.282  0.00  0.00    -0.005 A 
ATOM      4  C3  UNL d   1      -0.960   4.162   0.464  0.00  0.00     0.006 A 
ATOM      5  C4  UNL d   1      -0.195   3.727  -0.618  0.00  0.00    -0.005 A 
ATOM      6  C5  UNL d   1      -0.073   2.361  -0.891  0.00  0.00    -0.074 A 
ATOM      7  C6  UNL d   1       0.754   1.875  -2.044  0.00  0.00     0.077 C 
ATOM      8  C7  UNL d   1      -0.724   1.438  -0.061  0.00  0.00    -0.001 A 
ENDROOT
TORSDOF 0
ENDMDL
