MODEL 1
REMARK minimizedAffinity 2.29631209
REMARK minimizedRMSD -1
REMARK  0 active torsions:
REMARK  status: ('A' for Active; 'I' for Inactive)
ROOT
ATOM      1  C   UNL d   1       1.145   1.235  -1.943  0.00  0.00     0.077 C 
ATOM      2  C1  UNL d   1       0.320   1.742  -0.798  0.00  0.00    -0.074 A 
ATOM      3  C2  UNL d   1       0.000   3.099  -0.688  0.00  0.00    -0.005 A 
ATOM      4  C3  UNL d   1      -0.776   3.555   0.377  0.00  0.00     0.006 A 
ATOM      5  C4  UNL d   1      -1.239   2.661   1.343  0.00  0.00    -0.005 A 
ATOM      6  C5  UNL d   1      -0.929   1.300   1.250  0.00  0.00    -0.074 A 
ATOM      7  C6  UNL d   1      -1.427   0.324   2.274  0.00  0.00     0.077 C 
ATOM      8  C7  UNL d   1      -0.155   0.848   0.172  0.00  0.00    -0.001 A 
ENDROOT
TORSDOF 0
ENDMDL
