MODEL 1
REMARK minimizedAffinity 4.88597679
REMARK minimizedRMSD -1
REMARK  0 active torsions:
REMARK  status: ('A' for Active; 'I' for Inactive)
ROOT
ATOM      1  C   UNL d   1      -4.678  -2.277   5.999  0.00  0.00     0.077 C 
ATOM      2  C1  UNL d   1      -3.375  -2.617   5.337  0.00  0.00    -0.074 A 
ATOM      3  C2  UNL d   1      -3.002  -2.013   4.133  0.00  0.00    -0.005 A 
ATOM      4  C3  UNL d   1      -1.783  -2.332   3.534  0.00  0.00     0.006 A 
ATOM      5  C4  UNL d   1      -0.927  -3.257   4.133  0.00  0.00    -0.005 A 
ATOM      6  C5  UNL d   1      -1.283  -3.871   5.338  0.00  0.00    -0.074 A 
ATOM      7  C6  UNL d   1      -0.371  -4.860   6.000  0.00  0.00     0.077 C 
ATOM      8  C7  UNL d   1      -2.507  -3.540   5.937  0.00  0.00    -0.001 A 
ENDROOT
TORSDOF 0
ENDMDL
