MODEL 1
REMARK minimizedAffinity 3.80825233
REMARK minimizedRMSD -1
REMARK  0 active torsions:
REMARK  status: ('A' for Active; 'I' for Inactive)
ROOT
ATOM      1  C   UNL d   1      -4.302  -2.289   5.997  0.00  0.00     0.077 C 
ATOM      2  C1  UNL d   1      -3.022  -2.670   5.314  0.00  0.00    -0.074 A 
ATOM      3  C2  UNL d   1      -2.683  -2.130   4.070  0.00  0.00    -0.005 A 
ATOM      4  C3  UNL d   1      -1.485  -2.487   3.451  0.00  0.00     0.006 A 
ATOM      5  C4  UNL d   1      -0.615  -3.386   4.069  0.00  0.00    -0.005 A 
ATOM      6  C5  UNL d   1      -0.937  -3.936   5.314  0.00  0.00    -0.074 A 
ATOM      7  C6  UNL d   1      -0.009  -4.896   5.997  0.00  0.00     0.077 C 
ATOM      8  C7  UNL d   1      -2.139  -3.567   5.933  0.00  0.00    -0.001 A 
ENDROOT
TORSDOF 0
ENDMDL
