MODEL 1
REMARK minimizedAffinity 2.29715991
REMARK minimizedRMSD -1
REMARK  0 active torsions:
REMARK  status: ('A' for Active; 'I' for Inactive)
ROOT
ATOM      1  C   UNL d   1      -1.864   1.182   2.051  0.00  0.00     0.077 C 
ATOM      2  C1  UNL d   1      -1.251   1.940   0.911  0.00  0.00    -0.074 A 
ATOM      3  C2  UNL d   1      -1.391   3.328   0.812  0.00  0.00    -0.005 A 
ATOM      4  C3  UNL d   1      -0.808   4.020  -0.248  0.00  0.00     0.006 A 
ATOM      5  C4  UNL d   1      -0.079   3.333  -1.220  0.00  0.00    -0.005 A 
ATOM      6  C5  UNL d   1       0.072   1.945  -1.138  0.00  0.00    -0.074 A 
ATOM      7  C6  UNL d   1       0.860   1.193  -2.169  0.00  0.00     0.077 C 
ATOM      8  C7  UNL d   1      -0.511   1.257  -0.065  0.00  0.00    -0.001 A 
ENDROOT
TORSDOF 0
ENDMDL
