MODEL 1
REMARK minimizedAffinity 5.57223082
REMARK minimizedRMSD -1
REMARK  0 active torsions:
REMARK  status: ('A' for Active; 'I' for Inactive)
ROOT
ATOM      1  C   UNL d   1      -1.006   2.609   2.302  0.00  0.00     0.077 C 
ATOM      2  C1  UNL d   1      -0.177   1.833   1.323  0.00  0.00    -0.074 A 
ATOM      3  C2  UNL d   1      -0.481   1.842  -0.042  0.00  0.00    -0.005 A 
ATOM      4  C3  UNL d   1       0.305   1.122  -0.943  0.00  0.00     0.006 A 
ATOM      5  C4  UNL d   1       1.402   0.389  -0.488  0.00  0.00    -0.005 A 
ATOM      6  C5  UNL d   1       1.722   0.370   0.874  0.00  0.00    -0.074 A 
ATOM      7  C6  UNL d   1       2.903  -0.405   1.378  0.00  0.00     0.077 C 
ATOM      8  C7  UNL d   1       0.931   1.101   1.771  0.00  0.00    -0.001 A 
ENDROOT
TORSDOF 0
ENDMDL
