MODEL 1
REMARK minimizedAffinity 6.21211338
REMARK minimizedRMSD -1
REMARK  0 active torsions:
REMARK  status: ('A' for Active; 'I' for Inactive)
ROOT
ATOM      1  C   UNL d   1       0.313   1.513  -1.843  0.00  0.00     0.077 C 
ATOM      2  C1  UNL d   1       0.597   1.168  -0.411  0.00  0.00    -0.074 A 
ATOM      3  C2  UNL d   1       1.642   0.302  -0.074  0.00  0.00    -0.005 A 
ATOM      4  C3  UNL d   1       1.899  -0.002   1.263  0.00  0.00     0.006 A 
ATOM      5  C4  UNL d   1       1.115   0.556   2.274  0.00  0.00    -0.005 A 
ATOM      6  C5  UNL d   1       0.067   1.424   1.955  0.00  0.00    -0.074 A 
ATOM      7  C6  UNL d   1      -0.779   2.040   3.030  0.00  0.00     0.077 C 
ATOM      8  C7  UNL d   1      -0.181   1.731   0.610  0.00  0.00    -0.001 A 
ENDROOT
TORSDOF 0
ENDMDL
