MODEL 1
REMARK minimizedAffinity 5.65654898
REMARK minimizedRMSD -1
REMARK  0 active torsions:
REMARK  status: ('A' for Active; 'I' for Inactive)
ROOT
ATOM      1  C   UNL d   1      -0.162   2.757   4.370  0.00  0.00     0.077 C 
ATOM      2  C1  UNL d   1      -0.089   2.014   3.069  0.00  0.00    -0.074 A 
ATOM      3  C2  UNL d   1      -1.094   2.151   2.106  0.00  0.00    -0.005 A 
ATOM      4  C3  UNL d   1      -1.009   1.462   0.896  0.00  0.00     0.006 A 
ATOM      5  C4  UNL d   1       0.081   0.629   0.638  0.00  0.00    -0.005 A 
ATOM      6  C5  UNL d   1       1.096   0.480   1.589  0.00  0.00    -0.074 A 
ATOM      7  C6  UNL d   1       2.278  -0.403   1.323  0.00  0.00     0.077 C 
ATOM      8  C7  UNL d   1       1.006   1.182   2.799  0.00  0.00    -0.001 A 
ENDROOT
TORSDOF 0
ENDMDL
