MODEL 1
REMARK minimizedAffinity 12.1517925
REMARK minimizedRMSD -1
REMARK  0 active torsions:
REMARK  status: ('A' for Active; 'I' for Inactive)
ROOT
ATOM      1  C   UNL d   1       0.458   4.328   2.192  0.00  0.00     0.077 C 
ATOM      2  C1  UNL d   1       0.265   2.841   2.141  0.00  0.00    -0.074 A 
ATOM      3  C2  UNL d   1      -0.930   2.256   2.572  0.00  0.00    -0.005 A 
ATOM      4  C3  UNL d   1      -1.098   0.873   2.510  0.00  0.00     0.006 A 
ATOM      5  C4  UNL d   1      -0.075   0.062   2.017  0.00  0.00    -0.005 A 
ATOM      6  C5  UNL d   1       1.127   0.629   1.581  0.00  0.00    -0.074 A 
ATOM      7  C6  UNL d   1       2.233  -0.227   1.039  0.00  0.00     0.077 C 
ATOM      8  C7  UNL d   1       1.286   2.020   1.640  0.00  0.00    -0.001 A 
ENDROOT
TORSDOF 0
ENDMDL
