MODEL 1
REMARK minimizedAffinity -2.37791729
REMARK minimizedRMSD -1
REMARK  0 active torsions:
REMARK  status: ('A' for Active; 'I' for Inactive)
ROOT
ATOM      1  C1  DEN d   1       1.021   1.153  -2.173  0.00  0.00     0.130 A 
ATOM      2  C2  DEN d   1       1.239  -0.063  -2.952  0.00  0.00    -0.031 A 
ATOM      3  C3  DEN d   1       0.605  -1.185  -2.232  0.00  0.00     0.027 A 
ATOM      4  C4  DEN d   1      -0.688  -1.159  -0.000  0.00  0.00     0.027 A 
ATOM      5  C5  DEN d   1      -1.122  -0.362   1.036  0.00  0.00    -0.003 A 
ATOM      6  C6  DEN d   1      -0.846   0.978   1.092  0.00  0.00     0.001 A 
ATOM      7  C7  DEN d   1      -0.152   1.571   0.070  0.00  0.00     0.017 A 
ATOM      8  C8  DEN d   1       0.295   0.773  -0.974  0.00  0.00    -0.094 A 
ATOM      9  C9  DEN d   1      -0.005  -0.577  -1.019  0.00  0.00    -0.072 A 
ENDROOT
TORSDOF 0
ENDMDL
