MODEL 1
REMARK minimizedAffinity -4.70910025
REMARK minimizedRMSD -1
REMARK  0 active torsions:
REMARK  status: ('A' for Active; 'I' for Inactive)
ROOT
ATOM      1  C1  DEN d   1      -0.931   0.435   2.349  0.00  0.00     0.130 A 
ATOM      2  C2  DEN d   1      -2.139   0.764   1.596  0.00  0.00    -0.031 A 
ATOM      3  C3  DEN d   1      -1.951   0.297   0.207  0.00  0.00     0.027 A 
ATOM      4  C4  DEN d   1       0.078  -0.900  -0.842  0.00  0.00     0.027 A 
ATOM      5  C5  DEN d   1       1.344  -1.384  -0.600  0.00  0.00    -0.003 A 
ATOM      6  C6  DEN d   1       1.950  -1.266   0.623  0.00  0.00     0.001 A 
ATOM      7  C7  DEN d   1       1.271  -0.689   1.663  0.00  0.00     0.017 A 
ATOM      8  C8  DEN d   1      -0.004  -0.192   1.425  0.00  0.00    -0.094 A 
ATOM      9  C9  DEN d   1      -0.604  -0.332   0.185  0.00  0.00    -0.072 A 
ENDROOT
TORSDOF 0
ENDMDL
