MODEL 1
REMARK minimizedAffinity -4.00389862
REMARK minimizedRMSD -1
REMARK  0 active torsions:
REMARK  status: ('A' for Active; 'I' for Inactive)
ROOT
ATOM      1  C1  DEN d   1      -0.183   1.578   2.404  0.00  0.00     0.130 A 
ATOM      2  C2  DEN d   1      -1.377   1.246   3.176  0.00  0.00    -0.031 A 
ATOM      3  C3  DEN d   1      -2.215   0.347   2.356  0.00  0.00     0.027 A 
ATOM      4  C4  DEN d   1      -1.779  -0.561  -0.018  0.00  0.00     0.027 A 
ATOM      5  C5  DEN d   1      -0.905  -0.547  -1.082  0.00  0.00    -0.003 A 
ATOM      6  C6  DEN d   1       0.245   0.196  -1.072  0.00  0.00     0.001 A 
ATOM      7  C7  DEN d   1       0.575   0.923   0.042  0.00  0.00     0.017 A 
ATOM      8  C8  DEN d   1      -0.306   0.920   1.115  0.00  0.00    -0.094 A 
ATOM      9  C9  DEN d   1      -1.457   0.151   1.091  0.00  0.00    -0.072 A 
ENDROOT
TORSDOF 0
ENDMDL
