MODEL 1
REMARK minimizedAffinity -5.56925488
REMARK minimizedRMSD -1
REMARK  0 active torsions:
REMARK  status: ('A' for Active; 'I' for Inactive)
ROOT
ATOM      1  C1  DEN d   1      -1.317   1.739  -0.828  0.00  0.00     0.130 A 
ATOM      2  C2  DEN d   1      -1.430   0.829   0.308  0.00  0.00    -0.031 A 
ATOM      3  C3  DEN d   1      -0.565  -0.339   0.047  0.00  0.00     0.027 A 
ATOM      4  C4  DEN d   1       0.936  -0.821  -1.994  0.00  0.00     0.027 A 
ATOM      5  C5  DEN d   1       1.353  -0.347  -3.218  0.00  0.00    -0.003 A 
ATOM      6  C6  DEN d   1       0.887   0.829  -3.743  0.00  0.00     0.001 A 
ATOM      7  C7  DEN d   1       0.010   1.594  -3.020  0.00  0.00     0.017 A 
ATOM      8  C8  DEN d   1      -0.420   1.119  -1.788  0.00  0.00    -0.094 A 
ATOM      9  C9  DEN d   1       0.072  -0.066  -1.269  0.00  0.00    -0.072 A 
ENDROOT
TORSDOF 0
ENDMDL
