MODEL 1
REMARK minimizedAffinity -0.641494513
REMARK minimizedRMSD -1
REMARK  0 active torsions:
REMARK  status: ('A' for Active; 'I' for Inactive)
ROOT
ATOM      1  C1  DEN d   1       1.791  -0.650   2.094  0.00  0.00     0.130 A 
ATOM      2  C2  DEN d   1       1.601  -0.462   3.530  0.00  0.00    -0.031 A 
ATOM      3  C3  DEN d   1       0.263   0.127   3.740  0.00  0.00     0.027 A 
ATOM      4  C4  DEN d   1      -1.525   0.759   1.992  0.00  0.00     0.027 A 
ATOM      5  C5  DEN d   1      -1.815   0.796   0.646  0.00  0.00    -0.003 A 
ATOM      6  C6  DEN d   1      -0.918   0.388  -0.306  0.00  0.00     0.001 A 
ATOM      7  C7  DEN d   1       0.297  -0.116   0.078  0.00  0.00     0.017 A 
ATOM      8  C8  DEN d   1       0.599  -0.150   1.433  0.00  0.00    -0.094 A 
ATOM      9  C9  DEN d   1      -0.326   0.255   2.380  0.00  0.00    -0.072 A 
ENDROOT
TORSDOF 0
ENDMDL
