MODEL 1
REMARK minimizedAffinity -5.9568572
REMARK minimizedRMSD -1
REMARK  0 active torsions:
REMARK  status: ('A' for Active; 'I' for Inactive)
ROOT
ATOM      1  C1  DEN d   1      -1.542   1.034   1.384  0.00  0.00     0.130 A 
ATOM      2  C2  DEN d   1      -1.166   0.831  -0.013  0.00  0.00    -0.031 A 
ATOM      3  C3  DEN d   1       0.086   0.048  -0.039  0.00  0.00     0.027 A 
ATOM      4  C4  DEN d   1       1.470  -0.867   1.936  0.00  0.00     0.027 A 
ATOM      5  C5  DEN d   1       1.555  -0.939   3.308  0.00  0.00    -0.003 A 
ATOM      6  C6  DEN d   1       0.641  -0.334   4.130  0.00  0.00     0.001 A 
ATOM      7  C7  DEN d   1      -0.425   0.332   3.584  0.00  0.00     0.017 A 
ATOM      8  C8  DEN d   1      -0.514   0.414   2.201  0.00  0.00    -0.094 A 
ATOM      9  C9  DEN d   1       0.414  -0.214   1.388  0.00  0.00    -0.072 A 
ENDROOT
TORSDOF 0
ENDMDL
