MODEL 1
REMARK minimizedAffinity -0.964554846
REMARK minimizedRMSD -1
REMARK  0 active torsions:
REMARK  status: ('A' for Active; 'I' for Inactive)
ROOT
ATOM      1  C1  DEN d   1      -1.820   1.072   2.600  0.00  0.00     0.130 A 
ATOM      2  C2  DEN d   1      -0.908   0.813   3.710  0.00  0.00    -0.031 A 
ATOM      3  C3  DEN d   1       0.336   0.242   3.155  0.00  0.00     0.027 A 
ATOM      4  C4  DEN d   1       0.936  -0.259   0.697  0.00  0.00     0.027 A 
ATOM      5  C5  DEN d   1       0.477  -0.218  -0.601  0.00  0.00    -0.003 A 
ATOM      6  C6  DEN d   1      -0.782   0.220  -0.917  0.00  0.00     0.001 A 
ATOM      7  C7  DEN d   1      -1.610   0.678   0.073  0.00  0.00     0.017 A 
ATOM      8  C8  DEN d   1      -1.157   0.633   1.385  0.00  0.00    -0.094 A 
ATOM      9  C9  DEN d   1       0.123   0.198   1.683  0.00  0.00    -0.072 A 
ENDROOT
TORSDOF 0
ENDMDL
