MODEL 1
REMARK minimizedAffinity -5.13111734
REMARK minimizedRMSD -1
REMARK  0 active torsions:
REMARK  status: ('A' for Active; 'I' for Inactive)
ROOT
ATOM      1  C1  DEN d   1      -0.651   0.852   3.545  0.00  0.00     0.130 A 
ATOM      2  C2  DEN d   1       0.731   0.639   3.968  0.00  0.00    -0.031 A 
ATOM      3  C3  DEN d   1       1.486   0.113   2.813  0.00  0.00     0.027 A 
ATOM      4  C4  DEN d   1       0.655  -0.385   0.423  0.00  0.00     0.027 A 
ATOM      5  C5  DEN d   1      -0.442  -0.374  -0.409  0.00  0.00    -0.003 A 
ATOM      6  C6  DEN d   1      -1.683   0.010   0.024  0.00  0.00     0.001 A 
ATOM      7  C7  DEN d   1      -1.848   0.444   1.313  0.00  0.00     0.017 A 
ATOM      8  C8  DEN d   1      -0.748   0.429   2.160  0.00  0.00    -0.094 A 
ATOM      9  C9  DEN d   1       0.501   0.048   1.700  0.00  0.00    -0.072 A 
ENDROOT
TORSDOF 0
ENDMDL
