MODEL 1
REMARK minimizedAffinity -6.17669678
REMARK minimizedRMSD -1
REMARK  1 active torsions:
REMARK  status: ('A' for Active; 'I' for Inactive)
REMARK    1  A    between atoms: C1_2  and  C2_3 
ROOT
ATOM      1  C2  UNL d   1       0.406  -1.676   0.408  0.00  0.00    -0.077 A 
ATOM      2  C3  UNL d   1       1.533  -0.845   0.474  0.00  0.00     0.002 A 
ATOM      3  C4  UNL d   1       2.817  -1.393   0.444  0.00  0.00     0.002 A 
ATOM      4  C5  UNL d   1       2.986  -2.773   0.344  0.00  0.00    -0.004 A 
ATOM      5  C6  UNL d   1       1.871  -3.607   0.280  0.00  0.00     0.002 A 
ATOM      6  C7  UNL d   1       0.587  -3.062   0.311  0.00  0.00     0.002 A 
ENDROOT
BRANCH   1   7
ATOM      7  C1  UNL d   1      -0.979  -1.084   0.391  0.00  0.00     0.055 C 
ATOM      8  C   UNL d   1      -1.165  -0.077   1.517  0.00  0.00     0.019 C 
ENDBRANCH   1   7
TORSDOF 1
ENDMDL
