MODEL 1
REMARK minimizedAffinity 6.98153687
REMARK minimizedRMSD -1
REMARK  1 active torsions:
REMARK  status: ('A' for Active; 'I' for Inactive)
REMARK    1  A    between atoms: C1_2  and  C2_3 
ROOT
ATOM      1  C2  UNL d   1       1.010  -0.901  -1.430  0.00  0.00    -0.077 A 
ATOM      2  C3  UNL d   1      -0.229  -1.496  -1.155  0.00  0.00     0.002 A 
ATOM      3  C4  UNL d   1      -0.686  -1.600   0.160  0.00  0.00     0.002 A 
ATOM      4  C5  UNL d   1       0.089  -1.109   1.209  0.00  0.00    -0.004 A 
ATOM      5  C6  UNL d   1       1.324  -0.518   0.946  0.00  0.00     0.002 A 
ATOM      6  C7  UNL d   1       1.782  -0.414  -0.368  0.00  0.00     0.002 A 
ENDROOT
BRANCH   1   7
ATOM      7  C1  UNL d   1       1.482  -0.743  -2.852  0.00  0.00     0.055 C 
ATOM      8  C   UNL d   1       2.468   0.409  -2.983  0.00  0.00     0.019 C 
ENDBRANCH   1   7
TORSDOF 1
ENDMDL
