MODEL 1
REMARK minimizedAffinity -1.5010221
REMARK minimizedRMSD -1
REMARK  1 active torsions:
REMARK  status: ('A' for Active; 'I' for Inactive)
REMARK    1  A    between atoms: C1_2  and  C2_3 
ROOT
ATOM      1  C2  UNL d   1       1.149  -2.767   0.241  0.00  0.00    -0.077 A 
ATOM      2  C3  UNL d   1      -0.116  -2.812   0.843  0.00  0.00     0.002 A 
ATOM      3  C4  UNL d   1      -0.720  -1.642   1.308  0.00  0.00     0.002 A 
ATOM      4  C5  UNL d   1      -0.067  -0.418   1.172  0.00  0.00    -0.004 A 
ATOM      5  C6  UNL d   1       1.192  -0.363   0.577  0.00  0.00     0.002 A 
ATOM      6  C7  UNL d   1       1.797  -1.532   0.113  0.00  0.00     0.002 A 
ENDROOT
BRANCH   1   7
ATOM      7  C1  UNL d   1       1.780  -4.021  -0.305  0.00  0.00     0.055 C 
ATOM      8  C   UNL d   1       3.282  -4.038  -0.058  0.00  0.00     0.019 C 
ENDBRANCH   1   7
TORSDOF 1
ENDMDL
