MODEL 1
REMARK minimizedAffinity -0.511804104
REMARK minimizedRMSD -1
REMARK  1 active torsions:
REMARK  status: ('A' for Active; 'I' for Inactive)
REMARK    1  A    between atoms: C1_2  and  C2_3 
ROOT
ATOM      1  C2  UNL d   1      -0.449  -1.078   1.076  0.00  0.00    -0.077 A 
ATOM      2  C3  UNL d   1       0.717  -0.335   1.309  0.00  0.00     0.002 A 
ATOM      3  C4  UNL d   1       1.973  -0.911   1.108  0.00  0.00     0.002 A 
ATOM      4  C5  UNL d   1       2.075  -2.229   0.670  0.00  0.00    -0.004 A 
ATOM      5  C6  UNL d   1       0.921  -2.977   0.438  0.00  0.00     0.002 A 
ATOM      6  C7  UNL d   1      -0.335  -2.404   0.639  0.00  0.00     0.002 A 
ENDROOT
BRANCH   1   7
ATOM      7  C1  UNL d   1      -1.805  -0.443   1.245  0.00  0.00     0.055 C 
ATOM      8  C   UNL d   1      -1.689   0.977   1.780  0.00  0.00     0.019 C 
ENDBRANCH   1   7
TORSDOF 1
ENDMDL
