MODEL 1
REMARK minimizedAffinity -5.93612909
REMARK minimizedRMSD -1
REMARK  1 active torsions:
REMARK  status: ('A' for Active; 'I' for Inactive)
REMARK    1  A    between atoms: C1_2  and  C2_3 
ROOT
ATOM      1  C2  UNL d   1       1.642  -2.892   0.210  0.00  0.00    -0.077 A 
ATOM      2  C3  UNL d   1       2.232  -1.625   0.104  0.00  0.00     0.002 A 
ATOM      3  C4  UNL d   1       1.498  -0.476   0.406  0.00  0.00     0.002 A 
ATOM      4  C5  UNL d   1       0.172  -0.583   0.820  0.00  0.00    -0.004 A 
ATOM      5  C6  UNL d   1      -0.425  -1.839   0.927  0.00  0.00     0.002 A 
ATOM      6  C7  UNL d   1       0.307  -2.988   0.624  0.00  0.00     0.002 A 
ENDROOT
BRANCH   1   7
ATOM      7  C1  UNL d   1       2.446  -4.134  -0.067  0.00  0.00     0.055 C 
ATOM      8  C   UNL d   1       3.923  -3.810  -0.243  0.00  0.00     0.019 C 
ENDBRANCH   1   7
TORSDOF 1
ENDMDL
