MODEL 1
REMARK minimizedAffinity -3.88531256
REMARK minimizedRMSD -1
REMARK  1 active torsions:
REMARK  status: ('A' for Active; 'I' for Inactive)
REMARK    1  A    between atoms: C1_2  and  C2_3 
ROOT
ATOM      1  C2  UNL d   1       1.367  -2.410  -0.028  0.00  0.00    -0.077 A 
ATOM      2  C3  UNL d   1       2.051  -1.192   0.095  0.00  0.00     0.002 A 
ATOM      3  C4  UNL d   1       1.476  -0.127   0.790  0.00  0.00     0.002 A 
ATOM      4  C5  UNL d   1       0.219  -0.270   1.372  0.00  0.00    -0.004 A 
ATOM      5  C6  UNL d   1      -0.470  -1.477   1.255  0.00  0.00     0.002 A 
ATOM      6  C7  UNL d   1       0.102  -2.542   0.558  0.00  0.00     0.002 A 
ENDROOT
BRANCH   1   7
ATOM      7  C1  UNL d   1       2.006  -3.577  -0.735  0.00  0.00     0.055 C 
ATOM      8  C   UNL d   1       3.474  -3.716  -0.359  0.00  0.00     0.019 C 
ENDBRANCH   1   7
TORSDOF 1
ENDMDL
