MODEL 1
REMARK minimizedAffinity -3.49604964
REMARK minimizedRMSD -1
REMARK  1 active torsions:
REMARK  status: ('A' for Active; 'I' for Inactive)
REMARK    1  A    between atoms: C1_2  and  C2_3 
ROOT
ATOM      1  C2  UNL d   1      -0.091  -1.659   0.437  0.00  0.00    -0.077 A 
ATOM      2  C3  UNL d   1       0.184  -3.018   0.227  0.00  0.00     0.002 A 
ATOM      3  C4  UNL d   1       1.495  -3.449   0.016  0.00  0.00     0.002 A 
ATOM      4  C5  UNL d   1       2.541  -2.528   0.016  0.00  0.00    -0.004 A 
ATOM      5  C6  UNL d   1       2.278  -1.175   0.222  0.00  0.00     0.002 A 
ATOM      6  C7  UNL d   1       0.968  -0.742   0.432  0.00  0.00     0.002 A 
ENDROOT
BRANCH   1   7
ATOM      7  C1  UNL d   1      -1.498  -1.198   0.713  0.00  0.00     0.055 C 
ATOM      8  C   UNL d   1      -1.510   0.124   1.467  0.00  0.00     0.019 C 
ENDBRANCH   1   7
TORSDOF 1
ENDMDL
