MODEL 1
REMARK minimizedAffinity -3.53108048
REMARK minimizedRMSD -1
REMARK  1 active torsions:
REMARK  status: ('A' for Active; 'I' for Inactive)
REMARK    1  A    between atoms: C1_2  and  C2_3 
ROOT
ATOM      1  C2  UNL d   1      -0.171  -1.381   0.520  0.00  0.00    -0.077 A 
ATOM      2  C3  UNL d   1       1.030  -0.666   0.617  0.00  0.00     0.002 A 
ATOM      3  C4  UNL d   1       2.256  -1.322   0.485  0.00  0.00     0.002 A 
ATOM      4  C5  UNL d   1       2.291  -2.694   0.249  0.00  0.00    -0.004 A 
ATOM      5  C6  UNL d   1       1.102  -3.415   0.153  0.00  0.00     0.002 A 
ATOM      6  C7  UNL d   1      -0.124  -2.762   0.287  0.00  0.00     0.002 A 
ENDROOT
BRANCH   1   7
ATOM      7  C1  UNL d   1      -1.495  -0.668   0.614  0.00  0.00     0.055 C 
ATOM      8  C   UNL d   1      -1.441   0.467   1.627  0.00  0.00     0.019 C 
ENDBRANCH   1   7
TORSDOF 1
ENDMDL
