MODEL 1
REMARK minimizedAffinity -4.96187449
REMARK minimizedRMSD -1
REMARK  1 active torsions:
REMARK  status: ('A' for Active; 'I' for Inactive)
REMARK    1  A    between atoms: C1_2  and  C2_3 
ROOT
ATOM      1  C2  UNL d   1       2.154  -2.022   0.440  0.00  0.00    -0.077 A 
ATOM      2  C3  UNL d   1       1.717  -0.739   0.796  0.00  0.00     0.002 A 
ATOM      3  C4  UNL d   1       0.354  -0.468   0.927  0.00  0.00     0.002 A 
ATOM      4  C5  UNL d   1      -0.583  -1.475   0.708  0.00  0.00    -0.004 A 
ATOM      5  C6  UNL d   1      -0.159  -2.755   0.352  0.00  0.00     0.002 A 
ATOM      6  C7  UNL d   1       1.203  -3.027   0.219  0.00  0.00     0.002 A 
ENDROOT
BRANCH   1   7
ATOM      7  C1  UNL d   1       3.625  -2.329   0.346  0.00  0.00     0.055 C 
ATOM      8  C   UNL d   1       3.867  -3.811   0.097  0.00  0.00     0.019 C 
ENDBRANCH   1   7
TORSDOF 1
ENDMDL
