MODEL 1
REMARK minimizedAffinity 7.11765575
REMARK minimizedRMSD -1
REMARK  0 active torsions:
REMARK  status: ('A' for Active; 'I' for Inactive)
ROOT
ATOM      1  C   UNL d   1      -2.397  -6.000   1.139  0.00  0.00     0.023 A 
ATOM      2  C1  UNL d   1      -1.143  -5.876   1.738  0.00  0.00     0.003 A 
ATOM      3  C2  UNL d   1      -0.615  -4.611   2.000  0.00  0.00     0.048 A 
ATOM      4  C3  UNL d   1      -1.347  -3.473   1.662  0.00  0.00     0.023 A 
ATOM      5  C4  UNL d   1      -2.602  -3.591   1.064  0.00  0.00     0.048 A 
ATOM      6  C5  UNL d   1      -3.126  -4.859   0.803  0.00  0.00     0.003 A 
ATOM      7  I   UNL d   1      -0.563  -1.588   2.052  0.00  0.00    -0.146 I 
ENDROOT
TORSDOF 0
ENDMDL
