MODEL 1
REMARK minimizedAffinity 19.9295025
REMARK minimizedRMSD -1
REMARK  0 active torsions:
REMARK  status: ('A' for Active; 'I' for Inactive)
ROOT
ATOM      1  C   UNL d   1      -2.606  -3.312   1.152  0.00  0.00     0.023 A 
ATOM      2  C1  UNL d   1      -1.589  -3.529   2.081  0.00  0.00     0.003 A 
ATOM      3  C2  UNL d   1      -0.704  -2.498   2.403  0.00  0.00     0.048 A 
ATOM      4  C3  UNL d   1      -0.843  -1.252   1.793  0.00  0.00     0.023 A 
ATOM      5  C4  UNL d   1      -1.861  -1.029   0.863  0.00  0.00     0.048 A 
ATOM      6  C5  UNL d   1      -2.742  -2.064   0.544  0.00  0.00     0.003 A 
ATOM      7  I   UNL d   1       0.472   0.285   2.271  0.00  0.00    -0.146 I 
ENDROOT
TORSDOF 0
ENDMDL
