MODEL 1
REMARK minimizedAffinity 2.74740076
REMARK minimizedRMSD -1
REMARK  0 active torsions:
REMARK  status: ('A' for Active; 'I' for Inactive)
ROOT
ATOM      1  C   UNL d   1      -5.102   0.508   4.235  0.00  0.00     0.023 A 
ATOM      2  C1  UNL d   1      -4.705   1.635   3.514  0.00  0.00     0.003 A 
ATOM      3  C2  UNL d   1      -4.955   2.912   4.018  0.00  0.00     0.048 A 
ATOM      4  C3  UNL d   1      -5.602   3.057   5.245  0.00  0.00     0.023 A 
ATOM      5  C4  UNL d   1      -5.999   1.933   5.971  0.00  0.00     0.048 A 
ATOM      6  C5  UNL d   1      -5.748   0.657   5.462  0.00  0.00     0.003 A 
ATOM      7  I   UNL d   1      -5.975   4.957   5.999  0.00  0.00    -0.146 I 
ENDROOT
TORSDOF 0
ENDMDL
