MODEL 1
REMARK minimizedAffinity 14.6357899
REMARK minimizedRMSD -1
REMARK  0 active torsions:
REMARK  status: ('A' for Active; 'I' for Inactive)
ROOT
ATOM      1  C   UNL d   1      -1.088  -4.122   2.507  0.00  0.00     0.023 A 
ATOM      2  C1  UNL d   1      -1.426  -3.330   1.410  0.00  0.00     0.003 A 
ATOM      3  C2  UNL d   1      -2.180  -3.867   0.365  0.00  0.00     0.048 A 
ATOM      4  C3  UNL d   1      -2.595  -5.197   0.425  0.00  0.00     0.023 A 
ATOM      5  C4  UNL d   1      -2.261  -5.993   1.522  0.00  0.00     0.048 A 
ATOM      6  C5  UNL d   1      -1.505  -5.452   2.563  0.00  0.00     0.003 A 
ATOM      7  I   UNL d   1      -3.719  -6.000  -1.128  0.00  0.00    -0.146 I 
ENDROOT
TORSDOF 0
ENDMDL
