MODEL 1
REMARK minimizedAffinity 20.9408302
REMARK minimizedRMSD -1
REMARK  0 active torsions:
REMARK  status: ('A' for Active; 'I' for Inactive)
ROOT
ATOM      1  C   UNL d   1      -4.805  -4.294  -3.434  0.00  0.00     0.023 A 
ATOM      2  C1  UNL d   1      -4.624  -5.243  -2.428  0.00  0.00     0.003 A 
ATOM      3  C2  UNL d   1      -3.816  -4.951  -1.328  0.00  0.00     0.048 A 
ATOM      4  C3  UNL d   1      -3.192  -3.707  -1.239  0.00  0.00     0.023 A 
ATOM      5  C4  UNL d   1      -3.371  -2.753  -2.243  0.00  0.00     0.048 A 
ATOM      6  C5  UNL d   1      -4.179  -3.050  -3.342  0.00  0.00     0.003 A 
ATOM      7  I   UNL d   1      -1.989  -3.269   0.398  0.00  0.00    -0.146 I 
ENDROOT
TORSDOF 0
ENDMDL
