MODEL 1
REMARK minimizedAffinity 10.0574598
REMARK minimizedRMSD -1
REMARK  0 active torsions:
REMARK  status: ('A' for Active; 'I' for Inactive)
ROOT
ATOM      1  C   UNL d   1       3.988   1.028  -3.688  0.00  0.00     0.023 A 
ATOM      2  C1  UNL d   1       3.791   2.170  -2.912  0.00  0.00     0.003 A 
ATOM      3  C2  UNL d   1       3.192   3.301  -3.471  0.00  0.00     0.048 A 
ATOM      4  C3  UNL d   1       2.791   3.282  -4.806  0.00  0.00     0.023 A 
ATOM      5  C4  UNL d   1       2.985   2.142  -5.586  0.00  0.00     0.048 A 
ATOM      6  C5  UNL d   1       3.585   1.014  -5.024  0.00  0.00     0.003 A 
ATOM      7  I   UNL d   1       1.898   4.964  -5.640  0.00  0.00    -0.146 I 
ENDROOT
TORSDOF 0
ENDMDL
