MODEL 1
REMARK minimizedAffinity 13.2890892
REMARK minimizedRMSD -1
REMARK  0 active torsions:
REMARK  status: ('A' for Active; 'I' for Inactive)
ROOT
ATOM      1  C   UNL d   1       2.063   0.333   1.787  0.00  0.00     0.023 A 
ATOM      2  C1  UNL d   1       1.587   1.534   1.261  0.00  0.00     0.003 A 
ATOM      3  C2  UNL d   1       2.018   1.967   0.005  0.00  0.00     0.048 A 
ATOM      4  C3  UNL d   1       2.925   1.194  -0.719  0.00  0.00     0.023 A 
ATOM      5  C4  UNL d   1       3.404  -0.008  -0.197  0.00  0.00     0.048 A 
ATOM      6  C5  UNL d   1       2.971  -0.437   1.060  0.00  0.00     0.003 A 
ATOM      7  I   UNL d   1       3.567   1.837  -2.588  0.00  0.00    -0.146 I 
ENDROOT
TORSDOF 0
ENDMDL
