MODEL 1
REMARK minimizedAffinity 13.1635962
REMARK minimizedRMSD -1
REMARK  0 active torsions:
REMARK  status: ('A' for Active; 'I' for Inactive)
ROOT
ATOM      1  C   UNL d   1       2.820   5.642  -6.000  0.00  0.00     0.023 A 
ATOM      2  C1  UNL d   1       1.880   4.620  -5.870  0.00  0.00     0.003 A 
ATOM      3  C2  UNL d   1       2.232   3.420  -5.249  0.00  0.00     0.048 A 
ATOM      4  C3  UNL d   1       3.527   3.249  -4.760  0.00  0.00     0.023 A 
ATOM      5  C4  UNL d   1       4.471   4.269  -4.887  0.00  0.00     0.048 A 
ATOM      6  C5  UNL d   1       4.114   5.466  -5.509  0.00  0.00     0.003 A 
ATOM      7  I   UNL d   1       4.054   1.463  -3.836  0.00  0.00    -0.146 I 
ENDROOT
TORSDOF 0
ENDMDL
