MODEL 1
REMARK minimizedAffinity 8.33947086
REMARK minimizedRMSD -1
REMARK  0 active torsions:
REMARK  status: ('A' for Active; 'I' for Inactive)
ROOT
ATOM      1  C   UNL d   1      -1.803  -3.618  -2.954  0.00  0.00     0.023 A 
ATOM      2  C1  UNL d   1      -3.011  -2.920  -2.981  0.00  0.00     0.003 A 
ATOM      3  C2  UNL d   1      -4.217  -3.603  -2.805  0.00  0.00     0.048 A 
ATOM      4  C3  UNL d   1      -4.207  -4.982  -2.601  0.00  0.00     0.023 A 
ATOM      5  C4  UNL d   1      -3.001  -5.684  -2.573  0.00  0.00     0.048 A 
ATOM      6  C5  UNL d   1      -1.798  -4.998  -2.750  0.00  0.00     0.003 A 
ATOM      7  I   UNL d   1      -6.000  -6.000  -2.338  0.00  0.00    -0.146 I 
ENDROOT
TORSDOF 0
ENDMDL
