MODEL 1
REMARK minimizedAffinity 4.4967227
REMARK minimizedRMSD -1
REMARK  0 active torsions:
REMARK  status: ('A' for Active; 'I' for Inactive)
ROOT
ATOM      1  C   UNL d   1      -5.633   4.255   0.621  0.00  0.00     0.023 A 
ATOM      2  C1  UNL d   1      -5.313   3.361   1.643  0.00  0.00     0.003 A 
ATOM      3  C2  UNL d   1      -5.333   3.783   2.974  0.00  0.00     0.048 A 
ATOM      4  C3  UNL d   1      -5.676   5.101   3.276  0.00  0.00     0.023 A 
ATOM      5  C4  UNL d   1      -5.999   5.998   2.257  0.00  0.00     0.048 A 
ATOM      6  C5  UNL d   1      -5.976   5.572   0.928  0.00  0.00     0.003 A 
ATOM      7  I   UNL d   1      -5.708   5.732   5.256  0.00  0.00    -0.146 I 
ENDROOT
TORSDOF 0
ENDMDL
