MODEL 1
REMARK minimizedAffinity 16.9915066
REMARK minimizedRMSD -1
REMARK  0 active torsions:
REMARK  status: ('A' for Active; 'I' for Inactive)
ROOT
ATOM      1  C   UNL d   1      -0.683  -2.629   2.352  0.00  0.00     0.023 A 
ATOM      2  C1  UNL d   1      -1.675  -2.320   1.421  0.00  0.00     0.003 A 
ATOM      3  C2  UNL d   1      -2.662  -3.259   1.114  0.00  0.00     0.048 A 
ATOM      4  C3  UNL d   1      -2.653  -4.503   1.742  0.00  0.00     0.023 A 
ATOM      5  C4  UNL d   1      -1.663  -4.816   2.675  0.00  0.00     0.048 A 
ATOM      6  C5  UNL d   1      -0.677  -3.875   2.978  0.00  0.00     0.003 A 
ATOM      7  I   UNL d   1      -4.121  -5.902   1.287  0.00  0.00    -0.146 I 
ENDROOT
TORSDOF 0
ENDMDL
