MODEL 1
REMARK minimizedAffinity 10.8846531
REMARK minimizedRMSD -1
REMARK  0 active torsions:
REMARK  status: ('A' for Active; 'I' for Inactive)
ROOT
ATOM      1  C   UNL d   1       5.397   2.139  -3.406  0.00  0.00     0.023 A 
ATOM      2  C1  UNL d   1       5.599   3.183  -4.309  0.00  0.00     0.003 A 
ATOM      3  C2  UNL d   1       4.507   3.885  -4.823  0.00  0.00     0.048 A 
ATOM      4  C3  UNL d   1       3.215   3.538  -4.429  0.00  0.00     0.023 A 
ATOM      5  C4  UNL d   1       3.008   2.494  -3.525  0.00  0.00     0.048 A 
ATOM      6  C5  UNL d   1       4.103   1.795  -3.015  0.00  0.00     0.003 A 
ATOM      7  I   UNL d   1       1.587   4.581  -5.192  0.00  0.00    -0.146 I 
ENDROOT
TORSDOF 0
ENDMDL
