MODEL 1
REMARK minimizedAffinity 9.93594837
REMARK minimizedRMSD -1
REMARK  0 active torsions:
REMARK  status: ('A' for Active; 'I' for Inactive)
ROOT
ATOM      1  C4' PXY d   1       2.615  -2.709   1.038  0.00  0.00     0.077 C 
ATOM      2  C1' PXY d   1       4.128   2.562  -0.789  0.00  0.00     0.077 C 
ATOM      3  C1  PXY d   1       3.744   1.176  -0.310  0.00  0.00    -0.082 A 
ATOM      4  C2  PXY d   1       2.510   0.737  -0.501  0.00  0.00     0.003 A 
ATOM      5  C3  PXY d   1       2.137  -0.502  -0.046  0.00  0.00     0.003 A 
ATOM      6  C4  PXY d   1       3.050  -1.320   0.563  0.00  0.00    -0.082 A 
ATOM      7  C5  PXY d   1       4.313  -0.883   0.753  0.00  0.00     0.003 A 
ATOM      8  C6  PXY d   1       4.661   0.393   0.320  0.00  0.00     0.003 A 
ENDROOT
TORSDOF 0
ENDMDL
