MODEL 1
REMARK minimizedAffinity 3.31723952
REMARK minimizedRMSD -1
REMARK  0 active torsions:
REMARK  status: ('A' for Active; 'I' for Inactive)
ROOT
ATOM      1  C4' PXY d   1      -6.000   0.469  -4.964  0.00  0.00     0.077 C 
ATOM      2  C1' PXY d   1      -4.140   1.559   0.400  0.00  0.00     0.077 C 
ATOM      3  C1  PXY d   1      -4.638   1.280  -1.004  0.00  0.00    -0.082 A 
ATOM      4  C2  PXY d   1      -4.191   0.220  -1.659  0.00  0.00     0.003 A 
ATOM      5  C3  PXY d   1      -4.608  -0.029  -2.941  0.00  0.00     0.003 A 
ATOM      6  C4  PXY d   1      -5.531   0.784  -3.541  0.00  0.00    -0.082 A 
ATOM      7  C5  PXY d   1      -6.000   1.861  -2.876  0.00  0.00     0.003 A 
ATOM      8  C6  PXY d   1      -5.534   2.120  -1.590  0.00  0.00     0.003 A 
ENDROOT
TORSDOF 0
ENDMDL
