MODEL 1
REMARK minimizedAffinity 8.89293671
REMARK minimizedRMSD -1
REMARK  0 active torsions:
REMARK  status: ('A' for Active; 'I' for Inactive)
ROOT
ATOM      1  C4' PXY d   1      -5.974   2.806   5.908  0.00  0.00     0.077 C 
ATOM      2  C1' PXY d   1      -5.995   5.997   1.088  0.00  0.00     0.077 C 
ATOM      3  C1  PXY d   1      -5.984   5.170   2.358  0.00  0.00    -0.082 A 
ATOM      4  C2  PXY d   1      -5.976   3.849   2.279  0.00  0.00     0.003 A 
ATOM      5  C3  PXY d   1      -5.999   3.086   3.418  0.00  0.00     0.003 A 
ATOM      6  C4  PXY d   1      -5.975   3.681   4.651  0.00  0.00    -0.082 A 
ATOM      7  C5  PXY d   1      -5.972   5.028   4.740  0.00  0.00     0.003 A 
ATOM      8  C6  PXY d   1      -5.991   5.785   3.572  0.00  0.00     0.003 A 
ENDROOT
TORSDOF 0
ENDMDL
