MODEL 1
REMARK minimizedAffinity 8.98134613
REMARK minimizedRMSD -1
REMARK  0 active torsions:
REMARK  status: ('A' for Active; 'I' for Inactive)
ROOT
ATOM      1  C4' PXY d   1       5.871   2.258  -2.570  0.00  0.00     0.077 C 
ATOM      2  C1' PXY d   1       2.059  -0.167   1.036  0.00  0.00     0.077 C 
ATOM      3  C1  PXY d   1       3.066   0.473   0.101  0.00  0.00    -0.082 A 
ATOM      4  C2  PXY d   1       2.700   0.803  -1.127  0.00  0.00     0.003 A 
ATOM      5  C3  PXY d   1       3.606   1.353  -1.997  0.00  0.00     0.003 A 
ATOM      6  C4  PXY d   1       4.886   1.618  -1.588  0.00  0.00    -0.082 A 
ATOM      7  C5  PXY d   1       5.264   1.294  -0.333  0.00  0.00     0.003 A 
ATOM      8  C6  PXY d   1       4.340   0.699   0.521  0.00  0.00     0.003 A 
ENDROOT
TORSDOF 0
ENDMDL
