MODEL 1
REMARK minimizedAffinity 13.8271751
REMARK minimizedRMSD -1
REMARK  0 active torsions:
REMARK  status: ('A' for Active; 'I' for Inactive)
ROOT
ATOM      1  C4' PXY d   1      -3.232   1.467   1.315  0.00  0.00     0.077 C 
ATOM      2  C1' PXY d   1      -6.000   0.010  -3.546  0.00  0.00     0.077 C 
ATOM      3  C1  PXY d   1      -5.284   0.399  -2.268  0.00  0.00    -0.082 A 
ATOM      4  C2  PXY d   1      -3.962   0.373  -2.224  0.00  0.00     0.003 A 
ATOM      5  C3  PXY d   1      -3.300   0.691  -1.066  0.00  0.00     0.003 A 
ATOM      6  C4  PXY d   1      -3.997   1.091   0.043  0.00  0.00    -0.082 A 
ATOM      7  C5  PXY d   1      -5.345   1.131   0.003  0.00  0.00     0.003 A 
ATOM      8  C6  PXY d   1      -6.000   0.765  -1.170  0.00  0.00     0.003 A 
ENDROOT
TORSDOF 0
ENDMDL
