MODEL 1
REMARK minimizedAffinity 15.663805
REMARK minimizedRMSD -1
REMARK  0 active torsions:
REMARK  status: ('A' for Active; 'I' for Inactive)
ROOT
ATOM      1  C4' PXY d   1       5.972   2.606   4.946  0.00  0.00     0.077 C 
ATOM      2  C1' PXY d   1       1.128   5.174   3.116  0.00  0.00     0.077 C 
ATOM      3  C1  PXY d   1       2.405   4.508   3.587  0.00  0.00    -0.082 A 
ATOM      4  C2  PXY d   1       2.350   3.310   4.146  0.00  0.00     0.003 A 
ATOM      5  C3  PXY d   1       3.492   2.706   4.607  0.00  0.00     0.003 A 
ATOM      6  C4  PXY d   1       4.709   3.313   4.446  0.00  0.00    -0.082 A 
ATOM      7  C5  PXY d   1       4.775   4.530   3.867  0.00  0.00     0.003 A 
ATOM      8  C6  PXY d   1       3.599   5.143   3.443  0.00  0.00     0.003 A 
ENDROOT
TORSDOF 0
ENDMDL
