MODEL 1
REMARK minimizedAffinity 11.9108133
REMARK minimizedRMSD -1
REMARK  0 active torsions:
REMARK  status: ('A' for Active; 'I' for Inactive)
ROOT
ATOM      1  C4' PXY d   1      -3.759   2.911   1.289  0.00  0.00     0.077 C 
ATOM      2  C1' PXY d   1      -5.682   5.663   5.995  0.00  0.00     0.077 C 
ATOM      3  C1  PXY d   1      -5.168   4.950   4.760  0.00  0.00    -0.082 A 
ATOM      4  C2  PXY d   1      -6.000   4.228   4.027  0.00  0.00     0.003 A 
ATOM      5  C3  PXY d   1      -5.545   3.551   2.925  0.00  0.00     0.003 A 
ATOM      6  C4  PXY d   1      -4.236   3.656   2.539  0.00  0.00    -0.082 A 
ATOM      7  C5  PXY d   1      -3.383   4.400   3.275  0.00  0.00     0.003 A 
ATOM      8  C6  PXY d   1      -3.855   5.046   4.414  0.00  0.00     0.003 A 
ENDROOT
TORSDOF 0
ENDMDL
