MODEL 1
REMARK minimizedAffinity -0.520868003
REMARK minimizedRMSD -1
REMARK  0 active torsions:
REMARK  status: ('A' for Active; 'I' for Inactive)
ROOT
ATOM      1  C4' PXY d   1       2.221  -2.549   1.347  0.00  0.00     0.077 C 
ATOM      2  C1' PXY d   1       3.743   2.224  -1.536  0.00  0.00     0.077 C 
ATOM      3  C1  PXY d   1       3.332   0.972  -0.786  0.00  0.00    -0.082 A 
ATOM      4  C2  PXY d   1       3.879   0.704   0.388  0.00  0.00     0.003 A 
ATOM      5  C3  PXY d   1       3.543  -0.440   1.065  0.00  0.00     0.003 A 
ATOM      6  C4  PXY d   1       2.598  -1.292   0.559  0.00  0.00    -0.082 A 
ATOM      7  C5  PXY d   1       2.028  -1.020  -0.634  0.00  0.00     0.003 A 
ATOM      8  C6  PXY d   1       2.413   0.126  -1.324  0.00  0.00     0.003 A 
ENDROOT
TORSDOF 0
ENDMDL
