MODEL 1
REMARK minimizedAffinity 0.762892902
REMARK minimizedRMSD -1
REMARK  0 active torsions:
REMARK  status: ('A' for Active; 'I' for Inactive)
ROOT
ATOM      1  C4' PXY d   1      -6.000   5.972   6.000  0.00  0.00     0.077 C 
ATOM      2  C1' PXY d   1      -5.602   2.560   1.351  0.00  0.00     0.077 C 
ATOM      3  C1  PXY d   1      -5.713   3.446   2.576  0.00  0.00    -0.082 A 
ATOM      4  C2  PXY d   1      -5.629   4.759   2.444  0.00  0.00     0.003 A 
ATOM      5  C3  PXY d   1      -5.695   5.573   3.545  0.00  0.00     0.003 A 
ATOM      6  C4  PXY d   1      -5.903   5.040   4.789  0.00  0.00    -0.082 A 
ATOM      7  C5  PXY d   1      -6.000   3.701   4.931  0.00  0.00     0.003 A 
ATOM      8  C6  PXY d   1      -5.889   2.890   3.806  0.00  0.00     0.003 A 
ENDROOT
TORSDOF 0
ENDMDL
