MODEL 1
REMARK minimizedAffinity -0.799494386
REMARK minimizedRMSD -1
REMARK  0 active torsions:
REMARK  status: ('A' for Active; 'I' for Inactive)
ROOT
ATOM      1  C4' PXY d   1       5.252   4.508   5.977  0.00  0.00     0.077 C 
ATOM      2  C1' PXY d   1       1.030   1.522   3.394  0.00  0.00     0.077 C 
ATOM      3  C1  PXY d   1       2.144   2.304   4.060  0.00  0.00    -0.082 A 
ATOM      4  C2  PXY d   1       2.255   2.291   5.379  0.00  0.00     0.003 A 
ATOM      5  C3  PXY d   1       3.238   3.019   6.000  0.00  0.00     0.003 A 
ATOM      6  C4  PXY d   1       4.149   3.725   5.261  0.00  0.00    -0.082 A 
ATOM      7  C5  PXY d   1       4.049   3.735   3.915  0.00  0.00     0.003 A 
ATOM      8  C6  PXY d   1       3.019   3.023   3.306  0.00  0.00     0.003 A 
ENDROOT
TORSDOF 0
ENDMDL
