MODEL 1
REMARK minimizedAffinity 8.4693985
REMARK minimizedRMSD -1
REMARK  0 active torsions:
REMARK  status: ('A' for Active; 'I' for Inactive)
ROOT
ATOM      1  C   UNL d   1       3.428  -3.969   5.142  0.00  0.00     0.124 A 
ATOM      2  C1  UNL d   1       4.408  -3.126   4.637  0.00  0.00     0.062 A 
ATOM      3  C2  UNL d   1       4.069  -2.113   3.745  0.00  0.00     0.162 A 
ATOM      4  C3  UNL d   1       2.742  -1.937   3.352  0.00  0.00    -0.034 A 
ATOM      5  C4  UNL d   1       1.762  -2.789   3.863  0.00  0.00     0.162 A 
ATOM      6  C5  UNL d   1       2.106  -3.800   4.754  0.00  0.00     0.062 A 
ATOM      7  F   UNL d   1       1.157  -4.614   5.241  0.00  0.00    -0.097 F 
ATOM      8  F1  UNL d   1       0.476  -2.648   3.506  0.00  0.00    -0.096 F 
ATOM      9  I   UNL d   1       2.230  -0.423   2.018  0.00  0.00    -0.060 I 
ATOM     10  F2  UNL d   1       5.036  -1.313   3.273  0.00  0.00    -0.096 F 
ATOM     11  F3  UNL d   1       5.686  -3.288   5.009  0.00  0.00    -0.097 F 
ATOM     12  F4  UNL d   1       3.757  -4.944   5.999  0.00  0.00    -0.092 F 
ENDROOT
TORSDOF 0
ENDMDL
