MODEL 1
REMARK minimizedAffinity 25.9530888
REMARK minimizedRMSD -1
REMARK  0 active torsions:
REMARK  status: ('A' for Active; 'I' for Inactive)
ROOT
ATOM      1  C   UNL d   1       3.247  -4.536   5.183  0.00  0.00     0.124 A 
ATOM      2  C1  UNL d   1       4.138  -3.611   4.658  0.00  0.00     0.062 A 
ATOM      3  C2  UNL d   1       3.684  -2.606   3.808  0.00  0.00     0.162 A 
ATOM      4  C3  UNL d   1       2.331  -2.521   3.479  0.00  0.00    -0.034 A 
ATOM      5  C4  UNL d   1       1.441  -3.456   4.011  0.00  0.00     0.162 A 
ATOM      6  C5  UNL d   1       1.900  -4.458   4.859  0.00  0.00     0.062 A 
ATOM      7  F   UNL d   1       1.038  -5.352   5.366  0.00  0.00    -0.097 F 
ATOM      8  F1  UNL d   1       0.134  -3.403   3.715  0.00  0.00    -0.096 F 
ATOM      9  I   UNL d   1       1.649  -1.020   2.209  0.00  0.00    -0.060 I 
ATOM     10  F2  UNL d   1       4.568  -1.726   3.315  0.00  0.00    -0.096 F 
ATOM     11  F3  UNL d   1       5.440  -3.685   4.969  0.00  0.00    -0.097 F 
ATOM     12  F4  UNL d   1       3.687  -5.503   6.000  0.00  0.00    -0.092 F 
ENDROOT
TORSDOF 0
ENDMDL
