MODEL 1
REMARK minimizedAffinity 13.4602089
REMARK minimizedRMSD -1
REMARK  0 active torsions:
REMARK  status: ('A' for Active; 'I' for Inactive)
ROOT
ATOM      1  C   UNL d   1      -0.237  -4.089   0.276  0.00  0.00     0.124 A 
ATOM      2  C1  UNL d   1      -0.772  -3.488  -0.855  0.00  0.00     0.062 A 
ATOM      3  C2  UNL d   1      -0.947  -2.108  -0.898  0.00  0.00     0.162 A 
ATOM      4  C3  UNL d   1      -0.585  -1.318   0.193  0.00  0.00    -0.034 A 
ATOM      5  C4  UNL d   1      -0.048  -1.930   1.328  0.00  0.00     0.162 A 
ATOM      6  C5  UNL d   1       0.125  -3.309   1.366  0.00  0.00     0.062 A 
ATOM      7  F   UNL d   1       0.642  -3.888   2.460  0.00  0.00    -0.097 F 
ATOM      8  F1  UNL d   1       0.311  -1.200   2.395  0.00  0.00    -0.096 F 
ATOM      9  I   UNL d   1      -0.844   0.746   0.133  0.00  0.00    -0.060 I 
ATOM     10  F2  UNL d   1      -1.466  -1.554  -2.004  0.00  0.00    -0.096 F 
ATOM     11  F3  UNL d   1      -1.123  -4.239  -1.908  0.00  0.00    -0.097 F 
ATOM     12  F4  UNL d   1      -0.071  -5.417   0.316  0.00  0.00    -0.092 F 
ENDROOT
TORSDOF 0
ENDMDL
