MODEL 1
REMARK minimizedAffinity 8.52479172
REMARK minimizedRMSD -1
REMARK  0 active torsions:
REMARK  status: ('A' for Active; 'I' for Inactive)
ROOT
ATOM      1  C   UNL d   1       0.855   1.588   0.129  0.00  0.00     0.124 A 
ATOM      2  C1  UNL d   1       2.010   1.487   0.891  0.00  0.00     0.062 A 
ATOM      3  C2  UNL d   1       2.171   0.430   1.783  0.00  0.00     0.162 A 
ATOM      4  C3  UNL d   1       1.173  -0.535   1.917  0.00  0.00    -0.034 A 
ATOM      5  C4  UNL d   1       0.013  -0.426   1.148  0.00  0.00     0.162 A 
ATOM      6  C5  UNL d   1      -0.143   0.632   0.259  0.00  0.00     0.062 A 
ATOM      7  F   UNL d   1      -1.260   0.727  -0.477  0.00  0.00    -0.097 F 
ATOM      8  F1  UNL d   1      -0.966  -1.337   1.252  0.00  0.00    -0.096 F 
ATOM      9  I   UNL d   1       1.410  -2.116   3.250  0.00  0.00    -0.060 I 
ATOM     10  F2  UNL d   1       3.298   0.358   2.507  0.00  0.00    -0.096 F 
ATOM     11  F3  UNL d   1       2.975   2.410   0.769  0.00  0.00    -0.097 F 
ATOM     12  F4  UNL d   1       0.702   2.606  -0.727  0.00  0.00    -0.092 F 
ENDROOT
TORSDOF 0
ENDMDL
