MODEL 1
REMARK minimizedAffinity 10.5872297
REMARK minimizedRMSD -1
REMARK  0 active torsions:
REMARK  status: ('A' for Active; 'I' for Inactive)
ROOT
ATOM      1  C   UNL d   1       0.569   3.245   0.046  0.00  0.00     0.124 A 
ATOM      2  C1  UNL d   1      -0.633   2.749   0.531  0.00  0.00     0.062 A 
ATOM      3  C2  UNL d   1      -0.692   1.470   1.078  0.00  0.00     0.162 A 
ATOM      4  C3  UNL d   1       0.455   0.680   1.145  0.00  0.00    -0.034 A 
ATOM      5  C4  UNL d   1       1.660   1.186   0.655  0.00  0.00     0.162 A 
ATOM      6  C5  UNL d   1       1.714   2.464   0.108  0.00  0.00     0.062 A 
ATOM      7  F   UNL d   1       2.876   2.942  -0.360  0.00  0.00    -0.097 F 
ATOM      8  F1  UNL d   1       2.782   0.452   0.704  0.00  0.00    -0.096 F 
ATOM      9  I   UNL d   1       0.371  -1.232   1.963  0.00  0.00    -0.060 I 
ATOM     10  F2  UNL d   1      -1.867   1.016   1.539  0.00  0.00    -0.096 F 
ATOM     11  F3  UNL d   1      -1.741   3.502   0.470  0.00  0.00    -0.097 F 
ATOM     12  F4  UNL d   1       0.623   4.475  -0.482  0.00  0.00    -0.092 F 
ENDROOT
TORSDOF 0
ENDMDL
