MODEL 1
REMARK minimizedAffinity -5.1420188
REMARK minimizedRMSD -1
REMARK  2 active torsions:
REMARK  status: ('A' for Active; 'I' for Inactive)
REMARK    1  A    between atoms: C1_2  and  C2_3 
REMARK    2  A    between atoms: C2_3  and  C3_4 
ROOT
ATOM      1  C3  UNL d   1       0.930   0.477   0.177  0.00  0.00    -0.075 A 
ATOM      2  C4  UNL d   1       2.151   1.155   0.303  0.00  0.00     0.002 A 
ATOM      3  C5  UNL d   1       3.345   0.444   0.435  0.00  0.00     0.002 A 
ATOM      4  C6  UNL d   1       3.332  -0.949   0.451  0.00  0.00    -0.004 A 
ATOM      5  C7  UNL d   1       2.123  -1.632   0.343  0.00  0.00     0.002 A 
ATOM      6  C8  UNL d   1       0.927  -0.924   0.207  0.00  0.00     0.002 A 
ENDROOT
BRANCH   1   7
ATOM      7  C2  UNL d   1      -0.362   1.239   0.005  0.00  0.00     0.056 C 
BRANCH   7   8
ATOM      8  C1  UNL d   1      -1.559   0.361  -0.377  0.00  0.00     0.007 C 
ATOM      9  C   UNL d   1      -2.826   0.705   0.394  0.00  0.00     0.009 C 
ENDBRANCH   7   8
ENDBRANCH   1   7
TORSDOF 2
ENDMDL
