MODEL 1
REMARK minimizedAffinity -4.92448425
REMARK minimizedRMSD -1
REMARK  2 active torsions:
REMARK  status: ('A' for Active; 'I' for Inactive)
REMARK    1  A    between atoms: C1_2  and  C2_3 
REMARK    2  A    between atoms: C2_3  and  C3_4 
ROOT
ATOM      1  C3  UNL d   1      -0.581   0.146   0.036  0.00  0.00    -0.075 A 
ATOM      2  C4  UNL d   1       0.486   0.772   0.696  0.00  0.00     0.002 A 
ATOM      3  C5  UNL d   1       1.702   0.109   0.864  0.00  0.00     0.002 A 
ATOM      4  C6  UNL d   1       1.864  -1.189   0.384  0.00  0.00    -0.004 A 
ATOM      5  C7  UNL d   1       0.805  -1.827  -0.258  0.00  0.00     0.002 A 
ATOM      6  C8  UNL d   1      -0.412  -1.164  -0.432  0.00  0.00     0.002 A 
ENDROOT
BRANCH   1   7
ATOM      7  C2  UNL d   1      -1.890   0.869  -0.175  0.00  0.00     0.056 C 
BRANCH   7   8
ATOM      8  C1  UNL d   1      -2.369   1.661   1.046  0.00  0.00     0.007 C 
ATOM      9  C   UNL d   1      -3.869   1.546   1.285  0.00  0.00     0.009 C 
ENDBRANCH   7   8
ENDBRANCH   1   7
TORSDOF 2
ENDMDL
