MODEL 1
REMARK minimizedAffinity -1.9170754
REMARK minimizedRMSD -1
REMARK  2 active torsions:
REMARK  status: ('A' for Active; 'I' for Inactive)
REMARK    1  A    between atoms: C1_2  and  C2_3 
REMARK    2  A    between atoms: C2_3  and  C3_4 
ROOT
ATOM      1  C3  UNL d   1      -0.893   0.417  -0.011  0.00  0.00    -0.075 A 
ATOM      2  C4  UNL d   1      -0.289  -0.834   0.178  0.00  0.00     0.002 A 
ATOM      3  C5  UNL d   1       1.047  -0.924   0.571  0.00  0.00     0.002 A 
ATOM      4  C6  UNL d   1       1.796   0.233   0.771  0.00  0.00    -0.004 A 
ATOM      5  C7  UNL d   1       1.211   1.481   0.571  0.00  0.00     0.002 A 
ATOM      6  C8  UNL d   1      -0.126   1.574   0.181  0.00  0.00     0.002 A 
ENDROOT
BRANCH   1   7
ATOM      7  C2  UNL d   1      -2.346   0.522  -0.408  0.00  0.00     0.056 C 
BRANCH   7   8
ATOM      8  C1  UNL d   1      -3.264   1.028   0.710  0.00  0.00     0.007 C 
ATOM      9  C   UNL d   1      -4.572   0.254   0.810  0.00  0.00     0.009 C 
ENDBRANCH   7   8
ENDBRANCH   1   7
TORSDOF 2
ENDMDL
