MODEL 1
REMARK minimizedAffinity -6.36816788
REMARK minimizedRMSD -1
REMARK  2 active torsions:
REMARK  status: ('A' for Active; 'I' for Inactive)
REMARK    1  A    between atoms: C1_2  and  C2_3 
REMARK    2  A    between atoms: C2_3  and  C3_4 
ROOT
ATOM      1  C3  UNL d   1       0.676   0.409   0.190  0.00  0.00    -0.075 A 
ATOM      2  C4  UNL d   1       1.652   1.408   0.064  0.00  0.00     0.002 A 
ATOM      3  C5  UNL d   1       2.975   1.157   0.430  0.00  0.00     0.002 A 
ATOM      4  C6  UNL d   1       3.336  -0.090   0.935  0.00  0.00    -0.004 A 
ATOM      5  C7  UNL d   1       2.371  -1.085   1.080  0.00  0.00     0.002 A 
ATOM      6  C8  UNL d   1       1.048  -0.838   0.710  0.00  0.00     0.002 A 
ENDROOT
BRANCH   1   7
ATOM      7  C2  UNL d   1      -0.751   0.665  -0.232  0.00  0.00     0.056 C 
BRANCH   7   8
ATOM      8  C1  UNL d   1      -1.728   0.826   0.938  0.00  0.00     0.007 C 
ATOM      9  C   UNL d   1      -3.144   1.169   0.494  0.00  0.00     0.009 C 
ENDBRANCH   7   8
ENDBRANCH   1   7
TORSDOF 2
ENDMDL
