MODEL 1
REMARK minimizedAffinity -5.12113047
REMARK minimizedRMSD -1
REMARK  2 active torsions:
REMARK  status: ('A' for Active; 'I' for Inactive)
REMARK    1  A    between atoms: C1_2  and  C2_3 
REMARK    2  A    between atoms: C2_3  and  C3_4 
ROOT
ATOM      1  C3  UNL d   1       0.045   0.177  -0.005  0.00  0.00    -0.075 A 
ATOM      2  C4  UNL d   1       1.007   0.454   0.977  0.00  0.00     0.002 A 
ATOM      3  C5  UNL d   1       2.117  -0.376   1.136  0.00  0.00     0.002 A 
ATOM      4  C6  UNL d   1       2.274  -1.496   0.322  0.00  0.00    -0.004 A 
ATOM      5  C7  UNL d   1       1.317  -1.790  -0.646  0.00  0.00     0.002 A 
ATOM      6  C8  UNL d   1       0.207  -0.959  -0.809  0.00  0.00     0.002 A 
ENDROOT
BRANCH   1   7
ATOM      7  C2  UNL d   1      -1.143   1.088  -0.201  0.00  0.00     0.056 C 
BRANCH   7   8
ATOM      8  C1  UNL d   1      -2.457   0.528   0.355  0.00  0.00     0.007 C 
ATOM      9  C   UNL d   1      -2.974   1.299   1.562  0.00  0.00     0.009 C 
ENDBRANCH   7   8
ENDBRANCH   1   7
TORSDOF 2
ENDMDL
