MODEL 1
REMARK minimizedAffinity -2.12134957
REMARK minimizedRMSD -1
REMARK  2 active torsions:
REMARK  status: ('A' for Active; 'I' for Inactive)
REMARK    1  A    between atoms: C1_2  and  C2_3 
REMARK    2  A    between atoms: C2_3  and  C3_4 
ROOT
ATOM      1  C3  UNL d   1       1.901  -0.944   0.479  0.00  0.00    -0.075 A 
ATOM      2  C4  UNL d   1       2.413  -1.497  -0.704  0.00  0.00     0.002 A 
ATOM      3  C5  UNL d   1       1.565  -2.120  -1.620  0.00  0.00     0.002 A 
ATOM      4  C6  UNL d   1       0.199  -2.207  -1.361  0.00  0.00    -0.004 A 
ATOM      5  C7  UNL d   1      -0.318  -1.676  -0.181  0.00  0.00     0.002 A 
ATOM      6  C8  UNL d   1       0.527  -1.049   0.735  0.00  0.00     0.002 A 
ENDROOT
BRANCH   1   7
ATOM      7  C2  UNL d   1       2.809  -0.243   1.461  0.00  0.00     0.056 C 
BRANCH   7   8
ATOM      8  C1  UNL d   1       2.581   1.270   1.551  0.00  0.00     0.007 C 
ATOM      9  C   UNL d   1       1.783   1.827   0.380  0.00  0.00     0.009 C 
ENDBRANCH   7   8
ENDBRANCH   1   7
TORSDOF 2
ENDMDL
