MODEL 1
REMARK minimizedAffinity -5.49387598
REMARK minimizedRMSD -1
REMARK  2 active torsions:
REMARK  status: ('A' for Active; 'I' for Inactive)
REMARK    1  A    between atoms: C1_2  and  C2_3 
REMARK    2  A    between atoms: C2_3  and  C3_4 
ROOT
ATOM      1  C3  UNL d   1       0.846  -0.457   0.045  0.00  0.00    -0.075 A 
ATOM      2  C4  UNL d   1       1.361   0.793   0.416  0.00  0.00     0.002 A 
ATOM      3  C5  UNL d   1       2.719   0.945   0.698  0.00  0.00     0.002 A 
ATOM      4  C6  UNL d   1       3.576  -0.151   0.622  0.00  0.00    -0.004 A 
ATOM      5  C7  UNL d   1       3.072  -1.401   0.271  0.00  0.00     0.002 A 
ATOM      6  C8  UNL d   1       1.715  -1.555  -0.016  0.00  0.00     0.002 A 
ENDROOT
BRANCH   1   7
ATOM      7  C2  UNL d   1      -0.617  -0.622  -0.290  0.00  0.00     0.056 C 
BRANCH   7   8
ATOM      8  C1  UNL d   1      -1.395   0.697  -0.353  0.00  0.00     0.007 C 
ATOM      9  C   UNL d   1      -2.868   0.543   0.000  0.00  0.00     0.009 C 
ENDBRANCH   7   8
ENDBRANCH   1   7
TORSDOF 2
ENDMDL
