MODEL 1
REMARK minimizedAffinity 1.41849053
REMARK minimizedRMSD -1
REMARK  0 active torsions:
REMARK  status: ('A' for Active; 'I' for Inactive)
ROOT
ATOM      1  C2' OXE d   1      -2.371  -3.196  -4.892  0.00  0.00     0.078 C 
ATOM      2  C1' OXE d   1      -2.342  -5.999  -5.044  0.00  0.00     0.078 C 
ATOM      3  C1  OXE d   1      -3.634  -5.291  -5.366  0.00  0.00    -0.078 A 
ATOM      4  C2  OXE d   1      -3.652  -3.922  -5.243  0.00  0.00    -0.078 A 
ATOM      5  C3  OXE d   1      -4.802  -3.215  -5.581  0.00  0.00     0.003 A 
ATOM      6  C4  OXE d   1      -5.985  -3.894  -5.896  0.00  0.00    -0.002 A 
ATOM      7  C5  OXE d   1      -6.000  -5.290  -5.987  0.00  0.00    -0.002 A 
ATOM      8  C6  OXE d   1      -4.824  -5.999  -5.767  0.00  0.00     0.003 A 
ENDROOT
TORSDOF 0
ENDMDL
