MODEL 1
REMARK minimizedAffinity 3.29668808
REMARK minimizedRMSD -1
REMARK  0 active torsions:
REMARK  status: ('A' for Active; 'I' for Inactive)
ROOT
ATOM      1  C2' OXE d   1      -2.095  -0.878   3.284  0.00  0.00     0.078 C 
ATOM      2  C1' OXE d   1       0.563  -0.883   4.188  0.00  0.00     0.078 C 
ATOM      3  C1  OXE d   1       0.032   0.387   3.570  0.00  0.00    -0.078 A 
ATOM      4  C2  OXE d   1      -1.255   0.365   3.088  0.00  0.00    -0.078 A 
ATOM      5  C3  OXE d   1      -1.812   1.526   2.558  0.00  0.00     0.003 A 
ATOM      6  C4  OXE d   1      -1.025   2.668   2.372  0.00  0.00    -0.002 A 
ATOM      7  C5  OXE d   1       0.300   2.699   2.819  0.00  0.00    -0.002 A 
ATOM      8  C6  OXE d   1       0.830   1.583   3.458  0.00  0.00     0.003 A 
ENDROOT
TORSDOF 0
ENDMDL
