MODEL 1
REMARK minimizedAffinity 3.89118886
REMARK minimizedRMSD -1
REMARK  0 active torsions:
REMARK  status: ('A' for Active; 'I' for Inactive)
ROOT
ATOM      1  C2' OXE d   1       0.167   0.362   0.256  0.00  0.00     0.078 C 
ATOM      2  C1' OXE d   1      -0.166   1.953   2.545  0.00  0.00     0.078 C 
ATOM      3  C1  OXE d   1      -0.345   2.610   1.199  0.00  0.00    -0.078 A 
ATOM      4  C2  OXE d   1      -0.134   1.835   0.084  0.00  0.00    -0.078 A 
ATOM      5  C3  OXE d   1      -0.339   2.378  -1.182  0.00  0.00     0.003 A 
ATOM      6  C4  OXE d   1      -0.607   3.744  -1.332  0.00  0.00    -0.002 A 
ATOM      7  C5  OXE d   1      -0.787   4.560  -0.210  0.00  0.00    -0.002 A 
ATOM      8  C6  OXE d   1      -0.701   4.000   1.060  0.00  0.00     0.003 A 
ENDROOT
TORSDOF 0
ENDMDL
