MODEL 1
REMARK minimizedAffinity 18.4978333
REMARK minimizedRMSD -1
REMARK  0 active torsions:
REMARK  status: ('A' for Active; 'I' for Inactive)
ROOT
ATOM      1  C2' OXE d   1      -0.236   5.198  -1.470  0.00  0.00     0.078 C 
ATOM      2  C1' OXE d   1      -2.495   4.919  -3.114  0.00  0.00     0.078 C 
ATOM      3  C1  OXE d   1      -2.716   5.316  -1.676  0.00  0.00    -0.078 A 
ATOM      4  C2  OXE d   1      -1.609   5.404  -0.867  0.00  0.00    -0.078 A 
ATOM      5  C3  OXE d   1      -1.751   5.820   0.454  0.00  0.00     0.003 A 
ATOM      6  C4  OXE d   1      -3.025   6.000   1.007  0.00  0.00    -0.002 A 
ATOM      7  C5  OXE d   1      -4.168   5.875   0.211  0.00  0.00    -0.002 A 
ATOM      8  C6  OXE d   1      -4.029   5.576  -1.140  0.00  0.00     0.003 A 
ENDROOT
TORSDOF 0
ENDMDL
