MODEL 1
REMARK minimizedAffinity 9.87356186
REMARK minimizedRMSD -1
REMARK  0 active torsions:
REMARK  status: ('A' for Active; 'I' for Inactive)
ROOT
ATOM      1  C2' OXE d   1      -4.861   4.894  -2.240  0.00  0.00     0.078 C 
ATOM      2  C1' OXE d   1      -4.526   5.999   0.318  0.00  0.00     0.078 C 
ATOM      3  C1  OXE d   1      -3.286   5.708  -0.489  0.00  0.00    -0.078 A 
ATOM      4  C2  OXE d   1      -3.457   5.124  -1.722  0.00  0.00    -0.078 A 
ATOM      5  C3  OXE d   1      -2.350   4.884  -2.531  0.00  0.00     0.003 A 
ATOM      6  C4  OXE d   1      -1.055   5.090  -2.039  0.00  0.00    -0.002 A 
ATOM      7  C5  OXE d   1      -0.857   5.646  -0.771  0.00  0.00    -0.002 A 
ATOM      8  C6  OXE d   1      -1.961   6.000  -0.002  0.00  0.00     0.003 A 
ENDROOT
TORSDOF 0
ENDMDL
