MODEL 1
REMARK minimizedAffinity 6.38825321
REMARK minimizedRMSD -1
REMARK  0 active torsions:
REMARK  status: ('A' for Active; 'I' for Inactive)
ROOT
ATOM      1  C2' OXE d   1       1.977   4.696  -1.128  0.00  0.00     0.078 C 
ATOM      2  C1' OXE d   1       0.338   2.545  -0.372  0.00  0.00     0.078 C 
ATOM      3  C1  OXE d   1      -0.283   3.650  -1.190  0.00  0.00    -0.078 A 
ATOM      4  C2  OXE d   1       0.514   4.721  -1.515  0.00  0.00    -0.078 A 
ATOM      5  C3  OXE d   1       0.005   5.741  -2.314  0.00  0.00     0.003 A 
ATOM      6  C4  OXE d   1      -1.352   5.762  -2.659  0.00  0.00    -0.002 A 
ATOM      7  C5  OXE d   1      -2.191   4.700  -2.304  0.00  0.00    -0.002 A 
ATOM      8  C6  OXE d   1      -1.663   3.619  -1.607  0.00  0.00     0.003 A 
ENDROOT
TORSDOF 0
ENDMDL
