MODEL 1
REMARK minimizedAffinity 11.9266653
REMARK minimizedRMSD -1
REMARK  0 active torsions:
REMARK  status: ('A' for Active; 'I' for Inactive)
ROOT
ATOM      1  C2' OXE d   1      -0.000   1.299   2.948  0.00  0.00     0.078 C 
ATOM      2  C1' OXE d   1       2.088   3.130   2.541  0.00  0.00     0.078 C 
ATOM      3  C1  OXE d   1       1.078   2.957   1.434  0.00  0.00    -0.078 A 
ATOM      4  C2  OXE d   1       0.087   2.025   1.623  0.00  0.00    -0.078 A 
ATOM      5  C3  OXE d   1      -0.902   1.865   0.656  0.00  0.00     0.003 A 
ATOM      6  C4  OXE d   1      -0.809   2.533  -0.571  0.00  0.00    -0.002 A 
ATOM      7  C5  OXE d   1       0.216   3.458  -0.800  0.00  0.00    -0.002 A 
ATOM      8  C6  OXE d   1       1.141   3.712   0.207  0.00  0.00     0.003 A 
ENDROOT
TORSDOF 0
ENDMDL
