MODEL 1
REMARK minimizedAffinity 9.96318245
REMARK minimizedRMSD -1
REMARK  0 active torsions:
REMARK  status: ('A' for Active; 'I' for Inactive)
ROOT
ATOM      1  C2' OXE d   1       2.273  -5.912  -2.701  0.00  0.00     0.078 C 
ATOM      2  C1' OXE d   1       4.650  -5.960  -4.193  0.00  0.00     0.078 C 
ATOM      3  C1  OXE d   1       4.738  -5.560  -2.742  0.00  0.00    -0.078 A 
ATOM      4  C2  OXE d   1       3.564  -5.494  -2.031  0.00  0.00    -0.078 A 
ATOM      5  C3  OXE d   1       3.595  -5.184  -0.675  0.00  0.00     0.003 A 
ATOM      6  C4  OXE d   1       4.792  -4.789  -0.066  0.00  0.00    -0.002 A 
ATOM      7  C5  OXE d   1       5.994  -4.810  -0.781  0.00  0.00    -0.002 A 
ATOM      8  C6  OXE d   1       5.991  -5.233  -2.106  0.00  0.00     0.003 A 
ENDROOT
TORSDOF 0
ENDMDL
