MODEL 1
REMARK minimizedAffinity 4.17450809
REMARK minimizedRMSD -1
REMARK  0 active torsions:
REMARK  status: ('A' for Active; 'I' for Inactive)
ROOT
ATOM      1  C2' OXE d   1      -2.947   6.000   2.086  0.00  0.00     0.078 C 
ATOM      2  C1' OXE d   1      -4.608   5.964  -0.176  0.00  0.00     0.078 C 
ATOM      3  C1  OXE d   1      -3.119   5.880  -0.396  0.00  0.00    -0.078 A 
ATOM      4  C2  OXE d   1      -2.311   5.945   0.714  0.00  0.00    -0.078 A 
ATOM      5  C3  OXE d   1      -0.932   5.818   0.572  0.00  0.00     0.003 A 
ATOM      6  C4  OXE d   1      -0.352   5.778  -0.702  0.00  0.00    -0.002 A 
ATOM      7  C5  OXE d   1      -1.154   5.751  -1.847  0.00  0.00    -0.002 A 
ATOM      8  C6  OXE d   1      -2.538   5.758  -1.710  0.00  0.00     0.003 A 
ENDROOT
TORSDOF 0
ENDMDL
