MODEL 1
REMARK minimizedAffinity 5.32889652
REMARK minimizedRMSD -1
REMARK  0 active torsions:
REMARK  status: ('A' for Active; 'I' for Inactive)
ROOT
ATOM      1  C2' OXE d   1      -0.612   6.000  -1.679  0.00  0.00     0.078 C 
ATOM      2  C1' OXE d   1      -2.131   5.999   0.681  0.00  0.00     0.078 C 
ATOM      3  C1  OXE d   1      -1.216   4.826   0.433  0.00  0.00    -0.078 A 
ATOM      4  C2  OXE d   1      -0.511   4.812  -0.746  0.00  0.00    -0.078 A 
ATOM      5  C3  OXE d   1       0.388   3.781  -1.000  0.00  0.00     0.003 A 
ATOM      6  C4  OXE d   1       0.468   2.681  -0.137  0.00  0.00    -0.002 A 
ATOM      7  C5  OXE d   1      -0.271   2.656   1.051  0.00  0.00    -0.002 A 
ATOM      8  C6  OXE d   1      -1.083   3.738   1.371  0.00  0.00     0.003 A 
ENDROOT
TORSDOF 0
ENDMDL
