MODEL 1
REMARK minimizedAffinity 9.67226791
REMARK minimizedRMSD -1
REMARK  0 active torsions:
REMARK  status: ('A' for Active; 'I' for Inactive)
ROOT
ATOM      1  C2' OXE d   1      -0.015   2.894  -0.145  0.00  0.00     0.078 C 
ATOM      2  C1' OXE d   1       1.773   4.827  -1.118  0.00  0.00     0.078 C 
ATOM      3  C1  OXE d   1       0.327   4.934  -1.534  0.00  0.00    -0.078 A 
ATOM      4  C2  OXE d   1      -0.532   3.957  -1.091  0.00  0.00    -0.078 A 
ATOM      5  C3  OXE d   1      -1.886   4.038  -1.400  0.00  0.00     0.003 A 
ATOM      6  C4  OXE d   1      -2.355   5.018  -2.283  0.00  0.00    -0.002 A 
ATOM      7  C5  OXE d   1      -1.489   6.000  -2.778  0.00  0.00    -0.002 A 
ATOM      8  C6  OXE d   1      -0.157   5.997  -2.380  0.00  0.00     0.003 A 
ENDROOT
TORSDOF 0
ENDMDL
