MODEL 1
REMARK minimizedAffinity 17.6027489
REMARK minimizedRMSD -1
REMARK  0 active torsions:
REMARK  status: ('A' for Active; 'I' for Inactive)
ROOT
ATOM      1  C2' OXE d   1       0.411   1.635   3.035  0.00  0.00     0.078 C 
ATOM      2  C1' OXE d   1       2.677   0.097   2.417  0.00  0.00     0.078 C 
ATOM      3  C1  OXE d   1       1.723  -0.441   3.455  0.00  0.00    -0.078 A 
ATOM      4  C2  OXE d   1       0.642   0.341   3.785  0.00  0.00    -0.078 A 
ATOM      5  C3  OXE d   1      -0.298  -0.133   4.696  0.00  0.00     0.003 A 
ATOM      6  C4  OXE d   1      -0.071  -1.326   5.392  0.00  0.00    -0.002 A 
ATOM      7  C5  OXE d   1       1.044  -2.118   5.100  0.00  0.00    -0.002 A 
ATOM      8  C6  OXE d   1       1.927  -1.711   4.106  0.00  0.00     0.003 A 
ENDROOT
TORSDOF 0
ENDMDL
