MODEL 1
REMARK minimizedAffinity -4.20965481
REMARK minimizedRMSD -1
REMARK  1 active torsions:
REMARK  status: ('A' for Active; 'I' for Inactive)
REMARK    1  A    between atoms: C1_2  and  C2_3 
ROOT
ATOM      1  C2  UNL d   1       0.246   0.607   1.210  0.00  0.00    -0.077 A 
ATOM      2  C3  UNL d   1      -0.307   0.900  -0.045  0.00  0.00     0.002 A 
ATOM      3  C4  UNL d   1       0.229   0.332  -1.203  0.00  0.00     0.002 A 
ATOM      4  C5  UNL d   1       1.317  -0.534  -1.117  0.00  0.00    -0.004 A 
ATOM      5  C6  UNL d   1       1.875  -0.830   0.126  0.00  0.00     0.002 A 
ATOM      6  C7  UNL d   1       1.342  -0.263   1.284  0.00  0.00     0.002 A 
ENDROOT
BRANCH   1   7
ATOM      7  C1  UNL d   1      -0.361   1.180   2.464  0.00  0.00     0.055 C 
ATOM      8  C   UNL d   1      -1.458   0.277   3.010  0.00  0.00     0.019 C 
ENDBRANCH   1   7
TORSDOF 1
ENDMDL
