MODEL 1
REMARK minimizedAffinity -4.35767031
REMARK minimizedRMSD -1
REMARK  1 active torsions:
REMARK  status: ('A' for Active; 'I' for Inactive)
REMARK    1  A    between atoms: C1_2  and  C2_3 
ROOT
ATOM      1  C2  UNL d   1       0.404  -0.148  -1.437  0.00  0.00    -0.077 A 
ATOM      2  C3  UNL d   1      -0.325   0.895  -0.848  0.00  0.00     0.002 A 
ATOM      3  C4  UNL d   1      -0.305   1.077   0.536  0.00  0.00     0.002 A 
ATOM      4  C5  UNL d   1       0.446   0.224   1.342  0.00  0.00    -0.004 A 
ATOM      5  C6  UNL d   1       1.172  -0.817   0.766  0.00  0.00     0.002 A 
ATOM      6  C7  UNL d   1       1.152  -1.002  -0.617  0.00  0.00     0.002 A 
ENDROOT
BRANCH   1   7
ATOM      7  C1  UNL d   1       0.423  -0.316  -2.933  0.00  0.00     0.055 C 
ATOM      8  C   UNL d   1       1.687   0.274  -3.541  0.00  0.00     0.019 C 
ENDBRANCH   1   7
TORSDOF 1
ENDMDL
