MODEL 1
REMARK minimizedAffinity -3.36939406
REMARK minimizedRMSD -1
REMARK  1 active torsions:
REMARK  status: ('A' for Active; 'I' for Inactive)
REMARK    1  A    between atoms: C1_2  and  C2_3 
ROOT
ATOM      1  C2  UNL d   1      -0.908   0.314   0.654  0.00  0.00    -0.077 A 
ATOM      2  C3  UNL d   1      -0.647  -1.013   0.283  0.00  0.00     0.002 A 
ATOM      3  C4  UNL d   1       0.208  -1.293  -0.785  0.00  0.00     0.002 A 
ATOM      4  C5  UNL d   1       0.810  -0.252  -1.488  0.00  0.00    -0.004 A 
ATOM      5  C6  UNL d   1       0.555   1.071  -1.129  0.00  0.00     0.002 A 
ATOM      6  C7  UNL d   1      -0.300   1.352  -0.062  0.00  0.00     0.002 A 
ENDROOT
BRANCH   1   7
ATOM      7  C1  UNL d   1      -1.791   0.616   1.836  0.00  0.00     0.055 C 
ATOM      8  C   UNL d   1      -1.156   1.655   2.750  0.00  0.00     0.019 C 
ENDBRANCH   1   7
TORSDOF 1
ENDMDL
