MODEL 1
REMARK minimizedAffinity -4.18154001
REMARK minimizedRMSD -1
REMARK  1 active torsions:
REMARK  status: ('A' for Active; 'I' for Inactive)
REMARK    1  A    between atoms: C1_2  and  C2_3 
ROOT
ATOM      1  C2  UNL d   1      -0.754  -0.170   1.404  0.00  0.00    -0.077 A 
ATOM      2  C3  UNL d   1      -1.207  -0.800   0.237  0.00  0.00     0.002 A 
ATOM      3  C4  UNL d   1      -0.352  -1.623  -0.499  0.00  0.00     0.002 A 
ATOM      4  C5  UNL d   1       0.959  -1.826  -0.074  0.00  0.00    -0.004 A 
ATOM      5  C6  UNL d   1       1.420  -1.202   1.085  0.00  0.00     0.002 A 
ATOM      6  C7  UNL d   1       0.567  -0.379   1.821  0.00  0.00     0.002 A 
ENDROOT
BRANCH   1   7
ATOM      7  C1  UNL d   1      -1.689   0.679   2.226  0.00  0.00     0.055 C 
ATOM      8  C   UNL d   1      -0.934   1.765   2.978  0.00  0.00     0.019 C 
ENDBRANCH   1   7
TORSDOF 1
ENDMDL
