MODEL 1
REMARK minimizedAffinity -4.59307766
REMARK minimizedRMSD -1
REMARK  1 active torsions:
REMARK  status: ('A' for Active; 'I' for Inactive)
REMARK    1  A    between atoms: C1_2  and  C2_3 
ROOT
ATOM      1  C2  UNL d   1      -0.105   0.038   2.286  0.00  0.00    -0.077 A 
ATOM      2  C3  UNL d   1       0.201  -0.438   1.004  0.00  0.00     0.002 A 
ATOM      3  C4  UNL d   1      -0.673  -0.212  -0.061  0.00  0.00     0.002 A 
ATOM      4  C5  UNL d   1      -1.856   0.495   0.145  0.00  0.00    -0.004 A 
ATOM      5  C6  UNL d   1      -2.171   0.971   1.417  0.00  0.00     0.002 A 
ATOM      6  C7  UNL d   1      -1.299   0.744   2.483  0.00  0.00     0.002 A 
ENDROOT
BRANCH   1   7
ATOM      7  C1  UNL d   1       0.859  -0.163   3.426  0.00  0.00     0.055 C 
ATOM      8  C   UNL d   1       2.188  -0.720   2.935  0.00  0.00     0.019 C 
ENDBRANCH   1   7
TORSDOF 1
ENDMDL
