MODEL 1
REMARK minimizedAffinity -1.48797178
REMARK minimizedRMSD -1
REMARK  1 active torsions:
REMARK  status: ('A' for Active; 'I' for Inactive)
REMARK    1  A    between atoms: C1_2  and  C2_3 
ROOT
ATOM      1  C2  UNL d   1      -1.083   0.543   1.465  0.00  0.00    -0.077 A 
ATOM      2  C3  UNL d   1      -1.688   0.552   0.200  0.00  0.00     0.002 A 
ATOM      3  C4  UNL d   1      -0.960   0.187  -0.934  0.00  0.00     0.002 A 
ATOM      4  C5  UNL d   1       0.376  -0.192  -0.814  0.00  0.00    -0.004 A 
ATOM      5  C6  UNL d   1       0.987  -0.202   0.440  0.00  0.00     0.002 A 
ATOM      6  C7  UNL d   1       0.260   0.163   1.574  0.00  0.00     0.002 A 
ENDROOT
BRANCH   1   7
ATOM      7  C1  UNL d   1      -1.881   0.889   2.695  0.00  0.00     0.055 C 
ATOM      8  C   UNL d   1      -1.079   1.762   3.648  0.00  0.00     0.019 C 
ENDBRANCH   1   7
TORSDOF 1
ENDMDL
