MODEL 1
REMARK minimizedAffinity -5.31848574
REMARK minimizedRMSD -1
REMARK  1 active torsions:
REMARK  status: ('A' for Active; 'I' for Inactive)
REMARK    1  A    between atoms: C1_2  and  C2_3 
ROOT
ATOM      1  C2  UNL d   1       0.026  -0.126   1.409  0.00  0.00    -0.077 A 
ATOM      2  C3  UNL d   1      -0.852   0.424   2.353  0.00  0.00     0.002 A 
ATOM      3  C4  UNL d   1      -0.548   0.371   3.715  0.00  0.00     0.002 A 
ATOM      4  C5  UNL d   1       0.635  -0.227   4.144  0.00  0.00    -0.004 A 
ATOM      5  C6  UNL d   1       1.513  -0.778   3.212  0.00  0.00     0.002 A 
ATOM      6  C7  UNL d   1       1.211  -0.727   1.851  0.00  0.00     0.002 A 
ENDROOT
BRANCH   1   7
ATOM      7  C1  UNL d   1      -0.277  -0.026  -0.063  0.00  0.00     0.055 C 
ATOM      8  C   UNL d   1       0.458  -1.099  -0.854  0.00  0.00     0.019 C 
ENDBRANCH   1   7
TORSDOF 1
ENDMDL
