MODEL 1
REMARK minimizedAffinity -5.09310532
REMARK minimizedRMSD -1
REMARK  1 active torsions:
REMARK  status: ('A' for Active; 'I' for Inactive)
REMARK    1  A    between atoms: C1_2  and  C2_3 
ROOT
ATOM      1  C2  UNL d   1      -0.202   0.279   1.107  0.00  0.00    -0.077 A 
ATOM      2  C3  UNL d   1       1.114  -0.124   1.375  0.00  0.00     0.002 A 
ATOM      3  C4  UNL d   1       1.611  -0.089   2.680  0.00  0.00     0.002 A 
ATOM      4  C5  UNL d   1       0.798   0.342   3.726  0.00  0.00    -0.004 A 
ATOM      5  C6  UNL d   1      -0.512   0.746   3.468  0.00  0.00     0.002 A 
ATOM      6  C7  UNL d   1      -1.010   0.714   2.165  0.00  0.00     0.002 A 
ENDROOT
BRANCH   1   7
ATOM      7  C1  UNL d   1      -0.755   0.196  -0.292  0.00  0.00     0.055 C 
ATOM      8  C   UNL d   1      -2.225  -0.199  -0.283  0.00  0.00     0.019 C 
ENDBRANCH   1   7
TORSDOF 1
ENDMDL
