MODEL 1
REMARK minimizedAffinity -1.88467586
REMARK minimizedRMSD -1
REMARK  1 active torsions:
REMARK  status: ('A' for Active; 'I' for Inactive)
REMARK    1  A    between atoms: C1_2  and  C2_3 
ROOT
ATOM      1  C2  UNL d   1      -0.256   0.532   0.864  0.00  0.00    -0.077 A 
ATOM      2  C3  UNL d   1       0.816  -0.359   0.720  0.00  0.00     0.002 A 
ATOM      3  C4  UNL d   1       1.255  -0.738  -0.550  0.00  0.00     0.002 A 
ATOM      4  C5  UNL d   1       0.630  -0.226  -1.686  0.00  0.00    -0.004 A 
ATOM      5  C6  UNL d   1      -0.439   0.660  -1.553  0.00  0.00     0.002 A 
ATOM      6  C7  UNL d   1      -0.879   1.038  -0.284  0.00  0.00     0.002 A 
ENDROOT
BRANCH   1   7
ATOM      7  C1  UNL d   1      -0.698   0.980   2.233  0.00  0.00     0.055 C 
ATOM      8  C   UNL d   1      -1.493  -0.108   2.941  0.00  0.00     0.019 C 
ENDBRANCH   1   7
TORSDOF 1
ENDMDL
