MODEL 1
REMARK minimizedAffinity -3.64735103
REMARK minimizedRMSD -1
REMARK  0 active torsions:
REMARK  status: ('A' for Active; 'I' for Inactive)
ROOT
ATOM      1  C   UNL d   1      -0.874   1.049  -0.189  0.00  0.00     0.172 C 
ATOM      2  N   UNL d   1       0.445   1.618  -0.046  0.00  0.00    -0.070 N 
ATOM      3  C1  UNL d   1       0.725   2.934   0.209  0.00  0.00    -0.004 A 
ATOM      4  C2  UNL d   1       2.095   3.070   0.272  0.00  0.00    -0.047 A 
ATOM      5  C3  UNL d   1       2.658   1.792   0.046  0.00  0.00    -0.047 A 
ATOM      6  C4  UNL d   1       1.615   0.911  -0.148  0.00  0.00    -0.004 A 
ENDROOT
TORSDOF 0
ENDMDL
