MODEL 1
REMARK minimizedAffinity -2.65500617
REMARK minimizedRMSD -1
REMARK  0 active torsions:
REMARK  status: ('A' for Active; 'I' for Inactive)
ROOT
ATOM      1  C   UNL d   1      -1.857   1.146  -2.730  0.00  0.00     0.172 C 
ATOM      2  N   UNL d   1      -1.313   0.459  -1.583  0.00  0.00    -0.070 N 
ATOM      3  C1  UNL d   1      -1.173   0.988  -0.328  0.00  0.00    -0.004 A 
ATOM      4  C2  UNL d   1      -0.617   0.019   0.479  0.00  0.00    -0.047 A 
ATOM      5  C3  UNL d   1      -0.415  -1.132  -0.319  0.00  0.00    -0.047 A 
ATOM      6  C4  UNL d   1      -0.854  -0.832  -1.591  0.00  0.00    -0.004 A 
ENDROOT
TORSDOF 0
ENDMDL
