MODEL 1
REMARK minimizedAffinity -3.39986944
REMARK minimizedRMSD -1
REMARK  0 active torsions:
REMARK  status: ('A' for Active; 'I' for Inactive)
ROOT
ATOM      1  C   UNL d   1      -0.681   1.594  -0.123  0.00  0.00     0.172 C 
ATOM      2  N   UNL d   1       0.442   2.467   0.123  0.00  0.00    -0.070 N 
ATOM      3  C1  UNL d   1       0.365   3.793   0.456  0.00  0.00    -0.004 A 
ATOM      4  C2  UNL d   1       1.651   4.266   0.605  0.00  0.00    -0.047 A 
ATOM      5  C3  UNL d   1       2.531   3.187   0.352  0.00  0.00    -0.047 A 
ATOM      6  C4  UNL d   1       1.756   2.086   0.056  0.00  0.00    -0.004 A 
ENDROOT
TORSDOF 0
ENDMDL
