MODEL 1
REMARK minimizedAffinity 0.299329311
REMARK minimizedRMSD -1
REMARK  0 active torsions:
REMARK  status: ('A' for Active; 'I' for Inactive)
ROOT
ATOM      1  C   UNL d   1      -1.441   0.994  -1.090  0.00  0.00     0.172 C 
ATOM      2  N   UNL d   1      -0.969   0.163  -0.008  0.00  0.00    -0.070 N 
ATOM      3  C1  UNL d   1       0.193  -0.563  -0.007  0.00  0.00    -0.004 A 
ATOM      4  C2  UNL d   1       0.281  -1.217   1.203  0.00  0.00    -0.047 A 
ATOM      5  C3  UNL d   1      -0.869  -0.874   1.954  0.00  0.00    -0.047 A 
ATOM      6  C4  UNL d   1      -1.625  -0.019   1.181  0.00  0.00    -0.004 A 
ENDROOT
TORSDOF 0
ENDMDL
