MODEL 1
REMARK minimizedAffinity -1.97337663
REMARK minimizedRMSD -1
REMARK  0 active torsions:
REMARK  status: ('A' for Active; 'I' for Inactive)
ROOT
ATOM      1  C   UNL d   1      -1.172   0.908  -0.433  0.00  0.00     0.172 C 
ATOM      2  N   UNL d   1      -0.790  -0.234   0.364  0.00  0.00    -0.070 N 
ATOM      3  C1  UNL d   1      -1.409  -0.650   1.512  0.00  0.00    -0.004 A 
ATOM      4  C2  UNL d   1      -0.747  -1.770   1.967  0.00  0.00    -0.047 A 
ATOM      5  C3  UNL d   1       0.307  -2.036   1.062  0.00  0.00    -0.047 A 
ATOM      6  C4  UNL d   1       0.258  -1.070   0.079  0.00  0.00    -0.004 A 
ENDROOT
TORSDOF 0
ENDMDL
