MODEL 1
REMARK minimizedAffinity -3.14608002
REMARK minimizedRMSD -1
REMARK  0 active torsions:
REMARK  status: ('A' for Active; 'I' for Inactive)
ROOT
ATOM      1  C   UNL d   1       1.908   0.828  -0.156  0.00  0.00     0.172 C 
ATOM      2  N   UNL d   1       2.116   2.251  -0.029  0.00  0.00    -0.070 N 
ATOM      3  C1  UNL d   1       3.276   2.917  -0.323  0.00  0.00    -0.004 A 
ATOM      4  C2  UNL d   1       3.070   4.256  -0.069  0.00  0.00    -0.047 A 
ATOM      5  C3  UNL d   1       1.740   4.399   0.394  0.00  0.00    -0.047 A 
ATOM      6  C4  UNL d   1       1.173   3.143   0.410  0.00  0.00    -0.004 A 
ENDROOT
TORSDOF 0
ENDMDL
