MODEL 1
REMARK minimizedAffinity -3.08124852
REMARK minimizedRMSD -1
REMARK  0 active torsions:
REMARK  status: ('A' for Active; 'I' for Inactive)
ROOT
ATOM      1  C   UNL d   1       2.105   0.440  -0.573  0.00  0.00     0.172 C 
ATOM      2  N   UNL d   1       1.486  -0.755  -0.050  0.00  0.00    -0.070 N 
ATOM      3  C1  UNL d   1       2.149  -1.862   0.411  0.00  0.00    -0.004 A 
ATOM      4  C2  UNL d   1       1.206  -2.779   0.821  0.00  0.00    -0.047 A 
ATOM      5  C3  UNL d   1      -0.068  -2.204   0.599  0.00  0.00    -0.047 A 
ATOM      6  C4  UNL d   1       0.135  -0.951   0.059  0.00  0.00    -0.004 A 
ENDROOT
TORSDOF 0
ENDMDL
