MODEL 1
REMARK minimizedAffinity -3.84319377
REMARK minimizedRMSD -1
REMARK  0 active torsions:
REMARK  status: ('A' for Active; 'I' for Inactive)
ROOT
ATOM      1  C   UNL d   1      -0.382   0.348  -0.315  0.00  0.00     0.172 C 
ATOM      2  N   UNL d   1       0.414  -0.748   0.187  0.00  0.00    -0.070 N 
ATOM      3  C1  UNL d   1       0.060  -1.589   1.208  0.00  0.00    -0.004 A 
ATOM      4  C2  UNL d   1       1.085  -2.495   1.382  0.00  0.00    -0.047 A 
ATOM      5  C3  UNL d   1       2.089  -2.186   0.434  0.00  0.00    -0.047 A 
ATOM      6  C4  UNL d   1       1.648  -1.100  -0.293  0.00  0.00    -0.004 A 
ENDROOT
TORSDOF 0
ENDMDL
