MODEL 1
REMARK minimizedAffinity -3.55540967
REMARK minimizedRMSD -1
REMARK  0 active torsions:
REMARK  status: ('A' for Active; 'I' for Inactive)
ROOT
ATOM      1  C   UNL d   1       0.198   0.055  -0.372  0.00  0.00     0.172 C 
ATOM      2  N   UNL d   1       0.866  -1.149   0.064  0.00  0.00    -0.070 N 
ATOM      3  C1  UNL d   1       2.016  -1.664  -0.474  0.00  0.00    -0.004 A 
ATOM      4  C2  UNL d   1       2.327  -2.815   0.218  0.00  0.00    -0.047 A 
ATOM      5  C3  UNL d   1       1.329  -2.999   1.204  0.00  0.00    -0.047 A 
ATOM      6  C4  UNL d   1       0.437  -1.954   1.087  0.00  0.00    -0.004 A 
ENDROOT
TORSDOF 0
ENDMDL
