MODEL 1
REMARK minimizedAffinity -2.65736723
REMARK minimizedRMSD -1
REMARK  0 active torsions:
REMARK  status: ('A' for Active; 'I' for Inactive)
ROOT
ATOM      1  C   UNL d   1       1.498   3.544   0.024  0.00  0.00     0.172 C 
ATOM      2  N   UNL d   1       1.134   2.158  -0.155  0.00  0.00    -0.070 N 
ATOM      3  C1  UNL d   1       1.972   1.161  -0.580  0.00  0.00    -0.004 A 
ATOM      4  C2  UNL d   1       1.248  -0.011  -0.617  0.00  0.00    -0.047 A 
ATOM      5  C3  UNL d   1      -0.071   0.292  -0.201  0.00  0.00    -0.047 A 
ATOM      6  C4  UNL d   1      -0.113   1.642   0.079  0.00  0.00    -0.004 A 
ENDROOT
TORSDOF 0
ENDMDL
