MODEL 1
REMARK minimizedAffinity -5.1010623
REMARK minimizedRMSD -1
REMARK  3 active torsions:
REMARK  status: ('A' for Active; 'I' for Inactive)
REMARK    1  A    between atoms: C3'_2  and  C2'_3 
REMARK    2  A    between atoms: C2'_3  and  C1'_4 
REMARK    3  A    between atoms: C1'_4  and  C1_5 
ROOT
ATOM      1  C1  N4B d   1       0.081  -0.258   0.060  0.00  0.00    -0.075 A 
ATOM      2  C2  N4B d   1      -0.773  -0.415   1.174  0.00  0.00     0.002 A 
ATOM      3  C3  N4B d   1      -0.708   0.473   2.219  0.00  0.00     0.002 A 
ATOM      4  C4  N4B d   1       0.211   1.511   2.182  0.00  0.00    -0.004 A 
ATOM      5  C5  N4B d   1       1.014   1.671   1.091  0.00  0.00     0.002 A 
ATOM      6  C6  N4B d   1       0.958   0.788   0.031  0.00  0.00     0.002 A 
ENDROOT
BRANCH   1   7
ATOM      7  C1' N4B d   1       0.107  -1.253  -1.068  0.00  0.00     0.057 C 
BRANCH   7   8
ATOM      8  C2' N4B d   1      -1.317  -1.717  -1.359  0.00  0.00     0.009 C 
BRANCH   8   9
ATOM      9  C3' N4B d   1      -1.636  -1.674  -2.844  0.00  0.00     0.004 C 
ATOM     10  C4' N4B d   1      -3.077  -1.365  -3.120  0.00  0.00     0.003 C 
ENDBRANCH   8   9
ENDBRANCH   7   8
ENDBRANCH   1   7
TORSDOF 3
ENDMDL
