MODEL 1
REMARK minimizedAffinity -3.03240824
REMARK minimizedRMSD -1
REMARK  3 active torsions:
REMARK  status: ('A' for Active; 'I' for Inactive)
REMARK    1  A    between atoms: C3'_2  and  C2'_3 
REMARK    2  A    between atoms: C2'_3  and  C1'_4 
REMARK    3  A    between atoms: C1'_4  and  C1_5 
ROOT
ATOM      1  C1  N4B d   1      -0.985  -1.602  -1.555  0.00  0.00    -0.075 A 
ATOM      2  C2  N4B d   1      -2.263  -2.202  -1.521  0.00  0.00     0.002 A 
ATOM      3  C3  N4B d   1      -3.008  -2.296  -2.671  0.00  0.00     0.002 A 
ATOM      4  C4  N4B d   1      -2.506  -1.784  -3.857  0.00  0.00    -0.004 A 
ATOM      5  C5  N4B d   1      -1.260  -1.229  -3.887  0.00  0.00     0.002 A 
ATOM      6  C6  N4B d   1      -0.498  -1.131  -2.740  0.00  0.00     0.002 A 
ENDROOT
BRANCH   1   7
ATOM      7  C1' N4B d   1      -0.169  -1.399  -0.308  0.00  0.00     0.057 C 
BRANCH   7   8
ATOM      8  C2' N4B d   1       0.226   0.071  -0.202  0.00  0.00     0.009 C 
BRANCH   8   9
ATOM      9  C3' N4B d   1      -0.534   0.786   0.903  0.00  0.00     0.004 C 
ATOM     10  C4' N4B d   1       0.330   1.729   1.685  0.00  0.00     0.003 C 
ENDBRANCH   8   9
ENDBRANCH   7   8
ENDBRANCH   1   7
TORSDOF 3
ENDMDL
