MODEL 1
REMARK minimizedAffinity -5.03215361
REMARK minimizedRMSD -1
REMARK  3 active torsions:
REMARK  status: ('A' for Active; 'I' for Inactive)
REMARK    1  A    between atoms: C3'_2  and  C2'_3 
REMARK    2  A    between atoms: C2'_3  and  C1'_4 
REMARK    3  A    between atoms: C1'_4  and  C1_5 
ROOT
ATOM      1  C1  N4B d   1      -2.857  -2.313  -1.910  0.00  0.00    -0.075 A 
ATOM      2  C2  N4B d   1      -2.395  -1.802  -3.143  0.00  0.00     0.002 A 
ATOM      3  C3  N4B d   1      -1.168  -1.190  -3.215  0.00  0.00     0.002 A 
ATOM      4  C4  N4B d   1      -0.397  -1.061  -2.069  0.00  0.00    -0.004 A 
ATOM      5  C5  N4B d   1      -0.839  -1.580  -0.888  0.00  0.00     0.002 A 
ATOM      6  C6  N4B d   1      -2.069  -2.201  -0.801  0.00  0.00     0.002 A 
ENDROOT
BRANCH   1   7
ATOM      7  C1' N4B d   1      -4.228  -2.914  -1.764  0.00  0.00     0.057 C 
BRANCH   7   8
ATOM      8  C2' N4B d   1      -4.185  -4.009  -0.702  0.00  0.00     0.009 C 
BRANCH   8   9
ATOM      9  C3' N4B d   1      -5.574  -4.509  -0.344  0.00  0.00     0.004 C 
ATOM     10  C4' N4B d   1      -5.698  -6.000  -0.445  0.00  0.00     0.003 C 
ENDBRANCH   8   9
ENDBRANCH   7   8
ENDBRANCH   1   7
TORSDOF 3
ENDMDL
