MODEL 1
REMARK minimizedAffinity -1.39754057
REMARK minimizedRMSD -1
REMARK  3 active torsions:
REMARK  status: ('A' for Active; 'I' for Inactive)
REMARK    1  A    between atoms: C3'_2  and  C2'_3 
REMARK    2  A    between atoms: C2'_3  and  C1'_4 
REMARK    3  A    between atoms: C1'_4  and  C1_5 
ROOT
ATOM      1  C1  N4B d   1       0.029  -0.848  -0.922  0.00  0.00    -0.075 A 
ATOM      2  C2  N4B d   1       1.388  -0.998  -1.275  0.00  0.00     0.002 A 
ATOM      3  C3  N4B d   1       2.319  -0.095  -0.823  0.00  0.00     0.002 A 
ATOM      4  C4  N4B d   1       1.912   0.973  -0.036  0.00  0.00    -0.004 A 
ATOM      5  C5  N4B d   1       0.602   1.097   0.320  0.00  0.00     0.002 A 
ATOM      6  C6  N4B d   1      -0.344   0.194  -0.123  0.00  0.00     0.002 A 
ENDROOT
BRANCH   1   7
ATOM      7  C1' N4B d   1      -1.037  -1.761  -1.463  0.00  0.00     0.057 C 
BRANCH   7   8
ATOM      8  C2' N4B d   1      -1.190  -1.520  -2.962  0.00  0.00     0.009 C 
BRANCH   8   9
ATOM      9  C3' N4B d   1      -2.465  -2.139  -3.510  0.00  0.00     0.004 C 
ATOM     10  C4' N4B d   1      -3.681  -1.306  -3.230  0.00  0.00     0.003 C 
ENDBRANCH   8   9
ENDBRANCH   7   8
ENDBRANCH   1   7
TORSDOF 3
ENDMDL
