MODEL 1
REMARK minimizedAffinity -4.59862423
REMARK minimizedRMSD -1
REMARK  3 active torsions:
REMARK  status: ('A' for Active; 'I' for Inactive)
REMARK    1  A    between atoms: C3'_2  and  C2'_3 
REMARK    2  A    between atoms: C2'_3  and  C1'_4 
REMARK    3  A    between atoms: C1'_4  and  C1_5 
ROOT
ATOM      1  C1  N4B d   1      -0.516  -1.322  -0.493  0.00  0.00    -0.075 A 
ATOM      2  C2  N4B d   1       0.800  -1.685  -0.858  0.00  0.00     0.002 A 
ATOM      3  C3  N4B d   1       1.840  -0.820  -0.625  0.00  0.00     0.002 A 
ATOM      4  C4  N4B d   1       1.589   0.416  -0.048  0.00  0.00    -0.004 A 
ATOM      5  C5  N4B d   1       0.320   0.749   0.324  0.00  0.00     0.002 A 
ATOM      6  C6  N4B d   1      -0.736  -0.112   0.100  0.00  0.00     0.002 A 
ENDROOT
BRANCH   1   7
ATOM      7  C1' N4B d   1      -1.697  -2.198  -0.806  0.00  0.00     0.057 C 
BRANCH   7   8
ATOM      8  C2' N4B d   1      -1.908  -2.234  -2.317  0.00  0.00     0.009 C 
BRANCH   8   9
ATOM      9  C3' N4B d   1      -3.304  -1.779  -2.707  0.00  0.00     0.004 C 
ATOM     10  C4' N4B d   1      -4.381  -2.487  -1.941  0.00  0.00     0.003 C 
ENDBRANCH   8   9
ENDBRANCH   7   8
ENDBRANCH   1   7
TORSDOF 3
ENDMDL
