MODEL 1
REMARK minimizedAffinity -6.50337219
REMARK minimizedRMSD -1
REMARK  3 active torsions:
REMARK  status: ('A' for Active; 'I' for Inactive)
REMARK    1  A    between atoms: C3'_2  and  C2'_3 
REMARK    2  A    between atoms: C2'_3  and  C1'_4 
REMARK    3  A    between atoms: C1'_4  and  C1_5 
ROOT
ATOM      1  C1  N4B d   1      -0.135   0.326   0.139  0.00  0.00    -0.075 A 
ATOM      2  C2  N4B d   1      -0.740   1.051   1.189  0.00  0.00     0.002 A 
ATOM      3  C3  N4B d   1      -0.056   2.074   1.799  0.00  0.00     0.002 A 
ATOM      4  C4  N4B d   1       1.234   2.376   1.391  0.00  0.00    -0.004 A 
ATOM      5  C5  N4B d   1       1.801   1.687   0.359  0.00  0.00     0.002 A 
ATOM      6  C6  N4B d   1       1.125   0.660  -0.266  0.00  0.00     0.002 A 
ENDROOT
BRANCH   1   7
ATOM      7  C1' N4B d   1      -0.811  -0.856  -0.501  0.00  0.00     0.057 C 
BRANCH   7   8
ATOM      8  C2' N4B d   1      -0.700  -0.735  -2.018  0.00  0.00     0.009 C 
BRANCH   8   9
ATOM      9  C3' N4B d   1      -1.974  -1.175  -2.718  0.00  0.00     0.004 C 
ATOM     10  C4' N4B d   1      -3.214  -0.759  -1.982  0.00  0.00     0.003 C 
ENDBRANCH   8   9
ENDBRANCH   7   8
ENDBRANCH   1   7
TORSDOF 3
ENDMDL
