MODEL 1
REMARK minimizedAffinity -4.99652767
REMARK minimizedRMSD -1
REMARK  3 active torsions:
REMARK  status: ('A' for Active; 'I' for Inactive)
REMARK    1  A    between atoms: C3'_2  and  C2'_3 
REMARK    2  A    between atoms: C2'_3  and  C1'_4 
REMARK    3  A    between atoms: C1'_4  and  C1_5 
ROOT
ATOM      1  C1  N4B d   1       0.357   0.092  -0.243  0.00  0.00    -0.075 A 
ATOM      2  C2  N4B d   1      -0.351   0.419   0.934  0.00  0.00     0.002 A 
ATOM      3  C3  N4B d   1      -0.084   1.593   1.593  0.00  0.00     0.002 A 
ATOM      4  C4  N4B d   1       0.897   2.444   1.106  0.00  0.00    -0.004 A 
ATOM      5  C5  N4B d   1       1.559   2.134  -0.046  0.00  0.00     0.002 A 
ATOM      6  C6  N4B d   1       1.297   0.959  -0.721  0.00  0.00     0.002 A 
ENDROOT
BRANCH   1   7
ATOM      7  C1' N4B d   1       0.159  -1.221  -0.951  0.00  0.00     0.057 C 
BRANCH   7   8
ATOM      8  C2' N4B d   1      -1.328  -1.422  -1.227  0.00  0.00     0.009 C 
BRANCH   8   9
ATOM      9  C3' N4B d   1      -1.635  -1.417  -2.715  0.00  0.00     0.004 C 
ATOM     10  C4' N4B d   1      -3.096  -1.590  -3.007  0.00  0.00     0.003 C 
ENDBRANCH   8   9
ENDBRANCH   7   8
ENDBRANCH   1   7
TORSDOF 3
ENDMDL
