MODEL 1
REMARK minimizedAffinity -5.58468533
REMARK minimizedRMSD -1
REMARK  3 active torsions:
REMARK  status: ('A' for Active; 'I' for Inactive)
REMARK    1  A    between atoms: C3'_2  and  C2'_3 
REMARK    2  A    between atoms: C2'_3  and  C1'_4 
REMARK    3  A    between atoms: C1'_4  and  C1_5 
ROOT
ATOM      1  C1  N4B d   1      -0.055   0.071   0.303  0.00  0.00    -0.075 A 
ATOM      2  C2  N4B d   1      -0.554   0.740   1.442  0.00  0.00     0.002 A 
ATOM      3  C3  N4B d   1       0.140   1.798   1.976  0.00  0.00     0.002 A 
ATOM      4  C4  N4B d   1       1.339   2.192   1.401  0.00  0.00    -0.004 A 
ATOM      5  C5  N4B d   1       1.802   1.556   0.286  0.00  0.00     0.002 A 
ATOM      6  C6  N4B d   1       1.113   0.493  -0.263  0.00  0.00     0.002 A 
ENDROOT
BRANCH   1   7
ATOM      7  C1' N4B d   1      -0.734  -1.146  -0.264  0.00  0.00     0.057 C 
BRANCH   7   8
ATOM      8  C2' N4B d   1      -0.731  -1.056  -1.787  0.00  0.00     0.009 C 
BRANCH   8   9
ATOM      9  C3' N4B d   1      -2.115  -1.282  -2.372  0.00  0.00     0.004 C 
ATOM     10  C4' N4B d   1      -2.720  -2.586  -1.946  0.00  0.00     0.003 C 
ENDBRANCH   8   9
ENDBRANCH   7   8
ENDBRANCH   1   7
TORSDOF 3
ENDMDL
