MODEL 1
REMARK minimizedAffinity -2.41081071
REMARK minimizedRMSD -1
REMARK  2 active torsions:
REMARK  status: ('A' for Active; 'I' for Inactive)
REMARK    1  A    between atoms: C2'_3  and  C1'_4 
REMARK    2  A    between atoms: C1'_4  and  C1_5 
ROOT
ATOM      1  C1  I4B d   1      -0.817   0.597  -0.183  0.00  0.00    -0.075 A 
ATOM      2  C2  I4B d   1      -0.306   1.537  -1.042  0.00  0.00     0.003 A 
ATOM      3  C3  I4B d   1       1.069   1.518  -1.383  0.00  0.00     0.002 A 
ATOM      4  C4  I4B d   1       1.899   0.580  -0.805  0.00  0.00    -0.004 A 
ATOM      5  C5  I4B d   1       1.374  -0.386   0.049  0.00  0.00     0.002 A 
ATOM      6  C6  I4B d   1       0.005  -0.386   0.352  0.00  0.00     0.003 A 
ENDROOT
BRANCH   1   7
ATOM      7  C1' I4B d   1      -2.267   0.666   0.181  0.00  0.00     0.060 C 
BRANCH   7   8
ATOM      8  C2' I4B d   1      -2.385   1.422   1.489  0.00  0.00    -0.013 C 
ATOM      9  C4' I4B d   1      -1.128   1.293   2.308  0.00  0.00     0.013 C 
ATOM     10  C3' I4B d   1      -2.677   2.858   1.169  0.00  0.00     0.013 C 
ENDBRANCH   7   8
ENDBRANCH   1   7
TORSDOF 2
ENDMDL
