MODEL 1
REMARK minimizedAffinity -3.6353581
REMARK minimizedRMSD -1
REMARK  2 active torsions:
REMARK  status: ('A' for Active; 'I' for Inactive)
REMARK    1  A    between atoms: C2'_3  and  C1'_4 
REMARK    2  A    between atoms: C1'_4  and  C1_5 
ROOT
ATOM      1  C1  I4B d   1       0.025  -0.109  -0.038  0.00  0.00    -0.075 A 
ATOM      2  C2  I4B d   1       0.041  -0.173   1.334  0.00  0.00     0.003 A 
ATOM      3  C3  I4B d   1      -0.727   0.738   2.099  0.00  0.00     0.002 A 
ATOM      4  C4  I4B d   1      -1.453   1.721   1.458  0.00  0.00    -0.004 A 
ATOM      5  C5  I4B d   1      -1.487   1.770   0.067  0.00  0.00     0.002 A 
ATOM      6  C6  I4B d   1      -0.753   0.841  -0.686  0.00  0.00     0.003 A 
ENDROOT
BRANCH   1   7
ATOM      7  C1' I4B d   1       0.874  -1.065  -0.814  0.00  0.00     0.060 C 
BRANCH   7   8
ATOM      8  C2' I4B d   1      -0.013  -1.759  -1.828  0.00  0.00    -0.013 C 
ATOM      9  C4' I4B d   1       0.322  -1.325  -3.231  0.00  0.00     0.013 C 
ATOM     10  C3' I4B d   1       0.165  -3.239  -1.663  0.00  0.00     0.013 C 
ENDBRANCH   7   8
ENDBRANCH   1   7
TORSDOF 2
ENDMDL
