MODEL 1
REMARK minimizedAffinity -5.32630396
REMARK minimizedRMSD -1
REMARK  2 active torsions:
REMARK  status: ('A' for Active; 'I' for Inactive)
REMARK    1  A    between atoms: C2'_3  and  C1'_4 
REMARK    2  A    between atoms: C1'_4  and  C1_5 
ROOT
ATOM      1  C1  I4B d   1       0.321   0.106  -0.233  0.00  0.00    -0.075 A 
ATOM      2  C2  I4B d   1      -0.436   1.194  -0.589  0.00  0.00     0.003 A 
ATOM      3  C3  I4B d   1      -1.294   1.806   0.356  0.00  0.00     0.002 A 
ATOM      4  C4  I4B d   1      -1.401   1.270   1.624  0.00  0.00    -0.004 A 
ATOM      5  C5  I4B d   1      -0.616   0.181   1.990  0.00  0.00     0.002 A 
ATOM      6  C6  I4B d   1       0.260  -0.398   1.060  0.00  0.00     0.003 A 
ENDROOT
BRANCH   1   7
ATOM      7  C1' I4B d   1       1.191  -0.536  -1.267  0.00  0.00     0.060 C 
BRANCH   7   8
ATOM      8  C2' I4B d   1       0.474  -1.768  -1.781  0.00  0.00    -0.013 C 
ATOM      9  C4' I4B d   1       0.168  -1.646  -3.251  0.00  0.00     0.013 C 
ATOM     10  C3' I4B d   1       1.343  -2.959  -1.505  0.00  0.00     0.013 C 
ENDBRANCH   7   8
ENDBRANCH   1   7
TORSDOF 2
ENDMDL
