MODEL 1
REMARK minimizedAffinity -3.83171606
REMARK minimizedRMSD -1
REMARK  2 active torsions:
REMARK  status: ('A' for Active; 'I' for Inactive)
REMARK    1  A    between atoms: C2'_3  and  C1'_4 
REMARK    2  A    between atoms: C1'_4  and  C1_5 
ROOT
ATOM      1  C1  I4B d   1      -1.122   2.247   0.099  0.00  0.00    -0.075 A 
ATOM      2  C2  I4B d   1      -0.782   1.051  -0.482  0.00  0.00     0.003 A 
ATOM      3  C3  I4B d   1      -0.413  -0.053   0.324  0.00  0.00     0.002 A 
ATOM      4  C4  I4B d   1      -0.349   0.096   1.694  0.00  0.00    -0.004 A 
ATOM      5  C5  I4B d   1      -0.717   1.303   2.283  0.00  0.00     0.002 A 
ATOM      6  C6  I4B d   1      -1.118   2.382   1.482  0.00  0.00     0.003 A 
ENDROOT
BRANCH   1   7
ATOM      7  C1' I4B d   1      -1.475   3.403  -0.783  0.00  0.00     0.060 C 
BRANCH   7   8
ATOM      8  C2' I4B d   1      -0.621   3.315  -2.031  0.00  0.00    -0.013 C 
ATOM      9  C4' I4B d   1      -0.929   4.441  -2.983  0.00  0.00     0.013 C 
ATOM     10  C3' I4B d   1       0.818   3.340  -1.610  0.00  0.00     0.013 C 
ENDBRANCH   7   8
ENDBRANCH   1   7
TORSDOF 2
ENDMDL
