MODEL 1
REMARK minimizedAffinity -3.21225142
REMARK minimizedRMSD -1
REMARK  2 active torsions:
REMARK  status: ('A' for Active; 'I' for Inactive)
REMARK    1  A    between atoms: C2'_3  and  C1'_4 
REMARK    2  A    between atoms: C1'_4  and  C1_5 
ROOT
ATOM      1  C1  I4B d   1      -0.781  -0.376   0.788  0.00  0.00    -0.075 A 
ATOM      2  C2  I4B d   1       0.021  -0.828   1.807  0.00  0.00     0.003 A 
ATOM      3  C3  I4B d   1       0.339   0.022   2.894  0.00  0.00     0.002 A 
ATOM      4  C4  I4B d   1      -0.120   1.323   2.897  0.00  0.00    -0.004 A 
ATOM      5  C5  I4B d   1      -0.952   1.772   1.875  0.00  0.00     0.002 A 
ATOM      6  C6  I4B d   1      -1.295   0.914   0.820  0.00  0.00     0.003 A 
ENDROOT
BRANCH   1   7
ATOM      7  C1' I4B d   1      -1.071  -1.289  -0.361  0.00  0.00     0.060 C 
BRANCH   7   8
ATOM      8  C2' I4B d   1      -0.122  -0.936  -1.488  0.00  0.00    -0.013 C 
ATOM      9  C4' I4B d   1       1.159  -0.347  -0.958  0.00  0.00     0.013 C 
ATOM     10  C3' I4B d   1       0.141  -2.183  -2.279  0.00  0.00     0.013 C 
ENDBRANCH   7   8
ENDBRANCH   1   7
TORSDOF 2
ENDMDL
