MODEL 1
REMARK minimizedAffinity -0.946329236
REMARK minimizedRMSD -1
REMARK  2 active torsions:
REMARK  status: ('A' for Active; 'I' for Inactive)
REMARK    1  A    between atoms: C2'_3  and  C1'_4 
REMARK    2  A    between atoms: C1'_4  and  C1_5 
ROOT
ATOM      1  C1  I4B d   1       0.125  -0.515  -0.433  0.00  0.00    -0.075 A 
ATOM      2  C2  I4B d   1       0.934   0.151  -1.319  0.00  0.00     0.003 A 
ATOM      3  C3  I4B d   1       0.659   1.496  -1.664  0.00  0.00     0.002 A 
ATOM      4  C4  I4B d   1      -0.457   2.117  -1.141  0.00  0.00    -0.004 A 
ATOM      5  C5  I4B d   1      -1.263   1.449  -0.225  0.00  0.00     0.002 A 
ATOM      6  C6  I4B d   1      -0.964   0.128   0.141  0.00  0.00     0.003 A 
ENDROOT
BRANCH   1   7
ATOM      7  C1' I4B d   1       0.425  -1.945  -0.116  0.00  0.00     0.060 C 
BRANCH   7   8
ATOM      8  C2' I4B d   1       1.131  -2.550  -1.313  0.00  0.00    -0.013 C 
ATOM      9  C4' I4B d   1       2.244  -3.469  -0.884  0.00  0.00     0.013 C 
ATOM     10  C3' I4B d   1       0.109  -3.282  -2.131  0.00  0.00     0.013 C 
ENDBRANCH   7   8
ENDBRANCH   1   7
TORSDOF 2
ENDMDL
