MODEL 1
REMARK minimizedAffinity -5.57169628
REMARK minimizedRMSD -1
REMARK  2 active torsions:
REMARK  status: ('A' for Active; 'I' for Inactive)
REMARK    1  A    between atoms: C2'_3  and  C1'_4 
REMARK    2  A    between atoms: C1'_4  and  C1_5 
ROOT
ATOM      1  C1  I4B d   1       0.395  -0.118  -0.155  0.00  0.00    -0.075 A 
ATOM      2  C2  I4B d   1      -0.423   0.924  -0.513  0.00  0.00     0.003 A 
ATOM      3  C3  I4B d   1      -1.349   1.455   0.418  0.00  0.00     0.002 A 
ATOM      4  C4  I4B d   1      -1.458   0.884   1.670  0.00  0.00    -0.004 A 
ATOM      5  C5  I4B d   1      -0.612  -0.158   2.038  0.00  0.00     0.002 A 
ATOM      6  C6  I4B d   1       0.329  -0.655   1.124  0.00  0.00     0.003 A 
ENDROOT
BRANCH   1   7
ATOM      7  C1' I4B d   1       1.338  -0.676  -1.174  0.00  0.00     0.060 C 
BRANCH   7   8
ATOM      8  C2' I4B d   1       0.809  -2.028  -1.608  0.00  0.00    -0.013 C 
ATOM      9  C4' I4B d   1       0.472  -2.036  -3.076  0.00  0.00     0.013 C 
ATOM     10  C3' I4B d   1       1.851  -3.058  -1.286  0.00  0.00     0.013 C 
ENDBRANCH   7   8
ENDBRANCH   1   7
TORSDOF 2
ENDMDL
