MODEL 1
REMARK minimizedAffinity -4.90793324
REMARK minimizedRMSD -1
REMARK  2 active torsions:
REMARK  status: ('A' for Active; 'I' for Inactive)
REMARK    1  A    between atoms: C2'_3  and  C1'_4 
REMARK    2  A    between atoms: C1'_4  and  C1_5 
ROOT
ATOM      1  C1  I4B d   1       0.526  -0.374  -0.429  0.00  0.00    -0.075 A 
ATOM      2  C2  I4B d   1       0.802  -0.356   0.915  0.00  0.00     0.003 A 
ATOM      3  C3  I4B d   1      -0.027   0.370   1.804  0.00  0.00     0.002 A 
ATOM      4  C4  I4B d   1      -1.086   1.099   1.303  0.00  0.00    -0.004 A 
ATOM      5  C5  I4B d   1      -1.378   1.061  -0.058  0.00  0.00     0.002 A 
ATOM      6  C6  I4B d   1      -0.575   0.310  -0.928  0.00  0.00     0.003 A 
ENDROOT
BRANCH   1   7
ATOM      7  C1' I4B d   1       1.442  -1.124  -1.343  0.00  0.00     0.060 C 
BRANCH   7   8
ATOM      8  C2' I4B d   1       0.844  -2.496  -1.581  0.00  0.00    -0.013 C 
ATOM      9  C4' I4B d   1       0.548  -2.715  -3.042  0.00  0.00     0.013 C 
ATOM     10  C3' I4B d   1       1.811  -3.518  -1.065  0.00  0.00     0.013 C 
ENDBRANCH   7   8
ENDBRANCH   1   7
TORSDOF 2
ENDMDL
