MODEL 1
REMARK minimizedAffinity -3.57239723
REMARK minimizedRMSD -1
REMARK  2 active torsions:
REMARK  status: ('A' for Active; 'I' for Inactive)
REMARK    1  A    between atoms: C2'_3  and  C1'_4 
REMARK    2  A    between atoms: C1'_4  and  C1_5 
ROOT
ATOM      1  C1  I4B d   1      -0.511   0.633   0.308  0.00  0.00    -0.075 A 
ATOM      2  C2  I4B d   1      -0.301   1.961   0.030  0.00  0.00     0.003 A 
ATOM      3  C3  I4B d   1      -0.630   2.950   0.989  0.00  0.00     0.002 A 
ATOM      4  C4  I4B d   1      -1.209   2.573   2.183  0.00  0.00    -0.004 A 
ATOM      5  C5  I4B d   1      -1.400   1.225   2.472  0.00  0.00     0.002 A 
ATOM      6  C6  I4B d   1      -1.038   0.248   1.534  0.00  0.00     0.003 A 
ENDROOT
BRANCH   1   7
ATOM      7  C1' I4B d   1      -0.183  -0.383  -0.740  0.00  0.00     0.060 C 
BRANCH   7   8
ATOM      8  C2' I4B d   1       1.264  -0.792  -0.557  0.00  0.00    -0.013 C 
ATOM      9  C4' I4B d   1       1.543  -2.118  -1.213  0.00  0.00     0.013 C 
ATOM     10  C3' I4B d   1       2.128   0.290  -1.133  0.00  0.00     0.013 C 
ENDBRANCH   7   8
ENDBRANCH   1   7
TORSDOF 2
ENDMDL
