MODEL 1
REMARK minimizedAffinity -0.308317155
REMARK minimizedRMSD -1
REMARK  2 active torsions:
REMARK  status: ('A' for Active; 'I' for Inactive)
REMARK    1  A    between atoms: C2'_3  and  C1'_4 
REMARK    2  A    between atoms: C1'_4  and  C1_5 
ROOT
ATOM      1  C1  I4B d   1       0.437  -0.690   0.030  0.00  0.00    -0.075 A 
ATOM      2  C2  I4B d   1       0.455  -0.766   1.400  0.00  0.00     0.003 A 
ATOM      3  C3  I4B d   1      -0.364   0.093   2.173  0.00  0.00     0.002 A 
ATOM      4  C4  I4B d   1      -1.142   1.040   1.540  0.00  0.00    -0.004 A 
ATOM      5  C5  I4B d   1      -1.176   1.101   0.150  0.00  0.00     0.002 A 
ATOM      6  C6  I4B d   1      -0.391   0.222  -0.611  0.00  0.00     0.003 A 
ENDROOT
BRANCH   1   7
ATOM      7  C1' I4B d   1       1.340  -1.589  -0.754  0.00  0.00     0.060 C 
BRANCH   7   8
ATOM      8  C2' I4B d   1       0.878  -3.016  -0.538  0.00  0.00    -0.013 C 
ATOM      9  C4' I4B d   1       0.279  -3.591  -1.795  0.00  0.00     0.013 C 
ATOM     10  C3' I4B d   1       2.059  -3.821  -0.084  0.00  0.00     0.013 C 
ENDBRANCH   7   8
ENDBRANCH   1   7
TORSDOF 2
ENDMDL
