MODEL 1
REMARK minimizedAffinity -3.09689164
REMARK minimizedRMSD -1
REMARK  0 active torsions:
REMARK  status: ('A' for Active; 'I' for Inactive)
ROOT
ATOM      1  O1  BZF d   1      -1.459   2.572  -0.069  0.00  0.00    -0.204 OA
ATOM      2  C2  BZF d   1      -2.182   1.829   0.844  0.00  0.00     0.174 A 
ATOM      3  C3  BZF d   1      -1.737   0.556   0.885  0.00  0.00    -0.012 A 
ATOM      4  C3A BZF d   1      -0.610   0.524   0.005  0.00  0.00    -0.107 A 
ATOM      5  C4  BZF d   1       0.265  -0.458  -0.364  0.00  0.00     0.055 A 
ATOM      6  C5  BZF d   1       1.211  -0.182  -1.300  0.00  0.00    -0.016 A 
ATOM      7  C6  BZF d   1       1.308   1.061  -1.890  0.00  0.00     0.022 A 
ATOM      8  C7  BZF d   1       0.466   2.068  -1.553  0.00  0.00     0.029 A 
ATOM      9  C7A BZF d   1      -0.470   1.802  -0.583  0.00  0.00     0.058 A 
ENDROOT
TORSDOF 0
ENDMDL
