MODEL 1
REMARK minimizedAffinity -2.50617456
REMARK minimizedRMSD -1
REMARK  0 active torsions:
REMARK  status: ('A' for Active; 'I' for Inactive)
ROOT
ATOM      1  O1  BZF d   1      -1.737   1.127   2.367  0.00  0.00    -0.204 OA
ATOM      2  C2  BZF d   1      -2.527   1.808   1.461  0.00  0.00     0.174 A 
ATOM      3  C3  BZF d   1      -2.016   1.716   0.216  0.00  0.00    -0.012 A 
ATOM      4  C3A BZF d   1      -0.884   0.849   0.338  0.00  0.00    -0.107 A 
ATOM      5  C4  BZF d   1       0.026   0.362  -0.556  0.00  0.00     0.055 A 
ATOM      6  C5  BZF d   1       1.054  -0.403  -0.103  0.00  0.00    -0.016 A 
ATOM      7  C6  BZF d   1       1.205  -0.695   1.237  0.00  0.00     0.022 A 
ATOM      8  C7  BZF d   1       0.326  -0.238   2.161  0.00  0.00     0.029 A 
ATOM      9  C7A BZF d   1      -0.733   0.507   1.702  0.00  0.00     0.058 A 
ENDROOT
TORSDOF 0
ENDMDL
