MODEL 1
REMARK minimizedAffinity -4.05828047
REMARK minimizedRMSD -1
REMARK  0 active torsions:
REMARK  status: ('A' for Active; 'I' for Inactive)
ROOT
ATOM      1  O1  BZF d   1       0.169   0.531  -1.125  0.00  0.00    -0.204 OA
ATOM      2  C2  BZF d   1       0.902  -0.640  -1.123  0.00  0.00     0.174 A 
ATOM      3  C3  BZF d   1       0.870  -1.223   0.092  0.00  0.00    -0.012 A 
ATOM      4  C3A BZF d   1      -0.009  -0.410   0.876  0.00  0.00    -0.107 A 
ATOM      5  C4  BZF d   1      -0.455  -0.483   2.165  0.00  0.00     0.055 A 
ATOM      6  C5  BZF d   1      -1.249   0.510   2.646  0.00  0.00    -0.016 A 
ATOM      7  C6  BZF d   1      -1.611   1.591   1.869  0.00  0.00     0.022 A 
ATOM      8  C7  BZF d   1      -1.197   1.704   0.583  0.00  0.00     0.029 A 
ATOM      9  C7A BZF d   1      -0.422   0.686   0.084  0.00  0.00     0.058 A 
ENDROOT
TORSDOF 0
ENDMDL
