MODEL 1
REMARK minimizedAffinity -3.63751793
REMARK minimizedRMSD -1
REMARK  0 active torsions:
REMARK  status: ('A' for Active; 'I' for Inactive)
ROOT
ATOM      1  O1  BZF d   1      -0.441  -0.209  -1.277  0.00  0.00    -0.204 OA
ATOM      2  C2  BZF d   1       0.484  -1.229  -1.169  0.00  0.00     0.174 A 
ATOM      3  C3  BZF d   1       0.889  -1.375   0.109  0.00  0.00    -0.012 A 
ATOM      4  C3A BZF d   1       0.104  -0.444   0.861  0.00  0.00    -0.107 A 
ATOM      5  C4  BZF d   1       0.035  -0.130   2.188  0.00  0.00     0.055 A 
ATOM      6  C5  BZF d   1      -0.785   0.877   2.587  0.00  0.00    -0.016 A 
ATOM      7  C6  BZF d   1      -1.545   1.594   1.686  0.00  0.00     0.022 A 
ATOM      8  C7  BZF d   1      -1.515   1.316   0.360  0.00  0.00     0.029 A 
ATOM      9  C7A BZF d   1      -0.712   0.277  -0.042  0.00  0.00     0.058 A 
ENDROOT
TORSDOF 0
ENDMDL
