MODEL 1
REMARK minimizedAffinity -4.78562307
REMARK minimizedRMSD -1
REMARK  0 active torsions:
REMARK  status: ('A' for Active; 'I' for Inactive)
ROOT
ATOM      1  O1  BZF d   1      -0.651  -0.067  -1.670  0.00  0.00    -0.204 OA
ATOM      2  C2  BZF d   1       0.285  -1.082  -1.733  0.00  0.00     0.174 A 
ATOM      3  C3  BZF d   1       0.764  -1.368  -0.505  0.00  0.00    -0.012 A 
ATOM      4  C3A BZF d   1       0.017  -0.540   0.392  0.00  0.00    -0.107 A 
ATOM      5  C4  BZF d   1       0.024  -0.382   1.749  0.00  0.00     0.055 A 
ATOM      6  C5  BZF d   1      -0.778   0.562   2.307  0.00  0.00    -0.016 A 
ATOM      7  C6  BZF d   1      -1.594   1.369   1.540  0.00  0.00     0.022 A 
ATOM      8  C7  BZF d   1      -1.638   1.245   0.191  0.00  0.00     0.029 A 
ATOM      9  C7A BZF d   1      -0.853   0.269  -0.373  0.00  0.00     0.058 A 
ENDROOT
TORSDOF 0
ENDMDL
