MODEL 1
REMARK minimizedAffinity -3.86420679
REMARK minimizedRMSD -1
REMARK  0 active torsions:
REMARK  status: ('A' for Active; 'I' for Inactive)
ROOT
ATOM      1  O1  BZF d   1      -2.165   1.672   1.848  0.00  0.00    -0.204 OA
ATOM      2  C2  BZF d   1      -2.523   2.417   0.741  0.00  0.00     0.174 A 
ATOM      3  C3  BZF d   1      -1.763   2.088  -0.323  0.00  0.00    -0.012 A 
ATOM      4  C3A BZF d   1      -0.936   1.010   0.124  0.00  0.00    -0.107 A 
ATOM      5  C4  BZF d   1       0.020   0.246  -0.483  0.00  0.00     0.055 A 
ATOM      6  C5  BZF d   1       0.693  -0.677   0.254  0.00  0.00    -0.016 A 
ATOM      7  C6  BZF d   1       0.440  -0.859   1.597  0.00  0.00     0.022 A 
ATOM      8  C7  BZF d   1      -0.503  -0.129   2.241  0.00  0.00     0.029 A 
ATOM      9  C7A BZF d   1      -1.207   0.782   1.493  0.00  0.00     0.058 A 
ENDROOT
TORSDOF 0
ENDMDL
