MODEL 1
REMARK minimizedAffinity -3.65893984
REMARK minimizedRMSD -1
REMARK  0 active torsions:
REMARK  status: ('A' for Active; 'I' for Inactive)
ROOT
ATOM      1  O1  BZF d   1      -1.320   1.581   2.638  0.00  0.00    -0.204 OA
ATOM      2  C2  BZF d   1      -0.500   0.854   3.479  0.00  0.00     0.174 A 
ATOM      3  C3  BZF d   1       0.213  -0.056   2.784  0.00  0.00    -0.012 A 
ATOM      4  C3A BZF d   1      -0.119   0.175   1.411  0.00  0.00    -0.107 A 
ATOM      5  C4  BZF d   1       0.279  -0.400   0.239  0.00  0.00     0.055 A 
ATOM      6  C5  BZF d   1      -0.290   0.009  -0.925  0.00  0.00    -0.016 A 
ATOM      7  C6  BZF d   1      -1.263   0.986  -0.953  0.00  0.00     0.022 A 
ATOM      8  C7  BZF d   1      -1.687   1.590   0.184  0.00  0.00     0.029 A 
ATOM      9  C7A BZF d   1      -1.090   1.202   1.358  0.00  0.00     0.058 A 
ENDROOT
TORSDOF 0
ENDMDL
