MODEL 1
REMARK minimizedAffinity -3.8353796
REMARK minimizedRMSD -1
REMARK  0 active torsions:
REMARK  status: ('A' for Active; 'I' for Inactive)
ROOT
ATOM      1  O1  BZF d   1      -0.258   0.562  -1.084  0.00  0.00    -0.204 OA
ATOM      2  C2  BZF d   1       0.548  -0.557  -1.003  0.00  0.00     0.174 A 
ATOM      3  C3  BZF d   1       0.803  -0.871   0.283  0.00  0.00    -0.012 A 
ATOM      4  C3A BZF d   1       0.038   0.058   1.056  0.00  0.00    -0.107 A 
ATOM      5  C4  BZF d   1      -0.137   0.244   2.398  0.00  0.00     0.055 A 
ATOM      6  C5  BZF d   1      -0.892   1.288   2.828  0.00  0.00    -0.016 A 
ATOM      7  C6  BZF d   1      -1.483   2.168   1.945  0.00  0.00     0.022 A 
ATOM      8  C7  BZF d   1      -1.343   2.022   0.605  0.00  0.00     0.029 A 
ATOM      9  C7A BZF d   1      -0.607   0.948   0.167  0.00  0.00     0.058 A 
ENDROOT
TORSDOF 0
ENDMDL
