MODEL 1
REMARK minimizedAffinity -5.28871727
REMARK minimizedRMSD -1
REMARK  0 active torsions:
REMARK  status: ('A' for Active; 'I' for Inactive)
ROOT
ATOM      1  O1  BZF d   1      -1.328   2.294   0.769  0.00  0.00    -0.204 OA
ATOM      2  C2  BZF d   1      -1.776   1.392   1.715  0.00  0.00     0.174 A 
ATOM      3  C3  BZF d   1      -1.114   0.222   1.613  0.00  0.00    -0.012 A 
ATOM      4  C3A BZF d   1      -0.129   0.435   0.596  0.00  0.00    -0.107 A 
ATOM      5  C4  BZF d   1       0.845  -0.353   0.054  0.00  0.00     0.055 A 
ATOM      6  C5  BZF d   1       1.591   0.132  -0.974  0.00  0.00    -0.016 A 
ATOM      7  C6  BZF d   1       1.385   1.396  -1.487  0.00  0.00     0.022 A 
ATOM      8  C7  BZF d   1       0.433   2.216  -0.978  0.00  0.00     0.029 A 
ATOM      9  C7A BZF d   1      -0.299   1.741   0.082  0.00  0.00     0.058 A 
ENDROOT
TORSDOF 0
ENDMDL
