MODEL 1
REMARK minimizedAffinity -3.74061108
REMARK minimizedRMSD -1
REMARK  0 active torsions:
REMARK  status: ('A' for Active; 'I' for Inactive)
ROOT
ATOM      1  O1  BZF d   1      -1.614   1.352   2.663  0.00  0.00    -0.204 OA
ATOM      2  C2  BZF d   1      -2.236   2.324   1.904  0.00  0.00     0.174 A 
ATOM      3  C3  BZF d   1      -1.762   2.322   0.641  0.00  0.00    -0.012 A 
ATOM      4  C3A BZF d   1      -0.849   1.222   0.584  0.00  0.00    -0.107 A 
ATOM      5  C4  BZF d   1      -0.072   0.698  -0.409  0.00  0.00     0.055 A 
ATOM      6  C5  BZF d   1       0.764  -0.334  -0.119  0.00  0.00    -0.016 A 
ATOM      7  C6  BZF d   1       0.851  -0.862   1.153  0.00  0.00     0.022 A 
ATOM      8  C7  BZF d   1       0.096  -0.378   2.170  0.00  0.00     0.029 A 
ATOM      9  C7A BZF d   1      -0.773   0.643   1.872  0.00  0.00     0.058 A 
ENDROOT
TORSDOF 0
ENDMDL
