MODEL 1
REMARK minimizedAffinity -2.55167913
REMARK minimizedRMSD -1
REMARK  0 active torsions:
REMARK  status: ('A' for Active; 'I' for Inactive)
ROOT
ATOM      1  O1  BZF d   1      -0.383   0.404  -1.356  0.00  0.00    -0.204 OA
ATOM      2  C2  BZF d   1       0.702  -0.447  -1.452  0.00  0.00     0.174 A 
ATOM      3  C3  BZF d   1       1.092  -0.864  -0.230  0.00  0.00    -0.012 A 
ATOM      4  C3A BZF d   1       0.138  -0.308   0.680  0.00  0.00    -0.107 A 
ATOM      5  C4  BZF d   1      -0.019  -0.379   2.034  0.00  0.00     0.055 A 
ATOM      6  C5  BZF d   1      -1.012   0.340   2.622  0.00  0.00    -0.016 A 
ATOM      7  C6  BZF d   1      -1.860   1.142   1.888  0.00  0.00     0.022 A 
ATOM      8  C7  BZF d   1      -1.747   1.240   0.541  0.00  0.00     0.029 A 
ATOM      9  C7A BZF d   1      -0.766   0.490  -0.060  0.00  0.00     0.058 A 
ENDROOT
TORSDOF 0
ENDMDL
