MODEL 1
REMARK minimizedAffinity -3.32722354
REMARK minimizedRMSD -1
REMARK  0 active torsions:
REMARK  status: ('A' for Active; 'I' for Inactive)
ROOT
ATOM      1  O1  BZF d   1       0.681  -0.760   1.004  0.00  0.00    -0.204 OA
ATOM      2  C2  BZF d   1       1.188  -0.807  -0.280  0.00  0.00     0.174 A 
ATOM      3  C3  BZF d   1       0.492   0.007  -1.099  0.00  0.00    -0.012 A 
ATOM      4  C3A BZF d   1      -0.455   0.669  -0.256  0.00  0.00    -0.107 A 
ATOM      5  C4  BZF d   1      -1.419   1.610  -0.484  0.00  0.00     0.055 A 
ATOM      6  C5  BZF d   1      -2.223   1.994   0.542  0.00  0.00    -0.016 A 
ATOM      7  C6  BZF d   1      -2.095   1.455   1.806  0.00  0.00     0.022 A 
ATOM      8  C7  BZF d   1      -1.150   0.523   2.081  0.00  0.00     0.029 A 
ATOM      9  C7A BZF d   1      -0.315   0.157   1.055  0.00  0.00     0.058 A 
ENDROOT
TORSDOF 0
ENDMDL
