MODEL 1
REMARK minimizedAffinity -2.99100351
REMARK minimizedRMSD -1
REMARK  0 active torsions:
REMARK  status: ('A' for Active; 'I' for Inactive)
ROOT
ATOM      1  O1  BZF d   1       0.190   0.107  -1.211  0.00  0.00    -0.204 OA
ATOM      2  C2  BZF d   1       0.955  -1.043  -1.187  0.00  0.00     0.174 A 
ATOM      3  C3  BZF d   1       0.967  -1.583   0.049  0.00  0.00    -0.012 A 
ATOM      4  C3A BZF d   1       0.085  -0.768   0.825  0.00  0.00    -0.107 A 
ATOM      5  C4  BZF d   1      -0.329  -0.807   2.126  0.00  0.00     0.055 A 
ATOM      6  C5  BZF d   1      -1.138   0.181   2.592  0.00  0.00    -0.016 A 
ATOM      7  C6  BZF d   1      -1.548   1.224   1.787  0.00  0.00     0.022 A 
ATOM      8  C7  BZF d   1      -1.167   1.303   0.489  0.00  0.00     0.029 A 
ATOM      9  C7A BZF d   1      -0.376   0.289   0.006  0.00  0.00     0.058 A 
ENDROOT
TORSDOF 0
ENDMDL
