MODEL 1
REMARK minimizedAffinity -3.45152068
REMARK minimizedRMSD -1
REMARK  0 active torsions:
REMARK  status: ('A' for Active; 'I' for Inactive)
ROOT
ATOM      1  O1  BZF d   1       1.285  -0.590   0.768  0.00  0.00    -0.204 OA
ATOM      2  C2  BZF d   1       1.107  -0.673  -0.599  0.00  0.00     0.174 A 
ATOM      3  C3  BZF d   1      -0.098  -0.184  -0.955  0.00  0.00    -0.012 A 
ATOM      4  C3A BZF d   1      -0.674   0.316   0.255  0.00  0.00    -0.107 A 
ATOM      5  C4  BZF d   1      -1.856   0.936   0.547  0.00  0.00     0.055 A 
ATOM      6  C5  BZF d   1      -2.145   1.230   1.841  0.00  0.00    -0.016 A 
ATOM      7  C6  BZF d   1      -1.280   0.915   2.868  0.00  0.00     0.022 A 
ATOM      8  C7  BZF d   1      -0.094   0.305   2.628  0.00  0.00     0.029 A 
ATOM      9  C7A BZF d   1       0.216   0.036   1.317  0.00  0.00     0.058 A 
ENDROOT
TORSDOF 0
ENDMDL
