MODEL 1
REMARK minimizedAffinity -3.39442205
REMARK minimizedRMSD -1
REMARK  0 active torsions:
REMARK  status: ('A' for Active; 'I' for Inactive)
ROOT
ATOM      1  O1  BZF d   1       0.896  -0.042  -1.391  0.00  0.00    -0.204 OA
ATOM      2  C2  BZF d   1       0.571   0.519  -0.171  0.00  0.00     0.174 A 
ATOM      3  C3  BZF d   1       0.256  -0.437   0.726  0.00  0.00    -0.012 A 
ATOM      4  C3A BZF d   1       0.481  -1.677   0.049  0.00  0.00    -0.107 A 
ATOM      5  C4  BZF d   1       0.360  -2.985   0.422  0.00  0.00     0.055 A 
ATOM      6  C5  BZF d   1       0.587  -3.958  -0.499  0.00  0.00    -0.016 A 
ATOM      7  C6  BZF d   1       0.932  -3.659  -1.801  0.00  0.00     0.022 A 
ATOM      8  C7  BZF d   1       1.069  -2.376  -2.216  0.00  0.00     0.029 A 
ATOM      9  C7A BZF d   1       0.872  -1.391  -1.279  0.00  0.00     0.058 A 
ENDROOT
TORSDOF 0
ENDMDL
