MODEL 1
REMARK minimizedAffinity -4.29340887
REMARK minimizedRMSD -1
REMARK  0 active torsions:
REMARK  status: ('A' for Active; 'I' for Inactive)
ROOT
ATOM      1  O1  BZF d   1       0.843  -0.303   0.238  0.00  0.00    -0.204 OA
ATOM      2  C2  BZF d   1       0.864   0.276  -1.016  0.00  0.00     0.174 A 
ATOM      3  C3  BZF d   1      -0.190   1.102  -1.179  0.00  0.00    -0.012 A 
ATOM      4  C3A BZF d   1      -0.863   1.107   0.083  0.00  0.00    -0.107 A 
ATOM      5  C4  BZF d   1      -1.972   1.750   0.553  0.00  0.00     0.055 A 
ATOM      6  C5  BZF d   1      -2.408   1.482   1.812  0.00  0.00    -0.016 A 
ATOM      7  C6  BZF d   1      -1.763   0.573   2.625  0.00  0.00     0.022 A 
ATOM      8  C7  BZF d   1      -0.655  -0.086   2.205  0.00  0.00     0.029 A 
ATOM      9  C7A BZF d   1      -0.194   0.208   0.945  0.00  0.00     0.058 A 
ENDROOT
TORSDOF 0
ENDMDL
