MODEL 1
REMARK minimizedAffinity -4.60099125
REMARK minimizedRMSD -1
REMARK  0 active torsions:
REMARK  status: ('A' for Active; 'I' for Inactive)
ROOT
ATOM      1  O1  BZF d   1      -2.160   1.552   1.956  0.00  0.00    -0.204 OA
ATOM      2  C2  BZF d   1      -2.307   2.705   1.209  0.00  0.00     0.174 A 
ATOM      3  C3  BZF d   1      -1.504   2.680   0.126  0.00  0.00    -0.012 A 
ATOM      4  C3A BZF d   1      -0.880   1.393   0.150  0.00  0.00    -0.107 A 
ATOM      5  C4  BZF d   1       0.013   0.767  -0.672  0.00  0.00     0.055 A 
ATOM      6  C5  BZF d   1       0.481  -0.462  -0.326  0.00  0.00    -0.016 A 
ATOM      7  C6  BZF d   1       0.081  -1.090   0.836  0.00  0.00     0.022 A 
ATOM      8  C7  BZF d   1      -0.806  -0.511   1.680  0.00  0.00     0.029 A 
ATOM      9  C7A BZF d   1      -1.306   0.716   1.317  0.00  0.00     0.058 A 
ENDROOT
TORSDOF 0
ENDMDL
