MODEL 1
REMARK minimizedAffinity -2.99558544
REMARK minimizedRMSD -1
REMARK  0 active torsions:
REMARK  status: ('A' for Active; 'I' for Inactive)
ROOT
ATOM      1  O1  BZF d   1      -0.181   0.394  -1.130  0.00  0.00    -0.204 OA
ATOM      2  C2  BZF d   1       0.655  -0.703  -1.054  0.00  0.00     0.174 A 
ATOM      3  C3  BZF d   1       0.774  -1.127   0.221  0.00  0.00    -0.012 A 
ATOM      4  C3A BZF d   1      -0.112  -0.297   0.977  0.00  0.00    -0.107 A 
ATOM      5  C4  BZF d   1      -0.447  -0.242   2.300  0.00  0.00     0.055 A 
ATOM      6  C5  BZF d   1      -1.289   0.735   2.728  0.00  0.00    -0.016 A 
ATOM      7  C6  BZF d   1      -1.810   1.675   1.864  0.00  0.00     0.022 A 
ATOM      8  C7  BZF d   1      -1.511   1.658   0.542  0.00  0.00     0.029 A 
ATOM      9  C7A BZF d   1      -0.686   0.652   0.100  0.00  0.00     0.058 A 
ENDROOT
TORSDOF 0
ENDMDL
