MODEL 1
REMARK minimizedAffinity -2.01908922
REMARK minimizedRMSD -1
REMARK  0 active torsions:
REMARK  status: ('A' for Active; 'I' for Inactive)
ROOT
ATOM      1  C   UNL d   1       0.227   1.838   1.100  0.00  0.00     0.023 A 
ATOM      2  C1  UNL d   1       1.067   1.427   0.065  0.00  0.00     0.003 A 
ATOM      3  C2  UNL d   1       0.704   0.347  -0.743  0.00  0.00     0.048 A 
ATOM      4  C3  UNL d   1      -0.500  -0.317  -0.510  0.00  0.00     0.023 A 
ATOM      5  C4  UNL d   1      -1.344   0.092   0.524  0.00  0.00     0.048 A 
ATOM      6  C5  UNL d   1      -0.977   1.172   1.329  0.00  0.00     0.003 A 
ATOM      7  I   UNL d   1      -1.042  -1.924  -1.711  0.00  0.00    -0.146 I 
ENDROOT
TORSDOF 0
ENDMDL
