MODEL 1
REMARK minimizedAffinity -1.56970143
REMARK minimizedRMSD -1
REMARK  0 active torsions:
REMARK  status: ('A' for Active; 'I' for Inactive)
ROOT
ATOM      1  C   UNL d   1      -1.940  -1.278  -3.744  0.00  0.00     0.023 A 
ATOM      2  C1  UNL d   1      -2.786  -1.278  -2.634  0.00  0.00     0.003 A 
ATOM      3  C2  UNL d   1      -2.296  -0.905  -1.381  0.00  0.00     0.048 A 
ATOM      4  C3  UNL d   1      -0.959  -0.532  -1.245  0.00  0.00     0.023 A 
ATOM      5  C4  UNL d   1      -0.109  -0.530  -2.352  0.00  0.00     0.048 A 
ATOM      6  C5  UNL d   1      -0.604  -0.905  -3.603  0.00  0.00     0.003 A 
ATOM      7  I   UNL d   1      -0.227   0.025   0.619  0.00  0.00    -0.146 I 
ENDROOT
TORSDOF 0
ENDMDL
