MODEL 1
REMARK minimizedAffinity -4.68609619
REMARK minimizedRMSD -1
REMARK  0 active torsions:
REMARK  status: ('A' for Active; 'I' for Inactive)
ROOT
ATOM      1  C   UNL d   1       0.406   2.705   1.505  0.00  0.00     0.023 A 
ATOM      2  C1  UNL d   1      -0.513   1.757   1.954  0.00  0.00     0.003 A 
ATOM      3  C2  UNL d   1      -0.718   0.582   1.227  0.00  0.00     0.048 A 
ATOM      4  C3  UNL d   1       0.001   0.362   0.052  0.00  0.00     0.023 A 
ATOM      5  C4  UNL d   1       0.922   1.309  -0.400  0.00  0.00     0.048 A 
ATOM      6  C5  UNL d   1       1.123   2.482   0.330  0.00  0.00     0.003 A 
ATOM      7  I   UNL d   1      -0.301  -1.385  -1.032  0.00  0.00    -0.146 I 
ENDROOT
TORSDOF 0
ENDMDL
