MODEL 1
REMARK minimizedAffinity -0.917395651
REMARK minimizedRMSD -1
REMARK  0 active torsions:
REMARK  status: ('A' for Active; 'I' for Inactive)
ROOT
ATOM      1  C   UNL d   1      -2.771  -1.585  -3.575  0.00  0.00     0.023 A 
ATOM      2  C1  UNL d   1      -1.410  -1.405  -3.822  0.00  0.00     0.003 A 
ATOM      3  C2  UNL d   1      -0.535  -1.150  -2.764  0.00  0.00     0.048 A 
ATOM      4  C3  UNL d   1      -1.028  -1.079  -1.461  0.00  0.00     0.023 A 
ATOM      5  C4  UNL d   1      -2.389  -1.260  -1.209  0.00  0.00     0.048 A 
ATOM      6  C5  UNL d   1      -3.260  -1.513  -2.270  0.00  0.00     0.003 A 
ATOM      7  I   UNL d   1       0.273  -0.700   0.115  0.00  0.00    -0.146 I 
ENDROOT
TORSDOF 0
ENDMDL
