MODEL 1
REMARK minimizedAffinity -2.2395184
REMARK minimizedRMSD -1
REMARK  0 active torsions:
REMARK  status: ('A' for Active; 'I' for Inactive)
ROOT
ATOM      1  C   UNL d   1      -0.023  -1.485  -1.177  0.00  0.00     0.023 A 
ATOM      2  C1  UNL d   1       1.265  -0.954  -1.254  0.00  0.00     0.003 A 
ATOM      3  C2  UNL d   1       1.612   0.154  -0.478  0.00  0.00     0.048 A 
ATOM      4  C3  UNL d   1       0.668   0.725   0.374  0.00  0.00     0.023 A 
ATOM      5  C4  UNL d   1      -0.622   0.197   0.455  0.00  0.00     0.048 A 
ATOM      6  C5  UNL d   1      -0.965  -0.910  -0.324  0.00  0.00     0.003 A 
ATOM      7  I   UNL d   1       1.183   2.373   1.530  0.00  0.00    -0.146 I 
ENDROOT
TORSDOF 0
ENDMDL
