MODEL 1
REMARK minimizedAffinity -4.7161746
REMARK minimizedRMSD -1
REMARK  0 active torsions:
REMARK  status: ('A' for Active; 'I' for Inactive)
ROOT
ATOM      1  C   UNL d   1       0.248   1.215   1.276  0.00  0.00     0.023 A 
ATOM      2  C1  UNL d   1       1.050   0.292   0.604  0.00  0.00     0.003 A 
ATOM      3  C2  UNL d   1       0.504  -0.506  -0.403  0.00  0.00     0.048 A 
ATOM      4  C3  UNL d   1      -0.844  -0.375  -0.734  0.00  0.00     0.023 A 
ATOM      5  C4  UNL d   1      -1.650   0.548  -0.065  0.00  0.00     0.048 A 
ATOM      6  C5  UNL d   1      -1.100   1.343   0.942  0.00  0.00     0.003 A 
ATOM      7  I   UNL d   1      -1.659  -1.562  -2.234  0.00  0.00    -0.146 I 
ENDROOT
TORSDOF 0
ENDMDL
