MODEL 1
REMARK minimizedAffinity -4.14943027
REMARK minimizedRMSD -1
REMARK  0 active torsions:
REMARK  status: ('A' for Active; 'I' for Inactive)
ROOT
ATOM      1  C   UNL d   1       2.031   2.180   1.613  0.00  0.00     0.023 A 
ATOM      2  C1  UNL d   1       0.984   1.515   2.251  0.00  0.00     0.003 A 
ATOM      3  C2  UNL d   1       0.155   0.657   1.526  0.00  0.00     0.048 A 
ATOM      4  C3  UNL d   1       0.380   0.466   0.163  0.00  0.00     0.023 A 
ATOM      5  C4  UNL d   1       1.427   1.128  -0.480  0.00  0.00     0.048 A 
ATOM      6  C5  UNL d   1       2.252   1.987   0.249  0.00  0.00     0.003 A 
ATOM      7  I   UNL d   1      -0.852  -0.812  -0.918  0.00  0.00    -0.146 I 
ENDROOT
TORSDOF 0
ENDMDL
