MODEL 1
REMARK minimizedAffinity -3.16626406
REMARK minimizedRMSD -1
REMARK  0 active torsions:
REMARK  status: ('A' for Active; 'I' for Inactive)
ROOT
ATOM      1  C   UNL d   1       0.635   2.510   1.813  0.00  0.00     0.023 A 
ATOM      2  C1  UNL d   1      -0.579   1.840   1.967  0.00  0.00     0.003 A 
ATOM      3  C2  UNL d   1      -0.918   0.799   1.099  0.00  0.00     0.048 A 
ATOM      4  C3  UNL d   1      -0.038   0.433   0.081  0.00  0.00     0.023 A 
ATOM      5  C4  UNL d   1       1.178   1.101  -0.075  0.00  0.00     0.048 A 
ATOM      6  C5  UNL d   1       1.512   2.141   0.793  0.00  0.00     0.003 A 
ATOM      7  I   UNL d   1      -0.540  -1.116  -1.210  0.00  0.00    -0.146 I 
ENDROOT
TORSDOF 0
ENDMDL
