MODEL 1
REMARK minimizedAffinity -1.67575848
REMARK minimizedRMSD -1
REMARK  0 active torsions:
REMARK  status: ('A' for Active; 'I' for Inactive)
ROOT
ATOM      1  C   UNL d   1       0.808   2.880   1.706  0.00  0.00     0.023 A 
ATOM      2  C1  UNL d   1       0.532   1.720   2.430  0.00  0.00     0.003 A 
ATOM      3  C2  UNL d   1       0.177   0.546   1.761  0.00  0.00     0.048 A 
ATOM      4  C3  UNL d   1       0.102   0.540   0.368  0.00  0.00     0.023 A 
ATOM      5  C4  UNL d   1       0.378   1.698  -0.360  0.00  0.00     0.048 A 
ATOM      6  C5  UNL d   1       0.731   2.870   0.313  0.00  0.00     0.003 A 
ATOM      7  I   UNL d   1      -0.426  -1.205  -0.629  0.00  0.00    -0.146 I 
ENDROOT
TORSDOF 0
ENDMDL
