MODEL 1
REMARK minimizedAffinity -1.92124569
REMARK minimizedRMSD -1
REMARK  0 active torsions:
REMARK  status: ('A' for Active; 'I' for Inactive)
ROOT
ATOM      1  C   UNL d   1       0.275  -1.720  -0.940  0.00  0.00     0.023 A 
ATOM      2  C1  UNL d   1      -0.812  -1.229  -0.217  0.00  0.00     0.003 A 
ATOM      3  C2  UNL d   1      -0.706  -0.017   0.468  0.00  0.00     0.048 A 
ATOM      4  C3  UNL d   1       0.490   0.699   0.425  0.00  0.00     0.023 A 
ATOM      5  C4  UNL d   1       1.580   0.212  -0.298  0.00  0.00     0.048 A 
ATOM      6  C5  UNL d   1       1.469  -1.001  -0.981  0.00  0.00     0.003 A 
ATOM      7  I   UNL d   1       0.650   2.503   1.445  0.00  0.00    -0.146 I 
ENDROOT
TORSDOF 0
ENDMDL
