MODEL 1
REMARK minimizedAffinity -4.27141523
REMARK minimizedRMSD -1
REMARK  0 active torsions:
REMARK  status: ('A' for Active; 'I' for Inactive)
ROOT
ATOM      1  C   UNL d   1       1.512   2.226   1.487  0.00  0.00     0.023 A 
ATOM      2  C1  UNL d   1       0.165   2.034   1.795  0.00  0.00     0.003 A 
ATOM      3  C2  UNL d   1      -0.606   1.148   1.040  0.00  0.00     0.048 A 
ATOM      4  C3  UNL d   1      -0.023   0.457  -0.022  0.00  0.00     0.023 A 
ATOM      5  C4  UNL d   1       1.324   0.645  -0.333  0.00  0.00     0.048 A 
ATOM      6  C5  UNL d   1       2.091   1.533   0.424  0.00  0.00     0.003 A 
ATOM      7  I   UNL d   1      -1.168  -0.862  -1.148  0.00  0.00    -0.146 I 
ENDROOT
TORSDOF 0
ENDMDL
