MODEL 1
REMARK minimizedAffinity -0.78702116
REMARK minimizedRMSD -1
REMARK  0 active torsions:
REMARK  status: ('A' for Active; 'I' for Inactive)
ROOT
ATOM      1  C   UNL d   1       1.130   2.631   1.304  0.00  0.00     0.023 A 
ATOM      2  C1  UNL d   1       1.701   2.301   0.076  0.00  0.00     0.003 A 
ATOM      3  C2  UNL d   1       1.353   1.107  -0.560  0.00  0.00     0.048 A 
ATOM      4  C3  UNL d   1       0.431   0.249   0.039  0.00  0.00     0.023 A 
ATOM      5  C4  UNL d   1      -0.144   0.576   1.268  0.00  0.00     0.048 A 
ATOM      6  C5  UNL d   1       0.208   1.770   1.900  0.00  0.00     0.003 A 
ATOM      7  I   UNL d   1      -0.089  -1.528  -0.905  0.00  0.00    -0.146 I 
ENDROOT
TORSDOF 0
ENDMDL
