MODEL 1
REMARK minimizedAffinity -0.653114259
REMARK minimizedRMSD -1
REMARK  0 active torsions:
REMARK  status: ('A' for Active; 'I' for Inactive)
ROOT
ATOM      1  C   UNL d   1       1.031   2.521   1.413  0.00  0.00     0.023 A 
ATOM      2  C1  UNL d   1       0.298   1.453   1.931  0.00  0.00     0.003 A 
ATOM      3  C2  UNL d   1      -0.357   0.571   1.069  0.00  0.00     0.048 A 
ATOM      4  C3  UNL d   1      -0.274   0.762  -0.309  0.00  0.00     0.023 A 
ATOM      5  C4  UNL d   1       0.459   1.829  -0.832  0.00  0.00     0.048 A 
ATOM      6  C5  UNL d   1       1.111   2.709   0.033  0.00  0.00     0.003 A 
ATOM      7  I   UNL d   1      -1.248  -0.549  -1.594  0.00  0.00    -0.146 I 
ENDROOT
TORSDOF 0
ENDMDL
