MODEL 1
REMARK minimizedAffinity -4.17011356
REMARK minimizedRMSD -1
REMARK  1 active torsions:
REMARK  status: ('A' for Active; 'I' for Inactive)
REMARK    1  A    between atoms: C1_2  and  C2_3 
ROOT
ATOM      1  C2  UNL d   1      -0.327  -1.612  -1.115  0.00  0.00    -0.073 A 
ATOM      2  C3  UNL d   1      -1.311  -1.895  -2.068  0.00  0.00    -0.002 A 
ATOM      3  C4  UNL d   1      -1.624  -3.218  -2.387  0.00  0.00     0.004 A 
ATOM      4  C5  UNL d   1      -0.962  -4.268  -1.751  0.00  0.00    -0.004 A 
ATOM      5  C6  UNL d   1       0.016  -4.005  -0.787  0.00  0.00    -0.075 A 
ATOM      6  C7  UNL d   1       0.739  -5.124  -0.096  0.00  0.00     0.076 C 
ATOM      7  C8  UNL d   1       0.327  -2.674  -0.475  0.00  0.00     0.001 A 
ENDROOT
BRANCH   1   8
ATOM      8  C1  UNL d   1       0.010  -0.186  -0.764  0.00  0.00     0.053 C 
ATOM      9  C   UNL d   1       0.340  -0.025   0.712  0.00  0.00     0.018 C 
ENDBRANCH   1   8
TORSDOF 1
ENDMDL
