MODEL 1
REMARK minimizedAffinity -3.77987862
REMARK minimizedRMSD -1
REMARK  1 active torsions:
REMARK  status: ('A' for Active; 'I' for Inactive)
REMARK    1  A    between atoms: C1_2  and  C2_3 
ROOT
ATOM      1  C2  UNL d   1      -0.345  -0.640  -0.335  0.00  0.00    -0.073 A 
ATOM      2  C3  UNL d   1       0.029   0.084  -1.473  0.00  0.00    -0.002 A 
ATOM      3  C4  UNL d   1      -0.136   1.469  -1.514  0.00  0.00     0.004 A 
ATOM      4  C5  UNL d   1      -0.668   2.145  -0.416  0.00  0.00    -0.004 A 
ATOM      5  C6  UNL d   1      -1.037   1.441   0.735  0.00  0.00    -0.075 A 
ATOM      6  C7  UNL d   1      -1.613   2.153   1.923  0.00  0.00     0.076 C 
ATOM      7  C8  UNL d   1      -0.871   0.050   0.767  0.00  0.00     0.001 A 
ENDROOT
BRANCH   1   8
ATOM      8  C1  UNL d   1      -0.162  -2.134  -0.284  0.00  0.00     0.053 C 
ATOM      9  C   UNL d   1      -1.109  -2.857  -1.230  0.00  0.00     0.018 C 
ENDBRANCH   1   8
TORSDOF 1
ENDMDL
