MODEL 1
REMARK minimizedAffinity 15.445962
REMARK minimizedRMSD -1
REMARK  0 active torsions:
REMARK  status: ('A' for Active; 'I' for Inactive)
ROOT
ATOM      1  C   UNL d   1       2.478   2.683   0.707  0.00  0.00     0.124 A 
ATOM      2  C1  UNL d   1       3.051   2.866   1.958  0.00  0.00     0.062 A 
ATOM      3  C2  UNL d   1       4.037   1.995   2.411  0.00  0.00     0.162 A 
ATOM      4  C3  UNL d   1       4.460   0.933   1.611  0.00  0.00    -0.034 A 
ATOM      5  C4  UNL d   1       3.879   0.755   0.354  0.00  0.00     0.162 A 
ATOM      6  C5  UNL d   1       2.893   1.628  -0.094  0.00  0.00     0.062 A 
ATOM      7  F   UNL d   1       2.341   1.450  -1.303  0.00  0.00    -0.097 F 
ATOM      8  F1  UNL d   1       4.261  -0.255  -0.441  0.00  0.00    -0.096 F 
ATOM      9  I   UNL d   1       5.935  -0.371   2.284  0.00  0.00    -0.060 I 
ATOM     10  F2  UNL d   1       4.573   2.196   3.624  0.00  0.00    -0.096 F 
ATOM     11  F3  UNL d   1       2.651   3.884   2.734  0.00  0.00    -0.097 F 
ATOM     12  F4  UNL d   1       1.528   3.522   0.274  0.00  0.00    -0.092 F 
ENDROOT
TORSDOF 0
ENDMDL
