MODEL 1
REMARK minimizedAffinity 20.677597
REMARK minimizedRMSD -1
REMARK  0 active torsions:
REMARK  status: ('A' for Active; 'I' for Inactive)
ROOT
ATOM      1  C   UNL d   1       2.486   3.183   1.650  0.00  0.00     0.124 A 
ATOM      2  C1  UNL d   1       1.868   2.106   2.271  0.00  0.00     0.062 A 
ATOM      3  C2  UNL d   1       1.819   0.867   1.639  0.00  0.00     0.162 A 
ATOM      4  C3  UNL d   1       2.392   0.697   0.378  0.00  0.00    -0.034 A 
ATOM      5  C4  UNL d   1       3.011   1.785  -0.240  0.00  0.00     0.162 A 
ATOM      6  C5  UNL d   1       3.057   3.021   0.396  0.00  0.00     0.062 A 
ATOM      7  F   UNL d   1       3.654   4.060  -0.206  0.00  0.00    -0.097 F 
ATOM      8  F1  UNL d   1       3.571   1.656  -1.452  0.00  0.00    -0.096 F 
ATOM      9  I   UNL d   1       2.321  -1.154  -0.570  0.00  0.00    -0.060 I 
ATOM     10  F2  UNL d   1       1.215  -0.156   2.262  0.00  0.00    -0.096 F 
ATOM     11  F3  UNL d   1       1.315   2.260   3.483  0.00  0.00    -0.097 F 
ATOM     12  F4  UNL d   1       2.531   4.374   2.261  0.00  0.00    -0.092 F 
ENDROOT
TORSDOF 0
ENDMDL
