MODEL 1
REMARK minimizedAffinity 8.99265862
REMARK minimizedRMSD -1
REMARK  0 active torsions:
REMARK  status: ('A' for Active; 'I' for Inactive)
ROOT
ATOM      1  C   UNL d   1       0.012  -1.369   4.498  0.00  0.00     0.124 A 
ATOM      2  C1  UNL d   1       1.198  -1.841   5.045  0.00  0.00     0.062 A 
ATOM      3  C2  UNL d   1       1.294  -3.161   5.475  0.00  0.00     0.162 A 
ATOM      4  C3  UNL d   1       0.201  -4.020   5.358  0.00  0.00    -0.034 A 
ATOM      5  C4  UNL d   1      -0.988  -3.539   4.808  0.00  0.00     0.162 A 
ATOM      6  C5  UNL d   1      -1.079  -2.218   4.380  0.00  0.00     0.062 A 
ATOM      7  F   UNL d   1      -2.225  -1.764   3.852  0.00  0.00    -0.097 F 
ATOM      8  F1  UNL d   1      -2.058  -4.338   4.681  0.00  0.00    -0.096 F 
ATOM      9  I   UNL d   1       0.341  -5.995   5.999  0.00  0.00    -0.060 I 
ATOM     10  F2  UNL d   1       2.452  -3.590   5.999  0.00  0.00    -0.096 F 
ATOM     11  F3  UNL d   1       2.253  -1.022   5.161  0.00  0.00    -0.097 F 
ATOM     12  F4  UNL d   1      -0.078  -0.098   4.087  0.00  0.00    -0.092 F 
ENDROOT
TORSDOF 0
ENDMDL
