MODEL 1
REMARK minimizedAffinity 15.3759975
REMARK minimizedRMSD -1
REMARK  0 active torsions:
REMARK  status: ('A' for Active; 'I' for Inactive)
ROOT
ATOM      1  C   UNL d   1       2.969   2.904   1.744  0.00  0.00     0.124 A 
ATOM      2  C1  UNL d   1       3.573   2.606   0.531  0.00  0.00     0.062 A 
ATOM      3  C2  UNL d   1       3.227   1.447  -0.158  0.00  0.00     0.162 A 
ATOM      4  C3  UNL d   1       2.270   0.577   0.365  0.00  0.00    -0.034 A 
ATOM      5  C4  UNL d   1       1.668   0.883   1.587  0.00  0.00     0.162 A 
ATOM      6  C5  UNL d   1       2.017   2.042   2.271  0.00  0.00     0.062 A 
ATOM      7  F   UNL d   1       1.432   2.329   3.443  0.00  0.00    -0.097 F 
ATOM      8  F1  UNL d   1       0.744   0.068   2.118  0.00  0.00    -0.096 F 
ATOM      9  I   UNL d   1       1.750  -1.157  -0.661  0.00  0.00    -0.060 I 
ATOM     10  F2  UNL d   1       3.827   1.185  -1.328  0.00  0.00    -0.096 F 
ATOM     11  F3  UNL d   1       4.494   3.437   0.020  0.00  0.00    -0.097 F 
ATOM     12  F4  UNL d   1       3.304   4.020   2.405  0.00  0.00    -0.092 F 
ENDROOT
TORSDOF 0
ENDMDL
