MODEL 1
REMARK minimizedAffinity 10.9497414
REMARK minimizedRMSD -1
REMARK  0 active torsions:
REMARK  status: ('A' for Active; 'I' for Inactive)
ROOT
ATOM      1  C   UNL d   1      -3.632   5.754   1.126  0.00  0.00     0.124 A 
ATOM      2  C1  UNL d   1      -4.826   5.759   1.833  0.00  0.00     0.062 A 
ATOM      3  C2  UNL d   1      -4.817   5.828   3.223  0.00  0.00     0.162 A 
ATOM      4  C3  UNL d   1      -3.608   5.895   3.916  0.00  0.00    -0.034 A 
ATOM      5  C4  UNL d   1      -2.411   5.889   3.198  0.00  0.00     0.162 A 
ATOM      6  C5  UNL d   1      -2.426   5.819   1.809  0.00  0.00     0.062 A 
ATOM      7  F   UNL d   1      -1.271   5.815   1.128  0.00  0.00    -0.097 F 
ATOM      8  F1  UNL d   1      -1.231   5.952   3.833  0.00  0.00    -0.096 F 
ATOM      9  I   UNL d   1      -3.590   6.000   5.995  0.00  0.00    -0.060 I 
ATOM     10  F2  UNL d   1      -5.986   5.831   3.880  0.00  0.00    -0.096 F 
ATOM     11  F3  UNL d   1      -5.993   5.695   1.175  0.00  0.00    -0.097 F 
ATOM     12  F4  UNL d   1      -3.644   5.686  -0.211  0.00  0.00    -0.092 F 
ENDROOT
TORSDOF 0
ENDMDL
