MODEL 1
REMARK minimizedAffinity 10.8614655
REMARK minimizedRMSD -1
REMARK  0 active torsions:
REMARK  status: ('A' for Active; 'I' for Inactive)
ROOT
ATOM      1  C   UNL d   1      -3.146   5.868   4.684  0.00  0.00     0.124 A 
ATOM      2  C1  UNL d   1      -4.455   5.780   4.231  0.00  0.00     0.062 A 
ATOM      3  C2  UNL d   1      -4.721   5.738   2.865  0.00  0.00     0.162 A 
ATOM      4  C3  UNL d   1      -3.676   5.784   1.943  0.00  0.00    -0.034 A 
ATOM      5  C4  UNL d   1      -2.362   5.873   2.406  0.00  0.00     0.162 A 
ATOM      6  C5  UNL d   1      -2.101   5.914   3.772  0.00  0.00     0.062 A 
ATOM      7  F   UNL d   1      -0.836   5.999   4.209  0.00  0.00    -0.097 F 
ATOM      8  F1  UNL d   1      -1.333   5.918   1.547  0.00  0.00    -0.096 F 
ATOM      9  I   UNL d   1      -4.070   5.722  -0.100  0.00  0.00    -0.060 I 
ATOM     10  F2  UNL d   1      -5.995   5.654   2.455  0.00  0.00    -0.096 F 
ATOM     11  F3  UNL d   1      -5.466   5.736   5.110  0.00  0.00    -0.097 F 
ATOM     12  F4  UNL d   1      -2.893   5.908   5.999  0.00  0.00    -0.092 F 
ENDROOT
TORSDOF 0
ENDMDL
