MODEL 1
REMARK minimizedAffinity 18.4947166
REMARK minimizedRMSD -1
REMARK  0 active torsions:
REMARK  status: ('A' for Active; 'I' for Inactive)
ROOT
ATOM      1  C   UNL d   1      -4.666   5.687   3.091  0.00  0.00     0.124 A 
ATOM      2  C1  UNL d   1      -4.157   5.735   4.382  0.00  0.00     0.062 A 
ATOM      3  C2  UNL d   1      -2.782   5.809   4.590  0.00  0.00     0.162 A 
ATOM      4  C3  UNL d   1      -1.907   5.837   3.504  0.00  0.00    -0.034 A 
ATOM      5  C4  UNL d   1      -2.426   5.787   2.209  0.00  0.00     0.162 A 
ATOM      6  C5  UNL d   1      -3.801   5.713   2.007  0.00  0.00     0.062 A 
ATOM      7  F   UNL d   1      -4.291   5.667   0.759  0.00  0.00    -0.097 F 
ATOM      8  F1  UNL d   1      -1.613   5.812   1.143  0.00  0.00    -0.096 F 
ATOM      9  I   UNL d   1       0.149   5.947   3.810  0.00  0.00    -0.060 I 
ATOM     10  F2  UNL d   1      -2.318   5.854   5.847  0.00  0.00    -0.096 F 
ATOM     11  F3  UNL d   1      -4.990   5.709   5.432  0.00  0.00    -0.097 F 
ATOM     12  F4  UNL d   1      -5.989   5.614   2.894  0.00  0.00    -0.092 F 
ENDROOT
TORSDOF 0
ENDMDL
