MODEL 1
REMARK minimizedAffinity 22.5626659
REMARK minimizedRMSD -1
REMARK  0 active torsions:
REMARK  status: ('A' for Active; 'I' for Inactive)
ROOT
ATOM      1  C   UNL d   1      -5.561   4.504   2.488  0.00  0.00     0.124 A 
ATOM      2  C1  UNL d   1      -5.287   3.231   2.971  0.00  0.00     0.062 A 
ATOM      3  C2  UNL d   1      -4.885   2.223   2.100  0.00  0.00     0.162 A 
ATOM      4  C3  UNL d   1      -4.753   2.483   0.735  0.00  0.00    -0.034 A 
ATOM      5  C4  UNL d   1      -5.031   3.765   0.257  0.00  0.00     0.162 A 
ATOM      6  C5  UNL d   1      -5.433   4.769   1.132  0.00  0.00     0.062 A 
ATOM      7  F   UNL d   1      -5.696   5.998   0.663  0.00  0.00    -0.097 F 
ATOM      8  F1  UNL d   1      -4.914   4.050  -1.049  0.00  0.00    -0.096 F 
ATOM      9  I   UNL d   1      -4.152   0.979  -0.571  0.00  0.00    -0.060 I 
ATOM     10  F2  UNL d   1      -4.628   1.003   2.594  0.00  0.00    -0.096 F 
ATOM     11  F3  UNL d   1      -5.412   2.972   4.281  0.00  0.00    -0.097 F 
ATOM     12  F4  UNL d   1      -5.949   5.471   3.328  0.00  0.00    -0.092 F 
ENDROOT
TORSDOF 0
ENDMDL
