MODEL 1
REMARK minimizedAffinity 6.76419544
REMARK minimizedRMSD -1
REMARK  0 active torsions:
REMARK  status: ('A' for Active; 'I' for Inactive)
ROOT
ATOM      1  C   UNL d   1      -2.983   5.956   4.687  0.00  0.00     0.124 A 
ATOM      2  C1  UNL d   1      -2.003   5.972   3.705  0.00  0.00     0.062 A 
ATOM      3  C2  UNL d   1      -2.360   5.960   2.359  0.00  0.00     0.162 A 
ATOM      4  C3  UNL d   1      -3.704   5.932   1.988  0.00  0.00    -0.034 A 
ATOM      5  C4  UNL d   1      -4.684   5.915   2.982  0.00  0.00     0.162 A 
ATOM      6  C5  UNL d   1      -4.322   5.927   4.325  0.00  0.00     0.062 A 
ATOM      7  F   UNL d   1      -5.271   5.911   5.273  0.00  0.00    -0.097 F 
ATOM      8  F1  UNL d   1      -5.986   5.888   2.660  0.00  0.00    -0.096 F 
ATOM      9  I   UNL d   1      -4.241   5.914  -0.023  0.00  0.00    -0.060 I 
ATOM     10  F2  UNL d   1      -1.391   5.976   1.431  0.00  0.00    -0.096 F 
ATOM     11  F3  UNL d   1      -0.708   5.999   4.052  0.00  0.00    -0.097 F 
ATOM     12  F4  UNL d   1      -2.637   5.966   5.981  0.00  0.00    -0.092 F 
ENDROOT
TORSDOF 0
ENDMDL
