MODEL 1
REMARK minimizedAffinity 7.62132502
REMARK minimizedRMSD -1
REMARK  0 active torsions:
REMARK  status: ('A' for Active; 'I' for Inactive)
ROOT
ATOM      1  C   UNL d   1      -2.722   5.801   4.721  0.00  0.00     0.124 A 
ATOM      2  C1  UNL d   1      -1.876   5.769   3.621  0.00  0.00     0.062 A 
ATOM      3  C2  UNL d   1      -2.402   5.678   2.335  0.00  0.00     0.162 A 
ATOM      4  C3  UNL d   1      -3.782   5.620   2.142  0.00  0.00    -0.034 A 
ATOM      5  C4  UNL d   1      -4.627   5.652   3.253  0.00  0.00     0.162 A 
ATOM      6  C5  UNL d   1      -4.096   5.743   4.536  0.00  0.00     0.062 A 
ATOM      7  F   UNL d   1      -4.915   5.774   5.597  0.00  0.00    -0.097 F 
ATOM      8  F1  UNL d   1      -5.959   5.598   3.104  0.00  0.00    -0.096 F 
ATOM      9  I   UNL d   1      -4.573   5.485   0.222  0.00  0.00    -0.060 I 
ATOM     10  F2  UNL d   1      -1.561   5.649   1.291  0.00  0.00    -0.096 F 
ATOM     11  F3  UNL d   1      -0.548   5.824   3.797  0.00  0.00    -0.097 F 
ATOM     12  F4  UNL d   1      -2.213   5.887   5.956  0.00  0.00    -0.092 F 
ENDROOT
TORSDOF 0
ENDMDL
