MODEL 1
REMARK minimizedAffinity 14.0676651
REMARK minimizedRMSD -1
REMARK  3 active torsions:
REMARK  status: ('A' for Active; 'I' for Inactive)
REMARK    1  A    between atoms: C3'_2  and  C2'_3 
REMARK    2  A    between atoms: C2'_3  and  C1'_4 
REMARK    3  A    between atoms: C1'_4  and  C1_5 
ROOT
ATOM      1  C1  N4B d   1       0.904  -1.167   3.293  0.00  0.00    -0.075 A 
ATOM      2  C2  N4B d   1       1.483  -2.166   4.107  0.00  0.00     0.002 A 
ATOM      3  C3  N4B d   1       1.651  -1.943   5.451  0.00  0.00     0.002 A 
ATOM      4  C4  N4B d   1       1.268  -0.728   5.999  0.00  0.00    -0.004 A 
ATOM      5  C5  N4B d   1       0.686   0.222   5.210  0.00  0.00     0.002 A 
ATOM      6  C6  N4B d   1       0.506   0.010   3.858  0.00  0.00     0.002 A 
ENDROOT
BRANCH   1   7
ATOM      7  C1' N4B d   1       0.778  -1.332   1.803  0.00  0.00     0.057 C 
BRANCH   7   8
ATOM      8  C2' N4B d   1       2.069  -0.865   1.137  0.00  0.00     0.009 C 
BRANCH   8   9
ATOM      9  C3' N4B d   1       2.491  -1.790   0.007  0.00  0.00     0.004 C 
ATOM     10  C4' N4B d   1       3.737  -1.326  -0.687  0.00  0.00     0.003 C 
ENDBRANCH   8   9
ENDBRANCH   7   8
ENDBRANCH   1   7
TORSDOF 3
ENDMDL
