MODEL 1
REMARK minimizedAffinity 1.91581368
REMARK minimizedRMSD -1
REMARK  3 active torsions:
REMARK  status: ('A' for Active; 'I' for Inactive)
REMARK    1  A    between atoms: C3'_2  and  C2'_3 
REMARK    2  A    between atoms: C2'_3  and  C1'_4 
REMARK    3  A    between atoms: C1'_4  and  C1_5 
ROOT
ATOM      1  C1  N4B d   1      -0.178  -0.875   2.789  0.00  0.00    -0.075 A 
ATOM      2  C2  N4B d   1      -1.157  -1.890   2.860  0.00  0.00     0.002 A 
ATOM      3  C3  N4B d   1      -2.464  -1.607   2.544  0.00  0.00     0.002 A 
ATOM      4  C4  N4B d   1      -2.817  -0.318   2.175  0.00  0.00    -0.004 A 
ATOM      5  C5  N4B d   1      -1.861   0.651   2.084  0.00  0.00     0.002 A 
ATOM      6  C6  N4B d   1      -0.543   0.380   2.394  0.00  0.00     0.002 A 
ENDROOT
BRANCH   1   7
ATOM      7  C1' N4B d   1       1.247  -1.115   3.206  0.00  0.00     0.057 C 
BRANCH   7   8
ATOM      8  C2' N4B d   1       1.259  -1.859   4.538  0.00  0.00     0.009 C 
BRANCH   8   9
ATOM      9  C3' N4B d   1       2.670  -2.059   5.064  0.00  0.00     0.004 C 
ATOM     10  C4' N4B d   1       3.286  -0.788   5.570  0.00  0.00     0.003 C 
ENDBRANCH   8   9
ENDBRANCH   7   8
ENDBRANCH   1   7
TORSDOF 3
ENDMDL
