MODEL 1
REMARK minimizedAffinity -3.55194855
REMARK minimizedRMSD -1
REMARK  3 active torsions:
REMARK  status: ('A' for Active; 'I' for Inactive)
REMARK    1  A    between atoms: C3'_2  and  C2'_3 
REMARK    2  A    between atoms: C2'_3  and  C1'_4 
REMARK    3  A    between atoms: C1'_4  and  C1_5 
ROOT
ATOM      1  C1  N4B d   1       0.862  -1.674  -2.368  0.00  0.00    -0.075 A 
ATOM      2  C2  N4B d   1       1.263  -0.805  -3.406  0.00  0.00     0.002 A 
ATOM      3  C3  N4B d   1       0.326  -0.053  -4.072  0.00  0.00     0.002 A 
ATOM      4  C4  N4B d   1      -1.013  -0.168  -3.732  0.00  0.00    -0.004 A 
ATOM      5  C5  N4B d   1      -1.389  -0.990  -2.711  0.00  0.00     0.002 A 
ATOM      6  C6  N4B d   1      -0.459  -1.748  -2.030  0.00  0.00     0.002 A 
ENDROOT
BRANCH   1   7
ATOM      7  C1' N4B d   1       1.838  -2.580  -1.668  0.00  0.00     0.057 C 
BRANCH   7   8
ATOM      8  C2' N4B d   1       2.197  -3.739  -2.593  0.00  0.00     0.009 C 
BRANCH   8   9
ATOM      9  C3' N4B d   1       1.031  -4.691  -2.790  0.00  0.00     0.004 C 
ATOM     10  C4' N4B d   1       1.350  -5.813  -3.732  0.00  0.00     0.003 C 
ENDBRANCH   8   9
ENDBRANCH   7   8
ENDBRANCH   1   7
TORSDOF 3
ENDMDL
