MODEL 1
REMARK minimizedAffinity -5.12559271
REMARK minimizedRMSD -1
REMARK  3 active torsions:
REMARK  status: ('A' for Active; 'I' for Inactive)
REMARK    1  A    between atoms: C3'_2  and  C2'_3 
REMARK    2  A    between atoms: C2'_3  and  C1'_4 
REMARK    3  A    between atoms: C1'_4  and  C1_5 
ROOT
ATOM      1  C1  N4B d   1       0.212  -3.384  -3.689  0.00  0.00    -0.075 A 
ATOM      2  C2  N4B d   1       0.388  -4.454  -4.594  0.00  0.00     0.002 A 
ATOM      3  C3  N4B d   1       0.333  -5.750  -4.144  0.00  0.00     0.002 A 
ATOM      4  C4  N4B d   1       0.124  -6.000  -2.796  0.00  0.00    -0.004 A 
ATOM      5  C5  N4B d   1      -0.069  -4.962  -1.933  0.00  0.00     0.002 A 
ATOM      6  C6  N4B d   1      -0.021  -3.654  -2.372  0.00  0.00     0.002 A 
ENDROOT
BRANCH   1   7
ATOM      7  C1' N4B d   1       0.349  -1.949  -4.119  0.00  0.00     0.057 C 
BRANCH   7   8
ATOM      8  C2' N4B d   1      -0.677  -1.653  -5.209  0.00  0.00     0.009 C 
BRANCH   8   9
ATOM      9  C3' N4B d   1      -1.065  -0.185  -5.241  0.00  0.00     0.004 C 
ATOM     10  C4' N4B d   1       0.096   0.717  -5.535  0.00  0.00     0.003 C 
ENDBRANCH   8   9
ENDBRANCH   7   8
ENDBRANCH   1   7
TORSDOF 3
ENDMDL
