MODEL 1
REMARK minimizedAffinity 16.2523804
REMARK minimizedRMSD -1
REMARK  0 active torsions:
REMARK  status: ('A' for Active; 'I' for Inactive)
ROOT
ATOM      1  C   UNL d   1       0.229  -3.700   1.933  0.00  0.00     0.124 A 
ATOM      2  C1  UNL d   1       1.403  -3.101   1.498  0.00  0.00     0.062 A 
ATOM      3  C2  UNL d   1       1.655  -1.763   1.789  0.00  0.00     0.162 A 
ATOM      4  C3  UNL d   1       0.732  -1.016   2.520  0.00  0.00    -0.034 A 
ATOM      5  C4  UNL d   1      -0.447  -1.625   2.953  0.00  0.00     0.162 A 
ATOM      6  C5  UNL d   1      -0.695  -2.962   2.659  0.00  0.00     0.062 A 
ATOM      7  F   UNL d   1      -1.830  -3.539   3.080  0.00  0.00    -0.097 F 
ATOM      8  F1  UNL d   1      -1.357  -0.935   3.657  0.00  0.00    -0.096 F 
ATOM      9  I   UNL d   1       1.106   0.985   2.957  0.00  0.00    -0.060 I 
ATOM     10  F2  UNL d   1       2.798  -1.210   1.356  0.00  0.00    -0.096 F 
ATOM     11  F3  UNL d   1       2.296  -3.812   0.795  0.00  0.00    -0.097 F 
ATOM     12  F4  UNL d   1      -0.012  -4.987   1.651  0.00  0.00    -0.092 F 
ENDROOT
TORSDOF 0
ENDMDL
