MODEL 1
REMARK minimizedAffinity 25.5322838
REMARK minimizedRMSD -1
REMARK  0 active torsions:
REMARK  status: ('A' for Active; 'I' for Inactive)
ROOT
ATOM      1  C   UNL d   1       3.498  -1.567   2.117  0.00  0.00     0.124 A 
ATOM      2  C1  UNL d   1       3.283  -1.838   0.773  0.00  0.00     0.062 A 
ATOM      3  C2  UNL d   1       1.987  -1.895   0.269  0.00  0.00     0.162 A 
ATOM      4  C3  UNL d   1       0.895  -1.680   1.110  0.00  0.00    -0.034 A 
ATOM      5  C4  UNL d   1       1.119  -1.409   2.461  0.00  0.00     0.162 A 
ATOM      6  C5  UNL d   1       2.416  -1.353   2.960  0.00  0.00     0.062 A 
ATOM      7  F   UNL d   1       2.622  -1.091   4.259  0.00  0.00    -0.097 F 
ATOM      8  F1  UNL d   1       0.092  -1.197   3.297  0.00  0.00    -0.096 F 
ATOM      9  I   UNL d   1      -1.045  -1.765   0.361  0.00  0.00    -0.060 I 
ATOM     10  F2  UNL d   1       1.809  -2.159  -1.034  0.00  0.00    -0.096 F 
ATOM     11  F3  UNL d   1       4.326  -2.046  -0.043  0.00  0.00    -0.097 F 
ATOM     12  F4  UNL d   1       4.746  -1.513   2.600  0.00  0.00    -0.092 F 
ENDROOT
TORSDOF 0
ENDMDL
