MODEL 1
REMARK minimizedAffinity 20.2651329
REMARK minimizedRMSD -1
REMARK  0 active torsions:
REMARK  status: ('A' for Active; 'I' for Inactive)
ROOT
ATOM      1  C   UNL d   1      -2.155   1.352  -2.337  0.00  0.00     0.124 A 
ATOM      2  C1  UNL d   1      -2.990   1.957  -3.266  0.00  0.00     0.062 A 
ATOM      3  C2  UNL d   1      -4.087   1.268  -3.775  0.00  0.00     0.162 A 
ATOM      4  C3  UNL d   1      -4.356  -0.035  -3.355  0.00  0.00    -0.034 A 
ATOM      5  C4  UNL d   1      -3.511  -0.637  -2.421  0.00  0.00     0.162 A 
ATOM      6  C5  UNL d   1      -2.416   0.056  -1.916  0.00  0.00     0.062 A 
ATOM      7  F   UNL d   1      -1.611  -0.530  -1.019  0.00  0.00    -0.097 F 
ATOM      8  F1  UNL d   1      -3.741  -1.888  -1.996  0.00  0.00    -0.096 F 
ATOM      9  I   UNL d   1      -5.996  -1.069  -4.113  0.00  0.00    -0.060 I 
ATOM     10  F2  UNL d   1      -4.877   1.878  -4.671  0.00  0.00    -0.096 F 
ATOM     11  F3  UNL d   1      -2.740   3.209  -3.675  0.00  0.00    -0.097 F 
ATOM     12  F4  UNL d   1      -1.100   2.017  -1.850  0.00  0.00    -0.092 F 
ENDROOT
TORSDOF 0
ENDMDL
