MODEL 1
REMARK minimizedAffinity 10.4310646
REMARK minimizedRMSD -1
REMARK  0 active torsions:
REMARK  status: ('A' for Active; 'I' for Inactive)
ROOT
ATOM      1  C   UNL d   1      -2.022   1.963  -1.940  0.00  0.00     0.124 A 
ATOM      2  C1  UNL d   1      -2.673   0.785  -1.600  0.00  0.00     0.062 A 
ATOM      3  C2  UNL d   1      -3.783   0.364  -2.327  0.00  0.00     0.162 A 
ATOM      4  C3  UNL d   1      -4.249   1.121  -3.402  0.00  0.00    -0.034 A 
ATOM      5  C4  UNL d   1      -3.590   2.305  -3.737  0.00  0.00     0.162 A 
ATOM      6  C5  UNL d   1      -2.481   2.721  -3.008  0.00  0.00     0.062 A 
ATOM      7  F   UNL d   1      -1.853   3.860  -3.338  0.00  0.00    -0.097 F 
ATOM      8  F1  UNL d   1      -4.011   3.057  -4.765  0.00  0.00    -0.096 F 
ATOM      9  I   UNL d   1      -5.908   0.494  -4.491  0.00  0.00    -0.060 I 
ATOM     10  F2  UNL d   1      -4.392  -0.778  -1.976  0.00  0.00    -0.096 F 
ATOM     11  F3  UNL d   1      -2.232   0.051  -0.568  0.00  0.00    -0.097 F 
ATOM     12  F4  UNL d   1      -0.955   2.366  -1.239  0.00  0.00    -0.092 F 
ENDROOT
TORSDOF 0
ENDMDL
