MODEL 1
REMARK minimizedAffinity 19.2307224
REMARK minimizedRMSD -1
REMARK  0 active torsions:
REMARK  status: ('A' for Active; 'I' for Inactive)
ROOT
ATOM      1  C   UNL d   1       0.984  -1.820   1.545  0.00  0.00     0.124 A 
ATOM      2  C1  UNL d   1       2.055  -2.579   1.094  0.00  0.00     0.062 A 
ATOM      3  C2  UNL d   1       3.210  -2.687   1.863  0.00  0.00     0.162 A 
ATOM      4  C3  UNL d   1       3.300  -2.034   3.092  0.00  0.00    -0.034 A 
ATOM      5  C4  UNL d   1       2.219  -1.272   3.539  0.00  0.00     0.162 A 
ATOM      6  C5  UNL d   1       1.067  -1.168   2.767  0.00  0.00     0.062 A 
ATOM      7  F   UNL d   1       0.033  -0.434   3.204  0.00  0.00    -0.097 F 
ATOM      8  F1  UNL d   1       2.272  -0.631   4.716  0.00  0.00    -0.096 F 
ATOM      9  I   UNL d   1       5.025  -2.192   4.245  0.00  0.00    -0.060 I 
ATOM     10  F2  UNL d   1       4.229  -3.427   1.402  0.00  0.00    -0.096 F 
ATOM     11  F3  UNL d   1       1.977  -3.210  -0.087  0.00  0.00    -0.097 F 
ATOM     12  F4  UNL d   1      -0.126  -1.718   0.802  0.00  0.00    -0.092 F 
ENDROOT
TORSDOF 0
ENDMDL
