MODEL 1
REMARK minimizedAffinity 14.9135542
REMARK minimizedRMSD -1
REMARK  0 active torsions:
REMARK  status: ('A' for Active; 'I' for Inactive)
ROOT
ATOM      1  C   UNL d   1       1.110  -1.801   1.941  0.00  0.00     0.124 A 
ATOM      2  C1  UNL d   1       1.573  -1.854   0.634  0.00  0.00     0.062 A 
ATOM      3  C2  UNL d   1       0.673  -1.839  -0.428  0.00  0.00     0.162 A 
ATOM      4  C3  UNL d   1      -0.699  -1.769  -0.187  0.00  0.00    -0.034 A 
ATOM      5  C4  UNL d   1      -1.157  -1.716   1.131  0.00  0.00     0.162 A 
ATOM      6  C5  UNL d   1      -0.253  -1.732   2.189  0.00  0.00     0.062 A 
ATOM      7  F   UNL d   1      -0.702  -1.680   3.451  0.00  0.00    -0.097 F 
ATOM      8  F1  UNL d   1      -2.469  -1.648   1.398  0.00  0.00    -0.096 F 
ATOM      9  I   UNL d   1      -2.047  -1.746  -1.772  0.00  0.00    -0.060 I 
ATOM     10  F2  UNL d   1       1.148  -1.892  -1.681  0.00  0.00    -0.096 F 
ATOM     11  F3  UNL d   1       2.890  -1.922   0.392  0.00  0.00    -0.097 F 
ATOM     12  F4  UNL d   1       1.978  -1.817   2.961  0.00  0.00    -0.092 F 
ENDROOT
TORSDOF 0
ENDMDL
