MODEL 1
REMARK minimizedAffinity 21.9076519
REMARK minimizedRMSD -1
REMARK  0 active torsions:
REMARK  status: ('A' for Active; 'I' for Inactive)
ROOT
ATOM      1  C   UNL d   1       3.496   3.956   2.403  0.00  0.00     0.124 A 
ATOM      2  C1  UNL d   1       2.116   3.811   2.414  0.00  0.00     0.062 A 
ATOM      3  C2  UNL d   1       1.359   4.391   3.427  0.00  0.00     0.162 A 
ATOM      4  C3  UNL d   1       1.980   5.123   4.439  0.00  0.00    -0.034 A 
ATOM      5  C4  UNL d   1       3.369   5.264   4.422  0.00  0.00     0.162 A 
ATOM      6  C5  UNL d   1       4.121   4.682   3.406  0.00  0.00     0.062 A 
ATOM      7  F   UNL d   1       5.455   4.824   3.398  0.00  0.00    -0.097 F 
ATOM      8  F1  UNL d   1       3.999   5.961   5.379  0.00  0.00    -0.096 F 
ATOM      9  I   UNL d   1       0.852   5.991   5.957  0.00  0.00    -0.060 I 
ATOM     10  F2  UNL d   1       0.026   4.234   3.413  0.00  0.00    -0.096 F 
ATOM     11  F3  UNL d   1       1.509   3.109   1.445  0.00  0.00    -0.097 F 
ATOM     12  F4  UNL d   1       4.222   3.396   1.426  0.00  0.00    -0.092 F 
ENDROOT
TORSDOF 0
ENDMDL
