MODEL 1
REMARK minimizedAffinity 16.099453
REMARK minimizedRMSD -1
REMARK  0 active torsions:
REMARK  status: ('A' for Active; 'I' for Inactive)
ROOT
ATOM      1  C   UNL d   1      -1.556   1.076  -1.865  0.00  0.00     0.124 A 
ATOM      2  C1  UNL d   1      -2.192  -0.032  -1.323  0.00  0.00     0.062 A 
ATOM      3  C2  UNL d   1      -3.462  -0.396  -1.765  0.00  0.00     0.162 A 
ATOM      4  C3  UNL d   1      -4.102   0.349  -2.755  0.00  0.00    -0.034 A 
ATOM      5  C4  UNL d   1      -3.456   1.462  -3.295  0.00  0.00     0.162 A 
ATOM      6  C5  UNL d   1      -2.188   1.822  -2.850  0.00  0.00     0.062 A 
ATOM      7  F   UNL d   1      -1.574   2.892  -3.375  0.00  0.00    -0.097 F 
ATOM      8  F1  UNL d   1      -4.043   2.201  -4.248  0.00  0.00    -0.096 F 
ATOM      9  I   UNL d   1      -6.000  -0.191  -3.417  0.00  0.00    -0.060 I 
ATOM     10  F2  UNL d   1      -4.053  -1.471  -1.223  0.00  0.00    -0.096 F 
ATOM     11  F3  UNL d   1      -1.584  -0.754  -0.371  0.00  0.00    -0.097 F 
ATOM     12  F4  UNL d   1      -0.335   1.424  -1.438  0.00  0.00    -0.092 F 
ENDROOT
TORSDOF 0
ENDMDL
