MODEL 1
REMARK minimizedAffinity 30.4615116
REMARK minimizedRMSD -1
REMARK  0 active torsions:
REMARK  status: ('A' for Active; 'I' for Inactive)
ROOT
ATOM      1  C   UNL d   1       1.579  -4.067   0.328  0.00  0.00     0.124 A 
ATOM      2  C1  UNL d   1       1.500  -2.701   0.558  0.00  0.00     0.062 A 
ATOM      3  C2  UNL d   1       2.661  -1.945   0.690  0.00  0.00     0.162 A 
ATOM      4  C3  UNL d   1       3.912  -2.554   0.590  0.00  0.00    -0.034 A 
ATOM      5  C4  UNL d   1       3.983  -3.929   0.359  0.00  0.00     0.162 A 
ATOM      6  C5  UNL d   1       2.820  -4.680   0.229  0.00  0.00     0.062 A 
ATOM      7  F   UNL d   1       2.898  -6.000   0.006  0.00  0.00    -0.097 F 
ATOM      8  F1  UNL d   1       5.170  -4.546   0.258  0.00  0.00    -0.096 F 
ATOM      9  I   UNL d   1       5.651  -1.427   0.786  0.00  0.00    -0.060 I 
ATOM     10  F2  UNL d   1       2.555  -0.626   0.912  0.00  0.00    -0.096 F 
ATOM     11  F3  UNL d   1       0.302  -2.107   0.655  0.00  0.00    -0.097 F 
ATOM     12  F4  UNL d   1       0.460  -4.792   0.203  0.00  0.00    -0.092 F 
ENDROOT
TORSDOF 0
ENDMDL
