MODEL 1
REMARK minimizedAffinity 18.5598927
REMARK minimizedRMSD -1
REMARK  0 active torsions:
REMARK  status: ('A' for Active; 'I' for Inactive)
ROOT
ATOM      1  C   UNL d   1       1.165  -1.829   0.450  0.00  0.00     0.124 A 
ATOM      2  C1  UNL d   1       1.589  -0.730   1.184  0.00  0.00     0.062 A 
ATOM      3  C2  UNL d   1       2.237  -0.910   2.403  0.00  0.00     0.162 A 
ATOM      4  C3  UNL d   1       2.467  -2.194   2.895  0.00  0.00    -0.034 A 
ATOM      5  C4  UNL d   1       2.036  -3.295   2.152  0.00  0.00     0.162 A 
ATOM      6  C5  UNL d   1       1.389  -3.110   0.935  0.00  0.00     0.062 A 
ATOM      7  F   UNL d   1       0.980  -4.174   0.227  0.00  0.00    -0.097 F 
ATOM      8  F1  UNL d   1       2.240  -4.544   2.596  0.00  0.00    -0.096 F 
ATOM      9  I   UNL d   1       3.435  -2.467   4.717  0.00  0.00    -0.060 I 
ATOM     10  F2  UNL d   1       2.636   0.171   3.090  0.00  0.00    -0.096 F 
ATOM     11  F3  UNL d   1       1.374   0.509   0.718  0.00  0.00    -0.097 F 
ATOM     12  F4  UNL d   1       0.541  -1.654  -0.721  0.00  0.00    -0.092 F 
ENDROOT
TORSDOF 0
ENDMDL
