MODEL 1
REMARK minimizedAffinity 27.3650341
REMARK minimizedRMSD -1
REMARK  0 active torsions:
REMARK  status: ('A' for Active; 'I' for Inactive)
ROOT
ATOM      1  C   UNL d   1       0.936  -1.685   1.214  0.00  0.00     0.124 A 
ATOM      2  C1  UNL d   1       1.965  -2.540   0.847  0.00  0.00     0.062 A 
ATOM      3  C2  UNL d   1       3.008  -2.801   1.731  0.00  0.00     0.162 A 
ATOM      4  C3  UNL d   1       3.026  -2.206   2.993  0.00  0.00    -0.034 A 
ATOM      5  C4  UNL d   1       1.988  -1.346   3.354  0.00  0.00     0.162 A 
ATOM      6  C5  UNL d   1       0.948  -1.089   2.467  0.00  0.00     0.062 A 
ATOM      7  F   UNL d   1      -0.046  -0.262   2.823  0.00  0.00    -0.097 F 
ATOM      8  F1  UNL d   1       1.974  -0.757   4.559  0.00  0.00    -0.096 F 
ATOM      9  I   UNL d   1       4.584  -2.593   4.318  0.00  0.00    -0.060 I 
ATOM     10  F2  UNL d   1       3.989  -3.632   1.350  0.00  0.00    -0.096 F 
ATOM     11  F3  UNL d   1       1.956  -3.117  -0.364  0.00  0.00    -0.097 F 
ATOM     12  F4  UNL d   1      -0.066  -1.435   0.361  0.00  0.00    -0.092 F 
ENDROOT
TORSDOF 0
ENDMDL
