MODEL 1
REMARK minimizedAffinity 18.051548
REMARK minimizedRMSD -1
REMARK  0 active torsions:
REMARK  status: ('A' for Active; 'I' for Inactive)
ROOT
ATOM      1  C   UNL d   1      -1.713   2.361  -4.161  0.00  0.00     0.124 A 
ATOM      2  C1  UNL d   1      -2.126   3.678  -4.015  0.00  0.00     0.062 A 
ATOM      3  C2  UNL d   1      -1.359   4.715  -4.539  0.00  0.00     0.162 A 
ATOM      4  C3  UNL d   1      -0.170   4.439  -5.215  0.00  0.00    -0.034 A 
ATOM      5  C4  UNL d   1       0.240   3.112  -5.356  0.00  0.00     0.162 A 
ATOM      6  C5  UNL d   1      -0.531   2.079  -4.831  0.00  0.00     0.062 A 
ATOM      7  F   UNL d   1      -0.129   0.807  -4.972  0.00  0.00    -0.097 F 
ATOM      8  F1  UNL d   1       1.377   2.811  -6.000  0.00  0.00    -0.096 F 
ATOM      9  I   UNL d   1       0.979   5.986  -5.999  0.00  0.00    -0.060 I 
ATOM     10  F2  UNL d   1      -1.783   5.978  -4.384  0.00  0.00    -0.096 F 
ATOM     11  F3  UNL d   1      -3.267   3.953  -3.367  0.00  0.00    -0.097 F 
ATOM     12  F4  UNL d   1      -2.452   1.366  -3.655  0.00  0.00    -0.092 F 
ENDROOT
TORSDOF 0
ENDMDL
