MODEL 1
REMARK minimizedAffinity -1.61171949
REMARK minimizedRMSD -1
REMARK  0 active torsions:
REMARK  status: ('A' for Active; 'I' for Inactive)
ROOT
ATOM      1  C   UNL d   1      -1.127   0.134  -0.268  0.00  0.00     0.172 C 
ATOM      2  N   UNL d   1       0.165   0.460   0.291  0.00  0.00    -0.070 N 
ATOM      3  C1  UNL d   1       0.709   1.714   0.365  0.00  0.00    -0.004 A 
ATOM      4  C2  UNL d   1       1.946   1.603   0.961  0.00  0.00    -0.047 A 
ATOM      5  C3  UNL d   1       2.153   0.234   1.255  0.00  0.00    -0.047 A 
ATOM      6  C4  UNL d   1       1.035  -0.451   0.829  0.00  0.00    -0.004 A 
ENDROOT
TORSDOF 0
ENDMDL
