MODEL 1
REMARK minimizedAffinity -1.39358389
REMARK minimizedRMSD -1
REMARK  0 active torsions:
REMARK  status: ('A' for Active; 'I' for Inactive)
ROOT
ATOM      1  C   UNL d   1       2.160   1.237   1.580  0.00  0.00     0.172 C 
ATOM      2  N   UNL d   1       1.089   0.902   0.671  0.00  0.00    -0.070 N 
ATOM      3  C1  UNL d   1       0.195  -0.123   0.834  0.00  0.00    -0.004 A 
ATOM      4  C2  UNL d   1      -0.664  -0.108  -0.244  0.00  0.00    -0.047 A 
ATOM      5  C3  UNL d   1      -0.272   0.962  -1.083  0.00  0.00    -0.047 A 
ATOM      6  C4  UNL d   1       0.815   1.570  -0.493  0.00  0.00    -0.004 A 
ENDROOT
TORSDOF 0
ENDMDL
