MODEL 1
REMARK minimizedAffinity -3.85537004
REMARK minimizedRMSD -1
REMARK  0 active torsions:
REMARK  status: ('A' for Active; 'I' for Inactive)
ROOT
ATOM      1  C   UNL d   1       2.948  -0.622   1.143  0.00  0.00     0.172 C 
ATOM      2  N   UNL d   1       2.709   0.265   2.257  0.00  0.00    -0.070 N 
ATOM      3  C1  UNL d   1       2.870  -0.053   3.579  0.00  0.00    -0.004 A 
ATOM      4  C2  UNL d   1       2.542   1.060   4.323  0.00  0.00    -0.047 A 
ATOM      5  C3  UNL d   1       2.171   2.081   3.417  0.00  0.00    -0.047 A 
ATOM      6  C4  UNL d   1       2.284   1.562   2.144  0.00  0.00    -0.004 A 
ENDROOT
TORSDOF 0
ENDMDL
