MODEL 1
REMARK minimizedAffinity -3.51338577
REMARK minimizedRMSD -1
REMARK  0 active torsions:
REMARK  status: ('A' for Active; 'I' for Inactive)
ROOT
ATOM      1  C   UNL d   1      -0.712  -0.237  -0.414  0.00  0.00     0.172 C 
ATOM      2  N   UNL d   1       0.609   0.127   0.041  0.00  0.00    -0.070 N 
ATOM      3  C1  UNL d   1       1.748  -0.612  -0.138  0.00  0.00    -0.004 A 
ATOM      4  C2  UNL d   1       2.793   0.076   0.438  0.00  0.00    -0.047 A 
ATOM      5  C3  UNL d   1       2.265   1.270   0.985  0.00  0.00    -0.047 A 
ATOM      6  C4  UNL d   1       0.911   1.276   0.725  0.00  0.00    -0.004 A 
ENDROOT
TORSDOF 0
ENDMDL
