MODEL 1
REMARK minimizedAffinity -2.41245627
REMARK minimizedRMSD -1
REMARK  0 active torsions:
REMARK  status: ('A' for Active; 'I' for Inactive)
ROOT
ATOM      1  C   UNL d   1       2.350   1.120   0.809  0.00  0.00     0.172 C 
ATOM      2  N   UNL d   1       2.334   0.557   2.138  0.00  0.00    -0.070 N 
ATOM      3  C1  UNL d   1       2.184   1.262   3.303  0.00  0.00    -0.004 A 
ATOM      4  C2  UNL d   1       2.223   0.365   4.348  0.00  0.00    -0.047 A 
ATOM      5  C3  UNL d   1       2.404  -0.924   3.793  0.00  0.00    -0.047 A 
ATOM      6  C4  UNL d   1       2.470  -0.776   2.423  0.00  0.00    -0.004 A 
ENDROOT
TORSDOF 0
ENDMDL
