MODEL 1
REMARK minimizedAffinity -1.30002403
REMARK minimizedRMSD -1
REMARK  0 active torsions:
REMARK  status: ('A' for Active; 'I' for Inactive)
ROOT
ATOM      1  C   UNL d   1       4.362  -2.211  -5.951  0.00  0.00     0.172 C 
ATOM      2  N   UNL d   1       4.796  -0.883  -5.586  0.00  0.00    -0.070 N 
ATOM      3  C1  UNL d   1       5.953  -0.280  -6.000  0.00  0.00    -0.004 A 
ATOM      4  C2  UNL d   1       6.000   0.976  -5.434  0.00  0.00    -0.047 A 
ATOM      5  C3  UNL d   1       4.831   1.132  -4.653  0.00  0.00    -0.047 A 
ATOM      6  C4  UNL d   1       4.103  -0.034  -4.764  0.00  0.00    -0.004 A 
ENDROOT
TORSDOF 0
ENDMDL
