MODEL 1
REMARK minimizedAffinity -1.56144714
REMARK minimizedRMSD -1
REMARK  0 active torsions:
REMARK  status: ('A' for Active; 'I' for Inactive)
ROOT
ATOM      1  C   UNL d   1       2.683   1.451   2.455  0.00  0.00     0.172 C 
ATOM      2  N   UNL d   1       1.500   1.452   1.627  0.00  0.00    -0.070 N 
ATOM      3  C1  UNL d   1       0.937   0.352   1.037  0.00  0.00    -0.004 A 
ATOM      4  C2  UNL d   1      -0.172   0.770   0.335  0.00  0.00    -0.047 A 
ATOM      5  C3  UNL d   1      -0.279   2.171   0.508  0.00  0.00    -0.047 A 
ATOM      6  C4  UNL d   1       0.769   2.567   1.312  0.00  0.00    -0.004 A 
ENDROOT
TORSDOF 0
ENDMDL
