MODEL 1
REMARK minimizedAffinity 0.454340905
REMARK minimizedRMSD -1
REMARK  0 active torsions:
REMARK  status: ('A' for Active; 'I' for Inactive)
ROOT
ATOM      1  C   UNL d   1      -2.590   1.363  -3.425  0.00  0.00     0.172 C 
ATOM      2  N   UNL d   1      -2.805  -0.049  -3.642  0.00  0.00    -0.070 N 
ATOM      3  C1  UNL d   1      -2.369  -0.765  -4.724  0.00  0.00    -0.004 A 
ATOM      4  C2  UNL d   1      -2.775  -2.072  -4.557  0.00  0.00    -0.047 A 
ATOM      5  C3  UNL d   1      -3.480  -2.142  -3.332  0.00  0.00    -0.047 A 
ATOM      6  C4  UNL d   1      -3.484  -0.876  -2.787  0.00  0.00    -0.004 A 
ENDROOT
TORSDOF 0
ENDMDL
