MODEL 1
REMARK minimizedAffinity 3.57908869
REMARK minimizedRMSD -1
REMARK  0 active torsions:
REMARK  status: ('A' for Active; 'I' for Inactive)
ROOT
ATOM      1  C   UNL d   1      -4.959  -2.504   1.006  0.00  0.00     0.077 C 
ATOM      2  C1  UNL d   1      -3.774  -1.603   1.191  0.00  0.00    -0.074 A 
ATOM      3  C2  UNL d   1      -2.478  -2.123   1.250  0.00  0.00    -0.005 A 
ATOM      4  C3  UNL d   1      -1.385  -1.272   1.412  0.00  0.00     0.006 A 
ATOM      5  C4  UNL d   1      -1.577   0.106   1.518  0.00  0.00    -0.005 A 
ATOM      6  C5  UNL d   1      -2.866   0.645   1.461  0.00  0.00    -0.074 A 
ATOM      7  C6  UNL d   1      -3.090   2.124   1.563  0.00  0.00     0.077 C 
ATOM      8  C7  UNL d   1      -3.959  -0.216   1.290  0.00  0.00    -0.001 A 
ENDROOT
TORSDOF 0
ENDMDL
