MODEL 1
REMARK minimizedAffinity 11.1295872
REMARK minimizedRMSD -1
REMARK  0 active torsions:
REMARK  status: ('A' for Active; 'I' for Inactive)
ROOT
ATOM      1  C   UNL d   1      -3.043   3.120   2.075  0.00  0.00     0.077 C 
ATOM      2  C1  UNL d   1      -2.655   1.686   1.866  0.00  0.00    -0.074 A 
ATOM      3  C2  UNL d   1      -1.336   1.263   2.057  0.00  0.00    -0.005 A 
ATOM      4  C3  UNL d   1      -0.993  -0.076   1.867  0.00  0.00     0.006 A 
ATOM      5  C4  UNL d   1      -1.963  -1.003   1.486  0.00  0.00    -0.005 A 
ATOM      6  C5  UNL d   1      -3.288  -0.598   1.292  0.00  0.00    -0.074 A 
ATOM      7  C6  UNL d   1      -4.345  -1.584   0.891  0.00  0.00     0.077 C 
ATOM      8  C7  UNL d   1      -3.626   0.747   1.491  0.00  0.00    -0.001 A 
ENDROOT
TORSDOF 0
ENDMDL
