MODEL 1
REMARK minimizedAffinity 18.5752182
REMARK minimizedRMSD -1
REMARK  0 active torsions:
REMARK  status: ('A' for Active; 'I' for Inactive)
ROOT
ATOM      1  C   UNL d   1      -2.986  -1.234   5.993  0.00  0.00     0.077 C 
ATOM      2  C1  UNL d   1      -3.996  -1.993   5.183  0.00  0.00    -0.074 A 
ATOM      3  C2  UNL d   1      -4.445  -3.252   5.592  0.00  0.00    -0.005 A 
ATOM      4  C3  UNL d   1      -5.391  -3.942   4.834  0.00  0.00     0.006 A 
ATOM      5  C4  UNL d   1      -5.896  -3.380   3.661  0.00  0.00    -0.005 A 
ATOM      6  C5  UNL d   1      -5.459  -2.121   3.236  0.00  0.00    -0.074 A 
ATOM      7  C6  UNL d   1      -6.000  -1.498   1.983  0.00  0.00     0.077 C 
ATOM      8  C7  UNL d   1      -4.514  -1.431   4.008  0.00  0.00    -0.001 A 
ENDROOT
TORSDOF 0
ENDMDL
