MODEL 1
REMARK minimizedAffinity 5.99983454
REMARK minimizedRMSD -1
REMARK  0 active torsions:
REMARK  status: ('A' for Active; 'I' for Inactive)
ROOT
ATOM      1  C   UNL d   1      -5.932  -5.999   3.459  0.00  0.00     0.077 C 
ATOM      2  C1  UNL d   1      -5.294  -5.296   2.297  0.00  0.00    -0.074 A 
ATOM      3  C2  UNL d   1      -4.277  -5.908   1.557  0.00  0.00    -0.005 A 
ATOM      4  C3  UNL d   1      -3.701  -5.246   0.473  0.00  0.00     0.006 A 
ATOM      5  C4  UNL d   1      -4.134  -3.967   0.119  0.00  0.00    -0.005 A 
ATOM      6  C5  UNL d   1      -5.151  -3.340   0.847  0.00  0.00    -0.074 A 
ATOM      7  C6  UNL d   1      -5.635  -1.971   0.474  0.00  0.00     0.077 C 
ATOM      8  C7  UNL d   1      -5.730  -4.015   1.930  0.00  0.00    -0.001 A 
ENDROOT
TORSDOF 0
ENDMDL
