MODEL 1
REMARK minimizedAffinity 17.384861
REMARK minimizedRMSD -1
REMARK  0 active torsions:
REMARK  status: ('A' for Active; 'I' for Inactive)
ROOT
ATOM      1  C   UNL d   1      -0.207  -3.272   0.853  0.00  0.00     0.077 C 
ATOM      2  C1  UNL d   1      -1.583  -2.678   0.799  0.00  0.00    -0.074 A 
ATOM      3  C2  UNL d   1      -2.649  -3.384   0.232  0.00  0.00    -0.005 A 
ATOM      4  C3  UNL d   1      -3.925  -2.822   0.197  0.00  0.00     0.006 A 
ATOM      5  C4  UNL d   1      -4.148  -1.552   0.729  0.00  0.00    -0.005 A 
ATOM      6  C5  UNL d   1      -3.095  -0.832   1.301  0.00  0.00    -0.074 A 
ATOM      7  C6  UNL d   1      -3.320   0.531   1.886  0.00  0.00     0.077 C 
ATOM      8  C7  UNL d   1      -1.817  -1.405   1.339  0.00  0.00    -0.001 A 
ENDROOT
TORSDOF 0
ENDMDL
