MODEL 1
REMARK minimizedAffinity 12.9357996
REMARK minimizedRMSD -1
REMARK  0 active torsions:
REMARK  status: ('A' for Active; 'I' for Inactive)
ROOT
ATOM      1  C   UNL d   1      -1.714  -3.604  -5.599  0.00  0.00     0.077 C 
ATOM      2  C1  UNL d   1      -3.206  -3.510  -5.481  0.00  0.00    -0.074 A 
ATOM      3  C2  UNL d   1      -4.032  -4.526  -5.973  0.00  0.00    -0.005 A 
ATOM      4  C3  UNL d   1      -5.417  -4.429  -5.847  0.00  0.00     0.006 A 
ATOM      5  C4  UNL d   1      -5.991  -3.316  -5.231  0.00  0.00    -0.005 A 
ATOM      6  C5  UNL d   1      -5.181  -2.290  -4.732  0.00  0.00    -0.074 A 
ATOM      7  C6  UNL d   1      -5.781  -1.092  -4.058  0.00  0.00     0.077 C 
ATOM      8  C7  UNL d   1      -3.789  -2.399  -4.856  0.00  0.00    -0.001 A 
ENDROOT
TORSDOF 0
ENDMDL
