MODEL 1
REMARK minimizedAffinity 9.43801689
REMARK minimizedRMSD -1
REMARK  0 active torsions:
REMARK  status: ('A' for Active; 'I' for Inactive)
ROOT
ATOM      1  C   UNL d   1      -0.595  -3.642  -5.999  0.00  0.00     0.077 C 
ATOM      2  C1  UNL d   1      -0.370  -2.260  -5.461  0.00  0.00    -0.074 A 
ATOM      3  C2  UNL d   1      -1.297  -1.239  -5.692  0.00  0.00    -0.005 A 
ATOM      4  C3  UNL d   1      -1.078   0.039  -5.177  0.00  0.00     0.006 A 
ATOM      5  C4  UNL d   1       0.067   0.308  -4.426  0.00  0.00    -0.005 A 
ATOM      6  C5  UNL d   1       1.004  -0.701  -4.184  0.00  0.00    -0.074 A 
ATOM      7  C6  UNL d   1       2.235  -0.432  -3.371  0.00  0.00     0.077 C 
ATOM      8  C7  UNL d   1       0.774  -1.984  -4.699  0.00  0.00    -0.001 A 
ENDROOT
TORSDOF 0
ENDMDL
