MODEL 1
REMARK minimizedAffinity 8.03049564
REMARK minimizedRMSD -1
REMARK  0 active torsions:
REMARK  status: ('A' for Active; 'I' for Inactive)
ROOT
ATOM      1  C   UNL d   1      -1.538  -2.653  -6.000  0.00  0.00     0.077 C 
ATOM      2  C1  UNL d   1      -2.979  -2.980  -5.740  0.00  0.00    -0.074 A 
ATOM      3  C2  UNL d   1      -3.866  -2.001  -5.281  0.00  0.00    -0.005 A 
ATOM      4  C3  UNL d   1      -5.205  -2.317  -5.052  0.00  0.00     0.006 A 
ATOM      5  C4  UNL d   1      -5.670  -3.613  -5.280  0.00  0.00    -0.005 A 
ATOM      6  C5  UNL d   1      -4.798  -4.605  -5.740  0.00  0.00    -0.074 A 
ATOM      7  C6  UNL d   1      -5.283  -6.000  -5.999  0.00  0.00     0.077 C 
ATOM      8  C7  UNL d   1      -3.455  -4.277  -5.974  0.00  0.00    -0.001 A 
ENDROOT
TORSDOF 0
ENDMDL
