MODEL 1
REMARK minimizedAffinity 9.12241936
REMARK minimizedRMSD -1
REMARK  0 active torsions:
REMARK  status: ('A' for Active; 'I' for Inactive)
ROOT
ATOM      1  C   UNL d   1      -4.046   2.844   1.770  0.00  0.00     0.077 C 
ATOM      2  C1  UNL d   1      -3.113   1.671   1.807  0.00  0.00    -0.074 A 
ATOM      3  C2  UNL d   1      -2.133   1.500   0.824  0.00  0.00    -0.005 A 
ATOM      4  C3  UNL d   1      -1.266   0.409   0.877  0.00  0.00     0.006 A 
ATOM      5  C4  UNL d   1      -1.369  -0.521   1.912  0.00  0.00    -0.005 A 
ATOM      6  C5  UNL d   1      -2.342  -0.366   2.905  0.00  0.00    -0.074 A 
ATOM      7  C6  UNL d   1      -2.460  -1.351   4.030  0.00  0.00     0.077 C 
ATOM      8  C7  UNL d   1      -3.205   0.737   2.849  0.00  0.00    -0.001 A 
ENDROOT
TORSDOF 0
ENDMDL
