MODEL 1
REMARK minimizedAffinity 7.34791708
REMARK minimizedRMSD -1
REMARK  0 active torsions:
REMARK  status: ('A' for Active; 'I' for Inactive)
ROOT
ATOM      1  C   UNL d   1       1.237  -0.054   3.438  0.00  0.00     0.077 C 
ATOM      2  C1  UNL d   1       0.044   0.383   2.640  0.00  0.00    -0.074 A 
ATOM      3  C2  UNL d   1       0.198   1.127   1.465  0.00  0.00    -0.005 A 
ATOM      4  C3  UNL d   1      -0.919   1.518   0.729  0.00  0.00     0.006 A 
ATOM      5  C4  UNL d   1      -2.201   1.170   1.158  0.00  0.00    -0.005 A 
ATOM      6  C5  UNL d   1      -2.375   0.426   2.330  0.00  0.00    -0.074 A 
ATOM      7  C6  UNL d   1      -3.744   0.036   2.800  0.00  0.00     0.077 C 
ATOM      8  C7  UNL d   1      -1.246   0.031   3.061  0.00  0.00    -0.001 A 
ENDROOT
TORSDOF 0
ENDMDL
