MODEL 1
REMARK minimizedAffinity 10.7136898
REMARK minimizedRMSD -1
REMARK  0 active torsions:
REMARK  status: ('A' for Active; 'I' for Inactive)
ROOT
ATOM      1  C   UNL d   1       3.604   2.681  -6.000  0.00  0.00     0.077 C 
ATOM      2  C1  UNL d   1       3.584   1.263  -5.513  0.00  0.00    -0.074 A 
ATOM      3  C2  UNL d   1       4.499   0.323  -6.000  0.00  0.00    -0.005 A 
ATOM      4  C3  UNL d   1       4.474  -0.990  -5.530  0.00  0.00     0.006 A 
ATOM      5  C4  UNL d   1       3.537  -1.377  -4.572  0.00  0.00    -0.005 A 
ATOM      6  C5  UNL d   1       2.615  -0.451  -4.073  0.00  0.00    -0.074 A 
ATOM      7  C6  UNL d   1       1.607  -0.847  -3.035  0.00  0.00     0.077 C 
ATOM      8  C7  UNL d   1       2.650   0.869  -4.544  0.00  0.00    -0.001 A 
ENDROOT
TORSDOF 0
ENDMDL
