MODEL 1
REMARK minimizedAffinity 8.29813004
REMARK minimizedRMSD -1
REMARK  0 active torsions:
REMARK  status: ('A' for Active; 'I' for Inactive)
ROOT
ATOM      1  C   UNL d   1       2.614   0.753  -1.788  0.00  0.00     0.077 C 
ATOM      2  C1  UNL d   1       2.873   0.911  -3.257  0.00  0.00    -0.074 A 
ATOM      3  C2  UNL d   1       2.637  -0.143  -4.146  0.00  0.00    -0.005 A 
ATOM      4  C3  UNL d   1       2.873   0.022  -5.511  0.00  0.00     0.006 A 
ATOM      5  C4  UNL d   1       3.346   1.240  -6.000  0.00  0.00    -0.005 A 
ATOM      6  C5  UNL d   1       3.587   2.306  -5.126  0.00  0.00    -0.074 A 
ATOM      7  C6  UNL d   1       4.086   3.625  -5.637  0.00  0.00     0.077 C 
ATOM      8  C7  UNL d   1       3.340   2.134  -3.757  0.00  0.00    -0.001 A 
ENDROOT
TORSDOF 0
ENDMDL
