MODEL 1
REMARK minimizedAffinity 1.78477025
REMARK minimizedRMSD -1
REMARK  0 active torsions:
REMARK  status: ('A' for Active; 'I' for Inactive)
ROOT
ATOM      1  C   UNL d   1      -4.380   2.631   1.861  0.00  0.00     0.077 C 
ATOM      2  C1  UNL d   1      -3.033   2.028   2.126  0.00  0.00    -0.074 A 
ATOM      3  C2  UNL d   1      -2.814   0.657   1.961  0.00  0.00    -0.005 A 
ATOM      4  C3  UNL d   1      -1.552   0.112   2.202  0.00  0.00     0.006 A 
ATOM      5  C4  UNL d   1      -0.499   0.931   2.610  0.00  0.00    -0.005 A 
ATOM      6  C5  UNL d   1      -0.699   2.305   2.779  0.00  0.00    -0.074 A 
ATOM      7  C6  UNL d   1       0.424   3.202   3.208  0.00  0.00     0.077 C 
ATOM      8  C7  UNL d   1      -1.968   2.846   2.529  0.00  0.00    -0.001 A 
ENDROOT
TORSDOF 0
ENDMDL
