MODEL 1
REMARK minimizedAffinity 12.570672
REMARK minimizedRMSD -1
REMARK  0 active torsions:
REMARK  status: ('A' for Active; 'I' for Inactive)
ROOT
ATOM      1  C   UNL d   1       2.697  -5.240  -2.234  0.00  0.00     0.023 A 
ATOM      2  C1  UNL d   1       2.843  -4.517  -3.419  0.00  0.00     0.003 A 
ATOM      3  C2  UNL d   1       1.829  -4.535  -4.378  0.00  0.00     0.048 A 
ATOM      4  C3  UNL d   1       0.671  -5.276  -4.147  0.00  0.00     0.023 A 
ATOM      5  C4  UNL d   1       0.519  -6.000  -2.963  0.00  0.00     0.048 A 
ATOM      6  C5  UNL d   1       1.536  -5.980  -2.007  0.00  0.00     0.003 A 
ATOM      7  I   UNL d   1      -0.840  -5.304  -5.574  0.00  0.00    -0.146 I 
ENDROOT
TORSDOF 0
ENDMDL
