MODEL 1
REMARK minimizedAffinity 14.8035545
REMARK minimizedRMSD -1
REMARK  0 active torsions:
REMARK  status: ('A' for Active; 'I' for Inactive)
ROOT
ATOM      1  C   UNL d   1       0.895   5.923  -2.829  0.00  0.00     0.023 A 
ATOM      2  C1  UNL d   1      -0.097   5.999  -3.807  0.00  0.00     0.003 A 
ATOM      3  C2  UNL d   1      -1.435   5.800  -3.462  0.00  0.00     0.048 A 
ATOM      4  C3  UNL d   1      -1.775   5.526  -2.138  0.00  0.00     0.023 A 
ATOM      5  C4  UNL d   1      -0.786   5.449  -1.156  0.00  0.00     0.048 A 
ATOM      6  C5  UNL d   1       0.551   5.648  -1.506  0.00  0.00     0.003 A 
ATOM      7  I   UNL d   1      -3.766   5.229  -1.623  0.00  0.00    -0.146 I 
ENDROOT
TORSDOF 0
ENDMDL
