MODEL 1
REMARK minimizedAffinity 14.9274044
REMARK minimizedRMSD -1
REMARK  0 active torsions:
REMARK  status: ('A' for Active; 'I' for Inactive)
ROOT
ATOM      1  C   UNL d   1       4.557  -1.442  -0.973  0.00  0.00     0.023 A 
ATOM      2  C1  UNL d   1       3.737  -2.023  -0.005  0.00  0.00     0.003 A 
ATOM      3  C2  UNL d   1       4.046  -3.285   0.506  0.00  0.00     0.048 A 
ATOM      4  C3  UNL d   1       5.176  -3.960   0.047  0.00  0.00     0.023 A 
ATOM      5  C4  UNL d   1       6.000  -3.382  -0.921  0.00  0.00     0.048 A 
ATOM      6  C5  UNL d   1       5.686  -2.120  -1.430  0.00  0.00     0.003 A 
ATOM      7  I   UNL d   1       5.638  -5.839   0.807  0.00  0.00    -0.146 I 
ENDROOT
TORSDOF 0
ENDMDL
