MODEL 1
REMARK minimizedAffinity 10.3457308
REMARK minimizedRMSD -1
REMARK  0 active torsions:
REMARK  status: ('A' for Active; 'I' for Inactive)
ROOT
ATOM      1  C   UNL d   1       5.327  -1.897  -0.389  0.00  0.00     0.023 A 
ATOM      2  C1  UNL d   1       5.063  -3.254  -0.575  0.00  0.00     0.003 A 
ATOM      3  C2  UNL d   1       5.255  -3.839  -1.829  0.00  0.00     0.048 A 
ATOM      4  C3  UNL d   1       5.712  -3.060  -2.892  0.00  0.00     0.023 A 
ATOM      5  C4  UNL d   1       5.979  -1.702  -2.710  0.00  0.00     0.048 A 
ATOM      6  C5  UNL d   1       5.785  -1.122  -1.455  0.00  0.00     0.003 A 
ATOM      7  I   UNL d   1       5.999  -3.928  -4.758  0.00  0.00    -0.146 I 
ENDROOT
TORSDOF 0
ENDMDL
