MODEL 1
REMARK minimizedAffinity 9.23517418
REMARK minimizedRMSD -1
REMARK  0 active torsions:
REMARK  status: ('A' for Active; 'I' for Inactive)
ROOT
ATOM      1  C   UNL d   1       6.000  -3.180  -1.208  0.00  0.00     0.023 A 
ATOM      2  C1  UNL d   1       6.000  -2.548  -2.451  0.00  0.00     0.003 A 
ATOM      3  C2  UNL d   1       5.618  -3.253  -3.595  0.00  0.00     0.048 A 
ATOM      4  C3  UNL d   1       5.236  -4.589  -3.487  0.00  0.00     0.023 A 
ATOM      5  C4  UNL d   1       5.234  -5.226  -2.245  0.00  0.00     0.048 A 
ATOM      6  C5  UNL d   1       5.617  -4.518  -1.105  0.00  0.00     0.003 A 
ATOM      7  I   UNL d   1       4.667  -5.640  -5.188  0.00  0.00    -0.146 I 
ENDROOT
TORSDOF 0
ENDMDL
