MODEL 1
REMARK minimizedAffinity 12.605073
REMARK minimizedRMSD -1
REMARK  0 active torsions:
REMARK  status: ('A' for Active; 'I' for Inactive)
ROOT
ATOM      1  C   UNL d   1      -6.000  -1.042   4.244  0.00  0.00     0.023 A 
ATOM      2  C1  UNL d   1      -6.000   0.260   4.744  0.00  0.00     0.003 A 
ATOM      3  C2  UNL d   1      -4.923   1.110   4.483  0.00  0.00     0.048 A 
ATOM      4  C3  UNL d   1      -3.850   0.651   3.719  0.00  0.00     0.023 A 
ATOM      5  C4  UNL d   1      -3.846  -0.651   3.216  0.00  0.00     0.048 A 
ATOM      6  C5  UNL d   1      -4.924  -1.497   3.481  0.00  0.00     0.003 A 
ATOM      7  I   UNL d   1      -2.246   1.914   3.328  0.00  0.00    -0.146 I 
ENDROOT
TORSDOF 0
ENDMDL
