MODEL 1
REMARK minimizedAffinity -2.75268126
REMARK minimizedRMSD -1
REMARK  2 active torsions:
REMARK  status: ('A' for Active; 'I' for Inactive)
REMARK    1  A    between atoms: C2'_3  and  C1'_4 
REMARK    2  A    between atoms: C1'_4  and  C1_5 
ROOT
ATOM      1  C1  I4B d   1      -0.914  -0.584   0.337  0.00  0.00    -0.075 A 
ATOM      2  C2  I4B d   1       0.112  -0.545  -0.574  0.00  0.00     0.003 A 
ATOM      3  C3  I4B d   1       1.442  -0.798  -0.161  0.00  0.00     0.002 A 
ATOM      4  C4  I4B d   1       1.707  -1.035   1.172  0.00  0.00    -0.004 A 
ATOM      5  C5  I4B d   1       0.663  -1.097   2.091  0.00  0.00     0.002 A 
ATOM      6  C6  I4B d   1      -0.657  -0.882   1.669  0.00  0.00     0.003 A 
ENDROOT
BRANCH   1   7
ATOM      7  C1' I4B d   1      -2.302  -0.278  -0.127  0.00  0.00     0.060 C 
BRANCH   7   8
ATOM      8  C2' I4B d   1      -3.019  -1.594  -0.352  0.00  0.00    -0.013 C 
ATOM      9  C4' I4B d   1      -4.424  -1.549   0.188  0.00  0.00     0.013 C 
ATOM     10  C3' I4B d   1      -3.015  -1.878  -1.825  0.00  0.00     0.013 C 
ENDBRANCH   7   8
ENDBRANCH   1   7
TORSDOF 2
ENDMDL
