MODEL 1
REMARK minimizedAffinity -3.6580534
REMARK minimizedRMSD -1
REMARK  2 active torsions:
REMARK  status: ('A' for Active; 'I' for Inactive)
REMARK    1  A    between atoms: C2'_3  and  C1'_4 
REMARK    2  A    between atoms: C1'_4  and  C1_5 
ROOT
ATOM      1  C1  I4B d   1       0.521   0.170  -0.021  0.00  0.00    -0.075 A 
ATOM      2  C2  I4B d   1      -0.649  -0.051   0.662  0.00  0.00     0.003 A 
ATOM      3  C3  I4B d   1      -0.617  -0.522   1.997  0.00  0.00     0.002 A 
ATOM      4  C4  I4B d   1       0.598  -0.804   2.589  0.00  0.00    -0.004 A 
ATOM      5  C5  I4B d   1       1.783  -0.557   1.903  0.00  0.00     0.002 A 
ATOM      6  C6  I4B d   1       1.745  -0.055   0.594  0.00  0.00     0.003 A 
ENDROOT
BRANCH   1   7
ATOM      7  C1' I4B d   1       0.449   0.635  -1.441  0.00  0.00     0.060 C 
BRANCH   7   8
ATOM      8  C2' I4B d   1       0.005   2.084  -1.435  0.00  0.00    -0.013 C 
ATOM      9  C4' I4B d   1       1.177   3.014  -1.611  0.00  0.00     0.013 C 
ATOM     10  C3' I4B d   1      -0.999   2.265  -2.535  0.00  0.00     0.013 C 
ENDBRANCH   7   8
ENDBRANCH   1   7
TORSDOF 2
ENDMDL
