MODEL 1
REMARK minimizedAffinity -2.59263086
REMARK minimizedRMSD -1
REMARK  2 active torsions:
REMARK  status: ('A' for Active; 'I' for Inactive)
REMARK    1  A    between atoms: C2'_3  and  C1'_4 
REMARK    2  A    between atoms: C1'_4  and  C1_5 
ROOT
ATOM      1  C1  I4B d   1      -1.100   1.583  -1.703  0.00  0.00    -0.075 A 
ATOM      2  C2  I4B d   1       0.117   2.025  -2.158  0.00  0.00     0.003 A 
ATOM      3  C3  I4B d   1       0.233   3.305  -2.754  0.00  0.00     0.002 A 
ATOM      4  C4  I4B d   1      -0.895   4.083  -2.919  0.00  0.00    -0.004 A 
ATOM      5  C5  I4B d   1      -2.124   3.642  -2.435  0.00  0.00     0.002 A 
ATOM      6  C6  I4B d   1      -2.225   2.390  -1.812  0.00  0.00     0.003 A 
ENDROOT
BRANCH   1   7
ATOM      7  C1' I4B d   1      -1.193   0.214  -1.108  0.00  0.00     0.060 C 
BRANCH   7   8
ATOM      8  C2' I4B d   1       0.056  -0.024  -0.285  0.00  0.00    -0.013 C 
ATOM      9  C4' I4B d   1      -0.288  -0.486   1.107  0.00  0.00     0.013 C 
ATOM     10  C3' I4B d   1       0.897  -1.038  -1.000  0.00  0.00     0.013 C 
ENDBRANCH   7   8
ENDBRANCH   1   7
TORSDOF 2
ENDMDL
