MODEL 1
REMARK minimizedAffinity -3.43808794
REMARK minimizedRMSD -1
REMARK  0 active torsions:
REMARK  status: ('A' for Active; 'I' for Inactive)
ROOT
ATOM      1  O1  BZF d   1       2.186   1.783   0.498  0.00  0.00    -0.204 OA
ATOM      2  C2  BZF d   1       1.352   2.569   1.270  0.00  0.00     0.174 A 
ATOM      3  C3  BZF d   1       0.191   1.930   1.521  0.00  0.00    -0.012 A 
ATOM      4  C3A BZF d   1       0.343   0.631   0.942  0.00  0.00    -0.107 A 
ATOM      5  C4  BZF d   1      -0.465  -0.468   0.876  0.00  0.00     0.055 A 
ATOM      6  C5  BZF d   1      -0.047  -1.554   0.174  0.00  0.00    -0.016 A 
ATOM      7  C6  BZF d   1       1.170  -1.574  -0.477  0.00  0.00     0.022 A 
ATOM      8  C7  BZF d   1       2.008  -0.510  -0.435  0.00  0.00     0.029 A 
ATOM      9  C7A BZF d   1       1.602   0.577   0.301  0.00  0.00     0.058 A 
ENDROOT
TORSDOF 0
ENDMDL
