MODEL 1
REMARK minimizedAffinity 0.0667237118
REMARK minimizedRMSD -1
REMARK  0 active torsions:
REMARK  status: ('A' for Active; 'I' for Inactive)
ROOT
ATOM      1  O1  BZF d   1       0.501  -1.085  -1.127  0.00  0.00    -0.204 OA
ATOM      2  C2  BZF d   1      -0.775  -1.011  -0.603  0.00  0.00     0.174 A 
ATOM      3  C3  BZF d   1      -0.915   0.089   0.163  0.00  0.00    -0.012 A 
ATOM      4  C3A BZF d   1       0.325   0.792   0.042  0.00  0.00    -0.107 A 
ATOM      5  C4  BZF d   1       0.793   1.967   0.557  0.00  0.00     0.055 A 
ATOM      6  C5  BZF d   1       2.076   2.336   0.304  0.00  0.00    -0.016 A 
ATOM      7  C6  BZF d   1       2.920   1.552  -0.456  0.00  0.00     0.022 A 
ATOM      8  C7  BZF d   1       2.500   0.381  -0.994  0.00  0.00     0.029 A 
ATOM      9  C7A BZF d   1       1.193   0.022  -0.766  0.00  0.00     0.058 A 
ENDROOT
TORSDOF 0
ENDMDL
