MODEL 1
REMARK minimizedAffinity -3.72411609
REMARK minimizedRMSD -1
REMARK  0 active torsions:
REMARK  status: ('A' for Active; 'I' for Inactive)
ROOT
ATOM      1  O1  BZF d   1      -0.572   0.371   0.277  0.00  0.00    -0.204 OA
ATOM      2  C2  BZF d   1      -0.154  -0.131  -0.940  0.00  0.00     0.174 A 
ATOM      3  C3  BZF d   1      -0.143  -1.480  -0.923  0.00  0.00    -0.012 A 
ATOM      4  C3A BZF d   1      -0.669  -1.845   0.356  0.00  0.00    -0.107 A 
ATOM      5  C4  BZF d   1      -0.919  -3.043   0.962  0.00  0.00     0.055 A 
ATOM      6  C5  BZF d   1      -1.365  -3.054   2.245  0.00  0.00    -0.016 A 
ATOM      7  C6  BZF d   1      -1.566  -1.888   2.954  0.00  0.00     0.022 A 
ATOM      8  C7  BZF d   1      -1.336  -0.675   2.395  0.00  0.00     0.029 A 
ATOM      9  C7A BZF d   1      -0.917  -0.659   1.087  0.00  0.00     0.058 A 
ENDROOT
TORSDOF 0
ENDMDL
