MODEL 1
REMARK minimizedAffinity -4.25204992
REMARK minimizedRMSD -1
REMARK  0 active torsions:
REMARK  status: ('A' for Active; 'I' for Inactive)
ROOT
ATOM      1  O1  BZF d   1      -0.967  -0.433   1.409  0.00  0.00    -0.204 OA
ATOM      2  C2  BZF d   1      -0.678  -1.344   0.411  0.00  0.00     0.174 A 
ATOM      3  C3  BZF d   1       0.221  -0.835  -0.456  0.00  0.00    -0.012 A 
ATOM      4  C3A BZF d   1       0.581   0.442   0.082  0.00  0.00    -0.107 A 
ATOM      5  C4  BZF d   1       1.445   1.420  -0.320  0.00  0.00     0.055 A 
ATOM      6  C5  BZF d   1       1.509   2.577   0.389  0.00  0.00    -0.016 A 
ATOM      7  C6  BZF d   1       0.721   2.792   1.501  0.00  0.00     0.022 A 
ATOM      8  C7  BZF d   1      -0.147   1.849   1.941  0.00  0.00     0.029 A 
ATOM      9  C7A BZF d   1      -0.190   0.665   1.245  0.00  0.00     0.058 A 
ENDROOT
TORSDOF 0
ENDMDL
