MODEL 1
REMARK minimizedAffinity -3.06515241
REMARK minimizedRMSD -1
REMARK  0 active torsions:
REMARK  status: ('A' for Active; 'I' for Inactive)
ROOT
ATOM      1  O1  BZF d   1      -0.452   1.492   1.421  0.00  0.00    -0.204 OA
ATOM      2  C2  BZF d   1       0.344   2.618   1.504  0.00  0.00     0.174 A 
ATOM      3  C3  BZF d   1       1.524   2.416   0.884  0.00  0.00    -0.012 A 
ATOM      4  C3A BZF d   1       1.426   1.112   0.303  0.00  0.00    -0.107 A 
ATOM      5  C4  BZF d   1       2.274   0.355  -0.453  0.00  0.00     0.055 A 
ATOM      6  C5  BZF d   1       1.904  -0.906  -0.798  0.00  0.00    -0.016 A 
ATOM      7  C6  BZF d   1       0.697  -1.443  -0.400  0.00  0.00     0.022 A 
ATOM      8  C7  BZF d   1      -0.179  -0.728   0.346  0.00  0.00     0.029 A 
ATOM      9  C7A BZF d   1       0.178   0.558   0.669  0.00  0.00     0.058 A 
ENDROOT
TORSDOF 0
ENDMDL
