MODEL 1
REMARK minimizedAffinity -3.6779933
REMARK minimizedRMSD -1
REMARK  0 active torsions:
REMARK  status: ('A' for Active; 'I' for Inactive)
ROOT
ATOM      1  O1  BZF d   1      -0.598  -0.630   1.099  0.00  0.00    -0.204 OA
ATOM      2  C2  BZF d   1      -0.325  -1.370  -0.035  0.00  0.00     0.174 A 
ATOM      3  C3  BZF d   1       0.511  -0.700  -0.854  0.00  0.00    -0.012 A 
ATOM      4  C3A BZF d   1       0.852   0.496  -0.147  0.00  0.00    -0.107 A 
ATOM      5  C4  BZF d   1       1.660   1.559  -0.435  0.00  0.00     0.055 A 
ATOM      6  C5  BZF d   1       1.717   2.600   0.437  0.00  0.00    -0.016 A 
ATOM      7  C6  BZF d   1       0.977   2.614   1.601  0.00  0.00     0.022 A 
ATOM      8  C7  BZF d   1       0.165   1.580   1.931  0.00  0.00     0.029 A 
ATOM      9  C7A BZF d   1       0.130   0.512   1.069  0.00  0.00     0.058 A 
ENDROOT
TORSDOF 0
ENDMDL
