MODEL 1
REMARK minimizedAffinity -4.36506367
REMARK minimizedRMSD -1
REMARK  0 active torsions:
REMARK  status: ('A' for Active; 'I' for Inactive)
ROOT
ATOM      1  O1  BZF d   1       2.055  -0.354  -0.567  0.00  0.00    -0.204 OA
ATOM      2  C2  BZF d   1       1.167  -1.409  -0.643  0.00  0.00     0.174 A 
ATOM      3  C3  BZF d   1       0.045  -1.142   0.056  0.00  0.00    -0.012 A 
ATOM      4  C3A BZF d   1       0.205   0.199   0.527  0.00  0.00    -0.107 A 
ATOM      5  C4  BZF d   1      -0.581   1.035   1.267  0.00  0.00     0.055 A 
ATOM      6  C5  BZF d   1      -0.101   2.257   1.616  0.00  0.00    -0.016 A 
ATOM      7  C6  BZF d   1       1.161   2.674   1.247  0.00  0.00     0.022 A 
ATOM      8  C7  BZF d   1       1.976   1.882   0.508  0.00  0.00     0.029 A 
ATOM      9  C7A BZF d   1       1.481   0.659   0.126  0.00  0.00     0.058 A 
ENDROOT
TORSDOF 0
ENDMDL
