MODEL 1
REMARK minimizedAffinity -1.07804632
REMARK minimizedRMSD -1
REMARK  0 active torsions:
REMARK  status: ('A' for Active; 'I' for Inactive)
ROOT
ATOM      1  O1  BZF d   1      -0.023  -2.287  -0.623  0.00  0.00    -0.204 OA
ATOM      2  C2  BZF d   1      -0.962  -1.528  -1.294  0.00  0.00     0.174 A 
ATOM      3  C3  BZF d   1      -1.811  -2.317  -1.984  0.00  0.00    -0.012 A 
ATOM      4  C3A BZF d   1      -1.432  -3.656  -1.654  0.00  0.00    -0.107 A 
ATOM      5  C4  BZF d   1      -1.911  -4.883  -2.014  0.00  0.00     0.055 A 
ATOM      6  C5  BZF d   1      -1.270  -5.998  -1.574  0.00  0.00    -0.016 A 
ATOM      7  C6  BZF d   1      -0.146  -5.922  -0.778  0.00  0.00     0.022 A 
ATOM      8  C7  BZF d   1       0.364  -4.728  -0.390  0.00  0.00     0.029 A 
ATOM      9  C7A BZF d   1      -0.301  -3.600  -0.806  0.00  0.00     0.058 A 
ENDROOT
TORSDOF 0
ENDMDL
