MODEL 1
REMARK minimizedAffinity -4.69301176
REMARK minimizedRMSD -1
REMARK  0 active torsions:
REMARK  status: ('A' for Active; 'I' for Inactive)
ROOT
ATOM      1  O1  BZF d   1       0.275  -1.543  -0.088  0.00  0.00    -0.204 OA
ATOM      2  C2  BZF d   1      -0.680  -2.057   0.768  0.00  0.00     0.174 A 
ATOM      3  C3  BZF d   1      -1.072  -1.126   1.661  0.00  0.00    -0.012 A 
ATOM      4  C3A BZF d   1      -0.382   0.070   1.286  0.00  0.00    -0.107 A 
ATOM      5  C4  BZF d   1      -0.369   1.342   1.783  0.00  0.00     0.055 A 
ATOM      6  C5  BZF d   1       0.470   2.258   1.232  0.00  0.00    -0.016 A 
ATOM      7  C6  BZF d   1       1.313   1.935   0.188  0.00  0.00     0.022 A 
ATOM      8  C7  BZF d   1       1.332   0.688  -0.342  0.00  0.00     0.029 A 
ATOM      9  C7A BZF d   1       0.461  -0.231   0.191  0.00  0.00     0.058 A 
ENDROOT
TORSDOF 0
ENDMDL
