MODEL 1
REMARK minimizedAffinity -4.73887014
REMARK minimizedRMSD -1
REMARK  0 active torsions:
REMARK  status: ('A' for Active; 'I' for Inactive)
ROOT
ATOM      1  O1  BZF d   1      -0.458  -0.277   1.715  0.00  0.00    -0.204 OA
ATOM      2  C2  BZF d   1      -0.630  -1.122   0.635  0.00  0.00     0.174 A 
ATOM      3  C3  BZF d   1       0.001  -0.639  -0.455  0.00  0.00    -0.012 A 
ATOM      4  C3A BZF d   1       0.681   0.537  -0.006  0.00  0.00    -0.107 A 
ATOM      5  C4  BZF d   1       1.491   1.446  -0.624  0.00  0.00     0.055 A 
ATOM      6  C5  BZF d   1       1.934   2.522   0.080  0.00  0.00    -0.016 A 
ATOM      7  C6  BZF d   1       1.582   2.722   1.398  0.00  0.00     0.022 A 
ATOM      8  C7  BZF d   1       0.785   1.844   2.055  0.00  0.00     0.029 A 
ATOM      9  C7A BZF d   1       0.363   0.739   1.357  0.00  0.00     0.058 A 
ENDROOT
TORSDOF 0
ENDMDL
