MODEL 1
REMARK minimizedAffinity -3.40247178
REMARK minimizedRMSD -1
REMARK  0 active torsions:
REMARK  status: ('A' for Active; 'I' for Inactive)
ROOT
ATOM      1  O1  BZF d   1       2.094   1.863   0.001  0.00  0.00    -0.204 OA
ATOM      2  C2  BZF d   1       1.119   2.564   0.684  0.00  0.00     0.174 A 
ATOM      3  C3  BZF d   1      -0.013   1.837   0.781  0.00  0.00    -0.012 A 
ATOM      4  C3A BZF d   1       0.303   0.569   0.198  0.00  0.00    -0.107 A 
ATOM      5  C4  BZF d   1      -0.408  -0.582   0.013  0.00  0.00     0.055 A 
ATOM      6  C5  BZF d   1       0.170  -1.614  -0.656  0.00  0.00    -0.016 A 
ATOM      7  C6  BZF d   1       1.452  -1.528  -1.157  0.00  0.00     0.022 A 
ATOM      8  C7  BZF d   1       2.198  -0.408  -0.994  0.00  0.00     0.029 A 
ATOM      9  C7A BZF d   1       1.629   0.625  -0.289  0.00  0.00     0.058 A 
ENDROOT
TORSDOF 0
ENDMDL
