MODEL 1
REMARK minimizedAffinity -2.20727229
REMARK minimizedRMSD -1
REMARK  0 active torsions:
REMARK  status: ('A' for Active; 'I' for Inactive)
ROOT
ATOM      1  O1  BZF d   1      -3.016  -2.777  -2.686  0.00  0.00    -0.204 OA
ATOM      2  C2  BZF d   1      -2.632  -1.926  -3.705  0.00  0.00     0.174 A 
ATOM      3  C3  BZF d   1      -1.585  -1.166  -3.324  0.00  0.00    -0.012 A 
ATOM      4  C3A BZF d   1      -1.238  -1.631  -2.016  0.00  0.00    -0.107 A 
ATOM      5  C4  BZF d   1      -0.269  -1.278  -1.121  0.00  0.00     0.055 A 
ATOM      6  C5  BZF d   1      -0.247  -1.877   0.099  0.00  0.00    -0.016 A 
ATOM      7  C6  BZF d   1      -1.181  -2.828   0.458  0.00  0.00     0.022 A 
ATOM      8  C7  BZF d   1      -2.158  -3.214  -0.399  0.00  0.00     0.029 A 
ATOM      9  C7A BZF d   1      -2.162  -2.634  -1.644  0.00  0.00     0.058 A 
ENDROOT
TORSDOF 0
ENDMDL
