MODEL 1
REMARK minimizedAffinity -3.17318749
REMARK minimizedRMSD -1
REMARK  0 active torsions:
REMARK  status: ('A' for Active; 'I' for Inactive)
ROOT
ATOM      1  O1  BZF d   1      -0.337  -1.159   0.451  0.00  0.00    -0.204 OA
ATOM      2  C2  BZF d   1       0.315  -1.779  -0.597  0.00  0.00     0.174 A 
ATOM      3  C3  BZF d   1       1.149  -0.920  -1.217  0.00  0.00    -0.012 A 
ATOM      4  C3A BZF d   1       1.079   0.289  -0.455  0.00  0.00    -0.107 A 
ATOM      5  C4  BZF d   1       1.692   1.504  -0.563  0.00  0.00     0.055 A 
ATOM      6  C5  BZF d   1       1.349   2.497   0.299  0.00  0.00    -0.016 A 
ATOM      7  C6  BZF d   1       0.393   2.311   1.276  0.00  0.00     0.022 A 
ATOM      8  C7  BZF d   1      -0.240   1.122   1.425  0.00  0.00     0.029 A 
ATOM      9  C7A BZF d   1       0.129   0.106   0.577  0.00  0.00     0.058 A 
ENDROOT
TORSDOF 0
ENDMDL
