MODEL 1
REMARK minimizedAffinity -0.739172041
REMARK minimizedRMSD -1
REMARK  0 active torsions:
REMARK  status: ('A' for Active; 'I' for Inactive)
ROOT
ATOM      1  O1  BZF d   1      -1.173  -1.563  -1.958  0.00  0.00    -0.204 OA
ATOM      2  C2  BZF d   1      -1.478  -0.874  -3.116  0.00  0.00     0.174 A 
ATOM      3  C3  BZF d   1      -2.752  -1.107  -3.490  0.00  0.00    -0.012 A 
ATOM      4  C3A BZF d   1      -3.305  -1.925  -2.454  0.00  0.00    -0.107 A 
ATOM      5  C4  BZF d   1      -4.538  -2.473  -2.248  0.00  0.00     0.055 A 
ATOM      6  C5  BZF d   1      -4.731  -3.281  -1.172  0.00  0.00    -0.016 A 
ATOM      7  C6  BZF d   1      -3.712  -3.567  -0.287  0.00  0.00     0.022 A 
ATOM      8  C7  BZF d   1      -2.472  -3.043  -0.448  0.00  0.00     0.029 A 
ATOM      9  C7A BZF d   1      -2.284  -2.199  -1.515  0.00  0.00     0.058 A 
ENDROOT
TORSDOF 0
ENDMDL
