MODEL 1
REMARK minimizedAffinity -3.09709263
REMARK minimizedRMSD -1
REMARK  0 active torsions:
REMARK  status: ('A' for Active; 'I' for Inactive)
ROOT
ATOM      1  O1  BZF d   1      -0.486  -1.122   1.302  0.00  0.00    -0.204 OA
ATOM      2  C2  BZF d   1      -0.168  -1.704   0.091  0.00  0.00     0.174 A 
ATOM      3  C3  BZF d   1       0.265  -0.776  -0.787  0.00  0.00    -0.012 A 
ATOM      4  C3A BZF d   1       0.301   0.450  -0.051  0.00  0.00    -0.107 A 
ATOM      5  C4  BZF d   1       0.662   1.728  -0.371  0.00  0.00     0.055 A 
ATOM      6  C5  BZF d   1       0.512   2.709   0.556  0.00  0.00    -0.016 A 
ATOM      7  C6  BZF d   1      -0.000   2.450   1.811  0.00  0.00     0.022 A 
ATOM      8  C7  BZF d   1      -0.367   1.198   2.177  0.00  0.00     0.029 A 
ATOM      9  C7A BZF d   1      -0.186   0.198   1.253  0.00  0.00     0.058 A 
ENDROOT
TORSDOF 0
ENDMDL
