MODEL 1
REMARK minimizedAffinity -0.167185724
REMARK minimizedRMSD -1
REMARK  0 active torsions:
REMARK  status: ('A' for Active; 'I' for Inactive)
ROOT
ATOM      1  O1  BZF d   1       0.490  -1.407  -1.255  0.00  0.00    -0.204 OA
ATOM      2  C2  BZF d   1      -0.840  -1.121  -1.016  0.00  0.00     0.174 A 
ATOM      3  C3  BZF d   1      -0.982   0.137  -0.551  0.00  0.00    -0.012 A 
ATOM      4  C3A BZF d   1       0.332   0.701  -0.582  0.00  0.00    -0.107 A 
ATOM      5  C4  BZF d   1       0.836   1.928  -0.256  0.00  0.00     0.055 A 
ATOM      6  C5  BZF d   1       2.177   2.133  -0.333  0.00  0.00    -0.016 A 
ATOM      7  C6  BZF d   1       3.043   1.134  -0.726  0.00  0.00     0.022 A 
ATOM      8  C7  BZF d   1       2.590  -0.098  -1.064  0.00  0.00     0.029 A 
ATOM      9  C7A BZF d   1       1.232  -0.298  -1.019  0.00  0.00     0.058 A 
ENDROOT
TORSDOF 0
ENDMDL
