MODEL 1
REMARK minimizedAffinity -5.92233419
REMARK minimizedRMSD -1
REMARK  0 active torsions:
REMARK  status: ('A' for Active; 'I' for Inactive)
ROOT
ATOM      1  O1  BZF d   1       1.113  -0.826  -0.718  0.00  0.00    -0.204 OA
ATOM      2  C2  BZF d   1      -0.194  -1.064  -0.340  0.00  0.00     0.174 A 
ATOM      3  C3  BZF d   1      -0.630  -0.106   0.503  0.00  0.00    -0.012 A 
ATOM      4  C3A BZF d   1       0.442   0.837   0.589  0.00  0.00    -0.107 A 
ATOM      5  C4  BZF d   1       0.605   2.015   1.260  0.00  0.00     0.055 A 
ATOM      6  C5  BZF d   1       1.802   2.655   1.189  0.00  0.00    -0.016 A 
ATOM      7  C6  BZF d   1       2.857   2.144   0.462  0.00  0.00     0.022 A 
ATOM      8  C7  BZF d   1       2.742   0.981  -0.224  0.00  0.00     0.029 A 
ATOM      9  C7A BZF d   1       1.523   0.349  -0.181  0.00  0.00     0.058 A 
ENDROOT
TORSDOF 0
ENDMDL
