MODEL 1
REMARK minimizedAffinity -4.1916647
REMARK minimizedRMSD -1
REMARK  0 active torsions:
REMARK  status: ('A' for Active; 'I' for Inactive)
ROOT
ATOM      1  O1  BZF d   1      -0.467  -3.760   3.008  0.00  0.00    -0.204 OA
ATOM      2  C2  BZF d   1      -1.050  -2.547   3.322  0.00  0.00     0.174 A 
ATOM      3  C3  BZF d   1      -1.912  -2.167   2.357  0.00  0.00    -0.012 A 
ATOM      4  C3A BZF d   1      -1.935  -3.252   1.424  0.00  0.00    -0.107 A 
ATOM      5  C4  BZF d   1      -2.614  -3.476   0.260  0.00  0.00     0.055 A 
ATOM      6  C5  BZF d   1      -2.354  -4.605  -0.449  0.00  0.00    -0.016 A 
ATOM      7  C6  BZF d   1      -1.420  -5.529  -0.028  0.00  0.00     0.022 A 
ATOM      8  C7  BZF d   1      -0.725  -5.353   1.122  0.00  0.00     0.029 A 
ATOM      9  C7A BZF d   1      -1.009  -4.228   1.858  0.00  0.00     0.058 A 
ENDROOT
TORSDOF 0
ENDMDL
