MODEL 1
REMARK minimizedAffinity 11.7851439
REMARK minimizedRMSD -1
REMARK  0 active torsions:
REMARK  status: ('A' for Active; 'I' for Inactive)
ROOT
ATOM      1  C2' OXE d   1       1.683   1.549  -1.426  0.00  0.00     0.078 C 
ATOM      2  C1' OXE d   1       3.816  -0.266  -1.239  0.00  0.00     0.078 C 
ATOM      3  C1  OXE d   1       2.833  -0.215  -0.096  0.00  0.00    -0.078 A 
ATOM      4  C2  OXE d   1       1.819   0.709  -0.175  0.00  0.00    -0.078 A 
ATOM      5  C3  OXE d   1       0.854   0.760   0.827  0.00  0.00     0.003 A 
ATOM      6  C4  OXE d   1       0.993  -0.014   1.985  0.00  0.00    -0.002 A 
ATOM      7  C5  OXE d   1       2.041  -0.933   2.104  0.00  0.00    -0.002 A 
ATOM      8  C6  OXE d   1       2.943  -1.076   1.056  0.00  0.00     0.003 A 
ENDROOT
TORSDOF 0
ENDMDL
