MODEL 1
REMARK minimizedAffinity 7.48561811
REMARK minimizedRMSD -1
REMARK  0 active torsions:
REMARK  status: ('A' for Active; 'I' for Inactive)
ROOT
ATOM      1  C2' OXE d   1       1.012  -0.662   1.415  0.00  0.00     0.078 C 
ATOM      2  C1' OXE d   1       3.486  -0.984   2.701  0.00  0.00     0.078 C 
ATOM      3  C1  OXE d   1       3.487  -0.845   1.200  0.00  0.00    -0.078 A 
ATOM      4  C2  OXE d   1       2.269  -0.735   0.574  0.00  0.00    -0.078 A 
ATOM      5  C3  OXE d   1       2.216  -0.549  -0.804  0.00  0.00     0.003 A 
ATOM      6  C4  OXE d   1       3.382  -0.627  -1.576  0.00  0.00    -0.002 A 
ATOM      7  C5  OXE d   1       4.630  -0.779  -0.962  0.00  0.00    -0.002 A 
ATOM      8  C6  OXE d   1       4.704  -0.847   0.425  0.00  0.00     0.003 A 
ENDROOT
TORSDOF 0
ENDMDL
