MODEL 1
REMARK minimizedAffinity 12.0652122
REMARK minimizedRMSD -1
REMARK  0 active torsions:
REMARK  status: ('A' for Active; 'I' for Inactive)
ROOT
ATOM      1  C2' OXE d   1       0.964  -2.246   4.100  0.00  0.00     0.078 C 
ATOM      2  C1' OXE d   1       1.192  -1.802   1.337  0.00  0.00     0.078 C 
ATOM      3  C1  OXE d   1       0.778  -0.640   2.205  0.00  0.00    -0.078 A 
ATOM      4  C2  OXE d   1       0.623  -0.878   3.549  0.00  0.00    -0.078 A 
ATOM      5  C3  OXE d   1       0.296   0.172   4.402  0.00  0.00     0.003 A 
ATOM      6  C4  OXE d   1      -0.027   1.432   3.883  0.00  0.00    -0.002 A 
ATOM      7  C5  OXE d   1       0.085   1.686   2.512  0.00  0.00    -0.002 A 
ATOM      8  C6  OXE d   1       0.526   0.674   1.666  0.00  0.00     0.003 A 
ENDROOT
TORSDOF 0
ENDMDL
