MODEL 1
REMARK minimizedAffinity 5.40190792
REMARK minimizedRMSD -1
REMARK  0 active torsions:
REMARK  status: ('A' for Active; 'I' for Inactive)
ROOT
ATOM      1  C2' OXE d   1       1.794  -0.676   0.958  0.00  0.00     0.078 C 
ATOM      2  C1' OXE d   1       2.965   1.390   2.455  0.00  0.00     0.078 C 
ATOM      3  C1  OXE d   1       1.478   1.177   2.592  0.00  0.00    -0.078 A 
ATOM      4  C2  OXE d   1       0.906   0.194   1.820  0.00  0.00    -0.078 A 
ATOM      5  C3  OXE d   1      -0.452  -0.080   1.949  0.00  0.00     0.003 A 
ATOM      6  C4  OXE d   1      -1.268   0.736   2.741  0.00  0.00    -0.002 A 
ATOM      7  C5  OXE d   1      -0.712   1.768   3.505  0.00  0.00    -0.002 A 
ATOM      8  C6  OXE d   1       0.662   1.974   3.474  0.00  0.00     0.003 A 
ENDROOT
TORSDOF 0
ENDMDL
