MODEL 1
REMARK minimizedAffinity 3.91176414
REMARK minimizedRMSD -1
REMARK  0 active torsions:
REMARK  status: ('A' for Active; 'I' for Inactive)
ROOT
ATOM      1  C2' OXE d   1      -0.446  -0.465  -4.280  0.00  0.00     0.078 C 
ATOM      2  C1' OXE d   1       0.968  -2.193  -5.981  0.00  0.00     0.078 C 
ATOM      3  C1  OXE d   1       0.275  -2.795  -4.784  0.00  0.00    -0.078 A 
ATOM      4  C2  OXE d   1      -0.375  -1.936  -3.932  0.00  0.00    -0.078 A 
ATOM      5  C3  OXE d   1      -1.077  -2.445  -2.842  0.00  0.00     0.003 A 
ATOM      6  C4  OXE d   1      -0.998  -3.806  -2.522  0.00  0.00    -0.002 A 
ATOM      7  C5  OXE d   1      -0.307  -4.693  -3.355  0.00  0.00    -0.002 A 
ATOM      8  C6  OXE d   1       0.297  -4.211  -4.511  0.00  0.00     0.003 A 
ENDROOT
TORSDOF 0
ENDMDL
