MODEL 1
REMARK minimizedAffinity 10.4011059
REMARK minimizedRMSD -1
REMARK  0 active torsions:
REMARK  status: ('A' for Active; 'I' for Inactive)
ROOT
ATOM      1  C2' OXE d   1      -4.013  -1.411  -4.257  0.00  0.00     0.078 C 
ATOM      2  C1' OXE d   1      -4.876  -3.435  -5.999  0.00  0.00     0.078 C 
ATOM      3  C1  OXE d   1      -3.686  -3.724  -5.119  0.00  0.00    -0.078 A 
ATOM      4  C2  OXE d   1      -3.241  -2.712  -4.304  0.00  0.00    -0.078 A 
ATOM      5  C3  OXE d   1      -2.181  -2.944  -3.432  0.00  0.00     0.003 A 
ATOM      6  C4  OXE d   1      -1.466  -4.147  -3.490  0.00  0.00    -0.002 A 
ATOM      7  C5  OXE d   1      -1.878  -5.177  -4.342  0.00  0.00    -0.002 A 
ATOM      8  C6  OXE d   1      -3.009  -4.998  -5.131  0.00  0.00     0.003 A 
ENDROOT
TORSDOF 0
ENDMDL
