MODEL 1
REMARK minimizedAffinity -2.35840893
REMARK minimizedRMSD -1
REMARK  0 active torsions:
REMARK  status: ('A' for Active; 'I' for Inactive)
ROOT
ATOM      1  C   UNL d   1       0.768   0.028   0.725  0.00  0.00     0.078 C 
ATOM      2  C1  UNL d   1       0.679  -0.317  -0.731  0.00  0.00    -0.077 A 
ATOM      3  C2  UNL d   1       1.442  -1.358  -1.274  0.00  0.00    -0.001 A 
ATOM      4  C3  UNL d   1       1.356  -1.662  -2.633  0.00  0.00     0.003 A 
ATOM      5  C4  UNL d   1       0.510  -0.928  -3.462  0.00  0.00    -0.005 A 
ATOM      6  C5  UNL d   1      -0.251   0.112  -2.932  0.00  0.00     0.003 A 
ATOM      7  C6  UNL d   1      -0.166   0.417  -1.573  0.00  0.00    -0.001 A 
ENDROOT
TORSDOF 0
ENDMDL
