MODEL 1
REMARK minimizedAffinity -3.30337286
REMARK minimizedRMSD -1
REMARK  0 active torsions:
REMARK  status: ('A' for Active; 'I' for Inactive)
ROOT
ATOM      1  C   UNL d   1       0.292  -0.265  -1.793  0.00  0.00     0.078 C 
ATOM      2  C1  UNL d   1      -0.041   0.005  -0.356  0.00  0.00    -0.077 A 
ATOM      3  C2  UNL d   1       0.942  -0.066   0.638  0.00  0.00    -0.001 A 
ATOM      4  C3  UNL d   1       0.615   0.178   1.973  0.00  0.00     0.003 A 
ATOM      5  C4  UNL d   1      -0.695   0.493   2.326  0.00  0.00    -0.005 A 
ATOM      6  C5  UNL d   1      -1.681   0.563   1.344  0.00  0.00     0.003 A 
ATOM      7  C6  UNL d   1      -1.356   0.320   0.009  0.00  0.00    -0.001 A 
ENDROOT
TORSDOF 0
ENDMDL
