MODEL 1
REMARK minimizedAffinity -3.24218988
REMARK minimizedRMSD -1
REMARK  0 active torsions:
REMARK  status: ('A' for Active; 'I' for Inactive)
ROOT
ATOM      1  C   UNL d   1       0.369  -0.072   0.859  0.00  0.00     0.078 C 
ATOM      2  C1  UNL d   1       0.504  -0.164  -0.632  0.00  0.00    -0.077 A 
ATOM      3  C2  UNL d   1       0.294   0.956  -1.446  0.00  0.00    -0.001 A 
ATOM      4  C3  UNL d   1       0.414   0.854  -2.832  0.00  0.00     0.003 A 
ATOM      5  C4  UNL d   1       0.743  -0.367  -3.418  0.00  0.00    -0.005 A 
ATOM      6  C5  UNL d   1       0.952  -1.488  -2.617  0.00  0.00     0.003 A 
ATOM      7  C6  UNL d   1       0.833  -1.387  -1.230  0.00  0.00    -0.001 A 
ENDROOT
TORSDOF 0
ENDMDL
