MODEL 1
REMARK minimizedAffinity -4.10826349
REMARK minimizedRMSD -1
REMARK  0 active torsions:
REMARK  status: ('A' for Active; 'I' for Inactive)
ROOT
ATOM      1  C   UNL d   1      -1.611   0.519   3.155  0.00  0.00     0.078 C 
ATOM      2  C1  UNL d   1      -0.913   0.376   1.835  0.00  0.00    -0.077 A 
ATOM      3  C2  UNL d   1       0.479   0.242   1.766  0.00  0.00    -0.001 A 
ATOM      4  C3  UNL d   1       1.115   0.119   0.530  0.00  0.00     0.003 A 
ATOM      5  C4  UNL d   1       0.368   0.130  -0.646  0.00  0.00    -0.005 A 
ATOM      6  C5  UNL d   1      -1.017   0.265  -0.587  0.00  0.00     0.003 A 
ATOM      7  C6  UNL d   1      -1.656   0.388   0.648  0.00  0.00    -0.001 A 
ENDROOT
TORSDOF 0
ENDMDL
