MODEL 1
REMARK minimizedAffinity -1.86224985
REMARK minimizedRMSD -1
REMARK  0 active torsions:
REMARK  status: ('A' for Active; 'I' for Inactive)
ROOT
ATOM      1  C   UNL d   1      -0.340   0.215   0.815  0.00  0.00     0.078 C 
ATOM      2  C1  UNL d   1      -0.045  -0.096  -0.622  0.00  0.00    -0.077 A 
ATOM      3  C2  UNL d   1      -0.027   0.916  -1.589  0.00  0.00    -0.001 A 
ATOM      4  C3  UNL d   1       0.240   0.611  -2.925  0.00  0.00     0.003 A 
ATOM      5  C4  UNL d   1       0.490  -0.706  -3.305  0.00  0.00    -0.005 A 
ATOM      6  C5  UNL d   1       0.473  -1.720  -2.350  0.00  0.00     0.003 A 
ATOM      7  C6  UNL d   1       0.206  -1.417  -1.014  0.00  0.00    -0.001 A 
ENDROOT
TORSDOF 0
ENDMDL
