MODEL 1
REMARK minimizedAffinity -0.325323403
REMARK minimizedRMSD -1
REMARK  0 active torsions:
REMARK  status: ('A' for Active; 'I' for Inactive)
ROOT
ATOM      1  C   UNL d   1       0.510  -0.336  -1.654  0.00  0.00     0.078 C 
ATOM      2  C1  UNL d   1       0.535  -0.058  -0.181  0.00  0.00    -0.077 A 
ATOM      3  C2  UNL d   1      -0.606   0.406   0.486  0.00  0.00    -0.001 A 
ATOM      4  C3  UNL d   1      -0.565   0.669   1.856  0.00  0.00     0.003 A 
ATOM      5  C4  UNL d   1       0.614   0.473   2.571  0.00  0.00    -0.005 A 
ATOM      6  C5  UNL d   1       1.755   0.014   1.917  0.00  0.00     0.003 A 
ATOM      7  C6  UNL d   1       1.717  -0.250   0.547  0.00  0.00    -0.001 A 
ENDROOT
TORSDOF 0
ENDMDL
