MODEL 1
REMARK minimizedAffinity -3.56661963
REMARK minimizedRMSD -1
REMARK  0 active torsions:
REMARK  status: ('A' for Active; 'I' for Inactive)
ROOT
ATOM      1  C   UNL d   1       0.618  -0.866  -3.664  0.00  0.00     0.078 C 
ATOM      2  C1  UNL d   1       0.796  -0.744  -2.180  0.00  0.00    -0.077 A 
ATOM      3  C2  UNL d   1       1.779  -1.483  -1.509  0.00  0.00    -0.001 A 
ATOM      4  C3  UNL d   1       1.927  -1.367  -0.126  0.00  0.00     0.003 A 
ATOM      5  C4  UNL d   1       1.096  -0.514   0.598  0.00  0.00    -0.005 A 
ATOM      6  C5  UNL d   1       0.114   0.223  -0.061  0.00  0.00     0.003 A 
ATOM      7  C6  UNL d   1      -0.036   0.109  -1.444  0.00  0.00    -0.001 A 
ENDROOT
TORSDOF 0
ENDMDL
