MODEL 1
REMARK minimizedAffinity -4.36047697
REMARK minimizedRMSD -1
REMARK  0 active torsions:
REMARK  status: ('A' for Active; 'I' for Inactive)
ROOT
ATOM      1  C   UNL d   1       0.483  -1.875  -3.825  0.00  0.00     0.078 C 
ATOM      2  C1  UNL d   1       0.178  -1.109  -2.572  0.00  0.00    -0.077 A 
ATOM      3  C2  UNL d   1       0.421  -1.664  -1.310  0.00  0.00    -0.001 A 
ATOM      4  C3  UNL d   1       0.123  -0.943  -0.153  0.00  0.00     0.003 A 
ATOM      5  C4  UNL d   1      -0.419   0.337  -0.246  0.00  0.00    -0.005 A 
ATOM      6  C5  UNL d   1      -0.666   0.897  -1.498  0.00  0.00     0.003 A 
ATOM      7  C6  UNL d   1      -0.369   0.177  -2.656  0.00  0.00    -0.001 A 
ENDROOT
TORSDOF 0
ENDMDL
