MODEL 1
REMARK minimizedAffinity -4.03180599
REMARK minimizedRMSD -1
REMARK  0 active torsions:
REMARK  status: ('A' for Active; 'I' for Inactive)
ROOT
ATOM      1  C   UNL d   1      -3.249   0.777   1.381  0.00  0.00     0.078 C 
ATOM      2  C1  UNL d   1      -1.758   0.622   1.351  0.00  0.00    -0.077 A 
ATOM      3  C2  UNL d   1      -1.015   0.563   2.536  0.00  0.00    -0.001 A 
ATOM      4  C3  UNL d   1       0.374   0.428   2.493  0.00  0.00     0.003 A 
ATOM      5  C4  UNL d   1       1.031   0.353   1.267  0.00  0.00    -0.005 A 
ATOM      6  C5  UNL d   1       0.301   0.413   0.082  0.00  0.00     0.003 A 
ATOM      7  C6  UNL d   1      -1.088   0.548   0.123  0.00  0.00    -0.001 A 
ENDROOT
TORSDOF 0
ENDMDL
