MODEL 1
REMARK minimizedAffinity -0.697036028
REMARK minimizedRMSD -1
REMARK  0 active torsions:
REMARK  status: ('A' for Active; 'I' for Inactive)
ROOT
ATOM      1  C   UNL d   1       0.385   0.081  -0.988  0.00  0.00     0.078 C 
ATOM      2  C1  UNL d   1       0.007   0.206   0.458  0.00  0.00    -0.077 A 
ATOM      3  C2  UNL d   1       0.962   0.045   1.469  0.00  0.00    -0.001 A 
ATOM      4  C3  UNL d   1       0.594   0.155   2.811  0.00  0.00     0.003 A 
ATOM      5  C4  UNL d   1      -0.729   0.424   3.154  0.00  0.00    -0.005 A 
ATOM      6  C5  UNL d   1      -1.687   0.583   2.155  0.00  0.00     0.003 A 
ATOM      7  C6  UNL d   1      -1.321   0.474   0.812  0.00  0.00    -0.001 A 
ENDROOT
TORSDOF 0
ENDMDL
