MODEL 1
REMARK minimizedAffinity -1.7271719
REMARK minimizedRMSD -1
REMARK  0 active torsions:
REMARK  status: ('A' for Active; 'I' for Inactive)
ROOT
ATOM      1  C   UNL d   1       1.105  -0.366  -3.058  0.00  0.00     0.078 C 
ATOM      2  C1  UNL d   1       0.778  -0.279  -1.597  0.00  0.00    -0.077 A 
ATOM      3  C2  UNL d   1      -0.410   0.318  -1.157  0.00  0.00    -0.001 A 
ATOM      4  C3  UNL d   1      -0.696   0.400   0.206  0.00  0.00     0.003 A 
ATOM      5  C4  UNL d   1       0.201  -0.112   1.142  0.00  0.00    -0.005 A 
ATOM      6  C5  UNL d   1       1.386  -0.706   0.714  0.00  0.00     0.003 A 
ATOM      7  C6  UNL d   1       1.674  -0.789  -0.649  0.00  0.00    -0.001 A 
ENDROOT
TORSDOF 0
ENDMDL
