MODEL 1
REMARK minimizedAffinity -1.69310892
REMARK minimizedRMSD -1
REMARK  0 active torsions:
REMARK  status: ('A' for Active; 'I' for Inactive)
ROOT
ATOM      1  C   UNL d   1       0.449  -0.712  -1.951  0.00  0.00     0.078 C 
ATOM      2  C1  UNL d   1       0.572  -0.370  -0.496  0.00  0.00    -0.077 A 
ATOM      3  C2  UNL d   1      -0.028   0.782   0.027  0.00  0.00    -0.001 A 
ATOM      4  C3  UNL d   1       0.103   1.094   1.381  0.00  0.00     0.003 A 
ATOM      5  C4  UNL d   1       0.835   0.259   2.224  0.00  0.00    -0.005 A 
ATOM      6  C5  UNL d   1       1.438  -0.888   1.712  0.00  0.00     0.003 A 
ATOM      7  C6  UNL d   1       1.308  -1.201   0.358  0.00  0.00    -0.001 A 
ENDROOT
TORSDOF 0
ENDMDL
