MODEL 1
REMARK minimizedAffinity -3.14285231
REMARK minimizedRMSD -1
REMARK  0 active torsions:
REMARK  status: ('A' for Active; 'I' for Inactive)
ROOT
ATOM      1  C   UNL d   1       0.107   0.381  -0.760  0.00  0.00     0.078 C 
ATOM      2  C1  UNL d   1       0.472  -0.364  -2.009  0.00  0.00    -0.077 A 
ATOM      3  C2  UNL d   1      -0.009  -1.658  -2.243  0.00  0.00    -0.001 A 
ATOM      4  C3  UNL d   1       0.347  -2.344  -3.406  0.00  0.00     0.003 A 
ATOM      5  C4  UNL d   1       1.186  -1.744  -4.343  0.00  0.00    -0.005 A 
ATOM      6  C5  UNL d   1       1.671  -0.458  -4.118  0.00  0.00     0.003 A 
ATOM      7  C6  UNL d   1       1.316   0.230  -2.956  0.00  0.00    -0.001 A 
ENDROOT
TORSDOF 0
ENDMDL
