MODEL 1
REMARK minimizedAffinity -2.67501092
REMARK minimizedRMSD -1
REMARK  0 active torsions:
REMARK  status: ('A' for Active; 'I' for Inactive)
ROOT
ATOM      1  C   UNL d   1       0.494  -0.026  -1.417  0.00  0.00     0.078 C 
ATOM      2  C1  UNL d   1       0.289   0.097   0.064  0.00  0.00    -0.077 A 
ATOM      3  C2  UNL d   1       1.307  -0.241   0.963  0.00  0.00    -0.001 A 
ATOM      4  C3  UNL d   1       1.099  -0.130   2.339  0.00  0.00     0.003 A 
ATOM      5  C4  UNL d   1      -0.127   0.318   2.827  0.00  0.00    -0.005 A 
ATOM      6  C5  UNL d   1      -1.147   0.654   1.940  0.00  0.00     0.003 A 
ATOM      7  C6  UNL d   1      -0.941   0.544   0.564  0.00  0.00    -0.001 A 
ENDROOT
TORSDOF 0
ENDMDL
