MODEL 1
REMARK minimizedAffinity -4.44887257
REMARK minimizedRMSD -1
REMARK  0 active torsions:
REMARK  status: ('A' for Active; 'I' for Inactive)
ROOT
ATOM      1  C   UNL d   1      -3.264   0.813   2.370  0.00  0.00     0.078 C 
ATOM      2  C1  UNL d   1      -1.877   0.508   1.889  0.00  0.00    -0.077 A 
ATOM      3  C2  UNL d   1      -0.797   0.469   2.779  0.00  0.00    -0.001 A 
ATOM      4  C3  UNL d   1       0.490   0.193   2.316  0.00  0.00     0.003 A 
ATOM      5  C4  UNL d   1       0.711  -0.044   0.961  0.00  0.00    -0.005 A 
ATOM      6  C5  UNL d   1      -0.357  -0.004   0.067  0.00  0.00     0.003 A 
ATOM      7  C6  UNL d   1      -1.645   0.271   0.528  0.00  0.00    -0.001 A 
ENDROOT
TORSDOF 0
ENDMDL
