MODEL 1
REMARK minimizedAffinity -4.56918621
REMARK minimizedRMSD -1
REMARK  0 active torsions:
REMARK  status: ('A' for Active; 'I' for Inactive)
ROOT
ATOM      1  C   UNL d   1       1.087  -0.709   0.894  0.00  0.00     0.078 C 
ATOM      2  C1  UNL d   1       0.878  -0.423  -0.563  0.00  0.00    -0.077 A 
ATOM      3  C2  UNL d   1      -0.158   0.416  -0.992  0.00  0.00    -0.001 A 
ATOM      4  C3  UNL d   1      -0.347   0.665  -2.352  0.00  0.00     0.003 A 
ATOM      5  C4  UNL d   1       0.494   0.078  -3.295  0.00  0.00    -0.005 A 
ATOM      6  C5  UNL d   1       1.526  -0.760  -2.878  0.00  0.00     0.003 A 
ATOM      7  C6  UNL d   1       1.717  -1.011  -1.519  0.00  0.00    -0.001 A 
ENDROOT
TORSDOF 0
ENDMDL
