MODEL 1
REMARK minimizedAffinity -0.727636099
REMARK minimizedRMSD -1
REMARK  0 active torsions:
REMARK  status: ('A' for Active; 'I' for Inactive)
ROOT
ATOM      1  N1  IND d   1      -0.948  -1.133  -0.068  0.00  0.00    -0.196 N 
ATOM      2  C2  IND d   1      -1.507   0.004   0.445  0.00  0.00     0.054 A 
ATOM      3  C3  IND d   1      -0.595   1.001   0.481  0.00  0.00    -0.031 A 
ATOM      4  C4  IND d   1       1.844   1.018  -0.343  0.00  0.00     0.051 A 
ATOM      5  C5  IND d   1       2.814   0.203  -0.854  0.00  0.00    -0.031 A 
ATOM      6  C6  IND d   1       2.574  -1.127  -1.137  0.00  0.00     0.015 A 
ATOM      7  C7  IND d   1       1.346  -1.689  -0.930  0.00  0.00    -0.016 A 
ATOM      8  C8  IND d   1       0.361  -0.865  -0.404  0.00  0.00    -0.047 A 
ATOM      9  C9  IND d   1       0.610   0.474  -0.075  0.00  0.00    -0.096 A 
ATOM     10  HN1 IND d   1      -1.346  -1.889  -0.163  0.00  0.00     0.298 HD
ENDROOT
TORSDOF 0
ENDMDL
