MODEL 1
REMARK minimizedAffinity -1.94353986
REMARK minimizedRMSD -1
REMARK  0 active torsions:
REMARK  status: ('A' for Active; 'I' for Inactive)
ROOT
ATOM      1  N1  IND d   1      -0.519  -1.578   0.736  0.00  0.00    -0.196 N 
ATOM      2  C2  IND d   1      -1.239  -0.533   1.246  0.00  0.00     0.054 A 
ATOM      3  C3  IND d   1      -0.681   0.644   0.885  0.00  0.00    -0.031 A 
ATOM      4  C4  IND d   1       1.357   1.093  -0.623  0.00  0.00     0.051 A 
ATOM      5  C5  IND d   1       2.363   0.454  -1.293  0.00  0.00    -0.031 A 
ATOM      6  C6  IND d   1       2.460  -0.922  -1.324  0.00  0.00     0.015 A 
ATOM      7  C7  IND d   1       1.544  -1.715  -0.693  0.00  0.00    -0.016 A 
ATOM      8  C8  IND d   1       0.525  -1.070  -0.005  0.00  0.00    -0.047 A 
ATOM      9  C9  IND d   1       0.446   0.327   0.066  0.00  0.00    -0.096 A 
ATOM     10  HN1 IND d   1      -0.689  -2.412   0.859  0.00  0.00     0.298 HD
ENDROOT
TORSDOF 0
ENDMDL
