MODEL 1
REMARK minimizedAffinity -3.75659585
REMARK minimizedRMSD -1
REMARK  0 active torsions:
REMARK  status: ('A' for Active; 'I' for Inactive)
ROOT
ATOM      1  N1  IND d   1      -0.554  -0.824  -0.255  0.00  0.00    -0.196 N 
ATOM      2  C2  IND d   1      -1.268   0.320  -0.033  0.00  0.00     0.054 A 
ATOM      3  C3  IND d   1      -0.454   1.399  -0.079  0.00  0.00    -0.031 A 
ATOM      4  C4  IND d   1       2.063   1.528  -0.603  0.00  0.00     0.051 A 
ATOM      5  C5  IND d   1       3.157   0.741  -0.836  0.00  0.00    -0.031 A 
ATOM      6  C6  IND d   1       3.067  -0.635  -0.892  0.00  0.00     0.015 A 
ATOM      7  C7  IND d   1       1.873  -1.278  -0.726  0.00  0.00    -0.016 A 
ATOM      8  C8  IND d   1       0.762  -0.483  -0.482  0.00  0.00    -0.047 A 
ATOM      9  C9  IND d   1       0.854   0.911  -0.383  0.00  0.00    -0.096 A 
ATOM     10  HN1 IND d   1      -0.872  -1.623  -0.254  0.00  0.00     0.298 HD
ENDROOT
TORSDOF 0
ENDMDL
