MODEL 1
REMARK minimizedAffinity -2.94244313
REMARK minimizedRMSD -1
REMARK  0 active torsions:
REMARK  status: ('A' for Active; 'I' for Inactive)
ROOT
ATOM      1  N1  IND d   1      -0.245   1.501  -0.138  0.00  0.00    -0.196 N 
ATOM      2  C2  IND d   1      -1.326   0.922   0.468  0.00  0.00     0.054 A 
ATOM      3  C3  IND d   1      -1.138  -0.411   0.589  0.00  0.00    -0.031 A 
ATOM      4  C4  IND d   1       0.908  -1.839  -0.043  0.00  0.00     0.051 A 
ATOM      5  C5  IND d   1       2.126  -1.763  -0.659  0.00  0.00    -0.031 A 
ATOM      6  C6  IND d   1       2.627  -0.571  -1.140  0.00  0.00     0.015 A 
ATOM      7  C7  IND d   1       1.930   0.598  -1.012  0.00  0.00    -0.016 A 
ATOM      8  C8  IND d   1       0.690   0.523  -0.394  0.00  0.00    -0.047 A 
ATOM      9  C9  IND d   1       0.158  -0.691   0.058  0.00  0.00    -0.096 A 
ATOM     10  HN1 IND d   1      -0.164   2.336  -0.327  0.00  0.00     0.298 HD
ENDROOT
TORSDOF 0
ENDMDL
