MODEL 1
REMARK minimizedAffinity -2.6052196
REMARK minimizedRMSD -1
REMARK  0 active torsions:
REMARK  status: ('A' for Active; 'I' for Inactive)
ROOT
ATOM      1  N1  IND d   1      -0.179   1.553  -0.712  0.00  0.00    -0.196 N 
ATOM      2  C2  IND d   1      -1.456   1.175  -0.403  0.00  0.00     0.054 A 
ATOM      3  C3  IND d   1      -1.492  -0.134  -0.068  0.00  0.00    -0.031 A 
ATOM      4  C4  IND d   1       0.441  -1.822   0.139  0.00  0.00     0.051 A 
ATOM      5  C5  IND d   1       1.784  -1.954  -0.076  0.00  0.00    -0.031 A 
ATOM      6  C6  IND d   1       2.558  -0.901  -0.521  0.00  0.00     0.015 A 
ATOM      7  C7  IND d   1       2.016   0.331  -0.757  0.00  0.00    -0.016 A 
ATOM      8  C8  IND d   1       0.651   0.466  -0.546  0.00  0.00    -0.047 A 
ATOM      9  C9  IND d   1      -0.146  -0.610  -0.136  0.00  0.00    -0.096 A 
ATOM     10  HN1 IND d   1       0.064   2.337  -0.967  0.00  0.00     0.298 HD
ENDROOT
TORSDOF 0
ENDMDL
