MODEL 1
REMARK minimizedAffinity -5.54345512
REMARK minimizedRMSD -1
REMARK  0 active torsions:
REMARK  status: ('A' for Active; 'I' for Inactive)
ROOT
ATOM      1  N1  IND d   1      -1.705  -0.005   0.497  0.00  0.00    -0.196 N 
ATOM      2  C2  IND d   1      -2.002   1.329   0.461  0.00  0.00     0.054 A 
ATOM      3  C3  IND d   1      -0.922   2.040   0.065  0.00  0.00    -0.031 A 
ATOM      4  C4  IND d   1       1.402   1.213  -0.670  0.00  0.00     0.051 A 
ATOM      5  C5  IND d   1       2.160   0.080  -0.770  0.00  0.00    -0.031 A 
ATOM      6  C6  IND d   1       1.657  -1.164  -0.448  0.00  0.00     0.015 A 
ATOM      7  C7  IND d   1       0.369  -1.324  -0.024  0.00  0.00    -0.016 A 
ATOM      8  C8  IND d   1      -0.402  -0.176   0.085  0.00  0.00    -0.047 A 
ATOM      9  C9  IND d   1       0.115   1.095  -0.199  0.00  0.00    -0.096 A 
ATOM     10  HN1 IND d   1      -2.242  -0.632   0.738  0.00  0.00     0.298 HD
ENDROOT
TORSDOF 0
ENDMDL
