MODEL 1
REMARK minimizedAffinity -3.29509664
REMARK minimizedRMSD -1
REMARK  0 active torsions:
REMARK  status: ('A' for Active; 'I' for Inactive)
ROOT
ATOM      1  N1  IND d   1      -0.865   0.927   0.146  0.00  0.00    -0.196 N 
ATOM      2  C2  IND d   1      -1.240  -0.010   1.068  0.00  0.00     0.054 A 
ATOM      3  C3  IND d   1      -0.418  -1.082   1.010  0.00  0.00    -0.031 A 
ATOM      4  C4  IND d   1       1.668  -1.466  -0.449  0.00  0.00     0.051 A 
ATOM      5  C5  IND d   1       2.386  -0.909  -1.469  0.00  0.00    -0.031 A 
ATOM      6  C6  IND d   1       2.053   0.315  -2.012  0.00  0.00     0.015 A 
ATOM      7  C7  IND d   1       0.990   1.036  -1.545  0.00  0.00    -0.016 A 
ATOM      8  C8  IND d   1       0.254   0.469  -0.514  0.00  0.00    -0.047 A 
ATOM      9  C9  IND d   1       0.562  -0.792   0.012  0.00  0.00    -0.096 A 
ATOM     10  HN1 IND d   1      -1.261   1.677   0.003  0.00  0.00     0.298 HD
ENDROOT
TORSDOF 0
ENDMDL
