MODEL 1
REMARK minimizedAffinity -2.53149009
REMARK minimizedRMSD -1
REMARK  0 active torsions:
REMARK  status: ('A' for Active; 'I' for Inactive)
ROOT
ATOM      1  N1  IND d   1       1.493  -1.587   0.401  0.00  0.00    -0.196 N 
ATOM      2  C2  IND d   1       2.730  -1.349  -0.131  0.00  0.00     0.054 A 
ATOM      3  C3  IND d   1       2.743  -0.160  -0.775  0.00  0.00    -0.031 A 
ATOM      4  C4  IND d   1       0.880   1.602  -0.995  0.00  0.00     0.051 A 
ATOM      5  C5  IND d   1      -0.439   1.818  -0.707  0.00  0.00    -0.031 A 
ATOM      6  C6  IND d   1      -1.195   0.892  -0.018  0.00  0.00     0.015 A 
ATOM      7  C7  IND d   1      -0.656  -0.285   0.420  0.00  0.00    -0.016 A 
ATOM      8  C8  IND d   1       0.681  -0.510   0.123  0.00  0.00    -0.047 A 
ATOM      9  C9  IND d   1       1.442   0.407  -0.613  0.00  0.00    -0.096 A 
ATOM     10  HN1 IND d   1       1.262  -2.291   0.837  0.00  0.00     0.298 HD
ENDROOT
TORSDOF 0
ENDMDL
