MODEL 1
REMARK minimizedAffinity -2.20439672
REMARK minimizedRMSD -1
REMARK  0 active torsions:
REMARK  status: ('A' for Active; 'I' for Inactive)
ROOT
ATOM      1  N1  IND d   1       5.654   1.700   3.775  0.00  0.00    -0.196 N 
ATOM      2  C2  IND d   1       5.638   2.386   4.957  0.00  0.00     0.054 A 
ATOM      3  C3  IND d   1       5.621   1.526   6.000  0.00  0.00    -0.031 A 
ATOM      4  C4  IND d   1       5.719  -1.047   6.000  0.00  0.00     0.051 A 
ATOM      5  C5  IND d   1       5.708  -2.125   5.160  0.00  0.00    -0.031 A 
ATOM      6  C6  IND d   1       5.681  -1.981   3.788  0.00  0.00     0.015 A 
ATOM      7  C7  IND d   1       5.675  -0.747   3.202  0.00  0.00    -0.016 A 
ATOM      8  C8  IND d   1       5.679   0.350   4.051  0.00  0.00    -0.047 A 
ATOM      9  C9  IND d   1       5.664   0.210   5.445  0.00  0.00    -0.096 A 
ATOM     10  HN1 IND d   1       5.650   2.052   2.990  0.00  0.00     0.298 HD
ENDROOT
TORSDOF 0
ENDMDL
