MODEL 1
REMARK minimizedAffinity -2.86464953
REMARK minimizedRMSD -1
REMARK  0 active torsions:
REMARK  status: ('A' for Active; 'I' for Inactive)
ROOT
ATOM      1  N1  IND d   1      -0.304   0.678   0.284  0.00  0.00    -0.196 N 
ATOM      2  C2  IND d   1      -1.176  -0.373   0.225  0.00  0.00     0.054 A 
ATOM      3  C3  IND d   1      -0.574  -1.454  -0.321  0.00  0.00    -0.031 A 
ATOM      4  C4  IND d   1       1.864  -1.752  -1.094  0.00  0.00     0.051 A 
ATOM      5  C5  IND d   1       3.029  -1.061  -1.272  0.00  0.00    -0.031 A 
ATOM      6  C6  IND d   1       3.147   0.271  -0.930  0.00  0.00     0.015 A 
ATOM      7  C7  IND d   1       2.102   0.962  -0.386  0.00  0.00    -0.016 A 
ATOM      8  C8  IND d   1       0.914   0.265  -0.210  0.00  0.00    -0.047 A 
ATOM      9  C9  IND d   1       0.776  -1.075  -0.594  0.00  0.00    -0.096 A 
ATOM     10  HN1 IND d   1      -0.485   1.464   0.580  0.00  0.00     0.298 HD
ENDROOT
TORSDOF 0
ENDMDL
