MODEL 1
REMARK minimizedAffinity -5.20556307
REMARK minimizedRMSD -1
REMARK  0 active torsions:
REMARK  status: ('A' for Active; 'I' for Inactive)
ROOT
ATOM      1  N1  IND d   1      -0.871   0.804   0.142  0.00  0.00    -0.196 N 
ATOM      2  C2  IND d   1      -1.468  -0.367   0.518  0.00  0.00     0.054 A 
ATOM      3  C3  IND d   1      -0.651  -1.413   0.263  0.00  0.00    -0.031 A 
ATOM      4  C4  IND d   1       1.747  -1.426  -0.674  0.00  0.00     0.051 A 
ATOM      5  C5  IND d   1       2.703  -0.602  -1.198  0.00  0.00    -0.031 A 
ATOM      6  C6  IND d   1       2.514   0.761  -1.301  0.00  0.00     0.015 A 
ATOM      7  C7  IND d   1       1.361   1.354  -0.872  0.00  0.00    -0.016 A 
ATOM      8  C8  IND d   1       0.385   0.520  -0.346  0.00  0.00    -0.047 A 
ATOM      9  C9  IND d   1       0.554  -0.869  -0.278  0.00  0.00    -0.096 A 
ATOM     10  HN1 IND d   1      -1.222   1.587   0.201  0.00  0.00     0.298 HD
ENDROOT
TORSDOF 0
ENDMDL
