MODEL 1
REMARK minimizedAffinity -3.80895042
REMARK minimizedRMSD -1
REMARK  0 active torsions:
REMARK  status: ('A' for Active; 'I' for Inactive)
ROOT
ATOM      1  N1  IND d   1      -0.017   1.326  -1.129  0.00  0.00    -0.196 N 
ATOM      2  C2  IND d   1      -1.249   1.056  -0.601  0.00  0.00     0.054 A 
ATOM      3  C3  IND d   1      -1.260  -0.172  -0.036  0.00  0.00    -0.031 A 
ATOM      4  C4  IND d   1       0.659  -1.869   0.225  0.00  0.00     0.051 A 
ATOM      5  C5  IND d   1       1.961  -2.086  -0.129  0.00  0.00    -0.031 A 
ATOM      6  C6  IND d   1       2.685  -1.156  -0.847  0.00  0.00     0.015 A 
ATOM      7  C7  IND d   1       2.136   0.035  -1.229  0.00  0.00    -0.016 A 
ATOM      8  C8  IND d   1       0.812   0.255  -0.877  0.00  0.00    -0.047 A 
ATOM      9  C9  IND d   1       0.059  -0.702  -0.185  0.00  0.00    -0.096 A 
ATOM     10  HN1 IND d   1       0.203   2.044  -1.548  0.00  0.00     0.298 HD
ENDROOT
TORSDOF 0
ENDMDL
