MODEL 1
REMARK minimizedAffinity -3.75628853
REMARK minimizedRMSD -1
REMARK  0 active torsions:
REMARK  status: ('A' for Active; 'I' for Inactive)
ROOT
ATOM      1  N1  IND d   1      -0.427  -1.362  -0.610  0.00  0.00    -0.196 N 
ATOM      2  C2  IND d   1      -0.933  -0.567   0.380  0.00  0.00     0.054 A 
ATOM      3  C3  IND d   1      -0.027   0.369   0.742  0.00  0.00    -0.031 A 
ATOM      4  C4  IND d   1       2.309   0.845  -0.229  0.00  0.00     0.051 A 
ATOM      5  C5  IND d   1       3.223   0.362  -1.124  0.00  0.00    -0.031 A 
ATOM      6  C6  IND d   1       2.960  -0.741  -1.911  0.00  0.00     0.015 A 
ATOM      7  C7  IND d   1       1.764  -1.398  -1.840  0.00  0.00    -0.016 A 
ATOM      8  C8  IND d   1       0.837  -0.915  -0.928  0.00  0.00    -0.047 A 
ATOM      9  C9  IND d   1       1.114   0.178  -0.096  0.00  0.00    -0.096 A 
ATOM     10  HN1 IND d   1      -0.830  -2.029  -0.973  0.00  0.00     0.298 HD
ENDROOT
TORSDOF 0
ENDMDL
