MODEL 1
REMARK minimizedAffinity -3.00717568
REMARK minimizedRMSD -1
REMARK  0 active torsions:
REMARK  status: ('A' for Active; 'I' for Inactive)
ROOT
ATOM      1  N1  IND d   1      -0.232   1.722  -1.094  0.00  0.00    -0.196 N 
ATOM      2  C2  IND d   1      -1.493   1.422  -0.662  0.00  0.00     0.054 A 
ATOM      3  C3  IND d   1      -1.543   0.151  -0.202  0.00  0.00    -0.031 A 
ATOM      4  C4  IND d   1       0.349  -1.579   0.029  0.00  0.00     0.051 A 
ATOM      5  C5  IND d   1       1.669  -1.779  -0.267  0.00  0.00    -0.031 A 
ATOM      6  C6  IND d   1       2.438  -0.801  -0.863  0.00  0.00     0.015 A 
ATOM      7  C7  IND d   1       1.918   0.423  -1.176  0.00  0.00    -0.016 A 
ATOM      8  C8  IND d   1       0.576   0.626  -0.884  0.00  0.00    -0.047 A 
ATOM      9  C9  IND d   1      -0.220  -0.377  -0.318  0.00  0.00    -0.096 A 
ATOM     10  HN1 IND d   1       0.016   2.470  -1.439  0.00  0.00     0.298 HD
ENDROOT
TORSDOF 0
ENDMDL
