MODEL 1
REMARK minimizedAffinity -4.71590614
REMARK minimizedRMSD -1
REMARK  0 active torsions:
REMARK  status: ('A' for Active; 'I' for Inactive)
ROOT
ATOM      1  N1  IND d   1      -0.615   1.421  -0.765  0.00  0.00    -0.196 N 
ATOM      2  C2  IND d   1      -1.718   0.643  -0.546  0.00  0.00     0.054 A 
ATOM      3  C3  IND d   1      -1.347  -0.611  -0.202  0.00  0.00    -0.031 A 
ATOM      4  C4  IND d   1       1.010  -1.578   0.164  0.00  0.00     0.051 A 
ATOM      5  C5  IND d   1       2.335  -1.260   0.049  0.00  0.00    -0.031 A 
ATOM      6  C6  IND d   1       2.752  -0.006  -0.348  0.00  0.00     0.015 A 
ATOM      7  C7  IND d   1       1.856   0.984  -0.636  0.00  0.00    -0.016 A 
ATOM      8  C8  IND d   1       0.510   0.663  -0.527  0.00  0.00    -0.047 A 
ATOM      9  C9  IND d   1       0.081  -0.620  -0.165  0.00  0.00    -0.096 A 
ATOM     10  HN1 IND d   1      -0.624   2.245  -1.010  0.00  0.00     0.298 HD
ENDROOT
TORSDOF 0
ENDMDL
