MODEL 1
REMARK minimizedAffinity -3.32595801
REMARK minimizedRMSD -1
REMARK  0 active torsions:
REMARK  status: ('A' for Active; 'I' for Inactive)
ROOT
ATOM      1  N1  IND d   1      -0.256   0.813   0.494  0.00  0.00    -0.196 N 
ATOM      2  C2  IND d   1      -1.004  -0.313   0.701  0.00  0.00     0.054 A 
ATOM      3  C3  IND d   1      -0.423  -1.380   0.108  0.00  0.00    -0.031 A 
ATOM      4  C4  IND d   1       1.809  -1.528  -1.167  0.00  0.00     0.051 A 
ATOM      5  C5  IND d   1       2.829  -0.755  -1.646  0.00  0.00    -0.031 A 
ATOM      6  C6  IND d   1       2.876   0.607  -1.429  0.00  0.00     0.015 A 
ATOM      7  C7  IND d   1       1.905   1.248  -0.712  0.00  0.00    -0.016 A 
ATOM      8  C8  IND d   1       0.864   0.467  -0.231  0.00  0.00    -0.047 A 
ATOM      9  C9  IND d   1       0.789  -0.908  -0.484  0.00  0.00    -0.096 A 
ATOM     10  HN1 IND d   1      -0.452   1.603   0.770  0.00  0.00     0.298 HD
ENDROOT
TORSDOF 0
ENDMDL
