MODEL 1
REMARK minimizedAffinity -3.81988859
REMARK minimizedRMSD -1
REMARK  0 active torsions:
REMARK  status: ('A' for Active; 'I' for Inactive)
ROOT
ATOM      1  N1  IND d   1      -0.059   1.137   0.477  0.00  0.00    -0.196 N 
ATOM      2  C2  IND d   1      -0.150   0.046  -0.342  0.00  0.00     0.054 A 
ATOM      3  C3  IND d   1      -1.279  -0.649  -0.078  0.00  0.00    -0.031 A 
ATOM      4  C4  IND d   1      -3.171  -0.122   1.586  0.00  0.00     0.051 A 
ATOM      5  C5  IND d   1      -3.520   0.749   2.581  0.00  0.00    -0.031 A 
ATOM      6  C6  IND d   1      -2.718   1.816   2.930  0.00  0.00     0.015 A 
ATOM      7  C7  IND d   1      -1.537   2.060   2.287  0.00  0.00    -0.016 A 
ATOM      8  C8  IND d   1      -1.177   1.174   1.281  0.00  0.00    -0.047 A 
ATOM      9  C9  IND d   1      -1.966   0.065   0.951  0.00  0.00    -0.096 A 
ATOM     10  HN1 IND d   1       0.587   1.704   0.487  0.00  0.00     0.298 HD
ENDROOT
TORSDOF 0
ENDMDL
