MODEL 1
REMARK minimizedAffinity -1.12028885
REMARK minimizedRMSD -1
REMARK  0 active torsions:
REMARK  status: ('A' for Active; 'I' for Inactive)
ROOT
ATOM      1  N1  IND d   1       1.587  -0.489   0.740  0.00  0.00    -0.196 N 
ATOM      2  C2  IND d   1       0.783  -1.550   0.433  0.00  0.00     0.054 A 
ATOM      3  C3  IND d   1      -0.488  -1.134   0.233  0.00  0.00    -0.031 A 
ATOM      4  C4  IND d   1      -1.452   1.253   0.260  0.00  0.00     0.051 A 
ATOM      5  C5  IND d   1      -1.111   2.549   0.529  0.00  0.00    -0.031 A 
ATOM      6  C6  IND d   1       0.173   2.906   0.887  0.00  0.00     0.015 A 
ATOM      7  C7  IND d   1       1.171   1.978   0.978  0.00  0.00    -0.016 A 
ATOM      8  C8  IND d   1       0.828   0.660   0.713  0.00  0.00    -0.047 A 
ATOM      9  C9  IND d   1      -0.483   0.286   0.391  0.00  0.00    -0.096 A 
ATOM     10  HN1 IND d   1       2.427  -0.531   0.921  0.00  0.00     0.298 HD
ENDROOT
TORSDOF 0
ENDMDL
