MODEL 1
REMARK minimizedAffinity -0.0901827514
REMARK minimizedRMSD -1
REMARK  0 active torsions:
REMARK  status: ('A' for Active; 'I' for Inactive)
ROOT
ATOM      1  N1  IND d   1       0.952  -0.882  -1.052  0.00  0.00    -0.196 N 
ATOM      2  C2  IND d   1       0.858  -0.756   0.306  0.00  0.00     0.054 A 
ATOM      3  C3  IND d   1       0.019  -1.690   0.807  0.00  0.00    -0.031 A 
ATOM      4  C4  IND d   1      -1.227  -3.589  -0.404  0.00  0.00     0.051 A 
ATOM      5  C5  IND d   1      -1.482  -4.087  -1.651  0.00  0.00    -0.031 A 
ATOM      6  C6  IND d   1      -0.925  -3.531  -2.785  0.00  0.00     0.015 A 
ATOM      7  C7  IND d   1      -0.080  -2.461  -2.713  0.00  0.00    -0.016 A 
ATOM      8  C8  IND d   1       0.176  -1.949  -1.449  0.00  0.00    -0.047 A 
ATOM      9  C9  IND d   1      -0.420  -2.481  -0.298  0.00  0.00    -0.096 A 
ATOM     10  HN1 IND d   1       1.418  -0.379  -1.572  0.00  0.00     0.298 HD
ENDROOT
TORSDOF 0
ENDMDL
