MODEL 1
REMARK minimizedAffinity -3.99664021
REMARK minimizedRMSD -1
REMARK  0 active torsions:
REMARK  status: ('A' for Active; 'I' for Inactive)
ROOT
ATOM      1  N1  IND d   1       1.541   2.409  -0.169  0.00  0.00    -0.196 N 
ATOM      2  C2  IND d   1       0.577   3.365  -0.016  0.00  0.00     0.054 A 
ATOM      3  C3  IND d   1      -0.596   2.798   0.342  0.00  0.00    -0.031 A 
ATOM      4  C4  IND d   1      -1.136   0.329   0.834  0.00  0.00     0.051 A 
ATOM      5  C5  IND d   1      -0.587  -0.922   0.795  0.00  0.00    -0.031 A 
ATOM      6  C6  IND d   1       0.727  -1.131   0.428  0.00  0.00     0.015 A 
ATOM      7  C7  IND d   1       1.547  -0.090   0.095  0.00  0.00    -0.016 A 
ATOM      8  C8  IND d   1       0.991   1.181   0.127  0.00  0.00    -0.047 A 
ATOM      9  C9  IND d   1      -0.353   1.395   0.458  0.00  0.00    -0.096 A 
ATOM     10  HN1 IND d   1       2.355   2.550  -0.409  0.00  0.00     0.298 HD
ENDROOT
TORSDOF 0
ENDMDL
