MODEL 1
REMARK minimizedAffinity -4.83716869
REMARK minimizedRMSD -1
REMARK  0 active torsions:
REMARK  status: ('A' for Active; 'I' for Inactive)
ROOT
ATOM      1  N1  IND d   1       1.655   1.939  -0.433  0.00  0.00    -0.196 N 
ATOM      2  C2  IND d   1       1.069   3.174  -0.441  0.00  0.00     0.054 A 
ATOM      3  C3  IND d   1      -0.208   3.092  -0.005  0.00  0.00    -0.031 A 
ATOM      4  C4  IND d   1      -1.510   1.050   0.868  0.00  0.00     0.051 A 
ATOM      5  C5  IND d   1      -1.408  -0.304   1.031  0.00  0.00    -0.031 A 
ATOM      6  C6  IND d   1      -0.256  -0.992   0.710  0.00  0.00     0.015 A 
ATOM      7  C7  IND d   1       0.846  -0.348   0.223  0.00  0.00    -0.016 A 
ATOM      8  C8  IND d   1       0.744   1.025   0.050  0.00  0.00    -0.047 A 
ATOM      9  C9  IND d   1      -0.437   1.723   0.333  0.00  0.00    -0.096 A 
ATOM     10  HN1 IND d   1       2.457   1.763  -0.688  0.00  0.00     0.298 HD
ENDROOT
TORSDOF 0
ENDMDL
