MODEL 1
REMARK minimizedAffinity -3.55364919
REMARK minimizedRMSD -1
REMARK  0 active torsions:
REMARK  status: ('A' for Active; 'I' for Inactive)
ROOT
ATOM      1  N1  IND d   1       0.132  -3.865  -1.059  0.00  0.00    -0.196 N 
ATOM      2  C2  IND d   1      -0.529  -3.966  -2.251  0.00  0.00     0.054 A 
ATOM      3  C3  IND d   1      -0.938  -2.746  -2.667  0.00  0.00    -0.031 A 
ATOM      4  C4  IND d   1      -0.541  -0.437  -1.599  0.00  0.00     0.051 A 
ATOM      5  C5  IND d   1      -0.020   0.160  -0.485  0.00  0.00    -0.031 A 
ATOM      6  C6  IND d   1       0.593  -0.570   0.513  0.00  0.00     0.015 A 
ATOM      7  C7  IND d   1       0.719  -1.927   0.429  0.00  0.00    -0.016 A 
ATOM      8  C8  IND d   1       0.185  -2.537  -0.697  0.00  0.00    -0.047 A 
ATOM      9  C9  IND d   1      -0.476  -1.807  -1.693  0.00  0.00    -0.096 A 
ATOM     10  HN1 IND d   1       0.460  -4.522  -0.611  0.00  0.00     0.298 HD
ENDROOT
TORSDOF 0
ENDMDL
