MODEL 1
REMARK minimizedAffinity -1.2547859
REMARK minimizedRMSD -1
REMARK  0 active torsions:
REMARK  status: ('A' for Active; 'I' for Inactive)
ROOT
ATOM      1  N1  IND d   1       1.414   2.965   1.273  0.00  0.00    -0.196 N 
ATOM      2  C2  IND d   1       0.270   3.706   1.383  0.00  0.00     0.054 A 
ATOM      3  C3  IND d   1      -0.810   2.950   1.084  0.00  0.00    -0.031 A 
ATOM      4  C4  IND d   1      -0.942   0.450   0.488  0.00  0.00     0.051 A 
ATOM      5  C5  IND d   1      -0.158  -0.639   0.229  0.00  0.00    -0.031 A 
ATOM      6  C6  IND d   1       1.219  -0.581   0.309  0.00  0.00     0.015 A 
ATOM      7  C7  IND d   1       1.864   0.570   0.664  0.00  0.00    -0.016 A 
ATOM      8  C8  IND d   1       1.071   1.679   0.921  0.00  0.00    -0.047 A 
ATOM      9  C9  IND d   1      -0.324   1.637   0.800  0.00  0.00    -0.096 A 
ATOM     10  HN1 IND d   1       2.213   3.255   1.403  0.00  0.00     0.298 HD
ENDROOT
TORSDOF 0
ENDMDL
