MODEL 1
REMARK minimizedAffinity -0.900464892
REMARK minimizedRMSD -1
REMARK  0 active torsions:
REMARK  status: ('A' for Active; 'I' for Inactive)
ROOT
ATOM      1  N1  IND d   1       1.327  -1.190  -0.052  0.00  0.00    -0.196 N 
ATOM      2  C2  IND d   1       0.040  -1.635  -0.164  0.00  0.00     0.054 A 
ATOM      3  C3  IND d   1      -0.812  -0.590  -0.268  0.00  0.00    -0.031 A 
ATOM      4  C4  IND d   1      -0.301   1.931  -0.380  0.00  0.00     0.051 A 
ATOM      5  C5  IND d   1       0.726   2.827  -0.281  0.00  0.00    -0.031 A 
ATOM      6  C6  IND d   1       2.032   2.422  -0.099  0.00  0.00     0.015 A 
ATOM      7  C7  IND d   1       2.364   1.099  -0.021  0.00  0.00    -0.016 A 
ATOM      8  C8  IND d   1       1.323   0.186  -0.114  0.00  0.00    -0.047 A 
ATOM      9  C9  IND d   1      -0.010   0.593  -0.256  0.00  0.00    -0.096 A 
ATOM     10  HN1 IND d   1       2.023  -1.686   0.042  0.00  0.00     0.298 HD
ENDROOT
TORSDOF 0
ENDMDL
