MODEL 1
REMARK minimizedAffinity -4.22672606
REMARK minimizedRMSD -1
REMARK  0 active torsions:
REMARK  status: ('A' for Active; 'I' for Inactive)
ROOT
ATOM      1  N1  IND d   1      -0.009  -0.775   0.393  0.00  0.00    -0.196 N 
ATOM      2  C2  IND d   1      -1.369  -0.822   0.518  0.00  0.00     0.054 A 
ATOM      3  C3  IND d   1      -1.877   0.428   0.613  0.00  0.00    -0.031 A 
ATOM      4  C4  IND d   1      -0.669   2.697   0.483  0.00  0.00     0.051 A 
ATOM      5  C5  IND d   1       0.578   3.251   0.409  0.00  0.00    -0.031 A 
ATOM      6  C6  IND d   1       1.716   2.476   0.322  0.00  0.00     0.015 A 
ATOM      7  C7  IND d   1       1.648   1.112   0.293  0.00  0.00    -0.016 A 
ATOM      8  C8  IND d   1       0.384   0.546   0.375  0.00  0.00    -0.047 A 
ATOM      9  C9  IND d   1      -0.771   1.327   0.507  0.00  0.00    -0.096 A 
ATOM     10  HN1 IND d   1       0.513  -1.455   0.335  0.00  0.00     0.298 HD
ENDROOT
TORSDOF 0
ENDMDL
