MODEL 1
REMARK minimizedAffinity 0.696840107
REMARK minimizedRMSD -1
REMARK  0 active torsions:
REMARK  status: ('A' for Active; 'I' for Inactive)
ROOT
ATOM      1  N1  IND d   1       0.378  -0.910  -0.472  0.00  0.00    -0.196 N 
ATOM      2  C2  IND d   1      -0.716  -1.475   0.121  0.00  0.00     0.054 A 
ATOM      3  C3  IND d   1      -1.375  -0.557   0.864  0.00  0.00    -0.031 A 
ATOM      4  C4  IND d   1      -0.893   1.954   1.165  0.00  0.00     0.051 A 
ATOM      5  C5  IND d   1       0.019   2.921   0.850  0.00  0.00    -0.031 A 
ATOM      6  C6  IND d   1       1.118   2.656   0.059  0.00  0.00     0.015 A 
ATOM      7  C7  IND d   1       1.341   1.411  -0.457  0.00  0.00    -0.016 A 
ATOM      8  C8  IND d   1       0.420   0.425  -0.133  0.00  0.00    -0.047 A 
ATOM      9  C9  IND d   1      -0.674   0.677   0.704  0.00  0.00    -0.096 A 
ATOM     10  HN1 IND d   1       0.944  -1.319  -0.974  0.00  0.00     0.298 HD
ENDROOT
TORSDOF 0
ENDMDL
