MODEL 1
REMARK minimizedAffinity -5.69692516
REMARK minimizedRMSD -1
REMARK  0 active torsions:
REMARK  status: ('A' for Active; 'I' for Inactive)
ROOT
ATOM      1  N1  IND d   1       1.177  -0.438   0.663  0.00  0.00    -0.196 N 
ATOM      2  C2  IND d   1      -0.175  -0.641   0.644  0.00  0.00     0.054 A 
ATOM      3  C3  IND d   1      -0.826   0.540   0.551  0.00  0.00    -0.031 A 
ATOM      4  C4  IND d   1       0.128   2.920   0.316  0.00  0.00     0.051 A 
ATOM      5  C5  IND d   1       1.305   3.614   0.322  0.00  0.00    -0.031 A 
ATOM      6  C6  IND d   1       2.525   2.979   0.441  0.00  0.00     0.015 A 
ATOM      7  C7  IND d   1       2.613   1.620   0.548  0.00  0.00    -0.016 A 
ATOM      8  C8  IND d   1       1.420   0.913   0.550  0.00  0.00    -0.047 A 
ATOM      9  C9  IND d   1       0.177   1.555   0.472  0.00  0.00    -0.096 A 
ATOM     10  HN1 IND d   1       1.775  -1.052   0.734  0.00  0.00     0.298 HD
ENDROOT
TORSDOF 0
ENDMDL
