MODEL 1
REMARK minimizedAffinity -5.72790241
REMARK minimizedRMSD -1
REMARK  0 active torsions:
REMARK  status: ('A' for Active; 'I' for Inactive)
ROOT
ATOM      1  N1  IND d   1       1.192  -0.751   0.831  0.00  0.00    -0.196 N 
ATOM      2  C2  IND d   1      -0.117  -1.001   0.527  0.00  0.00     0.054 A 
ATOM      3  C3  IND d   1      -0.767   0.154   0.262  0.00  0.00    -0.031 A 
ATOM      4  C4  IND d   1       0.145   2.560   0.169  0.00  0.00     0.051 A 
ATOM      5  C5  IND d   1       1.272   3.294   0.408  0.00  0.00    -0.031 A 
ATOM      6  C6  IND d   1       2.455   2.706   0.806  0.00  0.00     0.015 A 
ATOM      7  C7  IND d   1       2.558   1.353   0.969  0.00  0.00    -0.016 A 
ATOM      8  C8  IND d   1       1.414   0.605   0.734  0.00  0.00    -0.047 A 
ATOM      9  C9  IND d   1       0.199   1.201   0.372  0.00  0.00    -0.096 A 
ATOM     10  HN1 IND d   1       1.779  -1.342   1.047  0.00  0.00     0.298 HD
ENDROOT
TORSDOF 0
ENDMDL
