MODEL 1
REMARK minimizedAffinity -1.60532928
REMARK minimizedRMSD -1
REMARK  0 active torsions:
REMARK  status: ('A' for Active; 'I' for Inactive)
ROOT
ATOM      1  N1  IND d   1      -1.153   0.420   1.115  0.00  0.00    -0.196 N 
ATOM      2  C2  IND d   1      -0.788  -0.735   0.480  0.00  0.00     0.054 A 
ATOM      3  C3  IND d   1       0.413  -0.582  -0.121  0.00  0.00    -0.031 A 
ATOM      4  C4  IND d   1       2.003   1.443  -0.106  0.00  0.00     0.051 A 
ATOM      5  C5  IND d   1       2.089   2.742   0.310  0.00  0.00    -0.031 A 
ATOM      6  C6  IND d   1       1.079   3.345   1.032  0.00  0.00     0.015 A 
ATOM      7  C7  IND d   1      -0.054   2.664   1.377  0.00  0.00    -0.016 A 
ATOM      8  C8  IND d   1      -0.148   1.347   0.950  0.00  0.00    -0.047 A 
ATOM      9  C9  IND d   1       0.855   0.743   0.181  0.00  0.00    -0.096 A 
ATOM     10  HN1 IND d   1      -1.887   0.545   1.545  0.00  0.00     0.298 HD
ENDROOT
TORSDOF 0
ENDMDL
