MODEL 1
REMARK minimizedAffinity -5.27948236
REMARK minimizedRMSD -1
REMARK  0 active torsions:
REMARK  status: ('A' for Active; 'I' for Inactive)
ROOT
ATOM      1  N1  IND d   1      -0.716  -1.064   0.372  0.00  0.00    -0.196 N 
ATOM      2  C2  IND d   1       0.403  -1.842   0.270  0.00  0.00     0.054 A 
ATOM      3  C3  IND d   1       1.485  -1.077  -0.000  0.00  0.00    -0.031 A 
ATOM      4  C4  IND d   1       1.665   1.482  -0.214  0.00  0.00     0.051 A 
ATOM      5  C5  IND d   1       0.905   2.617  -0.236  0.00  0.00    -0.031 A 
ATOM      6  C6  IND d   1      -0.462   2.583  -0.050  0.00  0.00     0.015 A 
ATOM      7  C7  IND d   1      -1.121   1.408   0.178  0.00  0.00    -0.016 A 
ATOM      8  C8  IND d   1      -0.353   0.252   0.193  0.00  0.00    -0.047 A 
ATOM      9  C9  IND d   1       1.029   0.276  -0.038  0.00  0.00    -0.096 A 
ATOM     10  HN1 IND d   1      -1.513  -1.350   0.522  0.00  0.00     0.298 HD
ENDROOT
TORSDOF 0
ENDMDL
