MODEL 1
REMARK minimizedAffinity -3.98629069
REMARK minimizedRMSD -1
REMARK  0 active torsions:
REMARK  status: ('A' for Active; 'I' for Inactive)
ROOT
ATOM      1  N1  IND d   1       0.877  -0.863   0.413  0.00  0.00    -0.196 N 
ATOM      2  C2  IND d   1       2.138  -0.393   0.169  0.00  0.00     0.054 A 
ATOM      3  C3  IND d   1       2.112   0.945  -0.023  0.00  0.00    -0.031 A 
ATOM      4  C4  IND d   1       0.127   2.579   0.120  0.00  0.00     0.051 A 
ATOM      5  C5  IND d   1      -1.229   2.615   0.281  0.00  0.00    -0.031 A 
ATOM      6  C6  IND d   1      -1.968   1.470   0.501  0.00  0.00     0.015 A 
ATOM      7  C7  IND d   1      -1.373   0.243   0.580  0.00  0.00    -0.016 A 
ATOM      8  C8  IND d   1       0.004   0.202   0.410  0.00  0.00    -0.047 A 
ATOM      9  C9  IND d   1       0.753   1.355   0.144  0.00  0.00    -0.096 A 
ATOM     10  HN1 IND d   1       0.666  -1.686   0.545  0.00  0.00     0.298 HD
ENDROOT
TORSDOF 0
ENDMDL
