MODEL 1
REMARK minimizedAffinity -4.93955374
REMARK minimizedRMSD -1
REMARK  0 active torsions:
REMARK  status: ('A' for Active; 'I' for Inactive)
ROOT
ATOM      1  N1  IND d   1      -1.206   1.698  -0.099  0.00  0.00    -0.196 N 
ATOM      2  C2  IND d   1      -0.670   2.950  -0.213  0.00  0.00     0.054 A 
ATOM      3  C3  IND d   1       0.675   2.900  -0.084  0.00  0.00    -0.031 A 
ATOM      4  C4  IND d   1       2.214   0.859   0.216  0.00  0.00     0.051 A 
ATOM      5  C5  IND d   1       2.184  -0.494   0.410  0.00  0.00    -0.031 A 
ATOM      6  C6  IND d   1       0.999  -1.199   0.443  0.00  0.00     0.015 A 
ATOM      7  C7  IND d   1      -0.205  -0.578   0.270  0.00  0.00    -0.016 A 
ATOM      8  C8  IND d   1      -0.179   0.797   0.079  0.00  0.00    -0.047 A 
ATOM      9  C9  IND d   1       1.018   1.524   0.088  0.00  0.00    -0.096 A 
ATOM     10  HN1 IND d   1      -2.043   1.505  -0.134  0.00  0.00     0.298 HD
ENDROOT
TORSDOF 0
ENDMDL
