MODEL 1
REMARK minimizedAffinity -3.46563125
REMARK minimizedRMSD -1
REMARK  0 active torsions:
REMARK  status: ('A' for Active; 'I' for Inactive)
ROOT
ATOM      1  N1  IND d   1      -1.086   2.924   0.990  0.00  0.00    -0.196 N 
ATOM      2  C2  IND d   1      -0.213   3.657   0.236  0.00  0.00     0.054 A 
ATOM      3  C3  IND d   1       0.575   2.840  -0.498  0.00  0.00    -0.031 A 
ATOM      4  C4  IND d   1       0.536   0.274  -0.695  0.00  0.00     0.051 A 
ATOM      5  C5  IND d   1      -0.062  -0.838  -0.171  0.00  0.00    -0.031 A 
ATOM      6  C6  IND d   1      -1.054  -0.750   0.784  0.00  0.00     0.015 A 
ATOM      7  C7  IND d   1      -1.495   0.458   1.244  0.00  0.00    -0.016 A 
ATOM      8  C8  IND d   1      -0.885   1.589   0.720  0.00  0.00    -0.047 A 
ATOM      9  C9  IND d   1       0.152   1.505  -0.218  0.00  0.00    -0.096 A 
ATOM     10  HN1 IND d   1      -1.664   3.244   1.540  0.00  0.00     0.298 HD
ENDROOT
TORSDOF 0
ENDMDL
