MODEL 1
REMARK minimizedAffinity -4.25657368
REMARK minimizedRMSD -1
REMARK  0 active torsions:
REMARK  status: ('A' for Active; 'I' for Inactive)
ROOT
ATOM      1  N1  IND d   1       1.106  -0.688   0.207  0.00  0.00    -0.196 N 
ATOM      2  C2  IND d   1      -0.030  -1.251   0.720  0.00  0.00     0.054 A 
ATOM      3  C3  IND d   1      -0.958  -0.298   0.964  0.00  0.00    -0.031 A 
ATOM      4  C4  IND d   1      -0.864   2.233   0.502  0.00  0.00     0.051 A 
ATOM      5  C5  IND d   1      -0.020   3.219   0.075  0.00  0.00    -0.031 A 
ATOM      6  C6  IND d   1       1.268   2.948  -0.341  0.00  0.00     0.015 A 
ATOM      7  C7  IND d   1       1.757   1.672  -0.356  0.00  0.00    -0.016 A 
ATOM      8  C8  IND d   1       0.906   0.669   0.084  0.00  0.00    -0.047 A 
ATOM      9  C9  IND d   1      -0.387   0.944   0.548  0.00  0.00    -0.096 A 
ATOM     10  HN1 IND d   1       1.825  -1.111  -0.002  0.00  0.00     0.298 HD
ENDROOT
TORSDOF 0
ENDMDL
