MODEL 1
REMARK minimizedAffinity -4.10274172
REMARK minimizedRMSD -1
REMARK  0 active torsions:
REMARK  status: ('A' for Active; 'I' for Inactive)
ROOT
ATOM      1  N1  IND d   1       0.891  -0.689   0.280  0.00  0.00    -0.196 N 
ATOM      2  C2  IND d   1      -0.126  -1.183   1.048  0.00  0.00     0.054 A 
ATOM      3  C3  IND d   1      -0.917  -0.178   1.486  0.00  0.00    -0.031 A 
ATOM      4  C4  IND d   1      -0.788   2.343   0.979  0.00  0.00     0.051 A 
ATOM      5  C5  IND d   1      -0.011   3.278   0.355  0.00  0.00    -0.031 A 
ATOM      6  C6  IND d   1       1.128   2.931  -0.343  0.00  0.00     0.015 A 
ATOM      7  C7  IND d   1       1.527   1.629  -0.453  0.00  0.00    -0.016 A 
ATOM      8  C8  IND d   1       0.745   0.678   0.186  0.00  0.00    -0.047 A 
ATOM      9  C9  IND d   1      -0.388   1.028   0.932  0.00  0.00    -0.096 A 
ATOM     10  HN1 IND d   1       1.516  -1.153  -0.084  0.00  0.00     0.298 HD
ENDROOT
TORSDOF 0
ENDMDL
