MODEL 1
REMARK minimizedAffinity -6.35345125
REMARK minimizedRMSD -1
REMARK  3 active torsions:
REMARK  status: ('A' for Active; 'I' for Inactive)
REMARK    1  A    between atoms: C3'_2  and  C2'_3 
REMARK    2  A    between atoms: C2'_3  and  C1'_4 
REMARK    3  A    between atoms: C1'_4  and  C1_5 
ROOT
ATOM      1  C1  N4B d   1      -0.097   0.123   0.084  0.00  0.00    -0.075 A 
ATOM      2  C2  N4B d   1      -0.812   0.379   1.275  0.00  0.00     0.002 A 
ATOM      3  C3  N4B d   1      -0.453   1.433   2.078  0.00  0.00     0.002 A 
ATOM      4  C4  N4B d   1       0.625   2.231   1.723  0.00  0.00    -0.004 A 
ATOM      5  C5  N4B d   1       1.294   1.992   0.559  0.00  0.00     0.002 A 
ATOM      6  C6  N4B d   1       0.942   0.939  -0.261  0.00  0.00     0.002 A 
ENDROOT
BRANCH   1   7
ATOM      7  C1' N4B d   1      -0.398  -1.069  -0.782  0.00  0.00     0.057 C 
BRANCH   7   8
ATOM      8  C2' N4B d   1      -1.878  -1.417  -0.658  0.00  0.00     0.009 C 
BRANCH   8   9
ATOM      9  C3' N4B d   1      -2.643  -1.115  -1.935  0.00  0.00     0.004 C 
ATOM     10  C4' N4B d   1      -1.763  -1.102  -3.149  0.00  0.00     0.003 C 
ENDBRANCH   8   9
ENDBRANCH   7   8
ENDBRANCH   1   7
TORSDOF 3
ENDMDL
