MODEL 1
REMARK minimizedAffinity -3.99204087
REMARK minimizedRMSD -1
REMARK  3 active torsions:
REMARK  status: ('A' for Active; 'I' for Inactive)
REMARK    1  A    between atoms: C3'_2  and  C2'_3 
REMARK    2  A    between atoms: C2'_3  and  C1'_4 
REMARK    3  A    between atoms: C1'_4  and  C1_5 
ROOT
ATOM      1  C1  N4B d   1       0.871   1.018   0.059  0.00  0.00    -0.075 A 
ATOM      2  C2  N4B d   1       0.939   2.143   0.911  0.00  0.00     0.002 A 
ATOM      3  C3  N4B d   1       2.160   2.629   1.309  0.00  0.00     0.002 A 
ATOM      4  C4  N4B d   1       3.321   1.998   0.887  0.00  0.00    -0.004 A 
ATOM      5  C5  N4B d   1       3.247   0.928   0.044  0.00  0.00     0.002 A 
ATOM      6  C6  N4B d   1       2.027   0.432  -0.369  0.00  0.00     0.002 A 
ENDROOT
BRANCH   1   7
ATOM      7  C1' N4B d   1      -0.442   0.399  -0.335  0.00  0.00     0.057 C 
BRANCH   7   8
ATOM      8  C2' N4B d   1      -0.344  -1.117  -0.189  0.00  0.00     0.009 C 
BRANCH   8   9
ATOM      9  C3' N4B d   1      -0.697  -1.576   1.216  0.00  0.00     0.004 C 
ATOM     10  C4' N4B d   1      -1.442  -0.536   1.998  0.00  0.00     0.003 C 
ENDBRANCH   8   9
ENDBRANCH   7   8
ENDBRANCH   1   7
TORSDOF 3
ENDMDL
