MODEL 1
REMARK minimizedAffinity -1.94724023
REMARK minimizedRMSD -1
REMARK  3 active torsions:
REMARK  status: ('A' for Active; 'I' for Inactive)
REMARK    1  A    between atoms: C3'_2  and  C2'_3 
REMARK    2  A    between atoms: C2'_3  and  C1'_4 
REMARK    3  A    between atoms: C1'_4  and  C1_5 
ROOT
ATOM      1  C1  N4B d   1       0.228  -0.226  -0.229  0.00  0.00    -0.075 A 
ATOM      2  C2  N4B d   1       1.612  -0.024  -0.031  0.00  0.00     0.002 A 
ATOM      3  C3  N4B d   1       2.048   0.789   0.987  0.00  0.00     0.002 A 
ATOM      4  C4  N4B d   1       1.123   1.422   1.804  0.00  0.00    -0.004 A 
ATOM      5  C5  N4B d   1      -0.211   1.201   1.622  0.00  0.00     0.002 A 
ATOM      6  C6  N4B d   1      -0.664   0.384   0.605  0.00  0.00     0.002 A 
ENDROOT
BRANCH   1   7
ATOM      7  C1' N4B d   1      -0.299  -1.037  -1.381  0.00  0.00     0.057 C 
BRANCH   7   8
ATOM      8  C2' N4B d   1      -1.737  -1.452  -1.085  0.00  0.00     0.009 C 
BRANCH   8   9
ATOM      9  C3' N4B d   1      -2.601  -1.438  -2.334  0.00  0.00     0.004 C 
ATOM     10  C4' N4B d   1      -1.824  -1.111  -3.574  0.00  0.00     0.003 C 
ENDBRANCH   8   9
ENDBRANCH   7   8
ENDBRANCH   1   7
TORSDOF 3
ENDMDL
