MODEL 1
REMARK minimizedAffinity -3.53872657
REMARK minimizedRMSD -1
REMARK  3 active torsions:
REMARK  status: ('A' for Active; 'I' for Inactive)
REMARK    1  A    between atoms: C3'_2  and  C2'_3 
REMARK    2  A    between atoms: C2'_3  and  C1'_4 
REMARK    3  A    between atoms: C1'_4  and  C1_5 
ROOT
ATOM      1  C1  N4B d   1      -0.273  -0.762  -0.354  0.00  0.00    -0.075 A 
ATOM      2  C2  N4B d   1       0.818   0.121  -0.508  0.00  0.00     0.002 A 
ATOM      3  C3  N4B d   1       0.995   1.154   0.381  0.00  0.00     0.002 A 
ATOM      4  C4  N4B d   1       0.088   1.333   1.414  0.00  0.00    -0.004 A 
ATOM      5  C5  N4B d   1      -0.949   0.459   1.570  0.00  0.00     0.002 A 
ATOM      6  C6  N4B d   1      -1.137  -0.585   0.687  0.00  0.00     0.002 A 
ENDROOT
BRANCH   1   7
ATOM      7  C1' N4B d   1      -0.557  -1.854  -1.350  0.00  0.00     0.057 C 
BRANCH   7   8
ATOM      8  C2' N4B d   1      -2.044  -2.191  -1.313  0.00  0.00     0.009 C 
BRANCH   8   9
ATOM      9  C3' N4B d   1      -2.747  -1.801  -2.602  0.00  0.00     0.004 C 
ATOM     10  C4' N4B d   1      -1.792  -1.385  -3.681  0.00  0.00     0.003 C 
ENDBRANCH   8   9
ENDBRANCH   7   8
ENDBRANCH   1   7
TORSDOF 3
ENDMDL
