MODEL 1
REMARK minimizedAffinity -6.0399642
REMARK minimizedRMSD -1
REMARK  3 active torsions:
REMARK  status: ('A' for Active; 'I' for Inactive)
REMARK    1  A    between atoms: C3'_2  and  C2'_3 
REMARK    2  A    between atoms: C2'_3  and  C1'_4 
REMARK    3  A    between atoms: C1'_4  and  C1_5 
ROOT
ATOM      1  C1  N4B d   1       0.642   0.176   0.102  0.00  0.00    -0.075 A 
ATOM      2  C2  N4B d   1      -0.028   0.753   1.203  0.00  0.00     0.002 A 
ATOM      3  C3  N4B d   1       0.530   1.820   1.863  0.00  0.00     0.002 A 
ATOM      4  C4  N4B d   1       1.760   2.313   1.454  0.00  0.00    -0.004 A 
ATOM      5  C5  N4B d   1       2.388   1.766   0.373  0.00  0.00     0.002 A 
ATOM      6  C6  N4B d   1       1.837   0.696  -0.302  0.00  0.00     0.002 A 
ENDROOT
BRANCH   1   7
ATOM      7  C1' N4B d   1       0.112  -1.046  -0.597  0.00  0.00     0.057 C 
BRANCH   7   8
ATOM      8  C2' N4B d   1      -1.412  -1.037  -0.537  0.00  0.00     0.009 C 
BRANCH   8   9
ATOM      9  C3' N4B d   1      -2.019  -2.191  -1.315  0.00  0.00     0.004 C 
ATOM     10  C4' N4B d   1      -2.927  -1.735  -2.418  0.00  0.00     0.003 C 
ENDBRANCH   8   9
ENDBRANCH   7   8
ENDBRANCH   1   7
TORSDOF 3
ENDMDL
