MODEL 1
REMARK minimizedAffinity -4.50785255
REMARK minimizedRMSD -1
REMARK  3 active torsions:
REMARK  status: ('A' for Active; 'I' for Inactive)
REMARK    1  A    between atoms: C3'_2  and  C2'_3 
REMARK    2  A    between atoms: C2'_3  and  C1'_4 
REMARK    3  A    between atoms: C1'_4  and  C1_5 
ROOT
ATOM      1  C1  N4B d   1       0.011  -0.372   0.001  0.00  0.00    -0.075 A 
ATOM      2  C2  N4B d   1       1.350  -0.281  -0.438  0.00  0.00     0.002 A 
ATOM      3  C3  N4B d   1       2.233   0.541   0.217  0.00  0.00     0.002 A 
ATOM      4  C4  N4B d   1       1.797   1.294   1.297  0.00  0.00    -0.004 A 
ATOM      5  C5  N4B d   1       0.508   1.181   1.731  0.00  0.00     0.002 A 
ATOM      6  C6  N4B d   1      -0.389   0.355   1.084  0.00  0.00     0.002 A 
ENDROOT
BRANCH   1   7
ATOM      7  C1' N4B d   1      -1.013  -1.193  -0.736  0.00  0.00     0.057 C 
BRANCH   7   8
ATOM      8  C2' N4B d   1      -1.089  -0.716  -2.183  0.00  0.00     0.009 C 
BRANCH   8   9
ATOM      9  C3' N4B d   1      -2.368  -1.172  -2.865  0.00  0.00     0.004 C 
ATOM     10  C4' N4B d   1      -2.893  -2.462  -2.311  0.00  0.00     0.003 C 
ENDBRANCH   8   9
ENDBRANCH   7   8
ENDBRANCH   1   7
TORSDOF 3
ENDMDL
