MODEL 1
REMARK minimizedAffinity -2.43214989
REMARK minimizedRMSD -1
REMARK  0 active torsions:
REMARK  status: ('A' for Active; 'I' for Inactive)
ROOT
ATOM      1  C   UNL d   1       0.055  -0.385   0.041  0.00  0.00     0.172 C 
ATOM      2  N   UNL d   1      -0.155  -1.643  -0.635  0.00  0.00    -0.070 N 
ATOM      3  C1  UNL d   1       0.761  -2.289  -1.422  0.00  0.00    -0.004 A 
ATOM      4  C2  UNL d   1       0.179  -3.451  -1.880  0.00  0.00    -0.047 A 
ATOM      5  C3  UNL d   1      -1.133  -3.505  -1.350  0.00  0.00    -0.047 A 
ATOM      6  C4  UNL d   1      -1.313  -2.374  -0.583  0.00  0.00    -0.004 A 
ENDROOT
TORSDOF 0
ENDMDL
