MODEL 1
REMARK minimizedAffinity -1.2368294
REMARK minimizedRMSD -1
REMARK  0 active torsions:
REMARK  status: ('A' for Active; 'I' for Inactive)
ROOT
ATOM      1  C   UNL d   1       0.652  -0.486  -0.350  0.00  0.00     0.172 C 
ATOM      2  N   UNL d   1       0.210  -1.813  -0.707  0.00  0.00    -0.070 N 
ATOM      3  C1  UNL d   1       0.952  -2.959  -0.595  0.00  0.00    -0.004 A 
ATOM      4  C2  UNL d   1       0.176  -4.009  -1.037  0.00  0.00    -0.047 A 
ATOM      5  C3  UNL d   1      -1.075  -3.476  -1.428  0.00  0.00    -0.047 A 
ATOM      6  C4  UNL d   1      -1.026  -2.114  -1.214  0.00  0.00    -0.004 A 
ENDROOT
TORSDOF 0
ENDMDL
