MODEL 1
REMARK minimizedAffinity -1.16110587
REMARK minimizedRMSD -1
REMARK  0 active torsions:
REMARK  status: ('A' for Active; 'I' for Inactive)
ROOT
ATOM      1  C   UNL d   1       0.385  -0.969  -1.807  0.00  0.00     0.172 C 
ATOM      2  N   UNL d   1       0.092  -2.377  -1.675  0.00  0.00    -0.070 N 
ATOM      3  C1  UNL d   1      -1.082  -2.985  -2.030  0.00  0.00    -0.004 A 
ATOM      4  C2  UNL d   1      -0.964  -4.329  -1.748  0.00  0.00    -0.047 A 
ATOM      5  C3  UNL d   1       0.326  -4.535  -1.204  0.00  0.00    -0.047 A 
ATOM      6  C4  UNL d   1       0.958  -3.310  -1.169  0.00  0.00    -0.004 A 
ENDROOT
TORSDOF 0
ENDMDL
