MODEL 1
REMARK minimizedAffinity -2.06546116
REMARK minimizedRMSD -1
REMARK  0 active torsions:
REMARK  status: ('A' for Active; 'I' for Inactive)
ROOT
ATOM      1  C   UNL d   1       0.477  -0.634   1.726  0.00  0.00     0.172 C 
ATOM      2  N   UNL d   1       0.087   0.756   1.787  0.00  0.00    -0.070 N 
ATOM      3  C1  UNL d   1      -1.159   1.248   1.505  0.00  0.00    -0.004 A 
ATOM      4  C2  UNL d   1      -1.122   2.615   1.681  0.00  0.00    -0.047 A 
ATOM      5  C3  UNL d   1       0.192   2.955   2.081  0.00  0.00    -0.047 A 
ATOM      6  C4  UNL d   1       0.919   1.785   2.139  0.00  0.00    -0.004 A 
ENDROOT
TORSDOF 0
ENDMDL
