MODEL 1
REMARK minimizedAffinity -3.60398579
REMARK minimizedRMSD -1
REMARK  0 active torsions:
REMARK  status: ('A' for Active; 'I' for Inactive)
ROOT
ATOM      1  C   UNL d   1      -1.187   2.220   1.638  0.00  0.00     0.172 C 
ATOM      2  N   UNL d   1      -0.455   1.122   1.053  0.00  0.00    -0.070 N 
ATOM      3  C1  UNL d   1       0.419   0.302   1.716  0.00  0.00    -0.004 A 
ATOM      4  C2  UNL d   1       0.906  -0.616   0.812  0.00  0.00    -0.047 A 
ATOM      5  C3  UNL d   1       0.305  -0.338  -0.439  0.00  0.00    -0.047 A 
ATOM      6  C4  UNL d   1      -0.533   0.742  -0.261  0.00  0.00    -0.004 A 
ENDROOT
TORSDOF 0
ENDMDL
