MODEL 1
REMARK minimizedAffinity -3.81547332
REMARK minimizedRMSD -1
REMARK  0 active torsions:
REMARK  status: ('A' for Active; 'I' for Inactive)
ROOT
ATOM      1  C   UNL d   1       0.219  -0.885  -0.492  0.00  0.00     0.172 C 
ATOM      2  N   UNL d   1      -0.190   0.288   0.244  0.00  0.00    -0.070 N 
ATOM      3  C1  UNL d   1      -0.044   0.476   1.592  0.00  0.00    -0.004 A 
ATOM      4  C2  UNL d   1      -0.556   1.717   1.904  0.00  0.00    -0.047 A 
ATOM      5  C3  UNL d   1      -1.027   2.294   0.701  0.00  0.00    -0.047 A 
ATOM      6  C4  UNL d   1      -0.788   1.389  -0.311  0.00  0.00    -0.004 A 
ENDROOT
TORSDOF 0
ENDMDL
