MODEL 1
REMARK minimizedAffinity -4.04347229
REMARK minimizedRMSD -1
REMARK  0 active torsions:
REMARK  status: ('A' for Active; 'I' for Inactive)
ROOT
ATOM      1  C   UNL d   1      -0.004   0.161   0.012  0.00  0.00     0.172 C 
ATOM      2  N   UNL d   1      -0.331   1.556  -0.169  0.00  0.00    -0.070 N 
ATOM      3  C1  UNL d   1      -0.091   2.292  -1.298  0.00  0.00    -0.004 A 
ATOM      4  C2  UNL d   1      -0.548   3.572  -1.072  0.00  0.00    -0.047 A 
ATOM      5  C3  UNL d   1      -1.080   3.607   0.239  0.00  0.00    -0.047 A 
ATOM      6  C4  UNL d   1      -0.932   2.345   0.775  0.00  0.00    -0.004 A 
ENDROOT
TORSDOF 0
ENDMDL
