MODEL 1
REMARK minimizedAffinity 0.867695093
REMARK minimizedRMSD -1
REMARK  0 active torsions:
REMARK  status: ('A' for Active; 'I' for Inactive)
ROOT
ATOM      1  C   UNL d   1       0.128   1.911   2.451  0.00  0.00     0.172 C 
ATOM      2  N   UNL d   1       0.332   1.002   1.347  0.00  0.00    -0.070 N 
ATOM      3  C1  UNL d   1       0.053   1.267   0.033  0.00  0.00    -0.004 A 
ATOM      4  C2  UNL d   1       0.388   0.151  -0.703  0.00  0.00    -0.047 A 
ATOM      5  C3  UNL d   1       0.886  -0.818   0.201  0.00  0.00    -0.047 A 
ATOM      6  C4  UNL d   1       0.840  -0.265   1.463  0.00  0.00    -0.004 A 
ENDROOT
TORSDOF 0
ENDMDL
