MODEL 1
REMARK minimizedAffinity -5.61841869
REMARK minimizedRMSD -1
REMARK  1 active torsions:
REMARK  status: ('A' for Active; 'I' for Inactive)
REMARK    1  A    between atoms: C1_2  and  C2_3 
ROOT
ATOM      1  C2  UNL d   1       0.732   0.434   0.011  0.00  0.00    -0.077 A 
ATOM      2  C3  UNL d   1       1.857   0.823   0.752  0.00  0.00     0.002 A 
ATOM      3  C4  UNL d   1       2.789  -0.128   1.173  0.00  0.00     0.002 A 
ATOM      4  C5  UNL d   1       2.608  -1.472   0.854  0.00  0.00    -0.004 A 
ATOM      5  C6  UNL d   1       1.492  -1.869   0.119  0.00  0.00     0.002 A 
ATOM      6  C7  UNL d   1       0.559  -0.921  -0.301  0.00  0.00     0.002 A 
ENDROOT
BRANCH   1   7
ATOM      7  C1  UNL d   1      -0.248   1.464  -0.485  0.00  0.00     0.055 C 
ATOM      8  C   UNL d   1      -1.679   0.950  -0.406  0.00  0.00     0.019 C 
ENDBRANCH   1   7
TORSDOF 1
ENDMDL
