MODEL 1
REMARK minimizedAffinity -3.46578217
REMARK minimizedRMSD -1
REMARK  1 active torsions:
REMARK  status: ('A' for Active; 'I' for Inactive)
REMARK    1  A    between atoms: C1_2  and  C2_3 
ROOT
ATOM      1  C2  UNL d   1       0.192   0.444   0.369  0.00  0.00    -0.077 A 
ATOM      2  C3  UNL d   1       0.137  -0.757  -0.352  0.00  0.00     0.002 A 
ATOM      3  C4  UNL d   1       1.116  -1.736  -0.168  0.00  0.00     0.002 A 
ATOM      4  C5  UNL d   1       2.153  -1.526   0.738  0.00  0.00    -0.004 A 
ATOM      5  C6  UNL d   1       2.217  -0.333   1.458  0.00  0.00     0.002 A 
ATOM      6  C7  UNL d   1       1.241   0.647   1.275  0.00  0.00     0.002 A 
ENDROOT
BRANCH   1   7
ATOM      7  C1  UNL d   1      -0.889   1.481   0.208  0.00  0.00     0.055 C 
ATOM      8  C   UNL d   1      -2.255   0.918   0.576  0.00  0.00     0.019 C 
ENDBRANCH   1   7
TORSDOF 1
ENDMDL
