MODEL 1
REMARK minimizedAffinity -3.28153014
REMARK minimizedRMSD -1
REMARK  1 active torsions:
REMARK  status: ('A' for Active; 'I' for Inactive)
REMARK    1  A    between atoms: C1_2  and  C2_3 
ROOT
ATOM      1  C2  UNL d   1       0.483  -1.570  -0.685  0.00  0.00    -0.077 A 
ATOM      2  C3  UNL d   1       1.775  -2.116  -0.700  0.00  0.00     0.002 A 
ATOM      3  C4  UNL d   1       2.654  -1.879   0.358  0.00  0.00     0.002 A 
ATOM      4  C5  UNL d   1       2.250  -1.102   1.442  0.00  0.00    -0.004 A 
ATOM      5  C6  UNL d   1       0.968  -0.554   1.465  0.00  0.00     0.002 A 
ATOM      6  C7  UNL d   1       0.089  -0.787   0.407  0.00  0.00     0.002 A 
ENDROOT
BRANCH   1   7
ATOM      7  C1  UNL d   1      -0.483  -1.865  -1.802  0.00  0.00     0.055 C 
ATOM      8  C   UNL d   1      -1.309  -0.637  -2.157  0.00  0.00     0.019 C 
ENDBRANCH   1   7
TORSDOF 1
ENDMDL
