MODEL 1
REMARK minimizedAffinity -5.39189482
REMARK minimizedRMSD -1
REMARK  1 active torsions:
REMARK  status: ('A' for Active; 'I' for Inactive)
REMARK    1  A    between atoms: C1_2  and  C2_3 
ROOT
ATOM      1  C2  UNL d   1       1.599  -0.673  -0.178  0.00  0.00    -0.077 A 
ATOM      2  C3  UNL d   1       1.813   0.698   0.022  0.00  0.00     0.002 A 
ATOM      3  C4  UNL d   1       0.761   1.605  -0.117  0.00  0.00     0.002 A 
ATOM      4  C5  UNL d   1      -0.513   1.151  -0.451  0.00  0.00    -0.004 A 
ATOM      5  C6  UNL d   1      -0.736  -0.210  -0.653  0.00  0.00     0.002 A 
ATOM      6  C7  UNL d   1       0.314  -1.118  -0.516  0.00  0.00     0.002 A 
ENDROOT
BRANCH   1   7
ATOM      7  C1  UNL d   1       2.721  -1.658   0.019  0.00  0.00     0.055 C 
ATOM      8  C   UNL d   1       4.000  -0.960   0.456  0.00  0.00     0.019 C 
ENDBRANCH   1   7
TORSDOF 1
ENDMDL
