MODEL 1
REMARK minimizedAffinity -5.68473196
REMARK minimizedRMSD -1
REMARK  1 active torsions:
REMARK  status: ('A' for Active; 'I' for Inactive)
REMARK    1  A    between atoms: C1_2  and  C2_3 
ROOT
ATOM      1  C2  UNL d   1      -0.018   0.116  -0.010  0.00  0.00    -0.077 A 
ATOM      2  C3  UNL d   1       0.939   0.907   0.640  0.00  0.00     0.002 A 
ATOM      3  C4  UNL d   1       2.110   0.333   1.138  0.00  0.00     0.002 A 
ATOM      4  C5  UNL d   1       2.337  -1.033   0.986  0.00  0.00    -0.004 A 
ATOM      5  C6  UNL d   1       1.390  -1.829   0.342  0.00  0.00     0.002 A 
ATOM      6  C7  UNL d   1       0.218  -1.257  -0.154  0.00  0.00     0.002 A 
ENDROOT
BRANCH   1   7
ATOM      7  C1  UNL d   1      -1.260   0.742  -0.591  0.00  0.00     0.055 C 
ATOM      8  C   UNL d   1      -2.375   0.820   0.441  0.00  0.00     0.019 C 
ENDBRANCH   1   7
TORSDOF 1
ENDMDL
