MODEL 1
REMARK minimizedAffinity 10.3000803
REMARK minimizedRMSD -1
REMARK  0 active torsions:
REMARK  status: ('A' for Active; 'I' for Inactive)
ROOT
ATOM      1  O1  BZF d   1       3.665  -2.944   3.574  0.00  0.00    -0.204 OA
ATOM      2  C2  BZF d   1       3.163  -1.712   3.945  0.00  0.00     0.174 A 
ATOM      3  C3  BZF d   1       2.186  -1.850   4.864  0.00  0.00    -0.012 A 
ATOM      4  C3A BZF d   1       2.134  -3.251   5.150  0.00  0.00    -0.107 A 
ATOM      5  C4  BZF d   1       1.375  -4.009   5.995  0.00  0.00     0.055 A 
ATOM      6  C5  BZF d   1       1.520  -5.360   5.981  0.00  0.00    -0.016 A 
ATOM      7  C6  BZF d   1       2.410  -5.986   5.133  0.00  0.00     0.022 A 
ATOM      8  C7  BZF d   1       3.188  -5.276   4.280  0.00  0.00     0.029 A 
ATOM      9  C7A BZF d   1       3.067  -3.908   4.315  0.00  0.00     0.058 A 
ENDROOT
TORSDOF 0
ENDMDL
