MODEL 1
REMARK minimizedAffinity 2.7032721
REMARK minimizedRMSD -1
REMARK  0 active torsions:
REMARK  status: ('A' for Active; 'I' for Inactive)
ROOT
ATOM      1  O1  BZF d   1      -3.639   2.561  -2.446  0.00  0.00    -0.204 OA
ATOM      2  C2  BZF d   1      -4.906   2.624  -2.992  0.00  0.00     0.174 A 
ATOM      3  C3  BZF d   1      -5.828   2.856  -2.035  0.00  0.00    -0.012 A 
ATOM      4  C3A BZF d   1      -5.081   3.035  -0.828  0.00  0.00    -0.107 A 
ATOM      5  C4  BZF d   1      -5.434   3.310   0.462  0.00  0.00     0.055 A 
ATOM      6  C5  BZF d   1      -4.468   3.349   1.417  0.00  0.00    -0.016 A 
ATOM      7  C6  BZF d   1      -3.142   3.112   1.119  0.00  0.00     0.022 A 
ATOM      8  C7  BZF d   1      -2.743   2.841  -0.148  0.00  0.00     0.029 A 
ATOM      9  C7A BZF d   1      -3.713   2.833  -1.121  0.00  0.00     0.058 A 
ENDROOT
TORSDOF 0
ENDMDL
