MODEL 1
REMARK minimizedAffinity 9.7084341
REMARK minimizedRMSD -1
REMARK  0 active torsions:
REMARK  status: ('A' for Active; 'I' for Inactive)
ROOT
ATOM      1  O1  BZF d   1       1.591   0.816   3.049  0.00  0.00    -0.204 OA
ATOM      2  C2  BZF d   1       2.274   1.155   1.897  0.00  0.00     0.174 A 
ATOM      3  C3  BZF d   1       3.172   0.201   1.575  0.00  0.00    -0.012 A 
ATOM      4  C3A BZF d   1       2.977  -0.840   2.537  0.00  0.00    -0.107 A 
ATOM      5  C4  BZF d   1       3.560  -2.059   2.732  0.00  0.00     0.055 A 
ATOM      6  C5  BZF d   1       3.192  -2.803   3.808  0.00  0.00    -0.016 A 
ATOM      7  C6  BZF d   1       2.249  -2.356   4.711  0.00  0.00     0.022 A 
ATOM      8  C7  BZF d   1       1.640  -1.155   4.557  0.00  0.00     0.029 A 
ATOM      9  C7A BZF d   1       1.986  -0.416   3.452  0.00  0.00     0.058 A 
ENDROOT
TORSDOF 0
ENDMDL
