MODEL 1
REMARK minimizedAffinity 15.2838287
REMARK minimizedRMSD -1
REMARK  0 active torsions:
REMARK  status: ('A' for Active; 'I' for Inactive)
ROOT
ATOM      1  O1  BZF d   1       0.274   0.548   1.703  0.00  0.00    -0.204 OA
ATOM      2  C2  BZF d   1       1.604   0.299   1.983  0.00  0.00     0.174 A 
ATOM      3  C3  BZF d   1       2.078  -0.696   1.206  0.00  0.00    -0.012 A 
ATOM      4  C3A BZF d   1       1.001  -1.032   0.325  0.00  0.00    -0.107 A 
ATOM      5  C4  BZF d   1       0.865  -1.937  -0.688  0.00  0.00     0.055 A 
ATOM      6  C5  BZF d   1      -0.341  -2.065  -1.301  0.00  0.00    -0.016 A 
ATOM      7  C6  BZF d   1      -1.431  -1.308  -0.924  0.00  0.00     0.022 A 
ATOM      8  C7  BZF d   1      -1.343  -0.393   0.072  0.00  0.00     0.029 A 
ATOM      9  C7A BZF d   1      -0.117  -0.239   0.672  0.00  0.00     0.058 A 
ENDROOT
TORSDOF 0
ENDMDL
