MODEL 1
REMARK minimizedAffinity 15.7075586
REMARK minimizedRMSD -1
REMARK  0 active torsions:
REMARK  status: ('A' for Active; 'I' for Inactive)
ROOT
ATOM      1  O1  BZF d   1       1.746  -2.262   2.154  0.00  0.00    -0.204 OA
ATOM      2  C2  BZF d   1       1.588  -1.039   2.778  0.00  0.00     0.174 A 
ATOM      3  C3  BZF d   1       2.116  -1.064   4.019  0.00  0.00    -0.012 A 
ATOM      4  C3A BZF d   1       2.719  -2.355   4.146  0.00  0.00    -0.107 A 
ATOM      5  C4  BZF d   1       3.416  -2.972   5.146  0.00  0.00     0.055 A 
ATOM      6  C5  BZF d   1       3.804  -4.264   4.980  0.00  0.00    -0.016 A 
ATOM      7  C6  BZF d   1       3.508  -4.970   3.833  0.00  0.00     0.022 A 
ATOM      8  C7  BZF d   1       2.823  -4.399   2.812  0.00  0.00     0.029 A 
ATOM      9  C7A BZF d   1       2.458  -3.083   2.962  0.00  0.00     0.058 A 
ENDROOT
TORSDOF 0
ENDMDL
