MODEL 1
REMARK minimizedAffinity 14.4239216
REMARK minimizedRMSD -1
REMARK  0 active torsions:
REMARK  status: ('A' for Active; 'I' for Inactive)
ROOT
ATOM      1  O1  BZF d   1       0.829  -1.887   3.883  0.00  0.00    -0.204 OA
ATOM      2  C2  BZF d   1       1.830  -1.144   3.286  0.00  0.00     0.174 A 
ATOM      3  C3  BZF d   1       2.906  -1.915   3.024  0.00  0.00    -0.012 A 
ATOM      4  C3A BZF d   1       2.520  -3.240   3.401  0.00  0.00    -0.107 A 
ATOM      5  C4  BZF d   1       3.155  -4.449   3.364  0.00  0.00     0.055 A 
ATOM      6  C5  BZF d   1       2.527  -5.540   3.875  0.00  0.00    -0.016 A 
ATOM      7  C6  BZF d   1       1.269  -5.458   4.436  0.00  0.00     0.022 A 
ATOM      8  C7  BZF d   1       0.598  -4.282   4.491  0.00  0.00     0.029 A 
ATOM      9  C7A BZF d   1       1.216  -3.184   3.945  0.00  0.00     0.058 A 
ENDROOT
TORSDOF 0
ENDMDL
