MODEL 1
REMARK minimizedAffinity 5.64458466
REMARK minimizedRMSD -1
REMARK  0 active torsions:
REMARK  status: ('A' for Active; 'I' for Inactive)
ROOT
ATOM      1  O1  BZF d   1       2.259  -2.484   2.816  0.00  0.00    -0.204 OA
ATOM      2  C2  BZF d   1       2.007  -3.176   3.984  0.00  0.00     0.174 A 
ATOM      3  C3  BZF d   1       1.921  -2.331   5.032  0.00  0.00    -0.012 A 
ATOM      4  C3A BZF d   1       2.041  -1.021   4.470  0.00  0.00    -0.107 A 
ATOM      5  C4  BZF d   1       2.018   0.236   5.004  0.00  0.00     0.055 A 
ATOM      6  C5  BZF d   1       2.237   1.303   4.191  0.00  0.00    -0.016 A 
ATOM      7  C6  BZF d   1       2.487   1.150   2.843  0.00  0.00     0.022 A 
ATOM      8  C7  BZF d   1       2.515  -0.077   2.267  0.00  0.00     0.029 A 
ATOM      9  C7A BZF d   1       2.262  -1.155   3.079  0.00  0.00     0.058 A 
ENDROOT
TORSDOF 0
ENDMDL
