MODEL 1
REMARK minimizedAffinity 10.6758137
REMARK minimizedRMSD -1
REMARK  0 active torsions:
REMARK  status: ('A' for Active; 'I' for Inactive)
ROOT
ATOM      1  O1  BZF d   1      -3.288  -1.180  -4.944  0.00  0.00    -0.204 OA
ATOM      2  C2  BZF d   1      -3.387  -0.571  -3.708  0.00  0.00     0.174 A 
ATOM      3  C3  BZF d   1      -4.338  -1.164  -2.957  0.00  0.00    -0.012 A 
ATOM      4  C3A BZF d   1      -4.801  -2.268  -3.741  0.00  0.00    -0.107 A 
ATOM      5  C4  BZF d   1      -5.732  -3.244  -3.528  0.00  0.00     0.055 A 
ATOM      6  C5  BZF d   1      -5.999  -4.129  -4.524  0.00  0.00    -0.016 A 
ATOM      7  C6  BZF d   1      -5.359  -4.065  -5.745  0.00  0.00     0.022 A 
ATOM      8  C7  BZF d   1      -4.425  -3.117  -6.000  0.00  0.00     0.029 A 
ATOM      9  C7A BZF d   1      -4.129  -2.241  -4.984  0.00  0.00     0.058 A 
ENDROOT
TORSDOF 0
ENDMDL
