MODEL 1
REMARK minimizedAffinity 4.52195358
REMARK minimizedRMSD -1
REMARK  0 active torsions:
REMARK  status: ('A' for Active; 'I' for Inactive)
ROOT
ATOM      1  O1  BZF d   1       0.734  -2.726   3.834  0.00  0.00    -0.204 OA
ATOM      2  C2  BZF d   1       1.890  -2.001   3.620  0.00  0.00     0.174 A 
ATOM      3  C3  BZF d   1       2.960  -2.646   4.127  0.00  0.00    -0.012 A 
ATOM      4  C3A BZF d   1       2.453  -3.893   4.612  0.00  0.00    -0.107 A 
ATOM      5  C4  BZF d   1       3.033  -4.974   5.211  0.00  0.00     0.055 A 
ATOM      6  C5  BZF d   1       2.246  -6.000   5.629  0.00  0.00    -0.016 A 
ATOM      7  C6  BZF d   1       0.876  -5.976   5.468  0.00  0.00     0.022 A 
ATOM      8  C7  BZF d   1       0.255  -4.928   4.874  0.00  0.00     0.029 A 
ATOM      9  C7A BZF d   1       1.051  -3.904   4.421  0.00  0.00     0.058 A 
ENDROOT
TORSDOF 0
ENDMDL
