MODEL 1
REMARK minimizedAffinity 2.18353438
REMARK minimizedRMSD -1
REMARK  0 active torsions:
REMARK  status: ('A' for Active; 'I' for Inactive)
ROOT
ATOM      1  O1  BZF d   1       4.847  -5.978  -2.398  0.00  0.00    -0.204 OA
ATOM      2  C2  BZF d   1       3.769  -5.996  -1.533  0.00  0.00     0.174 A 
ATOM      3  C3  BZF d   1       2.607  -5.947  -2.217  0.00  0.00    -0.012 A 
ATOM      4  C3A BZF d   1       2.981  -5.989  -3.597  0.00  0.00    -0.107 A 
ATOM      5  C4  BZF d   1       2.269  -5.987  -4.763  0.00  0.00     0.055 A 
ATOM      6  C5  BZF d   1       2.938  -5.961  -5.945  0.00  0.00    -0.016 A 
ATOM      7  C6  BZF d   1       4.316  -5.932  -5.999  0.00  0.00     0.022 A 
ATOM      8  C7  BZF d   1       5.065  -5.939  -4.870  0.00  0.00     0.029 A 
ATOM      9  C7A BZF d   1       4.393  -5.998  -3.674  0.00  0.00     0.058 A 
ENDROOT
TORSDOF 0
ENDMDL
