MODEL 1
REMARK minimizedAffinity 1.4969331
REMARK minimizedRMSD -1
REMARK  0 active torsions:
REMARK  status: ('A' for Active; 'I' for Inactive)
ROOT
ATOM      1  O1  BZF d   1       3.723   0.269   1.067  0.00  0.00    -0.204 OA
ATOM      2  C2  BZF d   1       2.976   1.430   1.033  0.00  0.00     0.174 A 
ATOM      3  C3  BZF d   1       2.156   1.504   2.102  0.00  0.00    -0.012 A 
ATOM      4  C3A BZF d   1       2.474   0.358   2.898  0.00  0.00    -0.107 A 
ATOM      5  C4  BZF d   1       2.008  -0.113   4.092  0.00  0.00     0.055 A 
ATOM      6  C5  BZF d   1       2.475  -1.300   4.561  0.00  0.00    -0.016 A 
ATOM      7  C6  BZF d   1       3.403  -2.043   3.861  0.00  0.00     0.022 A 
ATOM      8  C7  BZF d   1       3.898  -1.614   2.675  0.00  0.00     0.029 A 
ATOM      9  C7A BZF d   1       3.452  -0.399   2.214  0.00  0.00     0.058 A 
ENDROOT
TORSDOF 0
ENDMDL
