MODEL 1
REMARK minimizedAffinity 18.3335285
REMARK minimizedRMSD -1
REMARK  0 active torsions:
REMARK  status: ('A' for Active; 'I' for Inactive)
ROOT
ATOM      1  N1  IND d   1       1.144   2.337  -1.990  0.00  0.00    -0.196 N 
ATOM      2  C2  IND d   1       1.344   1.361  -2.926  0.00  0.00     0.054 A 
ATOM      3  C3  IND d   1       2.018   0.322  -2.384  0.00  0.00    -0.031 A 
ATOM      4  C4  IND d   1       2.802  -0.034   0.042  0.00  0.00     0.051 A 
ATOM      5  C5  IND d   1       2.880   0.597   1.252  0.00  0.00    -0.031 A 
ATOM      6  C6  IND d   1       2.370   1.864   1.448  0.00  0.00     0.015 A 
ATOM      7  C7  IND d   1       1.751   2.547   0.440  0.00  0.00    -0.016 A 
ATOM      8  C8  IND d   1       1.676   1.912  -0.792  0.00  0.00    -0.047 A 
ATOM      9  C9  IND d   1       2.230   0.644  -1.008  0.00  0.00    -0.096 A 
ATOM     10  HN1 IND d   1       0.752   3.090  -2.126  0.00  0.00     0.298 HD
ENDROOT
TORSDOF 0
ENDMDL
