MODEL 1
REMARK minimizedAffinity 18.0180874
REMARK minimizedRMSD -1
REMARK  0 active torsions:
REMARK  status: ('A' for Active; 'I' for Inactive)
ROOT
ATOM      1  N1  IND d   1       3.022  -0.676  -0.781  0.00  0.00    -0.196 N 
ATOM      2  C2  IND d   1       2.086   0.150  -1.339  0.00  0.00     0.054 A 
ATOM      3  C3  IND d   1       1.079  -0.575  -1.875  0.00  0.00    -0.031 A 
ATOM      4  C4  IND d   1       0.710  -3.123  -1.862  0.00  0.00     0.051 A 
ATOM      5  C5  IND d   1       1.312  -4.297  -1.504  0.00  0.00    -0.031 A 
ATOM      6  C6  IND d   1       2.538  -4.324  -0.870  0.00  0.00     0.015 A 
ATOM      7  C7  IND d   1       3.205  -3.173  -0.561  0.00  0.00    -0.016 A 
ATOM      8  C8  IND d   1       2.601  -1.979  -0.930  0.00  0.00    -0.047 A 
ATOM      9  C9  IND d   1       1.377  -1.947  -1.611  0.00  0.00    -0.096 A 
ATOM     10  HN1 IND d   1       3.751  -0.424  -0.401  0.00  0.00     0.298 HD
ENDROOT
TORSDOF 0
ENDMDL
