MODEL 1
REMARK minimizedAffinity 17.3288918
REMARK minimizedRMSD -1
REMARK  0 active torsions:
REMARK  status: ('A' for Active; 'I' for Inactive)
ROOT
ATOM      1  N1  IND d   1       1.281  -3.892  -0.322  0.00  0.00    -0.196 N 
ATOM      2  C2  IND d   1       1.549  -2.579  -0.051  0.00  0.00     0.054 A 
ATOM      3  C3  IND d   1       2.809  -2.268  -0.431  0.00  0.00    -0.031 A 
ATOM      4  C4  IND d   1       4.569  -3.729  -1.611  0.00  0.00     0.051 A 
ATOM      5  C5  IND d   1       4.799  -5.008  -2.034  0.00  0.00    -0.031 A 
ATOM      6  C6  IND d   1       3.848  -6.000  -1.908  0.00  0.00     0.015 A 
ATOM      7  C7  IND d   1       2.622  -5.746  -1.362  0.00  0.00    -0.016 A 
ATOM      8  C8  IND d   1       2.387  -4.450  -0.925  0.00  0.00    -0.047 A 
ATOM      9  C9  IND d   1       3.364  -3.449  -1.012  0.00  0.00    -0.096 A 
ATOM     10  HN1 IND d   1       0.545  -4.300  -0.146  0.00  0.00     0.298 HD
ENDROOT
TORSDOF 0
ENDMDL
