MODEL 1
REMARK minimizedAffinity 10.301671
REMARK minimizedRMSD -1
REMARK  0 active torsions:
REMARK  status: ('A' for Active; 'I' for Inactive)
ROOT
ATOM      1  N1  IND d   1       1.925   1.024   1.448  0.00  0.00    -0.196 N 
ATOM      2  C2  IND d   1       2.599   2.202   1.283  0.00  0.00     0.054 A 
ATOM      3  C3  IND d   1       1.781   3.250   1.530  0.00  0.00    -0.031 A 
ATOM      4  C4  IND d   1      -0.669   3.262   2.318  0.00  0.00     0.051 A 
ATOM      5  C5  IND d   1      -1.723   2.430   2.572  0.00  0.00    -0.031 A 
ATOM      6  C6  IND d   1      -1.612   1.059   2.465  0.00  0.00     0.015 A 
ATOM      7  C7  IND d   1      -0.434   0.466   2.109  0.00  0.00    -0.016 A 
ATOM      8  C8  IND d   1       0.636   1.308   1.843  0.00  0.00    -0.047 A 
ATOM      9  C9  IND d   1       0.518   2.702   1.909  0.00  0.00    -0.096 A 
ATOM     10  HN1 IND d   1       2.251   0.238   1.325  0.00  0.00     0.298 HD
ENDROOT
TORSDOF 0
ENDMDL
