MODEL 1
REMARK minimizedAffinity 3.45491767
REMARK minimizedRMSD -1
REMARK  0 active torsions:
REMARK  status: ('A' for Active; 'I' for Inactive)
ROOT
ATOM      1  N1  IND d   1       3.056   2.812   2.485  0.00  0.00    -0.196 N 
ATOM      2  C2  IND d   1       2.662   2.093   1.391  0.00  0.00     0.054 A 
ATOM      3  C3  IND d   1       1.991   0.983   1.774  0.00  0.00    -0.031 A 
ATOM      4  C4  IND d   1       1.335   0.202   4.138  0.00  0.00     0.051 A 
ATOM      5  C5  IND d   1       1.503   0.510   5.459  0.00  0.00    -0.031 A 
ATOM      6  C6  IND d   1       2.209   1.624   5.864  0.00  0.00     0.015 A 
ATOM      7  C7  IND d   1       2.766   2.483   4.960  0.00  0.00    -0.016 A 
ATOM      8  C8  IND d   1       2.604   2.170   3.617  0.00  0.00    -0.047 A 
ATOM      9  C9  IND d   1       1.925   1.018   3.201  0.00  0.00    -0.096 A 
ATOM     10  HN1 IND d   1       3.509   3.542   2.469  0.00  0.00     0.298 HD
ENDROOT
TORSDOF 0
ENDMDL
