MODEL 1
REMARK minimizedAffinity 11.8864956
REMARK minimizedRMSD -1
REMARK  0 active torsions:
REMARK  status: ('A' for Active; 'I' for Inactive)
ROOT
ATOM      1  N1  IND d   1       5.009   3.439   1.127  0.00  0.00    -0.196 N 
ATOM      2  C2  IND d   1       4.516   4.353   2.016  0.00  0.00     0.054 A 
ATOM      3  C3  IND d   1       3.323   3.940   2.501  0.00  0.00    -0.031 A 
ATOM      4  C4  IND d   1       2.043   1.753   2.051  0.00  0.00     0.051 A 
ATOM      5  C5  IND d   1       2.077   0.623   1.283  0.00  0.00    -0.031 A 
ATOM      6  C6  IND d   1       3.113   0.368   0.407  0.00  0.00     0.015 A 
ATOM      7  C7  IND d   1       4.163   1.231   0.276  0.00  0.00    -0.016 A 
ATOM      8  C8  IND d   1       4.128   2.383   1.049  0.00  0.00    -0.047 A 
ATOM      9  C9  IND d   1       3.059   2.668   1.908  0.00  0.00    -0.096 A 
ATOM     10  HN1 IND d   1       5.746   3.512   0.689  0.00  0.00     0.298 HD
ENDROOT
TORSDOF 0
ENDMDL
