MODEL 1
REMARK minimizedAffinity 10.186204
REMARK minimizedRMSD -1
REMARK  0 active torsions:
REMARK  status: ('A' for Active; 'I' for Inactive)
ROOT
ATOM      1  N1  IND d   1       1.088  -3.350  -1.069  0.00  0.00    -0.196 N 
ATOM      2  C2  IND d   1       0.169  -3.848  -1.950  0.00  0.00     0.054 A 
ATOM      3  C3  IND d   1      -0.107  -2.936  -2.909  0.00  0.00    -0.031 A 
ATOM      4  C4  IND d   1       0.909  -0.600  -3.284  0.00  0.00     0.051 A 
ATOM      5  C5  IND d   1       1.761   0.308  -2.719  0.00  0.00    -0.031 A 
ATOM      6  C6  IND d   1       2.448   0.036  -1.554  0.00  0.00     0.015 A 
ATOM      7  C7  IND d   1       2.316  -1.163  -0.913  0.00  0.00    -0.016 A 
ATOM      8  C8  IND d   1       1.447  -2.085  -1.479  0.00  0.00    -0.047 A 
ATOM      9  C9  IND d   1       0.715  -1.799  -2.639  0.00  0.00    -0.096 A 
ATOM     10  HN1 IND d   1       1.391  -3.758  -0.376  0.00  0.00     0.298 HD
ENDROOT
TORSDOF 0
ENDMDL
