MODEL 1
REMARK minimizedAffinity 3.22922564
REMARK minimizedRMSD -1
REMARK  0 active torsions:
REMARK  status: ('A' for Active; 'I' for Inactive)
ROOT
ATOM      1  N1  IND d   1      -2.217  -5.172  -4.085  0.00  0.00    -0.196 N 
ATOM      2  C2  IND d   1      -1.219  -5.998  -3.648  0.00  0.00     0.054 A 
ATOM      3  C3  IND d   1      -0.399  -5.337  -2.800  0.00  0.00    -0.031 A 
ATOM      4  C4  IND d   1      -0.564  -2.926  -1.912  0.00  0.00     0.051 A 
ATOM      5  C5  IND d   1      -1.283  -1.773  -2.054  0.00  0.00    -0.031 A 
ATOM      6  C6  IND d   1      -2.375  -1.693  -2.895  0.00  0.00     0.015 A 
ATOM      7  C7  IND d   1      -2.796  -2.772  -3.620  0.00  0.00    -0.016 A 
ATOM      8  C8  IND d   1      -2.063  -3.942  -3.484  0.00  0.00    -0.047 A 
ATOM      9  C9  IND d   1      -0.929  -4.017  -2.665  0.00  0.00    -0.096 A 
ATOM     10  HN1 IND d   1      -2.836  -5.385  -4.643  0.00  0.00     0.298 HD
ENDROOT
TORSDOF 0
ENDMDL
