MODEL 1
REMARK minimizedAffinity 10.0325651
REMARK minimizedRMSD -1
REMARK  0 active torsions:
REMARK  status: ('A' for Active; 'I' for Inactive)
ROOT
ATOM      1  N1  IND d   1       3.695   3.313   1.523  0.00  0.00    -0.196 N 
ATOM      2  C2  IND d   1       2.805   3.954   2.340  0.00  0.00     0.054 A 
ATOM      3  C3  IND d   1       1.719   3.178   2.552  0.00  0.00    -0.031 A 
ATOM      4  C4  IND d   1       1.236   0.783   1.743  0.00  0.00     0.051 A 
ATOM      5  C5  IND d   1       1.736  -0.205   0.941  0.00  0.00    -0.031 A 
ATOM      6  C6  IND d   1       2.940  -0.068   0.281  0.00  0.00     0.015 A 
ATOM      7  C7  IND d   1       3.698   1.062   0.408  0.00  0.00    -0.016 A 
ATOM      8  C8  IND d   1       3.190   2.069   1.216  0.00  0.00    -0.047 A 
ATOM      9  C9  IND d   1       1.949   1.953   1.854  0.00  0.00    -0.096 A 
ATOM     10  HN1 IND d   1       4.444   3.634   1.248  0.00  0.00     0.298 HD
ENDROOT
TORSDOF 0
ENDMDL
