MODEL 1
REMARK minimizedAffinity 6.20945597
REMARK minimizedRMSD -1
REMARK  0 active torsions:
REMARK  status: ('A' for Active; 'I' for Inactive)
ROOT
ATOM      1  N1  IND d   1      -0.296  -3.753  -1.156  0.00  0.00    -0.196 N 
ATOM      2  C2  IND d   1      -1.126  -3.771  -2.242  0.00  0.00     0.054 A 
ATOM      3  C3  IND d   1      -0.739  -2.844  -3.146  0.00  0.00    -0.031 A 
ATOM      4  C4  IND d   1       1.288  -1.257  -3.095  0.00  0.00     0.051 A 
ATOM      5  C5  IND d   1       2.315  -0.847  -2.292  0.00  0.00    -0.031 A 
ATOM      6  C6  IND d   1       2.531  -1.399  -1.046  0.00  0.00     0.015 A 
ATOM      7  C7  IND d   1       1.730  -2.392  -0.558  0.00  0.00    -0.016 A 
ATOM      8  C8  IND d   1       0.681  -2.805  -1.367  0.00  0.00    -0.047 A 
ATOM      9  C9  IND d   1       0.432  -2.220  -2.615  0.00  0.00    -0.096 A 
ATOM     10  HN1 IND d   1      -0.372  -4.249  -0.458  0.00  0.00     0.298 HD
ENDROOT
TORSDOF 0
ENDMDL
