MODEL 1
REMARK minimizedAffinity 8.47178841
REMARK minimizedRMSD -1
REMARK  0 active torsions:
REMARK  status: ('A' for Active; 'I' for Inactive)
ROOT
ATOM      1  N1  IND d   1       2.120  -0.809  -0.617  0.00  0.00    -0.196 N 
ATOM      2  C2  IND d   1       2.014   0.125  -1.610  0.00  0.00     0.054 A 
ATOM      3  C3  IND d   1       1.167  -0.305  -2.572  0.00  0.00    -0.031 A 
ATOM      4  C4  IND d   1      -0.234  -2.463  -2.673  0.00  0.00     0.051 A 
ATOM      5  C5  IND d   1      -0.445  -3.641  -2.014  0.00  0.00    -0.031 A 
ATOM      6  C6  IND d   1       0.198  -3.941  -0.830  0.00  0.00     0.015 A 
ATOM      7  C7  IND d   1       1.073  -3.064  -0.253  0.00  0.00    -0.016 A 
ATOM      8  C8  IND d   1       1.295  -1.869  -0.923  0.00  0.00    -0.047 A 
ATOM      9  C9  IND d   1       0.678  -1.578  -2.147  0.00  0.00    -0.096 A 
ATOM     10  HN1 IND d   1       2.618  -0.745   0.081  0.00  0.00     0.298 HD
ENDROOT
TORSDOF 0
ENDMDL
