MODEL 1
REMARK minimizedAffinity 18.400919
REMARK minimizedRMSD -1
REMARK  0 active torsions:
REMARK  status: ('A' for Active; 'I' for Inactive)
ROOT
ATOM      1  N1  IND d   1      -3.066  -2.438  -1.777  0.00  0.00    -0.196 N 
ATOM      2  C2  IND d   1      -2.233  -1.736  -2.604  0.00  0.00     0.054 A 
ATOM      3  C3  IND d   1      -1.174  -2.497  -2.959  0.00  0.00    -0.031 A 
ATOM      4  C4  IND d   1      -0.657  -4.953  -2.384  0.00  0.00     0.051 A 
ATOM      5  C5  IND d   1      -1.106  -6.000  -1.629  0.00  0.00    -0.031 A 
ATOM      6  C6  IND d   1      -2.256  -5.912  -0.872  0.00  0.00     0.015 A 
ATOM      7  C7  IND d   1      -3.010  -4.773  -0.850  0.00  0.00    -0.016 A 
ATOM      8  C8  IND d   1      -2.553  -3.705  -1.610  0.00  0.00    -0.047 A 
ATOM      9  C9  IND d   1      -1.363  -3.774  -2.347  0.00  0.00    -0.096 A 
ATOM     10  HN1 IND d   1      -3.789  -2.138  -1.422  0.00  0.00     0.298 HD
ENDROOT
TORSDOF 0
ENDMDL
