MODEL 1
REMARK minimizedAffinity 13.9483566
REMARK minimizedRMSD -1
REMARK  0 active torsions:
REMARK  status: ('A' for Active; 'I' for Inactive)
ROOT
ATOM      1  N1  IND d   1      -3.553  -2.505  -3.089  0.00  0.00    -0.196 N 
ATOM      2  C2  IND d   1      -3.359  -1.154  -3.012  0.00  0.00     0.054 A 
ATOM      3  C3  IND d   1      -2.135  -0.882  -2.507  0.00  0.00    -0.031 A 
ATOM      4  C4  IND d   1      -0.247  -2.498  -1.836  0.00  0.00     0.051 A 
ATOM      5  C5  IND d   1       0.032  -3.829  -1.694  0.00  0.00    -0.031 A 
ATOM      6  C6  IND d   1      -0.887  -4.805  -2.019  0.00  0.00     0.015 A 
ATOM      7  C7  IND d   1      -2.121  -4.487  -2.511  0.00  0.00    -0.016 A 
ATOM      8  C8  IND d   1      -2.411  -3.137  -2.650  0.00  0.00    -0.047 A 
ATOM      9  C9  IND d   1      -1.498  -2.140  -2.281  0.00  0.00    -0.096 A 
ATOM     10  HN1 IND d   1      -4.268  -2.894  -3.366  0.00  0.00     0.298 HD
ENDROOT
TORSDOF 0
ENDMDL
