MODEL 1
REMARK minimizedAffinity 15.6330919
REMARK minimizedRMSD -1
REMARK  0 active torsions:
REMARK  status: ('A' for Active; 'I' for Inactive)
ROOT
ATOM      1  N1  IND d   1       3.659  -0.328  -1.025  0.00  0.00    -0.196 N 
ATOM      2  C2  IND d   1       4.261   0.885  -0.841  0.00  0.00     0.054 A 
ATOM      3  C3  IND d   1       3.577   1.853  -1.491  0.00  0.00    -0.031 A 
ATOM      4  C4  IND d   1       1.387   1.687  -2.835  0.00  0.00     0.051 A 
ATOM      5  C5  IND d   1       0.482   0.781  -3.313  0.00  0.00    -0.031 A 
ATOM      6  C6  IND d   1       0.591  -0.568  -3.044  0.00  0.00     0.015 A 
ATOM      7  C7  IND d   1       1.607  -1.062  -2.276  0.00  0.00    -0.016 A 
ATOM      8  C8  IND d   1       2.531  -0.146  -1.795  0.00  0.00    -0.047 A 
ATOM      9  C9  IND d   1       2.450   1.219  -2.099  0.00  0.00    -0.096 A 
ATOM     10  HN1 IND d   1       3.938  -1.079  -0.713  0.00  0.00     0.298 HD
ENDROOT
TORSDOF 0
ENDMDL
