MODEL 1
REMARK minimizedAffinity 22.3818951
REMARK minimizedRMSD -1
REMARK  0 active torsions:
REMARK  status: ('A' for Active; 'I' for Inactive)
ROOT
ATOM      1  N1  IND d   1       3.076  -0.363  -0.736  0.00  0.00    -0.196 N 
ATOM      2  C2  IND d   1       3.732   0.593  -0.011  0.00  0.00     0.054 A 
ATOM      3  C3  IND d   1       3.467   1.823  -0.506  0.00  0.00    -0.031 A 
ATOM      4  C4  IND d   1       1.905   2.508  -2.435  0.00  0.00     0.051 A 
ATOM      5  C5  IND d   1       1.117   1.983  -3.421  0.00  0.00    -0.031 A 
ATOM      6  C6  IND d   1       0.935   0.623  -3.563  0.00  0.00     0.015 A 
ATOM      7  C7  IND d   1       1.529  -0.268  -2.714  0.00  0.00    -0.016 A 
ATOM      8  C8  IND d   1       2.336   0.261  -1.716  0.00  0.00    -0.047 A 
ATOM      9  C9  IND d   1       2.558   1.638  -1.593  0.00  0.00    -0.096 A 
ATOM     10  HN1 IND d   1       3.119  -1.211  -0.602  0.00  0.00     0.298 HD
ENDROOT
TORSDOF 0
ENDMDL
