MODEL 1
REMARK minimizedAffinity 7.00492764
REMARK minimizedRMSD -1
REMARK  3 active torsions:
REMARK  status: ('A' for Active; 'I' for Inactive)
REMARK    1  A    between atoms: C3'_2  and  C2'_3 
REMARK    2  A    between atoms: C2'_3  and  C1'_4 
REMARK    3  A    between atoms: C1'_4  and  C1_5 
ROOT
ATOM      1  C1  N4B d   1      -3.315   2.909   1.178  0.00  0.00    -0.075 A 
ATOM      2  C2  N4B d   1      -3.809   3.991   1.940  0.00  0.00     0.002 A 
ATOM      3  C3  N4B d   1      -5.145   4.306   1.899  0.00  0.00     0.002 A 
ATOM      4  C4  N4B d   1      -5.999   3.568   1.093  0.00  0.00    -0.004 A 
ATOM      5  C5  N4B d   1      -5.519   2.509   0.380  0.00  0.00     0.002 A 
ATOM      6  C6  N4B d   1      -4.179   2.178   0.415  0.00  0.00     0.002 A 
ENDROOT
BRANCH   1   7
ATOM      7  C1' N4B d   1      -1.848   2.581   1.124  0.00  0.00     0.057 C 
BRANCH   7   8
ATOM      8  C2' N4B d   1      -1.250   3.168  -0.151  0.00  0.00     0.009 C 
BRANCH   8   9
ATOM      9  C3' N4B d   1       0.183   2.715  -0.368  0.00  0.00     0.004 C 
ATOM     10  C4' N4B d   1       0.394   2.073  -1.706  0.00  0.00     0.003 C 
ENDBRANCH   8   9
ENDBRANCH   7   8
ENDBRANCH   1   7
TORSDOF 3
ENDMDL
