MODEL 1
REMARK minimizedAffinity 12.8567772
REMARK minimizedRMSD -1
REMARK  3 active torsions:
REMARK  status: ('A' for Active; 'I' for Inactive)
REMARK    1  A    between atoms: C3'_2  and  C2'_3 
REMARK    2  A    between atoms: C2'_3  and  C1'_4 
REMARK    3  A    between atoms: C1'_4  and  C1_5 
ROOT
ATOM      1  C1  N4B d   1      -0.631   4.816  -1.223  0.00  0.00    -0.075 A 
ATOM      2  C2  N4B d   1      -0.815   3.707  -0.369  0.00  0.00     0.002 A 
ATOM      3  C3  N4B d   1       0.249   3.197   0.334  0.00  0.00     0.002 A 
ATOM      4  C4  N4B d   1       1.505   3.766   0.186  0.00  0.00    -0.004 A 
ATOM      5  C5  N4B d   1       1.669   4.854  -0.622  0.00  0.00     0.002 A 
ATOM      6  C6  N4B d   1       0.608   5.379  -1.331  0.00  0.00     0.002 A 
ENDROOT
BRANCH   1   7
ATOM      7  C1' N4B d   1      -1.746   5.355  -2.077  0.00  0.00     0.057 C 
BRANCH   7   8
ATOM      8  C2' N4B d   1      -2.210   4.265  -3.040  0.00  0.00     0.009 C 
BRANCH   8   9
ATOM      9  C3' N4B d   1      -2.963   4.840  -4.227  0.00  0.00     0.004 C 
ATOM     10  C4' N4B d   1      -3.317   3.800  -5.248  0.00  0.00     0.003 C 
ENDBRANCH   8   9
ENDBRANCH   7   8
ENDBRANCH   1   7
TORSDOF 3
ENDMDL
