MODEL 1
REMARK minimizedAffinity 12.6889067
REMARK minimizedRMSD -1
REMARK  3 active torsions:
REMARK  status: ('A' for Active; 'I' for Inactive)
REMARK    1  A    between atoms: C3'_2  and  C2'_3 
REMARK    2  A    between atoms: C2'_3  and  C1'_4 
REMARK    3  A    between atoms: C1'_4  and  C1_5 
ROOT
ATOM      1  C1  N4B d   1      -0.874   4.091   0.072  0.00  0.00    -0.075 A 
ATOM      2  C2  N4B d   1      -0.844   5.173  -0.836  0.00  0.00     0.002 A 
ATOM      3  C3  N4B d   1       0.360   5.695  -1.243  0.00  0.00     0.002 A 
ATOM      4  C4  N4B d   1       1.541   5.167  -0.742  0.00  0.00    -0.004 A 
ATOM      5  C5  N4B d   1       1.504   4.106   0.114  0.00  0.00     0.002 A 
ATOM      6  C6  N4B d   1       0.301   3.568   0.528  0.00  0.00     0.002 A 
ENDROOT
BRANCH   1   7
ATOM      7  C1' N4B d   1      -2.166   3.543   0.611  0.00  0.00     0.057 C 
BRANCH   7   8
ATOM      8  C2' N4B d   1      -2.489   4.231   1.934  0.00  0.00     0.009 C 
BRANCH   8   9
ATOM      9  C3' N4B d   1      -3.611   5.244   1.790  0.00  0.00     0.004 C 
ATOM     10  C4' N4B d   1      -4.971   4.612   1.811  0.00  0.00     0.003 C 
ENDBRANCH   8   9
ENDBRANCH   7   8
ENDBRANCH   1   7
TORSDOF 3
ENDMDL
