MODEL 1
REMARK minimizedAffinity 12.7780542
REMARK minimizedRMSD -1
REMARK  3 active torsions:
REMARK  status: ('A' for Active; 'I' for Inactive)
REMARK    1  A    between atoms: C3'_2  and  C2'_3 
REMARK    2  A    between atoms: C2'_3  and  C1'_4 
REMARK    3  A    between atoms: C1'_4  and  C1_5 
ROOT
ATOM      1  C1  N4B d   1       3.190  -1.425   2.030  0.00  0.00    -0.075 A 
ATOM      2  C2  N4B d   1       3.616  -1.274   3.368  0.00  0.00     0.002 A 
ATOM      3  C3  N4B d   1       4.809  -1.819   3.774  0.00  0.00     0.002 A 
ATOM      4  C4  N4B d   1       5.580  -2.533   2.869  0.00  0.00    -0.004 A 
ATOM      5  C5  N4B d   1       5.174  -2.653   1.573  0.00  0.00     0.002 A 
ATOM      6  C6  N4B d   1       3.979  -2.106   1.149  0.00  0.00     0.002 A 
ENDROOT
BRANCH   1   7
ATOM      7  C1' N4B d   1       1.852  -0.920   1.561  0.00  0.00     0.057 C 
BRANCH   7   8
ATOM      8  C2' N4B d   1       0.908  -2.104   1.374  0.00  0.00     0.009 C 
BRANCH   8   9
ATOM      9  C3' N4B d   1       0.861  -2.570  -0.071  0.00  0.00     0.004 C 
ATOM     10  C4' N4B d   1       0.647  -4.049  -0.198  0.00  0.00     0.003 C 
ENDBRANCH   8   9
ENDBRANCH   7   8
ENDBRANCH   1   7
TORSDOF 3
ENDMDL
