MODEL 1
REMARK minimizedAffinity -1.1375469
REMARK minimizedRMSD -1
REMARK  0 active torsions:
REMARK  status: ('A' for Active; 'I' for Inactive)
ROOT
ATOM      1  C   UNL d   1       0.196   0.827  -0.022  0.00  0.00     0.172 C 
ATOM      2  N   UNL d   1       0.053  -0.531   0.446  0.00  0.00    -0.070 N 
ATOM      3  C1  UNL d   1      -0.610  -0.920   1.579  0.00  0.00    -0.004 A 
ATOM      4  C2  UNL d   1      -0.520  -2.291   1.672  0.00  0.00    -0.047 A 
ATOM      5  C3  UNL d   1       0.225  -2.743   0.557  0.00  0.00    -0.047 A 
ATOM      6  C4  UNL d   1       0.566  -1.633  -0.186  0.00  0.00    -0.004 A 
ENDROOT
TORSDOF 0
ENDMDL
