MODEL 1
REMARK minimizedAffinity -3.62551451
REMARK minimizedRMSD -1
REMARK  0 active torsions:
REMARK  status: ('A' for Active; 'I' for Inactive)
ROOT
ATOM      1  C   UNL d   1       0.016   0.129  -0.045  0.00  0.00     0.172 C 
ATOM      2  N   UNL d   1      -0.691  -1.114   0.157  0.00  0.00    -0.070 N 
ATOM      3  C1  UNL d   1      -0.729  -1.830   1.323  0.00  0.00    -0.004 A 
ATOM      4  C2  UNL d   1      -1.506  -2.948   1.106  0.00  0.00    -0.047 A 
ATOM      5  C3  UNL d   1      -1.948  -2.902  -0.237  0.00  0.00    -0.047 A 
ATOM      6  C4  UNL d   1      -1.429  -1.756  -0.802  0.00  0.00    -0.004 A 
ENDROOT
TORSDOF 0
ENDMDL
