MODEL 1
REMARK minimizedAffinity -1.81272757
REMARK minimizedRMSD -1
REMARK  0 active torsions:
REMARK  status: ('A' for Active; 'I' for Inactive)
ROOT
ATOM      1  C   UNL d   1       0.471   0.647   0.143  0.00  0.00     0.172 C 
ATOM      2  N   UNL d   1       0.018  -0.689   0.450  0.00  0.00    -0.070 N 
ATOM      3  C1  UNL d   1       0.191  -1.792  -0.343  0.00  0.00    -0.004 A 
ATOM      4  C2  UNL d   1      -0.380  -2.869   0.301  0.00  0.00    -0.047 A 
ATOM      5  C3  UNL d   1      -0.916  -2.396   1.523  0.00  0.00    -0.047 A 
ATOM      6  C4  UNL d   1      -0.655  -1.044   1.589  0.00  0.00    -0.004 A 
ENDROOT
TORSDOF 0
ENDMDL
