MODEL 1
REMARK minimizedAffinity -1.30000377
REMARK minimizedRMSD -1
REMARK  0 active torsions:
REMARK  status: ('A' for Active; 'I' for Inactive)
ROOT
ATOM      1  C   UNL d   1      -3.150  -4.849  -5.961  0.00  0.00     0.172 C 
ATOM      2  N   UNL d   1      -1.937  -5.316  -5.331  0.00  0.00    -0.070 N 
ATOM      3  C1  UNL d   1      -1.779  -5.572  -3.995  0.00  0.00    -0.004 A 
ATOM      4  C2  UNL d   1      -0.484  -5.997  -3.797  0.00  0.00    -0.047 A 
ATOM      5  C3  UNL d   1       0.160  -5.996  -5.058  0.00  0.00    -0.047 A 
ATOM      6  C4  UNL d   1      -0.763  -5.570  -5.990  0.00  0.00    -0.004 A 
ENDROOT
TORSDOF 0
ENDMDL
