MODEL 1
REMARK minimizedAffinity -2.57690501
REMARK minimizedRMSD -1
REMARK  0 active torsions:
REMARK  status: ('A' for Active; 'I' for Inactive)
ROOT
ATOM      1  C   UNL d   1       0.175   0.702  -0.707  0.00  0.00     0.172 C 
ATOM      2  N   UNL d   1      -0.198  -0.583  -0.162  0.00  0.00    -0.070 N 
ATOM      3  C1  UNL d   1      -1.398  -1.213  -0.355  0.00  0.00    -0.004 A 
ATOM      4  C2  UNL d   1      -1.360  -2.410   0.327  0.00  0.00    -0.047 A 
ATOM      5  C3  UNL d   1      -0.093  -2.502   0.952  0.00  0.00    -0.047 A 
ATOM      6  C4  UNL d   1       0.606  -1.357   0.632  0.00  0.00    -0.004 A 
ENDROOT
TORSDOF 0
ENDMDL
