MODEL 1
REMARK minimizedAffinity -1.48229933
REMARK minimizedRMSD -1
REMARK  0 active torsions:
REMARK  status: ('A' for Active; 'I' for Inactive)
ROOT
ATOM      1  C   UNL d   1      -2.291   0.574   1.167  0.00  0.00     0.172 C 
ATOM      2  N   UNL d   1      -1.348  -0.517   1.102  0.00  0.00    -0.070 N 
ATOM      3  C1  UNL d   1      -1.452  -1.703   1.778  0.00  0.00    -0.004 A 
ATOM      4  C2  UNL d   1      -0.358  -2.474   1.450  0.00  0.00    -0.047 A 
ATOM      5  C3  UNL d   1       0.432  -1.725   0.546  0.00  0.00    -0.047 A 
ATOM      6  C4  UNL d   1      -0.204  -0.518   0.348  0.00  0.00    -0.004 A 
ENDROOT
TORSDOF 0
ENDMDL
