MODEL 1
REMARK minimizedAffinity -1.49349713
REMARK minimizedRMSD -1
REMARK  0 active torsions:
REMARK  status: ('A' for Active; 'I' for Inactive)
ROOT
ATOM      1  C   UNL d   1      -0.927  -2.372   1.595  0.00  0.00     0.172 C 
ATOM      2  N   UNL d   1      -0.065  -1.437   0.912  0.00  0.00    -0.070 N 
ATOM      3  C1  UNL d   1       1.263  -1.628   0.638  0.00  0.00    -0.004 A 
ATOM      4  C2  UNL d   1       1.724  -0.510  -0.023  0.00  0.00    -0.047 A 
ATOM      5  C3  UNL d   1       0.635   0.385  -0.150  0.00  0.00    -0.047 A 
ATOM      6  C4  UNL d   1      -0.460  -0.213   0.438  0.00  0.00    -0.004 A 
ENDROOT
TORSDOF 0
ENDMDL
