MODEL 1
REMARK minimizedAffinity -1.39756513
REMARK minimizedRMSD -1
REMARK  0 active torsions:
REMARK  status: ('A' for Active; 'I' for Inactive)
ROOT
ATOM      1  C   UNL d   1       1.032   1.894  -1.869  0.00  0.00     0.172 C 
ATOM      2  N   UNL d   1       0.296   1.387  -0.735  0.00  0.00    -0.070 N 
ATOM      3  C1  UNL d   1       0.263   0.082  -0.323  0.00  0.00    -0.004 A 
ATOM      4  C2  UNL d   1      -0.547   0.010   0.789  0.00  0.00    -0.047 A 
ATOM      5  C3  UNL d   1      -1.018   1.318   1.055  0.00  0.00    -0.047 A 
ATOM      6  C4  UNL d   1      -0.480   2.151   0.096  0.00  0.00    -0.004 A 
ENDROOT
TORSDOF 0
ENDMDL
