MODEL 1
REMARK minimizedAffinity -3.92632675
REMARK minimizedRMSD -1
REMARK  0 active torsions:
REMARK  status: ('A' for Active; 'I' for Inactive)
ROOT
ATOM      1  C   UNL d   1       0.181   0.524   0.462  0.00  0.00     0.172 C 
ATOM      2  N   UNL d   1      -0.653  -0.621   0.743  0.00  0.00    -0.070 N 
ATOM      3  C1  UNL d   1      -0.465  -1.886   0.252  0.00  0.00    -0.004 A 
ATOM      4  C2  UNL d   1      -1.469  -2.687   0.752  0.00  0.00    -0.047 A 
ATOM      5  C3  UNL d   1      -2.289  -1.875   1.571  0.00  0.00    -0.047 A 
ATOM      6  C4  UNL d   1      -1.762  -0.602   1.548  0.00  0.00    -0.004 A 
ENDROOT
TORSDOF 0
ENDMDL
