MODEL 1
REMARK minimizedAffinity -3.1729691
REMARK minimizedRMSD -1
REMARK  0 active torsions:
REMARK  status: ('A' for Active; 'I' for Inactive)
ROOT
ATOM      1  C   UNL d   1       0.402   0.925  -0.633  0.00  0.00     0.172 C 
ATOM      2  N   UNL d   1      -0.017  -0.218   0.144  0.00  0.00    -0.070 N 
ATOM      3  C1  UNL d   1       0.810  -1.181   0.657  0.00  0.00    -0.004 A 
ATOM      4  C2  UNL d   1       0.028  -2.094   1.330  0.00  0.00    -0.047 A 
ATOM      5  C3  UNL d   1      -1.316  -1.665   1.218  0.00  0.00    -0.047 A 
ATOM      6  C4  UNL d   1      -1.315  -0.501   0.478  0.00  0.00    -0.004 A 
ENDROOT
TORSDOF 0
ENDMDL
