MODEL 1
REMARK minimizedAffinity -3.9017303
REMARK minimizedRMSD -1
REMARK  0 active torsions:
REMARK  status: ('A' for Active; 'I' for Inactive)
ROOT
ATOM      1  C   UNL d   1       0.194   0.980  -0.235  0.00  0.00     0.172 C 
ATOM      2  N   UNL d   1      -0.351  -0.291   0.181  0.00  0.00    -0.070 N 
ATOM      3  C1  UNL d   1      -1.670  -0.545   0.447  0.00  0.00    -0.004 A 
ATOM      4  C2  UNL d   1      -1.780  -1.870   0.810  0.00  0.00    -0.047 A 
ATOM      5  C3  UNL d   1      -0.482  -2.431   0.762  0.00  0.00    -0.047 A 
ATOM      6  C4  UNL d   1       0.383  -1.431   0.369  0.00  0.00    -0.004 A 
ENDROOT
TORSDOF 0
ENDMDL
