MODEL 1
REMARK minimizedAffinity -2.08613038
REMARK minimizedRMSD -1
REMARK  0 active torsions:
REMARK  status: ('A' for Active; 'I' for Inactive)
ROOT
ATOM      1  C   UNL d   1      -0.981  -2.291   1.035  0.00  0.00     0.172 C 
ATOM      2  N   UNL d   1      -0.416  -1.061   0.532  0.00  0.00    -0.070 N 
ATOM      3  C1  UNL d   1      -1.073   0.137   0.431  0.00  0.00    -0.004 A 
ATOM      4  C2  UNL d   1      -0.192   1.058  -0.094  0.00  0.00    -0.047 A 
ATOM      5  C3  UNL d   1       1.036   0.391  -0.317  0.00  0.00    -0.047 A 
ATOM      6  C4  UNL d   1       0.869  -0.919   0.079  0.00  0.00    -0.004 A 
ENDROOT
TORSDOF 0
ENDMDL
