MODEL 1
REMARK minimizedAffinity -3.7719264
REMARK minimizedRMSD -1
REMARK  0 active torsions:
REMARK  status: ('A' for Active; 'I' for Inactive)
ROOT
ATOM      1  C   UNL d   1      -2.087  -2.214   1.522  0.00  0.00     0.172 C 
ATOM      2  N   UNL d   1      -0.917  -1.617   0.921  0.00  0.00    -0.070 N 
ATOM      3  C1  UNL d   1      -0.841  -0.349   0.409  0.00  0.00    -0.004 A 
ATOM      4  C2  UNL d   1       0.439  -0.162  -0.067  0.00  0.00    -0.047 A 
ATOM      5  C3  UNL d   1       1.156  -1.360   0.166  0.00  0.00    -0.047 A 
ATOM      6  C4  UNL d   1       0.293  -2.243   0.779  0.00  0.00    -0.004 A 
ENDROOT
TORSDOF 0
ENDMDL
