MODEL 1
REMARK minimizedAffinity -3.22462368
REMARK minimizedRMSD -1
REMARK  0 active torsions:
REMARK  status: ('A' for Active; 'I' for Inactive)
ROOT
ATOM      1  C   UNL d   1      -2.272  -0.929  -0.162  0.00  0.00     0.172 C 
ATOM      2  N   UNL d   1      -2.258  -1.386   1.208  0.00  0.00    -0.070 N 
ATOM      3  C1  UNL d   1      -3.338  -1.420   2.049  0.00  0.00    -0.004 A 
ATOM      4  C2  UNL d   1      -2.912  -1.918   3.262  0.00  0.00    -0.047 A 
ATOM      5  C3  UNL d   1      -1.529  -2.193   3.145  0.00  0.00    -0.047 A 
ATOM      6  C4  UNL d   1      -1.150  -1.854   1.863  0.00  0.00    -0.004 A 
ENDROOT
TORSDOF 0
ENDMDL
