MODEL 1
REMARK minimizedAffinity -1.30849564
REMARK minimizedRMSD -1
REMARK  0 active torsions:
REMARK  status: ('A' for Active; 'I' for Inactive)
ROOT
ATOM      1  C   UNL d   1      -0.526  -5.889  -5.953  0.00  0.00     0.172 C 
ATOM      2  N   UNL d   1      -1.842  -5.295  -5.972  0.00  0.00    -0.070 N 
ATOM      3  C1  UNL d   1      -2.112  -3.953  -5.982  0.00  0.00    -0.004 A 
ATOM      4  C2  UNL d   1      -3.481  -3.798  -6.000  0.00  0.00    -0.047 A 
ATOM      5  C3  UNL d   1      -4.054  -5.092  -5.999  0.00  0.00    -0.047 A 
ATOM      6  C4  UNL d   1      -3.016  -6.000  -5.981  0.00  0.00    -0.004 A 
ENDROOT
TORSDOF 0
ENDMDL
