MODEL 1
REMARK minimizedAffinity 7.28883123
REMARK minimizedRMSD -1
REMARK  1 active torsions:
REMARK  status: ('A' for Active; 'I' for Inactive)
REMARK    1  A    between atoms: C1_2  and  C2_3 
ROOT
ATOM      1  C2  UNL d   1       1.465   4.813  -4.240  0.00  0.00    -0.076 A 
ATOM      2  C3  UNL d   1       1.340   5.795  -5.238  0.00  0.00     0.004 A 
ATOM      3  C4  UNL d   1       0.177   5.899  -6.000  0.00  0.00    -0.003 A 
ATOM      4  C5  UNL d   1      -0.879   5.023  -5.775  0.00  0.00     0.000 A 
ATOM      5  C6  UNL d   1      -0.779   4.054  -4.778  0.00  0.00     0.000 A 
ATOM      6  C7  UNL d   1       0.380   3.946  -3.990  0.00  0.00    -0.073 A 
ATOM      7  C8  UNL d   1       0.437   2.879  -2.932  0.00  0.00     0.078 C 
ENDROOT
BRANCH   1   8
ATOM      8  C1  UNL d   1       2.761   4.730  -3.464  0.00  0.00     0.053 C 
ATOM      9  C   UNL d   1       3.776   3.809  -4.122  0.00  0.00     0.018 C 
ENDBRANCH   1   8
TORSDOF 1
ENDMDL
