MODEL 1
REMARK minimizedAffinity 1.96656632
REMARK minimizedRMSD -1
REMARK  1 active torsions:
REMARK  status: ('A' for Active; 'I' for Inactive)
REMARK    1  A    between atoms: C1_2  and  C2_3 
ROOT
ATOM      1  C2  UNL d   1      -5.771   0.852  -3.553  0.00  0.00    -0.076 A 
ATOM      2  C3  UNL d   1      -5.739   0.158  -4.775  0.00  0.00     0.004 A 
ATOM      3  C4  UNL d   1      -5.846   0.835  -5.988  0.00  0.00    -0.003 A 
ATOM      4  C5  UNL d   1      -5.984   2.219  -5.999  0.00  0.00     0.000 A 
ATOM      5  C6  UNL d   1      -6.000   2.926  -4.797  0.00  0.00     0.000 A 
ATOM      6  C7  UNL d   1      -5.877   2.259  -3.566  0.00  0.00    -0.073 A 
ATOM      7  C8  UNL d   1      -5.906   3.071  -2.300  0.00  0.00     0.078 C 
ENDROOT
BRANCH   1   8
ATOM      8  C1  UNL d   1      -5.678   0.061  -2.268  0.00  0.00     0.053 C 
ATOM      9  C   UNL d   1      -5.986  -1.415  -2.469  0.00  0.00     0.018 C 
ENDBRANCH   1   8
TORSDOF 1
ENDMDL
