MODEL 1
REMARK minimizedAffinity 6.92125607
REMARK minimizedRMSD -1
REMARK  1 active torsions:
REMARK  status: ('A' for Active; 'I' for Inactive)
REMARK    1  A    between atoms: C1_2  and  C2_3 
ROOT
ATOM      1  C2  UNL d   1      -0.929  -4.718  -0.606  0.00  0.00    -0.076 A 
ATOM      2  C3  UNL d   1       0.380  -5.129  -0.910  0.00  0.00     0.004 A 
ATOM      3  C4  UNL d   1       1.444  -4.816  -0.066  0.00  0.00    -0.003 A 
ATOM      4  C5  UNL d   1       1.216  -4.088   1.097  0.00  0.00     0.000 A 
ATOM      5  C6  UNL d   1      -0.079  -3.687   1.422  0.00  0.00     0.000 A 
ATOM      6  C7  UNL d   1      -1.166  -4.008   0.591  0.00  0.00    -0.073 A 
ATOM      7  C8  UNL d   1      -2.541  -3.546   0.988  0.00  0.00     0.078 C 
ENDROOT
BRANCH   1   8
ATOM      8  C1  UNL d   1      -2.039  -5.064  -1.573  0.00  0.00     0.053 C 
ATOM      9  C   UNL d   1      -1.613  -4.920  -3.025  0.00  0.00     0.018 C 
ENDBRANCH   1   8
TORSDOF 1
ENDMDL
