MODEL 1
REMARK minimizedAffinity 4.22709274
REMARK minimizedRMSD -1
REMARK  1 active torsions:
REMARK  status: ('A' for Active; 'I' for Inactive)
REMARK    1  A    between atoms: C1_2  and  C2_3 
ROOT
ATOM      1  C2  UNL d   1      -4.553   4.484  -1.027  0.00  0.00    -0.076 A 
ATOM      2  C3  UNL d   1      -4.577   4.842  -2.386  0.00  0.00     0.004 A 
ATOM      3  C4  UNL d   1      -5.292   4.086  -3.314  0.00  0.00    -0.003 A 
ATOM      4  C5  UNL d   1      -5.995   2.961  -2.898  0.00  0.00     0.000 A 
ATOM      5  C6  UNL d   1      -5.997   2.602  -1.550  0.00  0.00     0.000 A 
ATOM      6  C7  UNL d   1      -5.295   3.362  -0.599  0.00  0.00    -0.073 A 
ATOM      7  C8  UNL d   1      -5.326   2.924   0.840  0.00  0.00     0.078 C 
ENDROOT
BRANCH   1   8
ATOM      8  C1  UNL d   1      -3.739   5.325  -0.070  0.00  0.00     0.053 C 
ATOM      9  C   UNL d   1      -2.284   4.887  -0.002  0.00  0.00     0.018 C 
ENDBRANCH   1   8
TORSDOF 1
ENDMDL
