MODEL 1
REMARK minimizedAffinity 15.6020584
REMARK minimizedRMSD -1
REMARK  1 active torsions:
REMARK  status: ('A' for Active; 'I' for Inactive)
REMARK    1  A    between atoms: C1_2  and  C2_3 
ROOT
ATOM      1  C2  UNL d   1       2.773   0.733   0.130  0.00  0.00    -0.076 A 
ATOM      2  C3  UNL d   1       3.811   0.613  -0.810  0.00  0.00     0.004 A 
ATOM      3  C4  UNL d   1       3.821   1.384  -1.971  0.00  0.00    -0.003 A 
ATOM      4  C5  UNL d   1       2.793   2.288  -2.211  0.00  0.00     0.000 A 
ATOM      5  C6  UNL d   1       1.764   2.434  -1.282  0.00  0.00     0.000 A 
ATOM      6  C7  UNL d   1       1.747   1.676  -0.098  0.00  0.00    -0.073 A 
ATOM      7  C8  UNL d   1       0.610   1.869   0.867  0.00  0.00     0.078 C 
ENDROOT
BRANCH   1   8
ATOM      8  C1  UNL d   1       2.801  -0.149   1.357  0.00  0.00     0.053 C 
ATOM      9  C   UNL d   1       4.206  -0.337   1.907  0.00  0.00     0.018 C 
ENDBRANCH   1   8
TORSDOF 1
ENDMDL
