MODEL 1
REMARK minimizedAffinity 7.89437485
REMARK minimizedRMSD -1
REMARK  1 active torsions:
REMARK  status: ('A' for Active; 'I' for Inactive)
REMARK    1  A    between atoms: C1_2  and  C2_3 
ROOT
ATOM      1  C2  UNL d   1      -0.860  -1.086   2.929  0.00  0.00    -0.076 A 
ATOM      2  C3  UNL d   1      -0.877  -0.135   3.964  0.00  0.00     0.004 A 
ATOM      3  C4  UNL d   1      -2.080   0.386   4.439  0.00  0.00    -0.003 A 
ATOM      4  C5  UNL d   1      -3.284  -0.036   3.886  0.00  0.00     0.000 A 
ATOM      5  C6  UNL d   1      -3.286  -0.991   2.871  0.00  0.00     0.000 A 
ATOM      6  C7  UNL d   1      -2.084  -1.539   2.392  0.00  0.00    -0.073 A 
ATOM      7  C8  UNL d   1      -2.144  -2.561   1.290  0.00  0.00     0.078 C 
ENDROOT
BRANCH   1   8
ATOM      8  C1  UNL d   1       0.476  -1.595   2.436  0.00  0.00     0.053 C 
ATOM      9  C   UNL d   1       1.607  -1.300   3.409  0.00  0.00     0.018 C 
ENDBRANCH   1   8
TORSDOF 1
ENDMDL
