MODEL 1
REMARK minimizedAffinity 12.6515312
REMARK minimizedRMSD -1
REMARK  1 active torsions:
REMARK  status: ('A' for Active; 'I' for Inactive)
REMARK    1  A    between atoms: C1_2  and  C2_3 
ROOT
ATOM      1  C2  UNL d   1       0.606  -0.001   1.426  0.00  0.00    -0.076 A 
ATOM      2  C3  UNL d   1      -0.182   1.123   1.121  0.00  0.00     0.004 A 
ATOM      3  C4  UNL d   1      -1.520   1.187   1.505  0.00  0.00    -0.003 A 
ATOM      4  C5  UNL d   1      -2.093   0.128   2.202  0.00  0.00     0.000 A 
ATOM      5  C6  UNL d   1      -1.321  -0.987   2.528  0.00  0.00     0.000 A 
ATOM      6  C7  UNL d   1       0.034  -1.061   2.163  0.00  0.00    -0.073 A 
ATOM      7  C8  UNL d   1       0.817  -2.290   2.536  0.00  0.00     0.078 C 
ENDROOT
BRANCH   1   8
ATOM      8  C1  UNL d   1       2.044  -0.026   0.960  0.00  0.00     0.053 C 
ATOM      9  C   UNL d   1       2.289   0.898  -0.223  0.00  0.00     0.018 C 
ENDBRANCH   1   8
TORSDOF 1
ENDMDL
