MODEL 1
REMARK minimizedAffinity 11.2356539
REMARK minimizedRMSD -1
REMARK  1 active torsions:
REMARK  status: ('A' for Active; 'I' for Inactive)
REMARK    1  A    between atoms: C1_2  and  C2_3 
ROOT
ATOM      1  C2  UNL d   1      -5.986   1.119  -3.447  0.00  0.00    -0.076 A 
ATOM      2  C3  UNL d   1      -5.996   1.833  -4.658  0.00  0.00     0.004 A 
ATOM      3  C4  UNL d   1      -5.985   1.168  -5.883  0.00  0.00    -0.003 A 
ATOM      4  C5  UNL d   1      -5.963  -0.222  -5.917  0.00  0.00     0.000 A 
ATOM      5  C6  UNL d   1      -5.970  -0.946  -4.725  0.00  0.00     0.000 A 
ATOM      6  C7  UNL d   1      -5.998  -0.291  -3.482  0.00  0.00    -0.073 A 
ATOM      7  C8  UNL d   1      -5.998  -1.122  -2.228  0.00  0.00     0.078 C 
ENDROOT
BRANCH   1   8
ATOM      8  C1  UNL d   1      -5.971   1.895  -2.150  0.00  0.00     0.053 C 
ATOM      9  C   UNL d   1      -5.825   3.393  -2.368  0.00  0.00     0.018 C 
ENDBRANCH   1   8
TORSDOF 1
ENDMDL
