MODEL 1
REMARK minimizedAffinity 2.61608076
REMARK minimizedRMSD -1
REMARK  1 active torsions:
REMARK  status: ('A' for Active; 'I' for Inactive)
REMARK    1  A    between atoms: C1_2  and  C2_3 
ROOT
ATOM      1  C2  UNL d   1       3.200   3.022  -3.788  0.00  0.00    -0.076 A 
ATOM      2  C3  UNL d   1       2.978   4.015  -4.758  0.00  0.00     0.004 A 
ATOM      3  C4  UNL d   1       1.757   4.682  -4.837  0.00  0.00    -0.003 A 
ATOM      4  C5  UNL d   1       0.737   4.368  -3.945  0.00  0.00     0.000 A 
ATOM      5  C6  UNL d   1       0.945   3.398  -2.964  0.00  0.00     0.000 A 
ATOM      6  C7  UNL d   1       2.176   2.728  -2.861  0.00  0.00    -0.073 A 
ATOM      7  C8  UNL d   1       2.344   1.687  -1.789  0.00  0.00     0.078 C 
ENDROOT
BRANCH   1   8
ATOM      8  C1  UNL d   1       4.535   2.313  -3.769  0.00  0.00     0.053 C 
ATOM      9  C   UNL d   1       4.759   1.459  -5.007  0.00  0.00     0.018 C 
ENDBRANCH   1   8
TORSDOF 1
ENDMDL
