MODEL 1
REMARK minimizedAffinity -1.28636408
REMARK minimizedRMSD -1
REMARK  0 active torsions:
REMARK  status: ('A' for Active; 'I' for Inactive)
ROOT
ATOM      1  C   UNL d   1      -0.806  -0.895   2.506  0.00  0.00     0.077 C 
ATOM      2  C1  UNL d   1      -1.139   0.373   1.777  0.00  0.00    -0.074 A 
ATOM      3  C2  UNL d   1      -2.106   1.254   2.273  0.00  0.00    -0.005 A 
ATOM      4  C3  UNL d   1      -2.399   2.434   1.589  0.00  0.00     0.006 A 
ATOM      5  C4  UNL d   1      -1.729   2.745   0.406  0.00  0.00    -0.005 A 
ATOM      6  C5  UNL d   1      -0.758   1.877  -0.104  0.00  0.00    -0.074 A 
ATOM      7  C6  UNL d   1      -0.022   2.202  -1.370  0.00  0.00     0.077 C 
ATOM      8  C7  UNL d   1      -0.465   0.697   0.592  0.00  0.00    -0.001 A 
ENDROOT
TORSDOF 0
ENDMDL
