MODEL 1
REMARK minimizedAffinity 8.5151825
REMARK minimizedRMSD -1
REMARK  0 active torsions:
REMARK  status: ('A' for Active; 'I' for Inactive)
ROOT
ATOM      1  C   UNL d   1       0.136   2.114  -1.304  0.00  0.00     0.077 C 
ATOM      2  C1  UNL d   1       0.742   0.752  -1.468  0.00  0.00    -0.074 A 
ATOM      3  C2  UNL d   1       1.202   0.031  -0.361  0.00  0.00    -0.005 A 
ATOM      4  C3  UNL d   1       1.754  -1.238  -0.529  0.00  0.00     0.006 A 
ATOM      5  C4  UNL d   1       1.852  -1.800  -1.803  0.00  0.00    -0.005 A 
ATOM      6  C5  UNL d   1       1.397  -1.094  -2.921  0.00  0.00    -0.074 A 
ATOM      7  C6  UNL d   1       1.486  -1.687  -4.296  0.00  0.00     0.077 C 
ATOM      8  C7  UNL d   1       0.837   0.178  -2.744  0.00  0.00    -0.001 A 
ENDROOT
TORSDOF 0
ENDMDL
