MODEL 1
REMARK minimizedAffinity 5.37576723
REMARK minimizedRMSD -1
REMARK  0 active torsions:
REMARK  status: ('A' for Active; 'I' for Inactive)
ROOT
ATOM      1  C   UNL d   1       0.495   1.861  -1.389  0.00  0.00     0.077 C 
ATOM      2  C1  UNL d   1      -0.130   1.697  -0.035  0.00  0.00    -0.074 A 
ATOM      3  C2  UNL d   1       0.561   1.066   1.004  0.00  0.00    -0.005 A 
ATOM      4  C3  UNL d   1      -0.029   0.930   2.261  0.00  0.00     0.006 A 
ATOM      5  C4  UNL d   1      -1.314   1.423   2.490  0.00  0.00    -0.005 A 
ATOM      6  C5  UNL d   1      -2.020   2.057   1.463  0.00  0.00    -0.074 A 
ATOM      7  C6  UNL d   1      -3.399   2.601   1.696  0.00  0.00     0.077 C 
ATOM      8  C7  UNL d   1      -1.417   2.197   0.205  0.00  0.00    -0.001 A 
ENDROOT
TORSDOF 0
ENDMDL
