MODEL 1
REMARK minimizedAffinity -1.22298956
REMARK minimizedRMSD -1
REMARK  0 active torsions:
REMARK  status: ('A' for Active; 'I' for Inactive)
ROOT
ATOM      1  C   UNL d   1      -2.580   2.590   1.206  0.00  0.00     0.077 C 
ATOM      2  C1  UNL d   1      -1.382   1.691   1.138  0.00  0.00    -0.074 A 
ATOM      3  C2  UNL d   1      -1.016   0.896   2.229  0.00  0.00    -0.005 A 
ATOM      4  C3  UNL d   1       0.095   0.058   2.148  0.00  0.00     0.006 A 
ATOM      5  C4  UNL d   1       0.852   0.006   0.977  0.00  0.00    -0.005 A 
ATOM      6  C5  UNL d   1       0.502   0.793  -0.125  0.00  0.00    -0.074 A 
ATOM      7  C6  UNL d   1       1.298   0.741  -1.395  0.00  0.00     0.077 C 
ATOM      8  C7  UNL d   1      -0.621   1.627  -0.038  0.00  0.00    -0.001 A 
ENDROOT
TORSDOF 0
ENDMDL
