MODEL 1
REMARK minimizedAffinity 0.585044146
REMARK minimizedRMSD -1
REMARK  0 active torsions:
REMARK  status: ('A' for Active; 'I' for Inactive)
ROOT
ATOM      1  C   UNL d   1      -4.305   0.002   0.129  0.00  0.00     0.077 C 
ATOM      2  C1  UNL d   1      -3.339   0.847   0.905  0.00  0.00    -0.074 A 
ATOM      3  C2  UNL d   1      -3.672   2.149   1.292  0.00  0.00    -0.005 A 
ATOM      4  C3  UNL d   1      -2.766   2.919   2.021  0.00  0.00     0.006 A 
ATOM      5  C4  UNL d   1      -1.520   2.397   2.369  0.00  0.00    -0.005 A 
ATOM      6  C5  UNL d   1      -1.169   1.097   1.991  0.00  0.00    -0.074 A 
ATOM      7  C6  UNL d   1       0.162   0.517   2.365  0.00  0.00     0.077 C 
ATOM      8  C7  UNL d   1      -2.088   0.327   1.265  0.00  0.00    -0.001 A 
ENDROOT
TORSDOF 0
ENDMDL
