MODEL 1
REMARK minimizedAffinity 6.09231234
REMARK minimizedRMSD -1
REMARK  0 active torsions:
REMARK  status: ('A' for Active; 'I' for Inactive)
ROOT
ATOM      1  C   UNL d   1      -2.018  -1.844   3.660  0.00  0.00     0.077 C 
ATOM      2  C1  UNL d   1      -1.483  -0.608   3.000  0.00  0.00    -0.074 A 
ATOM      3  C2  UNL d   1      -0.116  -0.463   2.746  0.00  0.00    -0.005 A 
ATOM      4  C3  UNL d   1       0.366   0.688   2.123  0.00  0.00     0.006 A 
ATOM      5  C4  UNL d   1      -0.513   1.704   1.748  0.00  0.00    -0.005 A 
ATOM      6  C5  UNL d   1      -1.884   1.577   1.994  0.00  0.00    -0.074 A 
ATOM      7  C6  UNL d   1      -2.844   2.656   1.588  0.00  0.00     0.077 C 
ATOM      8  C7  UNL d   1      -2.361   0.414   2.614  0.00  0.00    -0.001 A 
ENDROOT
TORSDOF 0
ENDMDL
