MODEL 1
REMARK minimizedAffinity 12.7012186
REMARK minimizedRMSD -1
REMARK  0 active torsions:
REMARK  status: ('A' for Active; 'I' for Inactive)
ROOT
ATOM      1  C   UNL d   1       0.284   1.642   3.663  0.00  0.00     0.077 C 
ATOM      2  C1  UNL d   1      -0.572   1.834   2.446  0.00  0.00    -0.074 A 
ATOM      3  C2  UNL d   1      -1.967   1.830   2.541  0.00  0.00    -0.005 A 
ATOM      4  C3  UNL d   1      -2.750   2.019   1.402  0.00  0.00     0.006 A 
ATOM      5  C4  UNL d   1      -2.146   2.213   0.159  0.00  0.00    -0.005 A 
ATOM      6  C5  UNL d   1      -0.753   2.221   0.045  0.00  0.00    -0.074 A 
ATOM      7  C6  UNL d   1      -0.088   2.438  -1.282  0.00  0.00     0.077 C 
ATOM      8  C7  UNL d   1       0.027   2.037   1.195  0.00  0.00    -0.001 A 
ENDROOT
TORSDOF 0
ENDMDL
