MODEL 1
REMARK minimizedAffinity -0.807591558
REMARK minimizedRMSD -1
REMARK  0 active torsions:
REMARK  status: ('A' for Active; 'I' for Inactive)
ROOT
ATOM      1  C   UNL d   1      -1.129   0.384   3.002  0.00  0.00     0.077 C 
ATOM      2  C1  UNL d   1      -1.199   1.142   1.710  0.00  0.00    -0.074 A 
ATOM      3  C2  UNL d   1      -2.279   1.984   1.428  0.00  0.00    -0.005 A 
ATOM      4  C3  UNL d   1      -2.325   2.691   0.227  0.00  0.00     0.006 A 
ATOM      5  C4  UNL d   1      -1.293   2.564  -0.704  0.00  0.00    -0.005 A 
ATOM      6  C5  UNL d   1      -0.204   1.727  -0.439  0.00  0.00    -0.074 A 
ATOM      7  C6  UNL d   1       0.919   1.586  -1.423  0.00  0.00     0.077 C 
ATOM      8  C7  UNL d   1      -0.162   1.026   0.774  0.00  0.00    -0.001 A 
ENDROOT
TORSDOF 0
ENDMDL
