MODEL 1
REMARK minimizedAffinity 5.75448132
REMARK minimizedRMSD -1
REMARK  0 active torsions:
REMARK  status: ('A' for Active; 'I' for Inactive)
ROOT
ATOM      1  C   UNL d   1       5.632  -5.998   2.279  0.00  0.00     0.077 C 
ATOM      2  C1  UNL d   1       5.624  -5.131   1.055  0.00  0.00    -0.074 A 
ATOM      3  C2  UNL d   1       6.000  -3.786   1.124  0.00  0.00    -0.005 A 
ATOM      4  C3  UNL d   1       5.997  -2.994  -0.025  0.00  0.00     0.006 A 
ATOM      5  C4  UNL d   1       5.619  -3.540  -1.252  0.00  0.00    -0.005 A 
ATOM      6  C5  UNL d   1       5.241  -4.883  -1.341  0.00  0.00    -0.074 A 
ATOM      7  C6  UNL d   1       4.841  -5.487  -2.655  0.00  0.00     0.077 C 
ATOM      8  C7  UNL d   1       5.253  -5.673  -0.184  0.00  0.00    -0.001 A 
ENDROOT
TORSDOF 0
ENDMDL
