MODEL 1
REMARK minimizedAffinity 9.06525421
REMARK minimizedRMSD -1
REMARK  0 active torsions:
REMARK  status: ('A' for Active; 'I' for Inactive)
ROOT
ATOM      1  C   UNL d   1       0.665   3.136  -1.406  0.00  0.00     0.077 C 
ATOM      2  C1  UNL d   1       0.128   1.800  -1.827  0.00  0.00    -0.074 A 
ATOM      3  C2  UNL d   1       0.990   0.773  -2.225  0.00  0.00    -0.005 A 
ATOM      4  C3  UNL d   1       0.477  -0.467  -2.604  0.00  0.00     0.006 A 
ATOM      5  C4  UNL d   1      -0.900  -0.693  -2.590  0.00  0.00    -0.005 A 
ATOM      6  C5  UNL d   1      -1.777   0.322  -2.193  0.00  0.00    -0.074 A 
ATOM      7  C6  UNL d   1      -3.259   0.094  -2.162  0.00  0.00     0.077 C 
ATOM      8  C7  UNL d   1      -1.253   1.564  -1.807  0.00  0.00    -0.001 A 
ENDROOT
TORSDOF 0
ENDMDL
