MODEL 1
REMARK minimizedAffinity -0.32257989
REMARK minimizedRMSD -1
REMARK  0 active torsions:
REMARK  status: ('A' for Active; 'I' for Inactive)
ROOT
ATOM      1  C   UNL d   1      -2.532   2.118   1.390  0.00  0.00     0.077 C 
ATOM      2  C1  UNL d   1      -1.751   1.022   2.051  0.00  0.00    -0.074 A 
ATOM      3  C2  UNL d   1      -0.352   1.033   2.048  0.00  0.00    -0.005 A 
ATOM      4  C3  UNL d   1       0.361   0.012   2.675  0.00  0.00     0.006 A 
ATOM      5  C4  UNL d   1      -0.316  -1.030   3.311  0.00  0.00    -0.005 A 
ATOM      6  C5  UNL d   1      -1.714  -1.057   3.325  0.00  0.00    -0.074 A 
ATOM      7  C6  UNL d   1      -2.457  -2.164   4.013  0.00  0.00     0.077 C 
ATOM      8  C7  UNL d   1      -2.423  -0.024   2.699  0.00  0.00    -0.001 A 
ENDROOT
TORSDOF 0
ENDMDL
