MODEL 1
REMARK minimizedAffinity 8.18591785
REMARK minimizedRMSD -1
REMARK  0 active torsions:
REMARK  status: ('A' for Active; 'I' for Inactive)
ROOT
ATOM      1  C   UNL d   1      -2.925   3.992   0.468  0.00  0.00     0.077 C 
ATOM      2  C1  UNL d   1      -2.283   2.945   1.329  0.00  0.00    -0.074 A 
ATOM      3  C2  UNL d   1      -2.903   1.710   1.542  0.00  0.00    -0.005 A 
ATOM      4  C3  UNL d   1      -2.290   0.742   2.337  0.00  0.00     0.006 A 
ATOM      5  C4  UNL d   1      -1.051   0.999   2.926  0.00  0.00    -0.005 A 
ATOM      6  C5  UNL d   1      -0.415   2.228   2.723  0.00  0.00    -0.074 A 
ATOM      7  C6  UNL d   1       0.922   2.516   3.340  0.00  0.00     0.077 C 
ATOM      8  C7  UNL d   1      -1.034   3.192   1.917  0.00  0.00    -0.001 A 
ENDROOT
TORSDOF 0
ENDMDL
