MODEL 1
REMARK minimizedAffinity 1.76359594
REMARK minimizedRMSD -1
REMARK  0 active torsions:
REMARK  status: ('A' for Active; 'I' for Inactive)
ROOT
ATOM      1  C   UNL d   1       2.867  -0.560   2.205  0.00  0.00     0.077 C 
ATOM      2  C1  UNL d   1       3.572  -1.666   1.477  0.00  0.00    -0.074 A 
ATOM      3  C2  UNL d   1       4.968  -1.752   1.480  0.00  0.00    -0.005 A 
ATOM      4  C3  UNL d   1       5.610  -2.792   0.807  0.00  0.00     0.006 A 
ATOM      5  C4  UNL d   1       4.864  -3.753   0.125  0.00  0.00    -0.005 A 
ATOM      6  C5  UNL d   1       3.467  -3.684   0.111  0.00  0.00    -0.074 A 
ATOM      7  C6  UNL d   1       2.650  -4.715  -0.609  0.00  0.00     0.077 C 
ATOM      8  C7  UNL d   1       2.829  -2.640   0.796  0.00  0.00    -0.001 A 
ENDROOT
TORSDOF 0
ENDMDL
