MODEL 1
REMARK minimizedAffinity 9.62631035
REMARK minimizedRMSD -1
REMARK  0 active torsions:
REMARK  status: ('A' for Active; 'I' for Inactive)
ROOT
ATOM      1  C   UNL d   1       1.058   3.252   2.499  0.00  0.00     0.077 C 
ATOM      2  C1  UNL d   1      -0.275   2.596   2.293  0.00  0.00    -0.074 A 
ATOM      3  C2  UNL d   1      -1.201   3.118   1.384  0.00  0.00    -0.005 A 
ATOM      4  C3  UNL d   1      -2.433   2.491   1.196  0.00  0.00     0.006 A 
ATOM      5  C4  UNL d   1      -2.751   1.339   1.915  0.00  0.00    -0.005 A 
ATOM      6  C5  UNL d   1      -1.838   0.802   2.828  0.00  0.00    -0.074 A 
ATOM      7  C6  UNL d   1      -2.161  -0.442   3.602  0.00  0.00     0.077 C 
ATOM      8  C7  UNL d   1      -0.600   1.433   3.006  0.00  0.00    -0.001 A 
ENDROOT
TORSDOF 0
ENDMDL
