MODEL 1
REMARK minimizedAffinity 6.28168201
REMARK minimizedRMSD -1
REMARK  0 active torsions:
REMARK  status: ('A' for Active; 'I' for Inactive)
ROOT
ATOM      1  C   UNL d   1      -2.261  -2.289   3.923  0.00  0.00     0.077 C 
ATOM      2  C1  UNL d   1      -3.567  -2.799   4.455  0.00  0.00    -0.074 A 
ATOM      3  C2  UNL d   1      -4.713  -1.996   4.437  0.00  0.00    -0.005 A 
ATOM      4  C3  UNL d   1      -5.923  -2.487   4.927  0.00  0.00     0.006 A 
ATOM      5  C4  UNL d   1      -6.000  -3.784   5.438  0.00  0.00    -0.005 A 
ATOM      6  C5  UNL d   1      -4.865  -4.601   5.463  0.00  0.00    -0.074 A 
ATOM      7  C6  UNL d   1      -4.933  -6.000   6.000  0.00  0.00     0.077 C 
ATOM      8  C7  UNL d   1      -3.655  -4.103   4.963  0.00  0.00    -0.001 A 
ENDROOT
TORSDOF 0
ENDMDL
