MODEL 1
REMARK minimizedAffinity 15.3877249
REMARK minimizedRMSD -1
REMARK  0 active torsions:
REMARK  status: ('A' for Active; 'I' for Inactive)
ROOT
ATOM      1  C   UNL d   1      -3.203   4.626  -3.756  0.00  0.00     0.124 A 
ATOM      2  C1  UNL d   1      -3.536   3.557  -4.576  0.00  0.00     0.062 A 
ATOM      3  C2  UNL d   1      -2.536   2.826  -5.213  0.00  0.00     0.162 A 
ATOM      4  C3  UNL d   1      -1.195   3.162  -5.031  0.00  0.00    -0.034 A 
ATOM      5  C4  UNL d   1      -0.869   4.239  -4.206  0.00  0.00     0.162 A 
ATOM      6  C5  UNL d   1      -1.871   4.966  -3.572  0.00  0.00     0.062 A 
ATOM      7  F   UNL d   1      -1.548   6.000  -2.780  0.00  0.00    -0.097 F 
ATOM      8  F1  UNL d   1       0.411   4.589  -4.009  0.00  0.00    -0.096 F 
ATOM      9  I   UNL d   1       0.302   2.071  -5.981  0.00  0.00    -0.060 I 
ATOM     10  F2  UNL d   1      -2.886   1.797  -5.999  0.00  0.00    -0.096 F 
ATOM     11  F3  UNL d   1      -4.822   3.227  -4.757  0.00  0.00    -0.097 F 
ATOM     12  F4  UNL d   1      -4.167   5.328  -3.146  0.00  0.00    -0.092 F 
ENDROOT
TORSDOF 0
ENDMDL
