MODEL 1
REMARK minimizedAffinity 17.0068779
REMARK minimizedRMSD -1
REMARK  0 active torsions:
REMARK  status: ('A' for Active; 'I' for Inactive)
ROOT
ATOM      1  C   UNL d   1      -2.201   2.448   0.776  0.00  0.00     0.124 A 
ATOM      2  C1  UNL d   1      -2.097   1.066   0.848  0.00  0.00     0.062 A 
ATOM      3  C2  UNL d   1      -0.956   0.424   0.376  0.00  0.00     0.162 A 
ATOM      4  C3  UNL d   1       0.092   1.164  -0.172  0.00  0.00    -0.034 A 
ATOM      5  C4  UNL d   1      -0.021   2.554  -0.242  0.00  0.00     0.162 A 
ATOM      6  C5  UNL d   1      -1.164   3.191   0.231  0.00  0.00     0.062 A 
ATOM      7  F   UNL d   1      -1.263   4.526   0.160  0.00  0.00    -0.097 F 
ATOM      8  F1  UNL d   1       0.967   3.296  -0.764  0.00  0.00    -0.096 F 
ATOM      9  I   UNL d   1       1.800   0.209  -0.879  0.00  0.00    -0.060 I 
ATOM     10  F2  UNL d   1      -0.882  -0.913   0.459  0.00  0.00    -0.096 F 
ATOM     11  F3  UNL d   1      -3.099   0.346   1.374  0.00  0.00    -0.097 F 
ATOM     12  F4  UNL d   1      -3.301   3.062   1.230  0.00  0.00    -0.092 F 
ENDROOT
TORSDOF 0
ENDMDL
