MODEL 1
REMARK minimizedAffinity 25.5598965
REMARK minimizedRMSD -1
REMARK  0 active torsions:
REMARK  status: ('A' for Active; 'I' for Inactive)
ROOT
ATOM      1  C   UNL d   1      -1.125  -4.872  -1.859  0.00  0.00     0.124 A 
ATOM      2  C1  UNL d   1      -2.293  -4.834  -1.111  0.00  0.00     0.062 A 
ATOM      3  C2  UNL d   1      -2.667  -3.664  -0.455  0.00  0.00     0.162 A 
ATOM      4  C3  UNL d   1      -1.871  -2.522  -0.545  0.00  0.00    -0.034 A 
ATOM      5  C4  UNL d   1      -0.697  -2.568  -1.299  0.00  0.00     0.162 A 
ATOM      6  C5  UNL d   1      -0.328  -3.740  -1.952  0.00  0.00     0.062 A 
ATOM      7  F   UNL d   1       0.801  -3.774  -2.675  0.00  0.00    -0.097 F 
ATOM      8  F1  UNL d   1       0.091  -1.488  -1.407  0.00  0.00    -0.096 F 
ATOM      9  I   UNL d   1      -2.426  -0.772   0.434  0.00  0.00    -0.060 I 
ATOM     10  F2  UNL d   1      -3.801  -3.656   0.261  0.00  0.00    -0.096 F 
ATOM     11  F3  UNL d   1      -3.064  -5.927  -1.018  0.00  0.00    -0.097 F 
ATOM     12  F4  UNL d   1      -0.767  -5.999  -2.488  0.00  0.00    -0.092 F 
ENDROOT
TORSDOF 0
ENDMDL
