MODEL 1
REMARK minimizedAffinity 10.994978
REMARK minimizedRMSD -1
REMARK  0 active torsions:
REMARK  status: ('A' for Active; 'I' for Inactive)
ROOT
ATOM      1  C   UNL d   1       1.383   2.358   2.139  0.00  0.00     0.124 A 
ATOM      2  C1  UNL d   1       0.185   2.570   2.807  0.00  0.00     0.062 A 
ATOM      3  C2  UNL d   1       0.139   3.420   3.909  0.00  0.00     0.162 A 
ATOM      4  C3  UNL d   1       1.295   4.064   4.349  0.00  0.00    -0.034 A 
ATOM      5  C4  UNL d   1       2.496   3.845   3.673  0.00  0.00     0.162 A 
ATOM      6  C5  UNL d   1       2.537   2.995   2.572  0.00  0.00     0.062 A 
ATOM      7  F   UNL d   1       3.695   2.791   1.928  0.00  0.00    -0.097 F 
ATOM      8  F1  UNL d   1       3.626   4.449   4.069  0.00  0.00    -0.096 F 
ATOM      9  I   UNL d   1       1.230   5.335   5.996  0.00  0.00    -0.060 I 
ATOM     10  F2  UNL d   1      -1.032   3.606   4.535  0.00  0.00    -0.096 F 
ATOM     11  F3  UNL d   1      -0.932   1.955   2.391  0.00  0.00    -0.097 F 
ATOM     12  F4  UNL d   1       1.424   1.540   1.079  0.00  0.00    -0.092 F 
ENDROOT
TORSDOF 0
ENDMDL
