MODEL 1
REMARK minimizedAffinity 17.8373184
REMARK minimizedRMSD -1
REMARK  0 active torsions:
REMARK  status: ('A' for Active; 'I' for Inactive)
ROOT
ATOM      1  C   UNL d   1      -1.967   2.497   0.974  0.00  0.00     0.124 A 
ATOM      2  C1  UNL d   1      -0.990   3.203   0.286  0.00  0.00     0.062 A 
ATOM      3  C2  UNL d   1       0.097   2.533  -0.269  0.00  0.00     0.162 A 
ATOM      4  C3  UNL d   1       0.212   1.149  -0.139  0.00  0.00    -0.034 A 
ATOM      5  C4  UNL d   1      -0.775   0.446   0.554  0.00  0.00     0.162 A 
ATOM      6  C5  UNL d   1      -1.859   1.120   1.107  0.00  0.00     0.062 A 
ATOM      7  F   UNL d   1      -2.802   0.436   1.771  0.00  0.00    -0.097 F 
ATOM      8  F1  UNL d   1      -0.695  -0.885   0.697  0.00  0.00    -0.096 F 
ATOM      9  I   UNL d   1       1.835   0.145  -0.968  0.00  0.00    -0.060 I 
ATOM     10  F2  UNL d   1       1.027   3.241  -0.928  0.00  0.00    -0.096 F 
ATOM     11  F3  UNL d   1      -1.092   4.533   0.157  0.00  0.00    -0.097 F 
ATOM     12  F4  UNL d   1      -3.011   3.144   1.508  0.00  0.00    -0.092 F 
ENDROOT
TORSDOF 0
ENDMDL
