MODEL 1
REMARK minimizedAffinity 16.4061604
REMARK minimizedRMSD -1
REMARK  0 active torsions:
REMARK  status: ('A' for Active; 'I' for Inactive)
ROOT
ATOM      1  C   UNL d   1      -2.435   1.519   0.866  0.00  0.00     0.124 A 
ATOM      2  C1  UNL d   1      -2.105   0.196   1.126  0.00  0.00     0.062 A 
ATOM      3  C2  UNL d   1      -0.856  -0.298   0.763  0.00  0.00     0.162 A 
ATOM      4  C3  UNL d   1       0.074   0.531   0.135  0.00  0.00    -0.034 A 
ATOM      5  C4  UNL d   1      -0.266   1.860  -0.124  0.00  0.00     0.162 A 
ATOM      6  C5  UNL d   1      -1.516   2.350   0.242  0.00  0.00     0.062 A 
ATOM      7  F   UNL d   1      -1.832   3.628  -0.010  0.00  0.00    -0.097 F 
ATOM      8  F1  UNL d   1       0.604   2.685  -0.725  0.00  0.00    -0.096 F 
ATOM      9  I   UNL d   1       1.942  -0.204  -0.410  0.00  0.00    -0.060 I 
ATOM     10  F2  UNL d   1      -0.564  -1.581   1.026  0.00  0.00    -0.096 F 
ATOM     11  F3  UNL d   1      -2.992  -0.608   1.729  0.00  0.00    -0.097 F 
ATOM     12  F4  UNL d   1      -3.638   1.992   1.217  0.00  0.00    -0.092 F 
ENDROOT
TORSDOF 0
ENDMDL
