MODEL 1
REMARK minimizedAffinity 21.776413
REMARK minimizedRMSD -1
REMARK  0 active torsions:
REMARK  status: ('A' for Active; 'I' for Inactive)
ROOT
ATOM      1  C   UNL d   1       2.111   0.748  -0.248  0.00  0.00     0.124 A 
ATOM      2  C1  UNL d   1       2.682   0.028  -1.288  0.00  0.00     0.062 A 
ATOM      3  C2  UNL d   1       2.037  -1.093  -1.802  0.00  0.00     0.162 A 
ATOM      4  C3  UNL d   1       0.811  -1.502  -1.276  0.00  0.00    -0.034 A 
ATOM      5  C4  UNL d   1       0.243  -0.774  -0.229  0.00  0.00     0.162 A 
ATOM      6  C5  UNL d   1       0.892   0.346   0.281  0.00  0.00     0.062 A 
ATOM      7  F   UNL d   1       0.338   1.040   1.286  0.00  0.00    -0.097 F 
ATOM      8  F1  UNL d   1      -0.934  -1.139   0.300  0.00  0.00    -0.096 F 
ATOM      9  I   UNL d   1      -0.157  -3.177  -2.040  0.00  0.00    -0.060 I 
ATOM     10  F2  UNL d   1       2.612  -1.769  -2.807  0.00  0.00    -0.096 F 
ATOM     11  F3  UNL d   1       3.860   0.414  -1.800  0.00  0.00    -0.097 F 
ATOM     12  F4  UNL d   1       2.734   1.826   0.245  0.00  0.00    -0.092 F 
ENDROOT
TORSDOF 0
ENDMDL
