MODEL 1
REMARK minimizedAffinity 11.766715
REMARK minimizedRMSD -1
REMARK  0 active torsions:
REMARK  status: ('A' for Active; 'I' for Inactive)
ROOT
ATOM      1  C   UNL d   1      -0.644   2.048  -5.986  0.00  0.00     0.124 A 
ATOM      2  C1  UNL d   1      -0.078   3.315  -5.986  0.00  0.00     0.062 A 
ATOM      3  C2  UNL d   1      -0.891   4.445  -5.989  0.00  0.00     0.162 A 
ATOM      4  C3  UNL d   1      -2.280   4.313  -5.991  0.00  0.00    -0.034 A 
ATOM      5  C4  UNL d   1      -2.842   3.035  -5.992  0.00  0.00     0.162 A 
ATOM      6  C5  UNL d   1      -2.025   1.909  -5.988  0.00  0.00     0.062 A 
ATOM      7  F   UNL d   1      -2.574   0.686  -5.988  0.00  0.00    -0.097 F 
ATOM      8  F1  UNL d   1      -4.173   2.872  -5.993  0.00  0.00    -0.096 F 
ATOM      9  I   UNL d   1      -3.499   6.000  -5.996  0.00  0.00    -0.060 I 
ATOM     10  F2  UNL d   1      -0.317   5.657  -5.989  0.00  0.00    -0.096 F 
ATOM     11  F3  UNL d   1       1.255   3.452  -5.984  0.00  0.00    -0.097 F 
ATOM     12  F4  UNL d   1       0.140   0.963  -5.983  0.00  0.00    -0.092 F 
ENDROOT
TORSDOF 0
ENDMDL
