MODEL 1
REMARK minimizedAffinity 24.6430473
REMARK minimizedRMSD -1
REMARK  0 active torsions:
REMARK  status: ('A' for Active; 'I' for Inactive)
ROOT
ATOM      1  C   UNL d   1      -2.191   1.670   1.042  0.00  0.00     0.124 A 
ATOM      2  C1  UNL d   1      -1.237   2.349   0.298  0.00  0.00     0.062 A 
ATOM      3  C2  UNL d   1      -0.135   1.670  -0.214  0.00  0.00     0.162 A 
ATOM      4  C3  UNL d   1       0.019   0.303   0.017  0.00  0.00    -0.034 A 
ATOM      5  C4  UNL d   1      -0.944  -0.373   0.768  0.00  0.00     0.162 A 
ATOM      6  C5  UNL d   1      -2.044   0.310   1.277  0.00  0.00     0.062 A 
ATOM      7  F   UNL d   1      -2.965  -0.348   1.996  0.00  0.00    -0.097 F 
ATOM      8  F1  UNL d   1      -0.828  -1.687   1.008  0.00  0.00    -0.096 F 
ATOM      9  I   UNL d   1       1.665  -0.715  -0.747  0.00  0.00    -0.060 I 
ATOM     10  F2  UNL d   1       0.772   2.352  -0.930  0.00  0.00    -0.096 F 
ATOM     11  F3  UNL d   1      -1.376   3.663   0.071  0.00  0.00    -0.097 F 
ATOM     12  F4  UNL d   1      -3.250   2.326   1.534  0.00  0.00    -0.092 F 
ENDROOT
TORSDOF 0
ENDMDL
