MODEL 1
REMARK minimizedAffinity 21.7814693
REMARK minimizedRMSD -1
REMARK  0 active torsions:
REMARK  status: ('A' for Active; 'I' for Inactive)
ROOT
ATOM      1  C   UNL d   1      -1.751  -0.037   1.226  0.00  0.00     0.124 A 
ATOM      2  C1  UNL d   1      -1.602   1.210   0.636  0.00  0.00     0.062 A 
ATOM      3  C2  UNL d   1      -0.439   1.519  -0.063  0.00  0.00     0.162 A 
ATOM      4  C3  UNL d   1       0.585   0.578  -0.177  0.00  0.00    -0.034 A 
ATOM      5  C4  UNL d   1       0.429  -0.673   0.421  0.00  0.00     0.162 A 
ATOM      6  C5  UNL d   1      -0.736  -0.977   1.119  0.00  0.00     0.062 A 
ATOM      7  F   UNL d   1      -0.878  -2.183   1.689  0.00  0.00    -0.097 F 
ATOM      8  F1  UNL d   1       1.393  -1.601   0.332  0.00  0.00    -0.096 F 
ATOM      9  I   UNL d   1       2.326   1.036  -1.221  0.00  0.00    -0.060 I 
ATOM     10  F2  UNL d   1      -0.322   2.732  -0.624  0.00  0.00    -0.096 F 
ATOM     11  F3  UNL d   1      -2.581   2.120   0.739  0.00  0.00    -0.097 F 
ATOM     12  F4  UNL d   1      -2.871  -0.332   1.899  0.00  0.00    -0.092 F 
ENDROOT
TORSDOF 0
ENDMDL
