MODEL 1
REMARK minimizedAffinity 19.166523
REMARK minimizedRMSD -1
REMARK  0 active torsions:
REMARK  status: ('A' for Active; 'I' for Inactive)
ROOT
ATOM      1  C   UNL d   1       2.440   2.186   1.460  0.00  0.00     0.124 A 
ATOM      2  C1  UNL d   1       2.316   2.968   2.600  0.00  0.00     0.062 A 
ATOM      3  C2  UNL d   1       1.064   3.186   3.167  0.00  0.00     0.162 A 
ATOM      4  C3  UNL d   1      -0.076   2.620   2.595  0.00  0.00    -0.034 A 
ATOM      5  C4  UNL d   1       0.056   1.836   1.448  0.00  0.00     0.162 A 
ATOM      6  C5  UNL d   1       1.310   1.621   0.886  0.00  0.00     0.062 A 
ATOM      7  F   UNL d   1       1.428   0.865  -0.216  0.00  0.00    -0.097 F 
ATOM      8  F1  UNL d   1      -1.019   1.276   0.873  0.00  0.00    -0.096 F 
ATOM      9  I   UNL d   1      -1.950   2.944   3.440  0.00  0.00    -0.060 I 
ATOM     10  F2  UNL d   1       0.974   3.946   4.269  0.00  0.00    -0.096 F 
ATOM     11  F3  UNL d   1       3.406   3.517   3.157  0.00  0.00    -0.097 F 
ATOM     12  F4  UNL d   1       3.646   1.979   0.916  0.00  0.00    -0.092 F 
ENDROOT
TORSDOF 0
ENDMDL
