MODEL 1
REMARK minimizedAffinity 17.0956573
REMARK minimizedRMSD -1
REMARK  0 active torsions:
REMARK  status: ('A' for Active; 'I' for Inactive)
ROOT
ATOM      1  C   UNL d   1      -0.970   2.345  -1.225  0.00  0.00     0.124 A 
ATOM      2  C1  UNL d   1      -2.231   1.826  -1.482  0.00  0.00     0.062 A 
ATOM      3  C2  UNL d   1      -2.901   1.096  -0.505  0.00  0.00     0.162 A 
ATOM      4  C3  UNL d   1      -2.310   0.880   0.741  0.00  0.00    -0.034 A 
ATOM      5  C4  UNL d   1      -1.041   1.404   0.991  0.00  0.00     0.162 A 
ATOM      6  C5  UNL d   1      -0.376   2.133   0.011  0.00  0.00     0.062 A 
ATOM      7  F   UNL d   1       0.843   2.633   0.261  0.00  0.00    -0.097 F 
ATOM      8  F1  UNL d   1      -0.444   1.215   2.178  0.00  0.00    -0.096 F 
ATOM      9  I   UNL d   1      -3.308  -0.211   2.205  0.00  0.00    -0.060 I 
ATOM     10  F2  UNL d   1      -4.119   0.607  -0.781  0.00  0.00    -0.096 F 
ATOM     11  F3  UNL d   1      -2.807   2.029  -2.676  0.00  0.00    -0.097 F 
ATOM     12  F4  UNL d   1      -0.327   3.046  -2.168  0.00  0.00    -0.092 F 
ENDROOT
TORSDOF 0
ENDMDL
