MODEL 1
REMARK minimizedAffinity 19.1670589
REMARK minimizedRMSD -1
REMARK  0 active torsions:
REMARK  status: ('A' for Active; 'I' for Inactive)
ROOT
ATOM      1  C   UNL d   1      -3.948   1.133   4.242  0.00  0.00     0.124 A 
ATOM      2  C1  UNL d   1      -3.216   2.210   3.762  0.00  0.00     0.062 A 
ATOM      3  C2  UNL d   1      -2.377   2.052   2.663  0.00  0.00     0.162 A 
ATOM      4  C3  UNL d   1      -2.266   0.812   2.034  0.00  0.00    -0.034 A 
ATOM      5  C4  UNL d   1      -3.005  -0.267   2.523  0.00  0.00     0.162 A 
ATOM      6  C5  UNL d   1      -3.842  -0.104   3.622  0.00  0.00     0.062 A 
ATOM      7  F   UNL d   1      -4.548  -1.146   4.084  0.00  0.00    -0.097 F 
ATOM      8  F1  UNL d   1      -2.922  -1.473   1.942  0.00  0.00    -0.096 F 
ATOM      9  I   UNL d   1      -1.012   0.572   0.390  0.00  0.00    -0.060 I 
ATOM     10  F2  UNL d   1      -1.681   3.111   2.221  0.00  0.00    -0.096 F 
ATOM     11  F3  UNL d   1      -3.316   3.406   4.360  0.00  0.00    -0.097 F 
ATOM     12  F4  UNL d   1      -4.753   1.287   5.300  0.00  0.00    -0.092 F 
ENDROOT
TORSDOF 0
ENDMDL
