MODEL 1
REMARK minimizedAffinity 10.3541126
REMARK minimizedRMSD -1
REMARK  0 active torsions:
REMARK  status: ('A' for Active; 'I' for Inactive)
ROOT
ATOM      1  C   UNL d   1      -1.501   0.501   1.232  0.00  0.00     0.124 A 
ATOM      2  C1  UNL d   1      -1.237   1.801   0.821  0.00  0.00     0.062 A 
ATOM      3  C2  UNL d   1      -0.038   2.104   0.183  0.00  0.00     0.162 A 
ATOM      4  C3  UNL d   1       0.907   1.105  -0.050  0.00  0.00    -0.034 A 
ATOM      5  C4  UNL d   1       0.636  -0.199   0.366  0.00  0.00     0.162 A 
ATOM      6  C5  UNL d   1      -0.564  -0.497   1.003  0.00  0.00     0.062 A 
ATOM      7  F   UNL d   1      -0.817  -1.753   1.399  0.00  0.00    -0.097 F 
ATOM      8  F1  UNL d   1       1.522  -1.184   0.157  0.00  0.00    -0.096 F 
ATOM      9  I   UNL d   1       2.701   1.555  -1.005  0.00  0.00    -0.060 I 
ATOM     10  F2  UNL d   1       0.189   3.369  -0.203  0.00  0.00    -0.096 F 
ATOM     11  F3  UNL d   1      -2.140   2.768   1.041  0.00  0.00    -0.097 F 
ATOM     12  F4  UNL d   1      -2.655   0.212   1.847  0.00  0.00    -0.092 F 
ENDROOT
TORSDOF 0
ENDMDL
