MODEL 1
REMARK minimizedAffinity -5.1352706
REMARK minimizedRMSD -1
REMARK  0 active torsions:
REMARK  status: ('A' for Active; 'I' for Inactive)
ROOT
ATOM      1  C   UNL d   1      -1.346  -0.341  -0.286  0.00  0.00     0.077 C 
ATOM      2  C1  UNL d   1       0.099  -0.093   0.031  0.00  0.00    -0.074 A 
ATOM      3  C2  UNL d   1       0.985  -1.157   0.227  0.00  0.00    -0.005 A 
ATOM      4  C3  UNL d   1       2.328  -0.910   0.512  0.00  0.00     0.006 A 
ATOM      5  C4  UNL d   1       2.797   0.401   0.604  0.00  0.00    -0.005 A 
ATOM      6  C5  UNL d   1       1.926   1.477   0.410  0.00  0.00    -0.074 A 
ATOM      7  C6  UNL d   1       2.416   2.892   0.495  0.00  0.00     0.077 C 
ATOM      8  C7  UNL d   1       0.580   1.221   0.117  0.00  0.00    -0.001 A 
ENDROOT
TORSDOF 0
ENDMDL
