MODEL 1
REMARK minimizedAffinity -5.34801579
REMARK minimizedRMSD -1
REMARK  0 active torsions:
REMARK  status: ('A' for Active; 'I' for Inactive)
ROOT
ATOM      1  C   UNL d   1       1.042   3.372   0.082  0.00  0.00     0.077 C 
ATOM      2  C1  UNL d   1       1.325   1.908   0.245  0.00  0.00    -0.074 A 
ATOM      3  C2  UNL d   1       2.584   1.461   0.661  0.00  0.00    -0.005 A 
ATOM      4  C3  UNL d   1       2.830   0.097   0.817  0.00  0.00     0.006 A 
ATOM      5  C4  UNL d   1       1.821  -0.833   0.559  0.00  0.00    -0.005 A 
ATOM      6  C5  UNL d   1       0.557  -0.405   0.143  0.00  0.00    -0.074 A 
ATOM      7  C6  UNL d   1      -0.541  -1.390  -0.129  0.00  0.00     0.077 C 
ATOM      8  C7  UNL d   1       0.315   0.968  -0.005  0.00  0.00    -0.001 A 
ENDROOT
TORSDOF 0
ENDMDL
