MODEL 1
REMARK minimizedAffinity -4.50224686
REMARK minimizedRMSD -1
REMARK  0 active torsions:
REMARK  status: ('A' for Active; 'I' for Inactive)
ROOT
ATOM      1  C   UNL d   1      -1.568  -0.607  -0.498  0.00  0.00     0.077 C 
ATOM      2  C1  UNL d   1      -0.322   0.125  -0.097  0.00  0.00    -0.074 A 
ATOM      3  C2  UNL d   1      -0.341   1.505   0.131  0.00  0.00    -0.005 A 
ATOM      4  C3  UNL d   1       0.823   2.171   0.514  0.00  0.00     0.006 A 
ATOM      5  C4  UNL d   1       2.016   1.466   0.672  0.00  0.00    -0.005 A 
ATOM      6  C5  UNL d   1       2.055   0.086   0.449  0.00  0.00    -0.074 A 
ATOM      7  C6  UNL d   1       3.327  -0.689   0.624  0.00  0.00     0.077 C 
ATOM      8  C7  UNL d   1       0.879  -0.578   0.072  0.00  0.00    -0.001 A 
ENDROOT
TORSDOF 0
ENDMDL
