MODEL 1
REMARK minimizedAffinity -6.05390596
REMARK minimizedRMSD -1
REMARK  0 active torsions:
REMARK  status: ('A' for Active; 'I' for Inactive)
ROOT
ATOM      1  C   UNL d   1      -2.167  -0.086  -0.092  0.00  0.00     0.077 C 
ATOM      2  C1  UNL d   1      -0.800  -0.559   0.304  0.00  0.00    -0.074 A 
ATOM      3  C2  UNL d   1      -0.637  -1.679   1.126  0.00  0.00    -0.005 A 
ATOM      4  C3  UNL d   1       0.641  -2.113   1.478  0.00  0.00     0.006 A 
ATOM      5  C4  UNL d   1       1.767  -1.432   1.013  0.00  0.00    -0.005 A 
ATOM      6  C5  UNL d   1       1.624  -0.310   0.190  0.00  0.00    -0.074 A 
ATOM      7  C6  UNL d   1       2.823   0.427  -0.326  0.00  0.00     0.077 C 
ATOM      8  C7  UNL d   1       0.336   0.115  -0.165  0.00  0.00    -0.001 A 
ENDROOT
TORSDOF 0
ENDMDL
