MODEL 1
REMARK minimizedAffinity -5.54335976
REMARK minimizedRMSD -1
REMARK  0 active torsions:
REMARK  status: ('A' for Active; 'I' for Inactive)
ROOT
ATOM      1  C   UNL d   1       2.530  -1.477   2.289  0.00  0.00     0.077 C 
ATOM      2  C1  UNL d   1       1.802  -0.555   1.356  0.00  0.00    -0.074 A 
ATOM      3  C2  UNL d   1       2.377   0.651   0.943  0.00  0.00    -0.005 A 
ATOM      4  C3  UNL d   1       1.691   1.493   0.068  0.00  0.00     0.006 A 
ATOM      5  C4  UNL d   1       0.426   1.139  -0.402  0.00  0.00    -0.005 A 
ATOM      6  C5  UNL d   1      -0.164  -0.064  -0.001  0.00  0.00    -0.074 A 
ATOM      7  C6  UNL d   1      -1.519  -0.465  -0.505  0.00  0.00     0.077 C 
ATOM      8  C7  UNL d   1       0.534  -0.908   0.873  0.00  0.00    -0.001 A 
ENDROOT
TORSDOF 0
ENDMDL
