MODEL 1
REMARK minimizedAffinity -5.90859985
REMARK minimizedRMSD -1
REMARK  0 active torsions:
REMARK  status: ('A' for Active; 'I' for Inactive)
ROOT
ATOM      1  C   UNL d   1       3.230  -0.805   0.844  0.00  0.00     0.077 C 
ATOM      2  C1  UNL d   1       2.118   0.181   0.645  0.00  0.00    -0.074 A 
ATOM      3  C2  UNL d   1       2.332   1.551   0.826  0.00  0.00    -0.005 A 
ATOM      4  C3  UNL d   1       1.290   2.458   0.627  0.00  0.00     0.006 A 
ATOM      5  C4  UNL d   1       0.027   2.004   0.247  0.00  0.00    -0.005 A 
ATOM      6  C5  UNL d   1      -0.205   0.637   0.061  0.00  0.00    -0.074 A 
ATOM      7  C6  UNL d   1      -1.555   0.133  -0.358  0.00  0.00     0.077 C 
ATOM      8  C7  UNL d   1       0.848  -0.267   0.255  0.00  0.00    -0.001 A 
ENDROOT
TORSDOF 0
ENDMDL
