MODEL 1
REMARK minimizedAffinity -2.88326073
REMARK minimizedRMSD -1
REMARK  0 active torsions:
REMARK  status: ('A' for Active; 'I' for Inactive)
ROOT
ATOM      1  C   UNL d   1       2.227   2.262   2.501  0.00  0.00     0.077 C 
ATOM      2  C1  UNL d   1       1.778   1.221   1.519  0.00  0.00    -0.074 A 
ATOM      3  C2  UNL d   1       2.573   0.103   1.243  0.00  0.00    -0.005 A 
ATOM      4  C3  UNL d   1       2.138  -0.862   0.334  0.00  0.00     0.006 A 
ATOM      5  C4  UNL d   1       0.906  -0.719  -0.306  0.00  0.00    -0.005 A 
ATOM      6  C5  UNL d   1       0.098   0.391  -0.042  0.00  0.00    -0.074 A 
ATOM      7  C6  UNL d   1      -1.233   0.555  -0.715  0.00  0.00     0.077 C 
ATOM      8  C7  UNL d   1       0.539   1.353   0.877  0.00  0.00    -0.001 A 
ENDROOT
TORSDOF 0
ENDMDL
