MODEL 1
REMARK minimizedAffinity -4.96703386
REMARK minimizedRMSD -1
REMARK  0 active torsions:
REMARK  status: ('A' for Active; 'I' for Inactive)
ROOT
ATOM      1  C   UNL d   1       3.013  -1.476   2.132  0.00  0.00     0.077 C 
ATOM      2  C1  UNL d   1       2.244  -0.595   1.192  0.00  0.00    -0.074 A 
ATOM      3  C2  UNL d   1       2.797   0.595   0.708  0.00  0.00    -0.005 A 
ATOM      4  C3  UNL d   1       2.073   1.399  -0.172  0.00  0.00     0.006 A 
ATOM      5  C4  UNL d   1       0.792   1.022  -0.578  0.00  0.00    -0.005 A 
ATOM      6  C5  UNL d   1       0.224  -0.165  -0.105  0.00  0.00    -0.074 A 
ATOM      7  C6  UNL d   1      -1.148  -0.590  -0.538  0.00  0.00     0.077 C 
ATOM      8  C7  UNL d   1       0.960  -0.971   0.774  0.00  0.00    -0.001 A 
ENDROOT
TORSDOF 0
ENDMDL
