MODEL 1
REMARK minimizedAffinity -4.63310814
REMARK minimizedRMSD -1
REMARK  0 active torsions:
REMARK  status: ('A' for Active; 'I' for Inactive)
ROOT
ATOM      1  C   UNL d   1       3.159  -1.180   0.650  0.00  0.00     0.077 C 
ATOM      2  C1  UNL d   1       2.046  -0.177   0.580  0.00  0.00    -0.074 A 
ATOM      3  C2  UNL d   1       2.212   1.118   1.083  0.00  0.00    -0.005 A 
ATOM      4  C3  UNL d   1       1.171   2.043   1.003  0.00  0.00     0.006 A 
ATOM      5  C4  UNL d   1      -0.045   1.683   0.420  0.00  0.00    -0.005 A 
ATOM      6  C5  UNL d   1      -0.229   0.393  -0.089  0.00  0.00    -0.074 A 
ATOM      7  C6  UNL d   1      -1.526  -0.007  -0.727  0.00  0.00     0.077 C 
ATOM      8  C7  UNL d   1       0.824  -0.528  -0.011  0.00  0.00    -0.001 A 
ENDROOT
TORSDOF 0
ENDMDL
