MODEL 1
REMARK minimizedAffinity 2.7054286
REMARK minimizedRMSD -1
REMARK  0 active torsions:
REMARK  status: ('A' for Active; 'I' for Inactive)
ROOT
ATOM      1  C   UNL d   1       1.397   5.318  -0.184  0.00  0.00     0.077 C 
ATOM      2  C1  UNL d   1       1.565   3.889   0.238  0.00  0.00    -0.074 A 
ATOM      3  C2  UNL d   1       2.769   3.439   0.791  0.00  0.00    -0.005 A 
ATOM      4  C3  UNL d   1       2.908   2.109   1.187  0.00  0.00     0.006 A 
ATOM      5  C4  UNL d   1       1.846   1.217   1.036  0.00  0.00    -0.005 A 
ATOM      6  C5  UNL d   1       0.635   1.648   0.486  0.00  0.00    -0.074 A 
ATOM      7  C6  UNL d   1      -0.520   0.704   0.325  0.00  0.00     0.077 C 
ATOM      8  C7  UNL d   1       0.501   2.987   0.096  0.00  0.00    -0.001 A 
ENDROOT
TORSDOF 0
ENDMDL
