MODEL 1
REMARK minimizedAffinity 12.2167034
REMARK minimizedRMSD -1
REMARK  0 active torsions:
REMARK  status: ('A' for Active; 'I' for Inactive)
ROOT
ATOM      1  C   UNL d   1      -5.936  -2.894   5.999  0.00  0.00     0.172 C 
ATOM      2  N   UNL d   1      -5.955  -1.628   5.305  0.00  0.00    -0.070 N 
ATOM      3  C1  UNL d   1      -5.940  -1.461   3.946  0.00  0.00    -0.004 A 
ATOM      4  C2  UNL d   1      -5.968  -0.108   3.686  0.00  0.00    -0.047 A 
ATOM      5  C3  UNL d   1      -6.000   0.562   4.932  0.00  0.00    -0.047 A 
ATOM      6  C4  UNL d   1      -5.991  -0.403   5.917  0.00  0.00    -0.004 A 
ENDROOT
TORSDOF 0
ENDMDL
