MODEL 1
REMARK minimizedAffinity -1.14826095
REMARK minimizedRMSD -1
REMARK  0 active torsions:
REMARK  status: ('A' for Active; 'I' for Inactive)
ROOT
ATOM      1  C   UNL d   1      -6.000   5.613  -5.850  0.00  0.00     0.172 C 
ATOM      2  N   UNL d   1      -5.598   5.204  -4.525  0.00  0.00    -0.070 N 
ATOM      3  C1  UNL d   1      -5.852   5.888  -3.366  0.00  0.00    -0.004 A 
ATOM      4  C2  UNL d   1      -5.307   5.170  -2.324  0.00  0.00    -0.047 A 
ATOM      5  C3  UNL d   1      -4.703   4.015  -2.875  0.00  0.00    -0.047 A 
ATOM      6  C4  UNL d   1      -4.898   4.061  -4.239  0.00  0.00    -0.004 A 
ENDROOT
TORSDOF 0
ENDMDL
