MODEL 1
REMARK minimizedAffinity 3.99107885
REMARK minimizedRMSD -1
REMARK  0 active torsions:
REMARK  status: ('A' for Active; 'I' for Inactive)
ROOT
ATOM      1  C   UNL d   1       0.322   2.355   2.622  0.00  0.00     0.172 C 
ATOM      2  N   UNL d   1       0.218   2.920   1.298  0.00  0.00    -0.070 N 
ATOM      3  C1  UNL d   1      -0.272   2.279   0.192  0.00  0.00    -0.004 A 
ATOM      4  C2  UNL d   1      -0.203   3.155  -0.870  0.00  0.00    -0.047 A 
ATOM      5  C3  UNL d   1       0.349   4.364  -0.385  0.00  0.00    -0.047 A 
ATOM      6  C4  UNL d   1       0.600   4.192   0.959  0.00  0.00    -0.004 A 
ENDROOT
TORSDOF 0
ENDMDL
