MODEL 1
REMARK minimizedAffinity 3.09449649
REMARK minimizedRMSD -1
REMARK  0 active torsions:
REMARK  status: ('A' for Active; 'I' for Inactive)
ROOT
ATOM      1  C   UNL d   1       0.982  -5.999  -1.499  0.00  0.00     0.172 C 
ATOM      2  N   UNL d   1      -0.005  -5.439  -2.393  0.00  0.00    -0.070 N 
ATOM      3  C1  UNL d   1      -0.425  -5.999  -3.569  0.00  0.00    -0.004 A 
ATOM      4  C2  UNL d   1      -1.370  -5.161  -4.122  0.00  0.00    -0.047 A 
ATOM      5  C3  UNL d   1      -1.521  -4.059  -3.247  0.00  0.00    -0.047 A 
ATOM      6  C4  UNL d   1      -0.665  -4.257  -2.185  0.00  0.00    -0.004 A 
ENDROOT
TORSDOF 0
ENDMDL
