MODEL 1
REMARK minimizedAffinity -2.82412171
REMARK minimizedRMSD -1
REMARK  0 active torsions:
REMARK  status: ('A' for Active; 'I' for Inactive)
ROOT
ATOM      1  C1  BNZ d   1       1.720  -0.079   2.319  0.00  0.00     0.000 A 
ATOM      2  C2  BNZ d   1       2.200   0.282   1.089  0.00  0.00     0.000 A 
ATOM      3  C3  BNZ d   1       1.349   0.510   0.044  0.00  0.00     0.000 A 
ATOM      4  C4  BNZ d   1       0.023   0.338   0.220  0.00  0.00     0.000 A 
ATOM      5  C5  BNZ d   1      -0.477  -0.034   1.452  0.00  0.00     0.000 A 
ATOM      6  C6  BNZ d   1       0.380  -0.225   2.512  0.00  0.00     0.000 A 
ENDROOT
TORSDOF 0
ENDMDL
