MODEL 1
REMARK minimizedAffinity -3.37940645
REMARK minimizedRMSD -1
REMARK  0 active torsions:
REMARK  status: ('A' for Active; 'I' for Inactive)
ROOT
ATOM      1  C1  BNZ d   1       1.295   0.510   1.603  0.00  0.00     0.000 A 
ATOM      2  C2  BNZ d   1       0.473   0.419   0.511  0.00  0.00     0.000 A 
ATOM      3  C3  BNZ d   1      -0.743  -0.199   0.600  0.00  0.00     0.000 A 
ATOM      4  C4  BNZ d   1      -1.118  -0.760   1.768  0.00  0.00     0.000 A 
ATOM      5  C5  BNZ d   1      -0.296  -0.685   2.875  0.00  0.00     0.000 A 
ATOM      6  C6  BNZ d   1       0.910  -0.028   2.792  0.00  0.00     0.000 A 
ENDROOT
TORSDOF 0
ENDMDL
