MODEL 1
REMARK minimizedAffinity -1.99593532
REMARK minimizedRMSD -1
REMARK  0 active torsions:
REMARK  status: ('A' for Active; 'I' for Inactive)
ROOT
ATOM      1  C1  BNZ d   1       1.896   4.131  -1.070  0.00  0.00     0.000 A 
ATOM      2  C2  BNZ d   1       2.991   4.732  -0.508  0.00  0.00     0.000 A 
ATOM      3  C3  BNZ d   1       3.821   4.036   0.326  0.00  0.00     0.000 A 
ATOM      4  C4  BNZ d   1       3.533   2.753   0.628  0.00  0.00     0.000 A 
ATOM      5  C5  BNZ d   1       2.428   2.136   0.076  0.00  0.00     0.000 A 
ATOM      6  C6  BNZ d   1       1.617   2.829  -0.793  0.00  0.00     0.000 A 
ENDROOT
TORSDOF 0
ENDMDL
