MODEL 1
REMARK minimizedAffinity -1.97713578
REMARK minimizedRMSD -1
REMARK  0 active torsions:
REMARK  status: ('A' for Active; 'I' for Inactive)
ROOT
ATOM      1  C1  BNZ d   1       0.690   0.012   1.027  0.00  0.00     0.000 A 
ATOM      2  C2  BNZ d   1      -0.235   0.065   0.018  0.00  0.00     0.000 A 
ATOM      3  C3  BNZ d   1      -1.549   0.331   0.286  0.00  0.00     0.000 A 
ATOM      4  C4  BNZ d   1      -1.943   0.502   1.564  0.00  0.00     0.000 A 
ATOM      5  C5  BNZ d   1      -1.024   0.442   2.593  0.00  0.00     0.000 A 
ATOM      6  C6  BNZ d   1       0.304   0.214   2.316  0.00  0.00     0.000 A 
ENDROOT
TORSDOF 0
ENDMDL
