MODEL 1
REMARK minimizedAffinity -4.27844143
REMARK minimizedRMSD -1
REMARK  0 active torsions:
REMARK  status: ('A' for Active; 'I' for Inactive)
ROOT
ATOM      1  C1  BNZ d   1      -1.210  -0.243   1.198  0.00  0.00     0.000 A 
ATOM      2  C2  BNZ d   1      -0.499  -0.003   0.052  0.00  0.00     0.000 A 
ATOM      3  C3  BNZ d   1       0.864   0.089   0.080  0.00  0.00     0.000 A 
ATOM      4  C4  BNZ d   1       1.512  -0.018   1.258  0.00  0.00     0.000 A 
ATOM      5  C5  BNZ d   1       0.809  -0.250   2.424  0.00  0.00     0.000 A 
ATOM      6  C6  BNZ d   1      -0.560  -0.382   2.386  0.00  0.00     0.000 A 
ENDROOT
TORSDOF 0
ENDMDL
