MODEL 1
REMARK minimizedAffinity -0.0965421349
REMARK minimizedRMSD -1
REMARK  0 active torsions:
REMARK  status: ('A' for Active; 'I' for Inactive)
ROOT
ATOM      1  C1  BNZ d   1       1.478  -0.115  -1.508  0.00  0.00     0.000 A 
ATOM      2  C2  BNZ d   1       1.889  -1.388  -1.800  0.00  0.00     0.000 A 
ATOM      3  C3  BNZ d   1       3.058  -1.609  -2.474  0.00  0.00     0.000 A 
ATOM      4  C4  BNZ d   1       3.793  -0.557  -2.889  0.00  0.00     0.000 A 
ATOM      5  C5  BNZ d   1       3.387   0.733  -2.610  0.00  0.00     0.000 A 
ATOM      6  C6  BNZ d   1       2.230   0.950  -1.898  0.00  0.00     0.000 A 
ENDROOT
TORSDOF 0
ENDMDL
