MODEL 1
REMARK minimizedAffinity -3.16824436
REMARK minimizedRMSD -1
REMARK  0 active torsions:
REMARK  status: ('A' for Active; 'I' for Inactive)
ROOT
ATOM      1  C1  BNZ d   1      -5.999   2.653   4.897  0.00  0.00     0.000 A 
ATOM      2  C2  BNZ d   1      -4.889   2.218   5.570  0.00  0.00     0.000 A 
ATOM      3  C3  BNZ d   1      -3.751   1.876   4.895  0.00  0.00     0.000 A 
ATOM      4  C4  BNZ d   1      -3.737   1.932   3.547  0.00  0.00     0.000 A 
ATOM      5  C5  BNZ d   1      -4.852   2.359   2.854  0.00  0.00     0.000 A 
ATOM      6  C6  BNZ d   1      -5.983   2.739   3.539  0.00  0.00     0.000 A 
ENDROOT
TORSDOF 0
ENDMDL
