MODEL 1
REMARK minimizedAffinity -0.639793813
REMARK minimizedRMSD -1
REMARK  0 active torsions:
REMARK  status: ('A' for Active; 'I' for Inactive)
ROOT
ATOM      1  C1  BNZ d   1       3.422  -2.680  -3.159  0.00  0.00     0.000 A 
ATOM      2  C2  BNZ d   1       3.804  -1.478  -2.624  0.00  0.00     0.000 A 
ATOM      3  C3  BNZ d   1       2.874  -0.596  -2.150  0.00  0.00     0.000 A 
ATOM      4  C4  BNZ d   1       1.563  -0.897  -2.248  0.00  0.00     0.000 A 
ATOM      5  C5  BNZ d   1       1.162  -2.100  -2.793  0.00  0.00     0.000 A 
ATOM      6  C6  BNZ d   1       2.102  -3.003  -3.234  0.00  0.00     0.000 A 
ENDROOT
TORSDOF 0
ENDMDL
