MODEL 1
REMARK minimizedAffinity 4.17199945
REMARK minimizedRMSD -1
REMARK  0 active torsions:
REMARK  status: ('A' for Active; 'I' for Inactive)
ROOT
ATOM      1  C1  BNZ d   1      -3.736  -5.962  -0.441  0.00  0.00     0.000 A 
ATOM      2  C2  BNZ d   1      -2.467  -5.955  -0.956  0.00  0.00     0.000 A 
ATOM      3  C3  BNZ d   1      -1.377  -5.994  -0.132  0.00  0.00     0.000 A 
ATOM      4  C4  BNZ d   1      -1.556  -6.000   1.204  0.00  0.00     0.000 A 
ATOM      5  C5  BNZ d   1      -2.829  -5.998   1.739  0.00  0.00     0.000 A 
ATOM      6  C6  BNZ d   1      -3.925  -5.998   0.906  0.00  0.00     0.000 A 
ENDROOT
TORSDOF 0
ENDMDL
