MODEL 1
REMARK minimizedAffinity -1.64715683
REMARK minimizedRMSD -1
REMARK  0 active torsions:
REMARK  status: ('A' for Active; 'I' for Inactive)
ROOT
ATOM      1  C1  BNZ d   1       2.668  -2.128  -2.926  0.00  0.00     0.000 A 
ATOM      2  C2  BNZ d   1       2.032  -3.214  -3.466  0.00  0.00     0.000 A 
ATOM      3  C3  BNZ d   1       0.776  -3.563  -3.058  0.00  0.00     0.000 A 
ATOM      4  C4  BNZ d   1       0.173  -2.851  -2.083  0.00  0.00     0.000 A 
ATOM      5  C5  BNZ d   1       0.805  -1.760  -1.522  0.00  0.00     0.000 A 
ATOM      6  C6  BNZ d   1       2.055  -1.387  -1.963  0.00  0.00     0.000 A 
ENDROOT
TORSDOF 0
ENDMDL
