MODEL 1
REMARK minimizedAffinity -2.50051451
REMARK minimizedRMSD -1
REMARK  0 active torsions:
REMARK  status: ('A' for Active; 'I' for Inactive)
ROOT
ATOM      1  C1  BNZ d   1      -5.650  -3.735   1.110  0.00  0.00     0.000 A 
ATOM      2  C2  BNZ d   1      -4.390  -3.381   1.512  0.00  0.00     0.000 A 
ATOM      3  C3  BNZ d   1      -3.414  -4.326   1.669  0.00  0.00     0.000 A 
ATOM      4  C4  BNZ d   1      -3.711  -5.626   1.463  0.00  0.00     0.000 A 
ATOM      5  C5  BNZ d   1      -4.980  -5.999   1.067  0.00  0.00     0.000 A 
ATOM      6  C6  BNZ d   1      -5.948  -5.041   0.872  0.00  0.00     0.000 A 
ENDROOT
TORSDOF 0
ENDMDL
