MODEL 1
REMARK minimizedAffinity 7.67419434
REMARK minimizedRMSD -1
REMARK  0 active torsions:
REMARK  status: ('A' for Active; 'I' for Inactive)
ROOT
ATOM      1  C1  BNZ d   1      -0.769   0.219  -1.824  0.00  0.00     0.000 A 
ATOM      2  C2  BNZ d   1       0.320   0.839  -1.271  0.00  0.00     0.000 A 
ATOM      3  C3  BNZ d   1       0.795   0.459  -0.047  0.00  0.00     0.000 A 
ATOM      4  C4  BNZ d   1       0.157  -0.510   0.640  0.00  0.00     0.000 A 
ATOM      5  C5  BNZ d   1      -0.948  -1.138   0.101  0.00  0.00     0.000 A 
ATOM      6  C6  BNZ d   1      -1.400  -0.780  -1.149  0.00  0.00     0.000 A 
ENDROOT
TORSDOF 0
ENDMDL
