MODEL 1
REMARK minimizedAffinity -2.66788673
REMARK minimizedRMSD -1
REMARK  0 active torsions:
REMARK  status: ('A' for Active; 'I' for Inactive)
ROOT
ATOM      1  C1  BNZ d   1      -4.775  -4.825   0.337  0.00  0.00     0.000 A 
ATOM      2  C2  BNZ d   1      -4.206  -5.996   0.760  0.00  0.00     0.000 A 
ATOM      3  C3  BNZ d   1      -2.981  -6.000   1.366  0.00  0.00     0.000 A 
ATOM      4  C4  BNZ d   1      -2.310  -4.839   1.512  0.00  0.00     0.000 A 
ATOM      5  C5  BNZ d   1      -2.867  -3.651   1.082  0.00  0.00     0.000 A 
ATOM      6  C6  BNZ d   1      -4.117  -3.646   0.507  0.00  0.00     0.000 A 
ENDROOT
TORSDOF 0
ENDMDL
