MODEL 1
REMARK minimizedAffinity -1.09309244
REMARK minimizedRMSD -1
REMARK  0 active torsions:
REMARK  status: ('A' for Active; 'I' for Inactive)
ROOT
ATOM      1  C1  BNZ d   1       3.367  -5.919   3.372  0.00  0.00     0.000 A 
ATOM      2  C2  BNZ d   1       2.574  -6.000   2.258  0.00  0.00     0.000 A 
ATOM      3  C3  BNZ d   1       1.338  -5.416   2.235  0.00  0.00     0.000 A 
ATOM      4  C4  BNZ d   1       0.881  -4.787   3.337  0.00  0.00     0.000 A 
ATOM      5  C5  BNZ d   1       1.665  -4.705   4.471  0.00  0.00     0.000 A 
ATOM      6  C6  BNZ d   1       2.924  -5.261   4.477  0.00  0.00     0.000 A 
ENDROOT
TORSDOF 0
ENDMDL
