MODEL 1
REMARK minimizedAffinity -1.00842202
REMARK minimizedRMSD -1
REMARK  0 active torsions:
REMARK  status: ('A' for Active; 'I' for Inactive)
ROOT
ATOM      1  C1  BNZ d   1      -1.929  -4.861   0.372  0.00  0.00     0.000 A 
ATOM      2  C2  BNZ d   1      -2.633  -3.742   0.729  0.00  0.00     0.000 A 
ATOM      3  C3  BNZ d   1      -3.999  -3.752   0.750  0.00  0.00     0.000 A 
ATOM      4  C4  BNZ d   1      -4.660  -4.866   0.376  0.00  0.00     0.000 A 
ATOM      5  C5  BNZ d   1      -3.965  -6.000   0.005  0.00  0.00     0.000 A 
ATOM      6  C6  BNZ d   1      -2.589  -5.998   0.022  0.00  0.00     0.000 A 
ENDROOT
TORSDOF 0
ENDMDL
