MODEL 1
REMARK minimizedAffinity 3.88585687
REMARK minimizedRMSD -1
REMARK  0 active torsions:
REMARK  status: ('A' for Active; 'I' for Inactive)
ROOT
ATOM      1  C1  BNZ d   1      -1.473   2.274   5.205  0.00  0.00     0.000 A 
ATOM      2  C2  BNZ d   1      -0.344   2.954   5.579  0.00  0.00     0.000 A 
ATOM      3  C3  BNZ d   1       0.794   2.888   4.825  0.00  0.00     0.000 A 
ATOM      4  C4  BNZ d   1       0.814   2.113   3.722  0.00  0.00     0.000 A 
ATOM      5  C5  BNZ d   1      -0.313   1.415   3.336  0.00  0.00     0.000 A 
ATOM      6  C6  BNZ d   1      -1.468   1.514   4.077  0.00  0.00     0.000 A 
ENDROOT
TORSDOF 0
ENDMDL
