MODEL 1
REMARK minimizedAffinity 1.45043623
REMARK minimizedRMSD -1
REMARK  0 active torsions:
REMARK  status: ('A' for Active; 'I' for Inactive)
ROOT
ATOM      1  C1  BNZ d   1      -3.395  -3.666   0.899  0.00  0.00     0.000 A 
ATOM      2  C2  BNZ d   1      -2.165  -3.687   1.501  0.00  0.00     0.000 A 
ATOM      3  C3  BNZ d   1      -1.633  -4.858   1.965  0.00  0.00     0.000 A 
ATOM      4  C4  BNZ d   1      -2.348  -5.997   1.863  0.00  0.00     0.000 A 
ATOM      5  C5  BNZ d   1      -3.593  -5.990   1.266  0.00  0.00     0.000 A 
ATOM      6  C6  BNZ d   1      -4.109  -4.817   0.765  0.00  0.00     0.000 A 
ENDROOT
TORSDOF 0
ENDMDL
