MODEL 1
REMARK minimizedAffinity 1.66836989
REMARK minimizedRMSD -1
REMARK  0 active torsions:
REMARK  status: ('A' for Active; 'I' for Inactive)
ROOT
ATOM      1  C1  BNZ d   1      -6.000  -3.924   1.131  0.00  0.00     0.000 A 
ATOM      2  C2  BNZ d   1      -5.999  -5.139   0.499  0.00  0.00     0.000 A 
ATOM      3  C3  BNZ d   1      -4.856  -5.883   0.415  0.00  0.00     0.000 A 
ATOM      4  C4  BNZ d   1      -3.708  -5.395   0.927  0.00  0.00     0.000 A 
ATOM      5  C5  BNZ d   1      -3.690  -4.168   1.558  0.00  0.00     0.000 A 
ATOM      6  C6  BNZ d   1      -4.851  -3.438   1.675  0.00  0.00     0.000 A 
ENDROOT
TORSDOF 0
ENDMDL
