MODEL 1
REMARK minimizedAffinity -2.51758075
REMARK minimizedRMSD -1
REMARK  1 active torsions:
REMARK  status: ('A' for Active; 'I' for Inactive)
REMARK    1  A    between atoms: C1_2  and  C2_3 
ROOT
ATOM      1  C2  UNL d   1      -0.166  -0.372  -0.486  0.00  0.00    -0.076 A 
ATOM      2  C3  UNL d   1       1.098  -0.566   0.099  0.00  0.00     0.004 A 
ATOM      3  C4  UNL d   1       1.252  -0.581   1.484  0.00  0.00    -0.003 A 
ATOM      4  C5  UNL d   1       0.146  -0.404   2.307  0.00  0.00     0.000 A 
ATOM      5  C6  UNL d   1      -1.118  -0.229   1.745  0.00  0.00     0.000 A 
ATOM      6  C7  UNL d   1      -1.294  -0.227   0.350  0.00  0.00    -0.073 A 
ATOM      7  C8  UNL d   1      -2.679  -0.028  -0.203  0.00  0.00     0.078 C 
ENDROOT
BRANCH   1   8
ATOM      8  C1  UNL d   1      -0.269  -0.338  -1.994  0.00  0.00     0.053 C 
ATOM      9  C   UNL d   1       1.092  -0.378  -2.671  0.00  0.00     0.018 C 
ENDBRANCH   1   8
TORSDOF 1
ENDMDL
