MODEL 1
REMARK minimizedAffinity -4.41564703
REMARK minimizedRMSD -1
REMARK  1 active torsions:
REMARK  status: ('A' for Active; 'I' for Inactive)
REMARK    1  A    between atoms: C1_2  and  C2_3 
ROOT
ATOM      1  C2  UNL d   1      -0.196  -0.096   0.311  0.00  0.00    -0.076 A 
ATOM      2  C3  UNL d   1      -1.449  -0.616   0.677  0.00  0.00     0.004 A 
ATOM      3  C4  UNL d   1      -1.745  -0.908   2.008  0.00  0.00    -0.003 A 
ATOM      4  C5  UNL d   1      -0.792  -0.682   2.995  0.00  0.00     0.000 A 
ATOM      5  C6  UNL d   1       0.451  -0.150   2.652  0.00  0.00     0.000 A 
ATOM      6  C7  UNL d   1       0.759   0.165   1.318  0.00  0.00    -0.073 A 
ATOM      7  C8  UNL d   1       2.117   0.731   1.004  0.00  0.00     0.078 C 
ENDROOT
BRANCH   1   8
ATOM      8  C1  UNL d   1       0.077   0.175  -1.151  0.00  0.00     0.053 C 
ATOM      9  C   UNL d   1       0.171  -1.102  -1.972  0.00  0.00     0.018 C 
ENDBRANCH   1   8
TORSDOF 1
ENDMDL
