MODEL 1
REMARK minimizedAffinity -3.94416022
REMARK minimizedRMSD -1
REMARK  1 active torsions:
REMARK  status: ('A' for Active; 'I' for Inactive)
REMARK    1  A    between atoms: C1_2  and  C2_3 
ROOT
ATOM      1  C2  UNL d   1       0.530  -0.631  -0.810  0.00  0.00    -0.076 A 
ATOM      2  C3  UNL d   1       1.197  -1.866  -0.894  0.00  0.00     0.004 A 
ATOM      3  C4  UNL d   1       1.575  -2.395  -2.127  0.00  0.00    -0.003 A 
ATOM      4  C5  UNL d   1       1.292  -1.697  -3.297  0.00  0.00     0.000 A 
ATOM      5  C6  UNL d   1       0.647  -0.463  -3.231  0.00  0.00     0.000 A 
ATOM      6  C7  UNL d   1       0.274   0.092  -1.995  0.00  0.00    -0.073 A 
ATOM      7  C8  UNL d   1      -0.425   1.424  -1.983  0.00  0.00     0.078 C 
ENDROOT
BRANCH   1   8
ATOM      8  C1  UNL d   1       0.121  -0.120   0.553  0.00  0.00     0.053 C 
ATOM      9  C   UNL d   1      -1.323  -0.456   0.891  0.00  0.00     0.018 C 
ENDBRANCH   1   8
TORSDOF 1
ENDMDL
