MODEL 1
REMARK minimizedAffinity -2.50668263
REMARK minimizedRMSD -1
REMARK  1 active torsions:
REMARK  status: ('A' for Active; 'I' for Inactive)
REMARK    1  A    between atoms: C1_2  and  C2_3 
ROOT
ATOM      1  C2  UNL d   1       0.365  -0.368  -1.574  0.00  0.00    -0.076 A 
ATOM      2  C3  UNL d   1       1.267  -1.018  -0.713  0.00  0.00     0.004 A 
ATOM      3  C4  UNL d   1       1.137  -0.916   0.671  0.00  0.00    -0.003 A 
ATOM      4  C5  UNL d   1       0.103  -0.164   1.217  0.00  0.00     0.000 A 
ATOM      5  C6  UNL d   1      -0.811   0.473   0.378  0.00  0.00     0.000 A 
ATOM      6  C7  UNL d   1      -0.704   0.368  -1.019  0.00  0.00    -0.073 A 
ATOM      7  C8  UNL d   1      -1.714   1.080  -1.876  0.00  0.00     0.078 C 
ENDROOT
BRANCH   1   8
ATOM      8  C1  UNL d   1       0.572  -0.492  -3.067  0.00  0.00     0.053 C 
ATOM      9  C   UNL d   1       1.778  -1.348  -3.419  0.00  0.00     0.018 C 
ENDBRANCH   1   8
TORSDOF 1
ENDMDL
