MODEL 1
REMARK minimizedAffinity -3.26814818
REMARK minimizedRMSD -1
REMARK  1 active torsions:
REMARK  status: ('A' for Active; 'I' for Inactive)
REMARK    1  A    between atoms: C1_2  and  C2_3 
ROOT
ATOM      1  C2  UNL d   1      -0.691  -0.138   0.898  0.00  0.00    -0.076 A 
ATOM      2  C3  UNL d   1      -1.953   0.042   0.304  0.00  0.00     0.004 A 
ATOM      3  C4  UNL d   1      -3.077   0.322   1.078  0.00  0.00    -0.003 A 
ATOM      4  C5  UNL d   1      -2.958   0.429   2.460  0.00  0.00     0.000 A 
ATOM      5  C6  UNL d   1      -1.711   0.271   3.064  0.00  0.00     0.000 A 
ATOM      6  C7  UNL d   1      -0.565   0.004   2.296  0.00  0.00    -0.073 A 
ATOM      7  C8  UNL d   1       0.753  -0.163   3.001  0.00  0.00     0.078 C 
ENDROOT
BRANCH   1   8
ATOM      8  C1  UNL d   1       0.487  -0.468   0.009  0.00  0.00     0.053 C 
ATOM      9  C   UNL d   1       0.337   0.102  -1.393  0.00  0.00     0.018 C 
ENDBRANCH   1   8
TORSDOF 1
ENDMDL
