MODEL 1
REMARK minimizedAffinity -3.51343322
REMARK minimizedRMSD -1
REMARK  1 active torsions:
REMARK  status: ('A' for Active; 'I' for Inactive)
REMARK    1  A    between atoms: C1_2  and  C2_3 
ROOT
ATOM      1  C2  UNL d   1      -0.538   0.112   0.593  0.00  0.00    -0.076 A 
ATOM      2  C3  UNL d   1       0.709  -0.033   1.225  0.00  0.00     0.004 A 
ATOM      3  C4  UNL d   1       0.810  -0.058   2.615  0.00  0.00    -0.003 A 
ATOM      4  C5  UNL d   1      -0.335   0.060   3.396  0.00  0.00     0.000 A 
ATOM      5  C6  UNL d   1      -1.582   0.187   2.785  0.00  0.00     0.000 A 
ATOM      6  C7  UNL d   1      -1.703   0.198   1.385  0.00  0.00    -0.073 A 
ATOM      7  C8  UNL d   1      -3.072   0.343   0.779  0.00  0.00     0.078 C 
ENDROOT
BRANCH   1   8
ATOM      8  C1  UNL d   1      -0.582   0.160  -0.918  0.00  0.00     0.053 C 
ATOM      9  C   UNL d   1       0.563  -0.609  -1.559  0.00  0.00     0.018 C 
ENDBRANCH   1   8
TORSDOF 1
ENDMDL
