MODEL 1
REMARK minimizedAffinity -4.68484163
REMARK minimizedRMSD -1
REMARK  1 active torsions:
REMARK  status: ('A' for Active; 'I' for Inactive)
REMARK    1  A    between atoms: C1_2  and  C2_3 
ROOT
ATOM      1  C2  UNL d   1       0.290  -0.049   0.555  0.00  0.00    -0.076 A 
ATOM      2  C3  UNL d   1       0.312   1.079  -0.284  0.00  0.00     0.004 A 
ATOM      3  C4  UNL d   1       0.573   0.954  -1.647  0.00  0.00    -0.003 A 
ATOM      4  C5  UNL d   1       0.816  -0.300  -2.194  0.00  0.00     0.000 A 
ATOM      5  C6  UNL d   1       0.781  -1.432  -1.381  0.00  0.00     0.000 A 
ATOM      6  C7  UNL d   1       0.503  -1.326  -0.007  0.00  0.00    -0.073 A 
ATOM      7  C8  UNL d   1       0.483  -2.579   0.824  0.00  0.00     0.078 C 
ENDROOT
BRANCH   1   8
ATOM      8  C1  UNL d   1       0.028   0.150   2.031  0.00  0.00     0.053 C 
ATOM      9  C   UNL d   1      -1.437  -0.038   2.393  0.00  0.00     0.018 C 
ENDBRANCH   1   8
TORSDOF 1
ENDMDL
