MODEL 1
REMARK minimizedAffinity -2.3483007
REMARK minimizedRMSD -1
REMARK  1 active torsions:
REMARK  status: ('A' for Active; 'I' for Inactive)
REMARK    1  A    between atoms: C1_2  and  C2_3 
ROOT
ATOM      1  C2  UNL d   1       0.681  -0.135  -0.610  0.00  0.00    -0.076 A 
ATOM      2  C3  UNL d   1       1.553   0.777   0.011  0.00  0.00     0.004 A 
ATOM      3  C4  UNL d   1       1.588   0.905   1.399  0.00  0.00    -0.003 A 
ATOM      4  C5  UNL d   1       0.754   0.121   2.188  0.00  0.00     0.000 A 
ATOM      5  C6  UNL d   1      -0.104  -0.801   1.590  0.00  0.00     0.000 A 
ATOM      6  C7  UNL d   1      -0.141  -0.954   0.194  0.00  0.00    -0.073 A 
ATOM      7  C8  UNL d   1      -1.090  -1.960  -0.398  0.00  0.00     0.078 C 
ENDROOT
BRANCH   1   8
ATOM      8  C1  UNL d   1       0.667  -0.210  -2.120  0.00  0.00     0.053 C 
ATOM      9  C   UNL d   1       1.849  -0.990  -2.676  0.00  0.00     0.018 C 
ENDBRANCH   1   8
TORSDOF 1
ENDMDL
