MODEL 1
REMARK minimizedAffinity -1.90799797
REMARK minimizedRMSD -1
REMARK  1 active torsions:
REMARK  status: ('A' for Active; 'I' for Inactive)
REMARK    1  A    between atoms: C1_2  and  C2_3 
ROOT
ATOM      1  C2  UNL d   1      -0.069  -0.241  -0.158  0.00  0.00    -0.076 A 
ATOM      2  C3  UNL d   1       0.914  -0.544   0.800  0.00  0.00     0.004 A 
ATOM      3  C4  UNL d   1       0.729  -0.226   2.144  0.00  0.00    -0.003 A 
ATOM      4  C5  UNL d   1      -0.444   0.400   2.553  0.00  0.00     0.000 A 
ATOM      5  C6  UNL d   1      -1.437   0.692   1.619  0.00  0.00     0.000 A 
ATOM      6  C7  UNL d   1      -1.273   0.363   0.262  0.00  0.00    -0.073 A 
ATOM      7  C8  UNL d   1      -2.374   0.707  -0.703  0.00  0.00     0.078 C 
ENDROOT
BRANCH   1   8
ATOM      8  C1  UNL d   1       0.200  -0.585  -1.606  0.00  0.00     0.053 C 
ATOM      9  C   UNL d   1       1.250   0.319  -2.234  0.00  0.00     0.018 C 
ENDBRANCH   1   8
TORSDOF 1
ENDMDL
