MODEL 1
REMARK minimizedAffinity -2.96672678
REMARK minimizedRMSD -1
REMARK  1 active torsions:
REMARK  status: ('A' for Active; 'I' for Inactive)
REMARK    1  A    between atoms: C1_2  and  C2_3 
ROOT
ATOM      1  C2  UNL d   1      -0.241   0.305   0.067  0.00  0.00    -0.076 A 
ATOM      2  C3  UNL d   1       0.940   0.238   0.827  0.00  0.00     0.004 A 
ATOM      3  C4  UNL d   1       0.895   0.044   2.207  0.00  0.00    -0.003 A 
ATOM      4  C5  UNL d   1      -0.331  -0.088   2.849  0.00  0.00     0.000 A 
ATOM      5  C6  UNL d   1      -1.512  -0.041   2.108  0.00  0.00     0.000 A 
ATOM      6  C7  UNL d   1      -1.484   0.138   0.714  0.00  0.00    -0.073 A 
ATOM      7  C8  UNL d   1      -2.788   0.186  -0.034  0.00  0.00     0.078 C 
ENDROOT
BRANCH   1   8
ATOM      8  C1  UNL d   1      -0.131   0.545  -1.422  0.00  0.00     0.053 C 
ATOM      9  C   UNL d   1       0.599  -0.579  -2.141  0.00  0.00     0.018 C 
ENDBRANCH   1   8
TORSDOF 1
ENDMDL
