MODEL 1
REMARK minimizedAffinity 1.24957335
REMARK minimizedRMSD -1
REMARK  0 active torsions:
REMARK  status: ('A' for Active; 'I' for Inactive)
ROOT
ATOM      1  C   UNL d   1      -0.863   6.000  -2.713  0.00  0.00    -0.002 A 
ATOM      2  C1  UNL d   1      -1.945   5.139  -2.600  0.00  0.00     0.010 A 
ATOM      3  C2  UNL d   1      -1.914   4.072  -1.700  0.00  0.00     0.041 A 
ATOM      4  C3  UNL d   1      -0.765   3.884  -0.906  0.00  0.00    -0.075 A 
ATOM      5  S   UNL d   1      -0.502   2.647   0.266  0.00  0.00     0.015 SA
ATOM      6  C4  UNL d   1       1.053   3.233   0.645  0.00  0.00     0.022 A 
ATOM      7  C5  UNL d   1       1.380   4.344  -0.095  0.00  0.00     0.026 A 
ATOM      8  C6  UNL d   1       0.337   4.739  -1.000  0.00  0.00    -0.082 A 
ATOM      9  C7  UNL d   1       0.275   5.810  -1.923  0.00  0.00     0.045 A 
ENDROOT
TORSDOF 0
ENDMDL
