MODEL 1
REMARK minimizedAffinity 17.4796066
REMARK minimizedRMSD -1
REMARK  0 active torsions:
REMARK  status: ('A' for Active; 'I' for Inactive)
ROOT
ATOM      1  C   UNL d   1       0.322   3.246   0.550  0.00  0.00    -0.002 A 
ATOM      2  C1  UNL d   1       1.411   4.010   0.154  0.00  0.00     0.010 A 
ATOM      3  C2  UNL d   1       1.338   4.813  -0.986  0.00  0.00     0.041 A 
ATOM      4  C3  UNL d   1       0.140   4.837  -1.728  0.00  0.00    -0.075 A 
ATOM      5  S   UNL d   1      -0.179   5.745  -3.158  0.00  0.00     0.015 SA
ATOM      6  C4  UNL d   1      -1.768   5.142  -3.276  0.00  0.00     0.022 A 
ATOM      7  C5  UNL d   1      -2.065   4.267  -2.258  0.00  0.00     0.026 A 
ATOM      8  C6  UNL d   1      -0.970   4.077  -1.349  0.00  0.00    -0.082 A 
ATOM      9  C7  UNL d   1      -0.864   3.272  -0.188  0.00  0.00     0.045 A 
ENDROOT
TORSDOF 0
ENDMDL
