MODEL 1
REMARK minimizedAffinity 16.7028389
REMARK minimizedRMSD -1
REMARK  0 active torsions:
REMARK  status: ('A' for Active; 'I' for Inactive)
ROOT
ATOM      1  C   UNL d   1       4.528  -5.999  -1.559  0.00  0.00    -0.002 A 
ATOM      2  C1  UNL d   1       5.198  -4.869  -1.113  0.00  0.00     0.010 A 
ATOM      3  C2  UNL d   1       4.492  -3.717  -0.762  0.00  0.00     0.041 A 
ATOM      4  C3  UNL d   1       3.087  -3.721  -0.865  0.00  0.00    -0.075 A 
ATOM      5  S   UNL d   1       2.013  -2.425  -0.490  0.00  0.00     0.015 SA
ATOM      6  C4  UNL d   1       0.640  -3.342  -0.911  0.00  0.00     0.022 A 
ATOM      7  C5  UNL d   1       0.973  -4.608  -1.331  0.00  0.00     0.026 A 
ATOM      8  C6  UNL d   1       2.389  -4.847  -1.311  0.00  0.00    -0.082 A 
ATOM      9  C7  UNL d   1       3.134  -5.999  -1.660  0.00  0.00     0.045 A 
ENDROOT
TORSDOF 0
ENDMDL
