MODEL 1
REMARK minimizedAffinity 5.84568453
REMARK minimizedRMSD -1
REMARK  0 active torsions:
REMARK  status: ('A' for Active; 'I' for Inactive)
ROOT
ATOM      1  C   UNL d   1      -5.250   1.736  -5.723  0.00  0.00    -0.002 A 
ATOM      2  C1  UNL d   1      -5.742   0.808  -4.815  0.00  0.00     0.010 A 
ATOM      3  C2  UNL d   1      -6.000   1.176  -3.493  0.00  0.00     0.041 A 
ATOM      4  C3  UNL d   1      -5.756   2.505  -3.096  0.00  0.00    -0.075 A 
ATOM      5  S   UNL d   1      -5.999   3.183  -1.529  0.00  0.00     0.015 SA
ATOM      6  C4  UNL d   1      -5.457   4.720  -2.028  0.00  0.00     0.022 A 
ATOM      7  C5  UNL d   1      -5.096   4.734  -3.354  0.00  0.00     0.026 A 
ATOM      8  C6  UNL d   1      -5.262   3.458  -3.992  0.00  0.00    -0.082 A 
ATOM      9  C7  UNL d   1      -5.009   3.054  -5.325  0.00  0.00     0.045 A 
ENDROOT
TORSDOF 0
ENDMDL
