MODEL 1
REMARK minimizedAffinity 17.2230968
REMARK minimizedRMSD -1
REMARK  0 active torsions:
REMARK  status: ('A' for Active; 'I' for Inactive)
ROOT
ATOM      1  C   UNL d   1      -1.169  -4.032  -1.465  0.00  0.00    -0.002 A 
ATOM      2  C1  UNL d   1      -0.379  -5.171  -1.398  0.00  0.00     0.010 A 
ATOM      3  C2  UNL d   1       0.947  -5.091  -0.968  0.00  0.00     0.041 A 
ATOM      4  C3  UNL d   1       1.470  -3.835  -0.601  0.00  0.00    -0.075 A 
ATOM      5  S   UNL d   1       3.066  -3.497  -0.043  0.00  0.00     0.015 SA
ATOM      6  C4  UNL d   1       2.737  -1.833   0.120  0.00  0.00     0.022 A 
ATOM      7  C5  UNL d   1       1.445  -1.525  -0.238  0.00  0.00     0.026 A 
ATOM      8  C6  UNL d   1       0.694  -2.675  -0.659  0.00  0.00    -0.082 A 
ATOM      9  C7  UNL d   1      -0.646  -2.788  -1.100  0.00  0.00     0.045 A 
ENDROOT
TORSDOF 0
ENDMDL
