MODEL 1
REMARK minimizedAffinity 8.06805134
REMARK minimizedRMSD -1
REMARK  0 active torsions:
REMARK  status: ('A' for Active; 'I' for Inactive)
ROOT
ATOM      1  C   UNL d   1      -5.974   2.850  -1.116  0.00  0.00    -0.002 A 
ATOM      2  C1  UNL d   1      -5.976   1.463  -1.096  0.00  0.00     0.010 A 
ATOM      3  C2  UNL d   1      -5.984   0.736  -2.288  0.00  0.00     0.041 A 
ATOM      4  C3  UNL d   1      -5.989   1.433  -3.512  0.00  0.00    -0.075 A 
ATOM      5  S   UNL d   1      -5.998   0.753  -5.097  0.00  0.00     0.015 SA
ATOM      6  C4  UNL d   1      -5.999   2.288  -5.837  0.00  0.00     0.022 A 
ATOM      7  C5  UNL d   1      -5.992   3.306  -4.913  0.00  0.00     0.026 A 
ATOM      8  C6  UNL d   1      -5.986   2.830  -3.558  0.00  0.00    -0.082 A 
ATOM      9  C7  UNL d   1      -5.978   3.539  -2.332  0.00  0.00     0.045 A 
ENDROOT
TORSDOF 0
ENDMDL
