MODEL 1
REMARK minimizedAffinity 9.31070805
REMARK minimizedRMSD -1
REMARK  1 active torsions:
REMARK  status: ('A' for Active; 'I' for Inactive)
REMARK    1  A    between atoms: C1_2  and  C2_3 
ROOT
ATOM      1  C2  UNL d   1      -5.183   3.790   0.411  0.00  0.00    -0.073 A 
ATOM      2  C3  UNL d   1      -3.856   3.416   0.169  0.00  0.00    -0.002 A 
ATOM      3  C4  UNL d   1      -3.116   2.767   1.158  0.00  0.00     0.004 A 
ATOM      4  C5  UNL d   1      -3.695   2.478   2.394  0.00  0.00    -0.004 A 
ATOM      5  C6  UNL d   1      -5.023   2.833   2.650  0.00  0.00    -0.075 A 
ATOM      6  C7  UNL d   1      -5.660   2.532   3.975  0.00  0.00     0.076 C 
ATOM      7  C8  UNL d   1      -5.760   3.487   1.653  0.00  0.00     0.001 A 
ENDROOT
BRANCH   1   8
ATOM      8  C1  UNL d   1      -5.989   4.485  -0.655  0.00  0.00     0.053 C 
ATOM      9  C   UNL d   1      -6.000   5.994  -0.468  0.00  0.00     0.018 C 
ENDBRANCH   1   8
TORSDOF 1
ENDMDL
