MODEL 1
REMARK minimizedAffinity 7.45969677
REMARK minimizedRMSD -1
REMARK  1 active torsions:
REMARK  status: ('A' for Active; 'I' for Inactive)
REMARK    1  A    between atoms: C1_2  and  C2_3 
ROOT
ATOM      1  C2  UNL d   1       2.500  -1.636   3.622  0.00  0.00    -0.073 A 
ATOM      2  C3  UNL d   1       3.740  -2.263   3.460  0.00  0.00    -0.002 A 
ATOM      3  C4  UNL d   1       3.946  -3.556   3.943  0.00  0.00     0.004 A 
ATOM      4  C5  UNL d   1       2.913  -4.237   4.587  0.00  0.00    -0.004 A 
ATOM      5  C6  UNL d   1       1.662  -3.632   4.748  0.00  0.00    -0.075 A 
ATOM      6  C7  UNL d   1       0.541  -4.350   5.440  0.00  0.00     0.076 C 
ATOM      7  C8  UNL d   1       1.464  -2.332   4.262  0.00  0.00     0.001 A 
ENDROOT
BRANCH   1   8
ATOM      8  C1  UNL d   1       2.271  -0.242   3.096  0.00  0.00     0.053 C 
ATOM      9  C   UNL d   1       3.122   0.051   1.870  0.00  0.00     0.018 C 
ENDBRANCH   1   8
TORSDOF 1
ENDMDL
