MODEL 1
REMARK minimizedAffinity 5.69232607
REMARK minimizedRMSD -1
REMARK  1 active torsions:
REMARK  status: ('A' for Active; 'I' for Inactive)
REMARK    1  A    between atoms: C1_2  and  C2_3 
ROOT
ATOM      1  C2  UNL d   1       1.558  -1.201   1.983  0.00  0.00    -0.073 A 
ATOM      2  C3  UNL d   1       2.682  -0.371   1.907  0.00  0.00    -0.002 A 
ATOM      3  C4  UNL d   1       3.829  -0.669   2.643  0.00  0.00     0.004 A 
ATOM      4  C5  UNL d   1       3.867  -1.803   3.455  0.00  0.00    -0.004 A 
ATOM      5  C6  UNL d   1       2.758  -2.651   3.535  0.00  0.00    -0.075 A 
ATOM      6  C7  UNL d   1       2.783  -3.873   4.406  0.00  0.00     0.076 C 
ATOM      7  C8  UNL d   1       1.609  -2.343   2.795  0.00  0.00     0.001 A 
ENDROOT
BRANCH   1   8
ATOM      8  C1  UNL d   1       0.318  -0.887   1.185  0.00  0.00     0.053 C 
ATOM      9  C   UNL d   1       0.436  -1.351  -0.258  0.00  0.00     0.018 C 
ENDBRANCH   1   8
TORSDOF 1
ENDMDL
