MODEL 1
REMARK minimizedAffinity 13.0573139
REMARK minimizedRMSD -1
REMARK  1 active torsions:
REMARK  status: ('A' for Active; 'I' for Inactive)
REMARK    1  A    between atoms: C1_2  and  C2_3 
ROOT
ATOM      1  C2  UNL d   1      -5.238   2.909   2.517  0.00  0.00    -0.073 A 
ATOM      2  C3  UNL d   1      -3.874   2.655   2.339  0.00  0.00    -0.002 A 
ATOM      3  C4  UNL d   1      -3.177   3.252   1.287  0.00  0.00     0.004 A 
ATOM      4  C5  UNL d   1      -3.834   4.114   0.410  0.00  0.00    -0.004 A 
ATOM      5  C6  UNL d   1      -5.195   4.390   0.578  0.00  0.00    -0.075 A 
ATOM      6  C7  UNL d   1      -5.917   5.312  -0.359  0.00  0.00     0.076 C 
ATOM      7  C8  UNL d   1      -5.888   3.784   1.635  0.00  0.00     0.001 A 
ENDROOT
BRANCH   1   8
ATOM      8  C1  UNL d   1      -5.993   2.271   3.655  0.00  0.00     0.053 C 
ATOM      9  C   UNL d   1      -5.995   3.145   4.899  0.00  0.00     0.018 C 
ENDBRANCH   1   8
TORSDOF 1
ENDMDL
