MODEL 1
REMARK minimizedAffinity 10.3602676
REMARK minimizedRMSD -1
REMARK  1 active torsions:
REMARK  status: ('A' for Active; 'I' for Inactive)
REMARK    1  A    between atoms: C1_2  and  C2_3 
ROOT
ATOM      1  C2  UNL d   1      -5.276   2.619   0.103  0.00  0.00    -0.073 A 
ATOM      2  C3  UNL d   1      -5.996   3.005   1.239  0.00  0.00    -0.002 A 
ATOM      3  C4  UNL d   1      -5.326   3.396   2.399  0.00  0.00     0.004 A 
ATOM      4  C5  UNL d   1      -3.932   3.413   2.432  0.00  0.00    -0.004 A 
ATOM      5  C6  UNL d   1      -3.195   3.043   1.303  0.00  0.00    -0.075 A 
ATOM      6  C7  UNL d   1      -1.694   3.053   1.323  0.00  0.00     0.076 C 
ATOM      7  C8  UNL d   1      -3.875   2.648   0.143  0.00  0.00     0.001 A 
ENDROOT
BRANCH   1   8
ATOM      8  C1  UNL d   1      -5.996   2.202  -1.154  0.00  0.00     0.053 C 
ATOM      9  C   UNL d   1      -5.092   1.423  -2.096  0.00  0.00     0.018 C 
ENDBRANCH   1   8
TORSDOF 1
ENDMDL
