MODEL 1
REMARK minimizedAffinity 10.2894297
REMARK minimizedRMSD -1
REMARK  0 active torsions:
REMARK  status: ('A' for Active; 'I' for Inactive)
ROOT
ATOM      1  N1  IND d   1       1.910  -2.351   0.949  0.00  0.00    -0.196 N 
ATOM      2  C2  IND d   1       1.964  -1.085   0.437  0.00  0.00     0.054 A 
ATOM      3  C3  IND d   1       0.926  -0.348   0.891  0.00  0.00    -0.031 A 
ATOM      4  C4  IND d   1      -0.925  -0.987   2.563  0.00  0.00     0.051 A 
ATOM      5  C5  IND d   1      -1.415  -2.046   3.275  0.00  0.00    -0.031 A 
ATOM      6  C6  IND d   1      -0.807  -3.285   3.250  0.00  0.00     0.015 A 
ATOM      7  C7  IND d   1       0.324  -3.509   2.518  0.00  0.00    -0.016 A 
ATOM      8  C8  IND d   1       0.820  -2.438   1.787  0.00  0.00    -0.047 A 
ATOM      9  C9  IND d   1       0.184  -1.190   1.775  0.00  0.00    -0.096 A 
ATOM     10  HN1 IND d   1       2.463  -2.986   0.777  0.00  0.00     0.298 HD
ENDROOT
TORSDOF 0
ENDMDL
