MODEL 1
REMARK minimizedAffinity 11.7658615
REMARK minimizedRMSD -1
REMARK  0 active torsions:
REMARK  status: ('A' for Active; 'I' for Inactive)
ROOT
ATOM      1  N1  IND d   1       2.250  -1.418  -1.449  0.00  0.00    -0.196 N 
ATOM      2  C2  IND d   1       1.530  -0.290  -1.733  0.00  0.00     0.054 A 
ATOM      3  C3  IND d   1       0.779   0.068  -0.668  0.00  0.00    -0.031 A 
ATOM      4  C4  IND d   1       0.650  -0.993   1.675  0.00  0.00     0.051 A 
ATOM      5  C5  IND d   1       1.096  -2.063   2.399  0.00  0.00    -0.031 A 
ATOM      6  C6  IND d   1       1.970  -2.989   1.867  0.00  0.00     0.015 A 
ATOM      7  C7  IND d   1       2.440  -2.874   0.590  0.00  0.00    -0.016 A 
ATOM      8  C8  IND d   1       1.984  -1.793  -0.151  0.00  0.00    -0.047 A 
ATOM      9  C9  IND d   1       1.064  -0.873   0.369  0.00  0.00    -0.096 A 
ATOM     10  HN1 IND d   1       2.779  -1.824  -1.991  0.00  0.00     0.298 HD
ENDROOT
TORSDOF 0
ENDMDL
