MODEL 1
REMARK minimizedAffinity 3.19629717
REMARK minimizedRMSD -1
REMARK  0 active torsions:
REMARK  status: ('A' for Active; 'I' for Inactive)
ROOT
ATOM      1  N1  IND d   1      -5.492  -1.584  -3.482  0.00  0.00    -0.196 N 
ATOM      2  C2  IND d   1      -4.686  -2.040  -2.476  0.00  0.00     0.054 A 
ATOM      3  C3  IND d   1      -3.664  -1.180  -2.265  0.00  0.00    -0.031 A 
ATOM      4  C4  IND d   1      -3.176   1.086  -3.385  0.00  0.00     0.051 A 
ATOM      5  C5  IND d   1      -3.610   1.908  -4.387  0.00  0.00    -0.031 A 
ATOM      6  C6  IND d   1      -4.717   1.603  -5.152  0.00  0.00     0.015 A 
ATOM      7  C7  IND d   1      -5.442   0.465  -4.935  0.00  0.00    -0.016 A 
ATOM      8  C8  IND d   1      -5.000  -0.375  -3.923  0.00  0.00    -0.047 A 
ATOM      9  C9  IND d   1      -3.852  -0.092  -3.172  0.00  0.00    -0.096 A 
ATOM     10  HN1 IND d   1      -6.188  -1.985  -3.787  0.00  0.00     0.298 HD
ENDROOT
TORSDOF 0
ENDMDL
