MODEL 1
REMARK minimizedAffinity 5.28333235
REMARK minimizedRMSD -1
REMARK  0 active torsions:
REMARK  status: ('A' for Active; 'I' for Inactive)
ROOT
ATOM      1  N1  IND d   1      -0.485  -0.720   2.354  0.00  0.00    -0.196 N 
ATOM      2  C2  IND d   1      -1.825  -0.475   2.466  0.00  0.00     0.054 A 
ATOM      3  C3  IND d   1      -2.358  -0.207   1.253  0.00  0.00    -0.031 A 
ATOM      4  C4  IND d   1      -1.236  -0.215  -1.064  0.00  0.00     0.051 A 
ATOM      5  C5  IND d   1      -0.018  -0.347  -1.671  0.00  0.00    -0.031 A 
ATOM      6  C6  IND d   1       1.129  -0.618  -0.953  0.00  0.00     0.015 A 
ATOM      7  C7  IND d   1       1.099  -0.779   0.403  0.00  0.00    -0.016 A 
ATOM      8  C8  IND d   1      -0.135  -0.639   1.024  0.00  0.00    -0.047 A 
ATOM      9  C9  IND d   1      -1.295  -0.322   0.305  0.00  0.00    -0.096 A 
ATOM     10  HN1 IND d   1       0.050  -0.895   3.004  0.00  0.00     0.298 HD
ENDROOT
TORSDOF 0
ENDMDL
