MODEL 1
REMARK minimizedAffinity 5.33207464
REMARK minimizedRMSD -1
REMARK  0 active torsions:
REMARK  status: ('A' for Active; 'I' for Inactive)
ROOT
ATOM      1  N1  IND d   1       1.501  -1.740   0.632  0.00  0.00    -0.196 N 
ATOM      2  C2  IND d   1       2.196  -2.912   0.520  0.00  0.00     0.054 A 
ATOM      3  C3  IND d   1       1.740  -3.816   1.415  0.00  0.00    -0.031 A 
ATOM      4  C4  IND d   1      -0.204  -3.622   3.091  0.00  0.00     0.051 A 
ATOM      5  C5  IND d   1      -1.114  -2.730   3.587  0.00  0.00    -0.031 A 
ATOM      6  C6  IND d   1      -1.202  -1.438   3.112  0.00  0.00     0.015 A 
ATOM      7  C7  IND d   1      -0.387  -0.990   2.111  0.00  0.00    -0.016 A 
ATOM      8  C8  IND d   1       0.542  -1.890   1.610  0.00  0.00    -0.047 A 
ATOM      9  C9  IND d   1       0.665  -3.190   2.117  0.00  0.00    -0.096 A 
ATOM     10  HN1 IND d   1       1.640  -1.028   0.170  0.00  0.00     0.298 HD
ENDROOT
TORSDOF 0
ENDMDL
