MODEL 1
REMARK minimizedAffinity 1.7213825
REMARK minimizedRMSD -1
REMARK  0 active torsions:
REMARK  status: ('A' for Active; 'I' for Inactive)
ROOT
ATOM      1  N1  IND d   1       2.557   5.997   5.672  0.00  0.00    -0.196 N 
ATOM      2  C2  IND d   1       1.191   5.993   5.700  0.00  0.00     0.054 A 
ATOM      3  C3  IND d   1       0.694   5.999   4.443  0.00  0.00    -0.031 A 
ATOM      4  C4  IND d   1       1.941   5.914   2.192  0.00  0.00     0.051 A 
ATOM      5  C5  IND d   1       3.197   5.943   1.654  0.00  0.00    -0.031 A 
ATOM      6  C6  IND d   1       4.327   5.990   2.445  0.00  0.00     0.015 A 
ATOM      7  C7  IND d   1       4.243   5.998   3.808  0.00  0.00    -0.016 A 
ATOM      8  C8  IND d   1       2.969   5.976   4.357  0.00  0.00    -0.047 A 
ATOM      9  C9  IND d   1       1.817   5.971   3.560  0.00  0.00    -0.096 A 
ATOM     10  HN1 IND d   1       3.073   6.011   6.360  0.00  0.00     0.298 HD
ENDROOT
TORSDOF 0
ENDMDL
