MODEL 1
REMARK minimizedAffinity 0.0590241589
REMARK minimizedRMSD -1
REMARK  0 active torsions:
REMARK  status: ('A' for Active; 'I' for Inactive)
ROOT
ATOM      1  N1  IND d   1       1.857  -2.809   0.402  0.00  0.00    -0.196 N 
ATOM      2  C2  IND d   1       2.248  -3.539   1.490  0.00  0.00     0.054 A 
ATOM      3  C3  IND d   1       1.585  -3.129   2.594  0.00  0.00    -0.031 A 
ATOM      4  C4  IND d   1      -0.256  -1.344   2.829  0.00  0.00     0.051 A 
ATOM      5  C5  IND d   1      -0.923  -0.385   2.119  0.00  0.00    -0.031 A 
ATOM      6  C6  IND d   1      -0.694  -0.183   0.773  0.00  0.00     0.015 A 
ATOM      7  C7  IND d   1       0.205  -0.943   0.081  0.00  0.00    -0.016 A 
ATOM      8  C8  IND d   1       0.890  -1.913   0.800  0.00  0.00    -0.047 A 
ATOM      9  C9  IND d   1       0.693  -2.095   2.175  0.00  0.00    -0.096 A 
ATOM     10  HN1 IND d   1       2.165  -2.895  -0.396  0.00  0.00     0.298 HD
ENDROOT
TORSDOF 0
ENDMDL
