MODEL 1
REMARK minimizedAffinity 1.2377435
REMARK minimizedRMSD -1
REMARK  0 active torsions:
REMARK  status: ('A' for Active; 'I' for Inactive)
ROOT
ATOM      1  C2' OXE d   1       1.726  -0.966   0.848  0.00  0.00     0.078 C 
ATOM      2  C1' OXE d   1       0.649   0.242  -1.446  0.00  0.00     0.078 C 
ATOM      3  C1  OXE d   1      -0.181   0.258  -0.186  0.00  0.00    -0.078 A 
ATOM      4  C2  OXE d   1       0.334  -0.376   0.918  0.00  0.00    -0.078 A 
ATOM      5  C3  OXE d   1      -0.366  -0.344   2.121  0.00  0.00     0.003 A 
ATOM      6  C4  OXE d   1      -1.658   0.194   2.175  0.00  0.00    -0.002 A 
ATOM      7  C5  OXE d   1      -2.218   0.810   1.051  0.00  0.00    -0.002 A 
ATOM      8  C6  OXE d   1      -1.477   0.888  -0.124  0.00  0.00     0.003 A 
ENDROOT
TORSDOF 0
ENDMDL
