MODEL 1
REMARK minimizedAffinity 2.73856711
REMARK minimizedRMSD -1
REMARK  0 active torsions:
REMARK  status: ('A' for Active; 'I' for Inactive)
ROOT
ATOM      1  C2' OXE d   1      -0.290  -0.516  -2.136  0.00  0.00     0.078 C 
ATOM      2  C1' OXE d   1       1.544  -0.093  -0.053  0.00  0.00     0.078 C 
ATOM      3  C1  OXE d   1       0.081   0.120   0.244  0.00  0.00    -0.078 A 
ATOM      4  C2  OXE d   1      -0.805  -0.044  -0.794  0.00  0.00    -0.078 A 
ATOM      5  C3  OXE d   1      -2.171   0.088  -0.561  0.00  0.00     0.003 A 
ATOM      6  C4  OXE d   1      -2.639   0.535   0.680  0.00  0.00    -0.002 A 
ATOM      7  C5  OXE d   1      -1.750   0.746   1.740  0.00  0.00    -0.002 A 
ATOM      8  C6  OXE d   1      -0.394   0.503   1.550  0.00  0.00     0.003 A 
ENDROOT
TORSDOF 0
ENDMDL
