MODEL 1
REMARK minimizedAffinity -2.10709071
REMARK minimizedRMSD -1
REMARK  0 active torsions:
REMARK  status: ('A' for Active; 'I' for Inactive)
ROOT
ATOM      1  C2' OXE d   1       0.579   0.989  -3.852  0.00  0.00     0.078 C 
ATOM      2  C1' OXE d   1       2.793   1.841  -2.351  0.00  0.00     0.078 C 
ATOM      3  C1  OXE d   1       1.792   0.936  -1.677  0.00  0.00    -0.078 A 
ATOM      4  C2  OXE d   1       0.688   0.562  -2.404  0.00  0.00    -0.078 A 
ATOM      5  C3  OXE d   1      -0.238  -0.315  -1.848  0.00  0.00     0.003 A 
ATOM      6  C4  OXE d   1      -0.136  -0.698  -0.505  0.00  0.00    -0.002 A 
ATOM      7  C5  OXE d   1       0.961  -0.296   0.266  0.00  0.00    -0.002 A 
ATOM      8  C6  OXE d   1       1.953   0.485  -0.316  0.00  0.00     0.003 A 
ENDROOT
TORSDOF 0
ENDMDL
