MODEL 1
REMARK minimizedAffinity 3.58842325
REMARK minimizedRMSD -1
REMARK  0 active torsions:
REMARK  status: ('A' for Active; 'I' for Inactive)
ROOT
ATOM      1  C2' OXE d   1       1.731  -1.094   0.362  0.00  0.00     0.078 C 
ATOM      2  C1' OXE d   1       0.998   0.657  -1.706  0.00  0.00     0.078 C 
ATOM      3  C1  OXE d   1      -0.063   0.261  -0.711  0.00  0.00    -0.078 A 
ATOM      4  C2  OXE d   1       0.292  -0.633   0.271  0.00  0.00    -0.078 A 
ATOM      5  C3  OXE d   1      -0.634  -0.990   1.247  0.00  0.00     0.003 A 
ATOM      6  C4  OXE d   1      -1.965  -0.567   1.149  0.00  0.00    -0.002 A 
ATOM      7  C5  OXE d   1      -2.358   0.312   0.135  0.00  0.00    -0.002 A 
ATOM      8  C6  OXE d   1      -1.412   0.768  -0.776  0.00  0.00     0.003 A 
ENDROOT
TORSDOF 0
ENDMDL
