MODEL 1
REMARK minimizedAffinity -3.71178865
REMARK minimizedRMSD -1
REMARK  0 active torsions:
REMARK  status: ('A' for Active; 'I' for Inactive)
ROOT
ATOM      1  C2' OXE d   1       0.046  -0.288  -3.937  0.00  0.00     0.078 C 
ATOM      2  C1' OXE d   1       2.703   0.616  -3.908  0.00  0.00     0.078 C 
ATOM      3  C1  OXE d   1       2.067   0.260  -2.588  0.00  0.00    -0.078 A 
ATOM      4  C2  OXE d   1       0.752  -0.137  -2.607  0.00  0.00    -0.078 A 
ATOM      5  C3  OXE d   1       0.133  -0.530  -1.423  0.00  0.00     0.003 A 
ATOM      6  C4  OXE d   1       0.790  -0.378  -0.196  0.00  0.00    -0.002 A 
ATOM      7  C5  OXE d   1       2.117   0.062  -0.151  0.00  0.00    -0.002 A 
ATOM      8  C6  OXE d   1       2.782   0.344  -1.339  0.00  0.00     0.003 A 
ENDROOT
TORSDOF 0
ENDMDL
