MODEL 1
REMARK minimizedAffinity 0.110926531
REMARK minimizedRMSD -1
REMARK  0 active torsions:
REMARK  status: ('A' for Active; 'I' for Inactive)
ROOT
ATOM      1  C2' OXE d   1       0.717  -0.049  -1.105  0.00  0.00     0.078 C 
ATOM      2  C1' OXE d   1       2.394  -0.556   1.088  0.00  0.00     0.078 C 
ATOM      3  C1  OXE d   1       0.948  -0.232   1.368  0.00  0.00    -0.078 A 
ATOM      4  C2  OXE d   1       0.145   0.060   0.292  0.00  0.00    -0.078 A 
ATOM      5  C3  OXE d   1      -1.209   0.312   0.490  0.00  0.00     0.003 A 
ATOM      6  C4  OXE d   1      -1.728   0.421   1.787  0.00  0.00    -0.002 A 
ATOM      7  C5  OXE d   1      -0.918   0.166   2.899  0.00  0.00    -0.002 A 
ATOM      8  C6  OXE d   1       0.409  -0.203   2.706  0.00  0.00     0.003 A 
ENDROOT
TORSDOF 0
ENDMDL
