MODEL 1
REMARK minimizedAffinity -4.75391197
REMARK minimizedRMSD -1
REMARK  0 active torsions:
REMARK  status: ('A' for Active; 'I' for Inactive)
ROOT
ATOM      1  C2' OXE d   1      -0.214   1.591   3.130  0.00  0.00     0.078 C 
ATOM      2  C1' OXE d   1       2.148   0.302   2.331  0.00  0.00     0.078 C 
ATOM      3  C1  OXE d   1       0.975   0.271   1.384  0.00  0.00    -0.078 A 
ATOM      4  C2  OXE d   1      -0.192   0.864   1.803  0.00  0.00    -0.078 A 
ATOM      5  C3  OXE d   1      -1.287   0.912   0.945  0.00  0.00     0.003 A 
ATOM      6  C4  OXE d   1      -1.262   0.228  -0.276  0.00  0.00    -0.002 A 
ATOM      7  C5  OXE d   1      -0.096  -0.417  -0.705  0.00  0.00    -0.002 A 
ATOM      8  C6  OXE d   1       1.042  -0.368   0.093  0.00  0.00     0.003 A 
ENDROOT
TORSDOF 0
ENDMDL
