MODEL 1
REMARK minimizedAffinity -2.86915088
REMARK minimizedRMSD -1
REMARK  0 active torsions:
REMARK  status: ('A' for Active; 'I' for Inactive)
ROOT
ATOM      1  C2' OXE d   1      -1.836   0.087   0.391  0.00  0.00     0.078 C 
ATOM      2  C1' OXE d   1      -0.412   1.192   2.543  0.00  0.00     0.078 C 
ATOM      3  C1  OXE d   1       0.323   0.249   1.623  0.00  0.00    -0.078 A 
ATOM      4  C2  OXE d   1      -0.394  -0.324   0.600  0.00  0.00    -0.078 A 
ATOM      5  C3  OXE d   1       0.249  -1.158  -0.310  0.00  0.00     0.003 A 
ATOM      6  C4  OXE d   1       1.579  -1.541  -0.103  0.00  0.00    -0.002 A 
ATOM      7  C5  OXE d   1       2.317  -1.000   0.956  0.00  0.00    -0.002 A 
ATOM      8  C6  OXE d   1       1.717  -0.074   1.801  0.00  0.00     0.003 A 
ENDROOT
TORSDOF 0
ENDMDL
