MODEL 1
REMARK minimizedAffinity -2.43249226
REMARK minimizedRMSD -1
REMARK  0 active torsions:
REMARK  status: ('A' for Active; 'I' for Inactive)
ROOT
ATOM      1  C2' OXE d   1       0.350  -0.746  -1.722  0.00  0.00     0.078 C 
ATOM      2  C1' OXE d   1       2.042  -1.068   0.495  0.00  0.00     0.078 C 
ATOM      3  C1  OXE d   1       0.700  -0.419   0.723  0.00  0.00    -0.078 A 
ATOM      4  C2  OXE d   1      -0.103  -0.224  -0.376  0.00  0.00    -0.078 A 
ATOM      5  C3  OXE d   1      -1.373   0.320  -0.213  0.00  0.00     0.003 A 
ATOM      6  C4  OXE d   1      -1.780   0.810   1.034  0.00  0.00    -0.002 A 
ATOM      7  C5  OXE d   1      -0.962   0.657   2.158  0.00  0.00    -0.002 A 
ATOM      8  C6  OXE d   1       0.260   0.008   2.028  0.00  0.00     0.003 A 
ENDROOT
TORSDOF 0
ENDMDL
