MODEL 1
REMARK minimizedAffinity -3.98823857
REMARK minimizedRMSD -1
REMARK  0 active torsions:
REMARK  status: ('A' for Active; 'I' for Inactive)
ROOT
ATOM      1  C2' OXE d   1       0.458  -0.794  -1.339  0.00  0.00     0.078 C 
ATOM      2  C1' OXE d   1       2.331  -1.632   0.576  0.00  0.00     0.078 C 
ATOM      3  C1  OXE d   1       1.047  -1.015   1.071  0.00  0.00    -0.078 A 
ATOM      4  C2  OXE d   1       0.157  -0.565   0.126  0.00  0.00    -0.078 A 
ATOM      5  C3  OXE d   1      -1.067  -0.037   0.528  0.00  0.00     0.003 A 
ATOM      6  C4  OXE d   1      -1.334   0.180   1.885  0.00  0.00    -0.002 A 
ATOM      7  C5  OXE d   1      -0.423  -0.235   2.863  0.00  0.00    -0.002 A 
ATOM      8  C6  OXE d   1       0.751  -0.871   2.475  0.00  0.00     0.003 A 
ENDROOT
TORSDOF 0
ENDMDL
