MODEL 1
REMARK minimizedAffinity 9.09669495
REMARK minimizedRMSD -1
REMARK  0 active torsions:
REMARK  status: ('A' for Active; 'I' for Inactive)
ROOT
ATOM      1  C4' PXY d   1       3.225   0.047   2.072  0.00  0.00     0.077 C 
ATOM      2  C1' PXY d   1      -1.160   0.008   5.838  0.00  0.00     0.077 C 
ATOM      3  C1  PXY d   1      -0.016   0.010   4.842  0.00  0.00    -0.082 A 
ATOM      4  C2  PXY d   1       1.209   0.294   5.254  0.00  0.00     0.003 A 
ATOM      5  C3  PXY d   1       2.249   0.332   4.361  0.00  0.00     0.003 A 
ATOM      6  C4  PXY d   1       2.042   0.024   3.043  0.00  0.00    -0.082 A 
ATOM      7  C5  PXY d   1       0.797  -0.277   2.618  0.00  0.00     0.003 A 
ATOM      8  C6  PXY d   1      -0.252  -0.269   3.532  0.00  0.00     0.003 A 
ENDROOT
TORSDOF 0
ENDMDL
