MODEL 1
REMARK minimizedAffinity 22.7244778
REMARK minimizedRMSD -1
REMARK  0 active torsions:
REMARK  status: ('A' for Active; 'I' for Inactive)
ROOT
ATOM      1  C4' PXY d   1      -5.991  -5.996  -2.811  0.00  0.00     0.077 C 
ATOM      2  C1' PXY d   1      -2.845  -4.557   1.820  0.00  0.00     0.077 C 
ATOM      3  C1  PXY d   1      -3.681  -4.933   0.612  0.00  0.00    -0.082 A 
ATOM      4  C2  PXY d   1      -3.145  -5.662  -0.353  0.00  0.00     0.003 A 
ATOM      5  C3  PXY d   1      -3.877  -5.984  -1.467  0.00  0.00     0.003 A 
ATOM      6  C4  PXY d   1      -5.187  -5.601  -1.569  0.00  0.00    -0.082 A 
ATOM      7  C5  PXY d   1      -5.744  -4.866  -0.584  0.00  0.00     0.003 A 
ATOM      8  C6  PXY d   1      -4.972  -4.514   0.520  0.00  0.00     0.003 A 
ENDROOT
TORSDOF 0
ENDMDL
