MODEL 1
REMARK minimizedAffinity 6.60598755
REMARK minimizedRMSD -1
REMARK  0 active torsions:
REMARK  status: ('A' for Active; 'I' for Inactive)
ROOT
ATOM      1  C4' PXY d   1      -1.154   1.414  -1.875  0.00  0.00     0.077 C 
ATOM      2  C1' PXY d   1      -4.682   5.993  -1.817  0.00  0.00     0.077 C 
ATOM      3  C1  PXY d   1      -3.753   4.796  -1.844  0.00  0.00    -0.082 A 
ATOM      4  C2  PXY d   1      -4.020   3.743  -1.088  0.00  0.00     0.003 A 
ATOM      5  C3  PXY d   1      -3.173   2.665  -1.076  0.00  0.00     0.003 A 
ATOM      6  C4  PXY d   1      -2.069   2.642  -1.887  0.00  0.00    -0.082 A 
ATOM      7  C5  PXY d   1      -1.796   3.707  -2.669  0.00  0.00     0.003 A 
ATOM      8  C6  PXY d   1      -2.646   4.809  -2.636  0.00  0.00     0.003 A 
ENDROOT
TORSDOF 0
ENDMDL
