MODEL 1
REMARK minimizedAffinity 10.2423553
REMARK minimizedRMSD -1
REMARK  0 active torsions:
REMARK  status: ('A' for Active; 'I' for Inactive)
ROOT
ATOM      1  C4' PXY d   1       1.989  -1.373   1.501  0.00  0.00     0.077 C 
ATOM      2  C1' PXY d   1      -1.504  -0.385   6.000  0.00  0.00     0.077 C 
ATOM      3  C1  PXY d   1      -0.595  -0.655   4.817  0.00  0.00    -0.082 A 
ATOM      4  C2  PXY d   1       0.633  -0.163   4.810  0.00  0.00     0.003 A 
ATOM      5  C3  PXY d   1       1.458  -0.370   3.735  0.00  0.00     0.003 A 
ATOM      6  C4  PXY d   1       1.040  -1.134   2.678  0.00  0.00    -0.082 A 
ATOM      7  C5  PXY d   1      -0.208  -1.649   2.682  0.00  0.00     0.003 A 
ATOM      8  C6  PXY d   1      -1.044  -1.392   3.765  0.00  0.00     0.003 A 
ENDROOT
TORSDOF 0
ENDMDL
