MODEL 1
REMARK minimizedAffinity 17.7868671
REMARK minimizedRMSD -1
REMARK  0 active torsions:
REMARK  status: ('A' for Active; 'I' for Inactive)
ROOT
ATOM      1  C4' PXY d   1      -2.135  -2.908   2.952  0.00  0.00     0.077 C 
ATOM      2  C1' PXY d   1       2.732   0.102   2.132  0.00  0.00     0.077 C 
ATOM      3  C1  PXY d   1       1.455  -0.683   2.359  0.00  0.00    -0.082 A 
ATOM      4  C2  PXY d   1       1.211  -1.761   1.632  0.00  0.00     0.003 A 
ATOM      5  C3  PXY d   1       0.047  -2.464   1.802  0.00  0.00     0.003 A 
ATOM      6  C4  PXY d   1      -0.854  -2.090   2.763  0.00  0.00    -0.082 A 
ATOM      7  C5  PXY d   1      -0.608  -0.998   3.517  0.00  0.00     0.003 A 
ATOM      8  C6  PXY d   1       0.561  -0.274   3.300  0.00  0.00     0.003 A 
ENDROOT
TORSDOF 0
ENDMDL
