MODEL 1
REMARK minimizedAffinity 18.8605022
REMARK minimizedRMSD -1
REMARK  0 active torsions:
REMARK  status: ('A' for Active; 'I' for Inactive)
ROOT
ATOM      1  C4' PXY d   1      -1.752  -3.051   2.825  0.00  0.00     0.077 C 
ATOM      2  C1' PXY d   1       2.811   0.277   1.590  0.00  0.00     0.077 C 
ATOM      3  C1  PXY d   1       1.613  -0.590   1.926  0.00  0.00    -0.082 A 
ATOM      4  C2  PXY d   1       1.478  -1.772   1.347  0.00  0.00     0.003 A 
ATOM      5  C3  PXY d   1       0.385  -2.555   1.614  0.00  0.00     0.003 A 
ATOM      6  C4  PXY d   1      -0.553  -2.147   2.524  0.00  0.00    -0.082 A 
ATOM      7  C5  PXY d   1      -0.418  -0.947   3.127  0.00  0.00     0.003 A 
ATOM      8  C6  PXY d   1       0.678  -0.149   2.811  0.00  0.00     0.003 A 
ENDROOT
TORSDOF 0
ENDMDL
