MODEL 1
REMARK minimizedAffinity 17.6934834
REMARK minimizedRMSD -1
REMARK  0 active torsions:
REMARK  status: ('A' for Active; 'I' for Inactive)
ROOT
ATOM      1  C4' PXY d   1       4.423   0.395   1.973  0.00  0.00     0.077 C 
ATOM      2  C1' PXY d   1      -0.803  -0.501   4.276  0.00  0.00     0.077 C 
ATOM      3  C1  PXY d   1       0.565  -0.276   3.663  0.00  0.00    -0.082 A 
ATOM      4  C2  PXY d   1       1.523   0.277   4.389  0.00  0.00     0.003 A 
ATOM      5  C3  PXY d   1       2.757   0.517   3.841  0.00  0.00     0.003 A 
ATOM      6  C4  PXY d   1       3.029   0.140   2.553  0.00  0.00    -0.082 A 
ATOM      7  C5  PXY d   1       2.059  -0.435   1.810  0.00  0.00     0.003 A 
ATOM      8  C6  PXY d   1       0.801  -0.632   2.372  0.00  0.00     0.003 A 
ENDROOT
TORSDOF 0
ENDMDL
