MODEL 1
REMARK minimizedAffinity 3.2530961
REMARK minimizedRMSD -1
REMARK  0 active torsions:
REMARK  status: ('A' for Active; 'I' for Inactive)
ROOT
ATOM      1  C4' PXY d   1       1.469  -0.998   2.975  0.00  0.00     0.077 C 
ATOM      2  C1' PXY d   1      -2.663  -3.684   5.997  0.00  0.00     0.077 C 
ATOM      3  C1  PXY d   1      -1.584  -2.968   5.209  0.00  0.00    -0.082 A 
ATOM      4  C2  PXY d   1      -1.068  -3.543   4.135  0.00  0.00     0.003 A 
ATOM      5  C3  PXY d   1      -0.069  -2.924   3.429  0.00  0.00     0.003 A 
ATOM      6  C4  PXY d   1       0.370  -1.680   3.796  0.00  0.00    -0.082 A 
ATOM      7  C5  PXY d   1      -0.158  -1.082   4.885  0.00  0.00     0.003 A 
ATOM      8  C6  PXY d   1      -1.142  -1.745   5.612  0.00  0.00     0.003 A 
ENDROOT
TORSDOF 0
ENDMDL
