MODEL 1
REMARK minimizedAffinity 5.00910044
REMARK minimizedRMSD -1
REMARK  0 active torsions:
REMARK  status: ('A' for Active; 'I' for Inactive)
ROOT
ATOM      1  C4' PXY d   1       1.819   5.115   0.271  0.00  0.00     0.077 C 
ATOM      2  C1' PXY d   1      -1.791   1.066  -1.727  0.00  0.00     0.077 C 
ATOM      3  C1  PXY d   1      -0.837   2.127  -1.214  0.00  0.00    -0.082 A 
ATOM      4  C2  PXY d   1      -0.752   2.356   0.087  0.00  0.00     0.003 A 
ATOM      5  C3  PXY d   1       0.082   3.333   0.566  0.00  0.00     0.003 A 
ATOM      6  C4  PXY d   1       0.876   4.047  -0.291  0.00  0.00    -0.082 A 
ATOM      7  C5  PXY d   1       0.803   3.812  -1.618  0.00  0.00     0.003 A 
ATOM      8  C6  PXY d   1      -0.081   2.844  -2.088  0.00  0.00     0.003 A 
ENDROOT
TORSDOF 0
ENDMDL
