MODEL 1
REMARK minimizedAffinity 7.98860502
REMARK minimizedRMSD -1
REMARK  0 active torsions:
REMARK  status: ('A' for Active; 'I' for Inactive)
ROOT
ATOM      1  C4' PXY d   1       0.930   3.141  -0.542  0.00  0.00     0.077 C 
ATOM      2  C1' PXY d   1      -4.549   2.376  -2.221  0.00  0.00     0.077 C 
ATOM      3  C1  PXY d   1      -3.116   2.582  -1.769  0.00  0.00    -0.082 A 
ATOM      4  C2  PXY d   1      -2.148   2.636  -2.670  0.00  0.00     0.003 A 
ATOM      5  C3  PXY d   1      -0.844   2.790  -2.277  0.00  0.00     0.003 A 
ATOM      6  C4  PXY d   1      -0.532   2.944  -0.953  0.00  0.00    -0.082 A 
ATOM      7  C5  PXY d   1      -1.515   2.900  -0.029  0.00  0.00     0.003 A 
ATOM      8  C6  PXY d   1      -2.829   2.702  -0.445  0.00  0.00     0.003 A 
ENDROOT
TORSDOF 0
ENDMDL
