MODEL 1
REMARK minimizedAffinity 4.63763189
REMARK minimizedRMSD -1
REMARK  0 active torsions:
REMARK  status: ('A' for Active; 'I' for Inactive)
ROOT
ATOM      1  C4' PXY d   1       0.005  -2.622   0.860  0.00  0.00     0.077 C 
ATOM      2  C1' PXY d   1      -1.885  -0.771   6.000  0.00  0.00     0.077 C 
ATOM      3  C1  PXY d   1      -1.395  -1.268   4.654  0.00  0.00    -0.082 A 
ATOM      4  C2  PXY d   1      -0.315  -0.730   4.111  0.00  0.00     0.003 A 
ATOM      5  C3  PXY d   1       0.123  -1.145   2.880  0.00  0.00     0.003 A 
ATOM      6  C4  PXY d   1      -0.520  -2.159   2.222  0.00  0.00    -0.082 A 
ATOM      7  C5  PXY d   1      -1.616  -2.721   2.774  0.00  0.00     0.003 A 
ATOM      8  C6  PXY d   1      -2.069  -2.256   4.005  0.00  0.00     0.003 A 
ENDROOT
TORSDOF 0
ENDMDL
