MODEL 1
REMARK minimizedAffinity 6.07785988
REMARK minimizedRMSD -1
REMARK  0 active torsions:
REMARK  status: ('A' for Active; 'I' for Inactive)
ROOT
ATOM      1  C4' PXY d   1      -1.807   5.998  -5.996  0.00  0.00     0.077 C 
ATOM      2  C1' PXY d   1      -3.462   3.204  -1.214  0.00  0.00     0.077 C 
ATOM      3  C1  PXY d   1      -3.035   3.947  -2.464  0.00  0.00    -0.082 A 
ATOM      4  C2  PXY d   1      -2.679   3.266  -3.541  0.00  0.00     0.003 A 
ATOM      5  C3  PXY d   1      -2.259   3.921  -4.670  0.00  0.00     0.003 A 
ATOM      6  C4  PXY d   1      -2.254   5.290  -4.715  0.00  0.00    -0.082 A 
ATOM      7  C5  PXY d   1      -2.626   5.992  -3.624  0.00  0.00     0.003 A 
ATOM      8  C6  PXY d   1      -3.009   5.308  -2.474  0.00  0.00     0.003 A 
ENDROOT
TORSDOF 0
ENDMDL
