MODEL 1
REMARK minimizedAffinity 6.9647336
REMARK minimizedRMSD -1
REMARK  0 active torsions:
REMARK  status: ('A' for Active; 'I' for Inactive)
ROOT
ATOM      1  C4' PXY d   1       1.466   6.000   0.742  0.00  0.00     0.077 C 
ATOM      2  C1' PXY d   1      -0.902   1.530  -2.057  0.00  0.00     0.077 C 
ATOM      3  C1  PXY d   1      -0.271   2.703  -1.332  0.00  0.00    -0.082 A 
ATOM      4  C2  PXY d   1      -0.532   2.896  -0.049  0.00  0.00     0.003 A 
ATOM      5  C3  PXY d   1       0.005   3.969   0.614  0.00  0.00     0.003 A 
ATOM      6  C4  PXY d   1       0.859   4.824  -0.029  0.00  0.00    -0.082 A 
ATOM      7  C5  PXY d   1       1.139   4.628  -1.335  0.00  0.00     0.003 A 
ATOM      8  C6  PXY d   1       0.552   3.556  -2.000  0.00  0.00     0.003 A 
ENDROOT
TORSDOF 0
ENDMDL
