MODEL 1
REMARK minimizedAffinity 5.28925419
REMARK minimizedRMSD -1
REMARK  0 active torsions:
REMARK  status: ('A' for Active; 'I' for Inactive)
ROOT
ATOM      1  C4' PXY d   1       0.768  -1.747   1.634  0.00  0.00     0.077 C 
ATOM      2  C1' PXY d   1      -3.420  -5.167  -0.411  0.00  0.00     0.077 C 
ATOM      3  C1  PXY d   1      -2.316  -4.269   0.113  0.00  0.00    -0.082 A 
ATOM      4  C2  PXY d   1      -2.002  -4.301   1.398  0.00  0.00     0.003 A 
ATOM      5  C3  PXY d   1      -1.029  -3.473   1.895  0.00  0.00     0.003 A 
ATOM      6  C4  PXY d   1      -0.333  -2.642   1.059  0.00  0.00    -0.082 A 
ATOM      7  C5  PXY d   1      -0.640  -2.611  -0.255  0.00  0.00     0.003 A 
ATOM      8  C6  PXY d   1      -1.660  -3.430  -0.733  0.00  0.00     0.003 A 
ENDROOT
TORSDOF 0
ENDMDL
