MODEL 1
REMARK minimizedAffinity 11.065917
REMARK minimizedRMSD -1
REMARK  0 active torsions:
REMARK  status: ('A' for Active; 'I' for Inactive)
ROOT
ATOM      1  C4' PXY d   1       0.377  -0.370   4.878  0.00  0.00     0.077 C 
ATOM      2  C1' PXY d   1      -2.183  -3.814   1.005  0.00  0.00     0.077 C 
ATOM      3  C1  PXY d   1      -1.500  -2.913   2.016  0.00  0.00    -0.082 A 
ATOM      4  C2  PXY d   1      -2.091  -2.662   3.173  0.00  0.00     0.003 A 
ATOM      5  C3  PXY d   1      -1.502  -1.825   4.085  0.00  0.00     0.003 A 
ATOM      6  C4  PXY d   1      -0.272  -1.281   3.832  0.00  0.00    -0.082 A 
ATOM      7  C5  PXY d   1       0.342  -1.540   2.658  0.00  0.00     0.003 A 
ATOM      8  C6  PXY d   1      -0.291  -2.360   1.728  0.00  0.00     0.003 A 
ENDROOT
TORSDOF 0
ENDMDL
