MODEL 1
REMARK minimizedAffinity 12.1521988
REMARK minimizedRMSD -1
REMARK  0 active torsions:
REMARK  status: ('A' for Active; 'I' for Inactive)
ROOT
ATOM      1  C4' PXY d   1       3.638  -0.414   1.407  0.00  0.00     0.077 C 
ATOM      2  C1' PXY d   1      -0.895  -0.278   4.990  0.00  0.00     0.077 C 
ATOM      3  C1  PXY d   1       0.289  -0.324   4.045  0.00  0.00    -0.082 A 
ATOM      4  C2  PXY d   1       1.425   0.261   4.390  0.00  0.00     0.003 A 
ATOM      5  C3  PXY d   1       2.495   0.256   3.533  0.00  0.00     0.003 A 
ATOM      6  C4  PXY d   1       2.420  -0.400   2.334  0.00  0.00    -0.082 A 
ATOM      7  C5  PXY d   1       1.268  -1.009   1.979  0.00  0.00     0.003 A 
ATOM      8  C6  PXY d   1       0.180  -0.957   2.845  0.00  0.00     0.003 A 
ENDROOT
TORSDOF 0
ENDMDL
