MODEL 1
REMARK minimizedAffinity 13.1776218
REMARK minimizedRMSD -1
REMARK  0 active torsions:
REMARK  status: ('A' for Active; 'I' for Inactive)
ROOT
ATOM      1  C4' PXY d   1      -2.360  -2.842   2.609  0.00  0.00     0.077 C 
ATOM      2  C1' PXY d   1       2.744  -0.152   2.248  0.00  0.00     0.077 C 
ATOM      3  C1  PXY d   1       1.405  -0.854   2.355  0.00  0.00    -0.082 A 
ATOM      4  C2  PXY d   1       1.109  -1.831   1.513  0.00  0.00     0.003 A 
ATOM      5  C3  PXY d   1      -0.110  -2.455   1.575  0.00  0.00     0.003 A 
ATOM      6  C4  PXY d   1      -1.015  -2.112   2.544  0.00  0.00    -0.082 A 
ATOM      7  C5  PXY d   1      -0.717  -1.123   3.413  0.00  0.00     0.003 A 
ATOM      8  C6  PXY d   1       0.510  -0.474   3.307  0.00  0.00     0.003 A 
ENDROOT
TORSDOF 0
ENDMDL
