MODEL 1
REMARK minimizedAffinity 13.0394115
REMARK minimizedRMSD -1
REMARK  0 active torsions:
REMARK  status: ('A' for Active; 'I' for Inactive)
ROOT
ATOM      1  C4' PXY d   1      -1.144   0.867  -1.360  0.00  0.00     0.077 C 
ATOM      2  C1' PXY d   1       1.515   5.757   0.199  0.00  0.00     0.077 C 
ATOM      3  C1  PXY d   1       0.817   4.479  -0.222  0.00  0.00    -0.082 A 
ATOM      4  C2  PXY d   1       0.187   3.749   0.684  0.00  0.00     0.003 A 
ATOM      5  C3  PXY d   1      -0.422   2.574   0.326  0.00  0.00     0.003 A 
ATOM      6  C4  PXY d   1      -0.433   2.169  -0.982  0.00  0.00    -0.082 A 
ATOM      7  C5  PXY d   1       0.198   2.914  -1.914  0.00  0.00     0.003 A 
ATOM      8  C6  PXY d   1       0.846   4.083  -1.523  0.00  0.00     0.003 A 
ENDROOT
TORSDOF 0
ENDMDL
