MODEL 1
REMARK minimizedAffinity 5.99695921
REMARK minimizedRMSD -1
REMARK  0 active torsions:
REMARK  status: ('A' for Active; 'I' for Inactive)
ROOT
ATOM      1  C4' PXY d   1      -1.644   2.306  -2.381  0.00  0.00     0.077 C 
ATOM      2  C1' PXY d   1       2.373   5.223   0.581  0.00  0.00     0.077 C 
ATOM      3  C1  PXY d   1       1.321   4.466  -0.206  0.00  0.00    -0.082 A 
ATOM      4  C2  PXY d   1       0.408   3.757   0.437  0.00  0.00     0.003 A 
ATOM      5  C3  PXY d   1      -0.532   3.041  -0.259  0.00  0.00     0.003 A 
ATOM      6  C4  PXY d   1      -0.569   3.094  -1.627  0.00  0.00    -0.082 A 
ATOM      7  C5  PXY d   1       0.353   3.824  -2.290  0.00  0.00     0.003 A 
ATOM      8  C6  PXY d   1       1.323   4.511  -1.566  0.00  0.00     0.003 A 
ENDROOT
TORSDOF 0
ENDMDL
