MODEL 1
REMARK minimizedAffinity 19.4972305
REMARK minimizedRMSD -1
REMARK  0 active torsions:
REMARK  status: ('A' for Active; 'I' for Inactive)
ROOT
ATOM      1  C4' PXY d   1       4.422   0.018  -3.003  0.00  0.00     0.077 C 
ATOM      2  C1' PXY d   1       3.991   0.703   2.721  0.00  0.00     0.077 C 
ATOM      3  C1  PXY d   1       4.098   0.535   1.218  0.00  0.00    -0.082 A 
ATOM      4  C2  PXY d   1       4.237  -0.676   0.703  0.00  0.00     0.003 A 
ATOM      5  C3  PXY d   1       4.368  -0.844  -0.651  0.00  0.00     0.003 A 
ATOM      6  C4  PXY d   1       4.300   0.235  -1.492  0.00  0.00    -0.082 A 
ATOM      7  C5  PXY d   1       4.147   1.473  -0.976  0.00  0.00     0.003 A 
ATOM      8  C6  PXY d   1       4.058   1.625   0.405  0.00  0.00     0.003 A 
ENDROOT
TORSDOF 0
ENDMDL
