MODEL 1
REMARK minimizedAffinity -3.31930637
REMARK minimizedRMSD -1
REMARK  1 active torsions:
REMARK  status: ('A' for Active; 'I' for Inactive)
REMARK    1  A    between atoms: C1_2  and  C2_3 
ROOT
ATOM      1  C2  UNL d   1      -4.495  -2.272  -4.234  0.00  0.00    -0.081 A 
ATOM      2  C3  UNL d   1      -3.793  -2.025  -5.421  0.00  0.00     0.006 A 
ATOM      3  C4  UNL d   1      -2.778  -2.890  -5.837  0.00  0.00     0.002 A 
ATOM      4  C5  UNL d   1      -2.454  -4.020  -5.079  0.00  0.00    -0.080 A 
ATOM      5  C6  UNL d   1      -1.387  -4.973  -5.530  0.00  0.00     0.076 C 
ATOM      6  C7  UNL d   1      -3.143  -4.258  -3.885  0.00  0.00     0.002 A 
ATOM      7  C8  UNL d   1      -4.157  -3.393  -3.468  0.00  0.00     0.006 A 
ENDROOT
BRANCH   1   8
ATOM      8  C1  UNL d   1      -5.633  -1.377  -3.816  0.00  0.00     0.054 C 
ATOM      9  C   UNL d   1      -5.996  -0.393  -4.919  0.00  0.00     0.018 C 
ENDBRANCH   1   8
TORSDOF 1
ENDMDL
