MODEL 1
REMARK minimizedAffinity -3.54016137
REMARK minimizedRMSD -1
REMARK  1 active torsions:
REMARK  status: ('A' for Active; 'I' for Inactive)
REMARK    1  A    between atoms: C1_2  and  C2_3 
ROOT
ATOM      1  C2  UNL d   1      -3.373  -5.061  -3.919  0.00  0.00    -0.081 A 
ATOM      2  C3  UNL d   1      -2.831  -3.950  -4.577  0.00  0.00     0.006 A 
ATOM      3  C4  UNL d   1      -3.660  -3.059  -5.262  0.00  0.00     0.002 A 
ATOM      4  C5  UNL d   1      -5.044  -3.258  -5.293  0.00  0.00    -0.080 A 
ATOM      5  C6  UNL d   1      -5.949  -2.291  -5.999  0.00  0.00     0.076 C 
ATOM      6  C7  UNL d   1      -5.584  -4.377  -4.650  0.00  0.00     0.002 A 
ATOM      7  C8  UNL d   1      -4.756  -5.269  -3.966  0.00  0.00     0.006 A 
ENDROOT
BRANCH   1   8
ATOM      8  C1  UNL d   1      -2.489  -5.988  -3.125  0.00  0.00     0.054 C 
ATOM      9  C   UNL d   1      -1.200  -5.298  -2.702  0.00  0.00     0.018 C 
ENDBRANCH   1   8
TORSDOF 1
ENDMDL
