MODEL 1
REMARK minimizedAffinity -2.6275456
REMARK minimizedRMSD -1
REMARK  1 active torsions:
REMARK  status: ('A' for Active; 'I' for Inactive)
REMARK    1  A    between atoms: C1_2  and  C2_3 
ROOT
ATOM      1  C2  UNL d   1      -4.811  -3.362  -4.802  0.00  0.00    -0.081 A 
ATOM      2  C3  UNL d   1      -3.789  -2.872  -5.624  0.00  0.00     0.006 A 
ATOM      3  C4  UNL d   1      -2.726  -3.697  -5.999  0.00  0.00     0.002 A 
ATOM      4  C5  UNL d   1      -2.670  -5.025  -5.565  0.00  0.00    -0.080 A 
ATOM      5  C6  UNL d   1      -1.550  -5.930  -5.985  0.00  0.00     0.076 C 
ATOM      6  C7  UNL d   1      -3.682  -5.510  -4.729  0.00  0.00     0.002 A 
ATOM      7  C8  UNL d   1      -4.745  -4.686  -4.353  0.00  0.00     0.006 A 
ENDROOT
BRANCH   1   8
ATOM      8  C1  UNL d   1      -5.993  -2.495  -4.449  0.00  0.00     0.054 C 
ATOM      9  C   UNL d   1      -5.982  -1.196  -5.241  0.00  0.00     0.018 C 
ENDBRANCH   1   8
TORSDOF 1
ENDMDL
