MODEL 1
REMARK minimizedAffinity -1.44171429
REMARK minimizedRMSD -1
REMARK  1 active torsions:
REMARK  status: ('A' for Active; 'I' for Inactive)
REMARK    1  A    between atoms: C1_2  and  C2_3 
ROOT
ATOM      1  C2  UNL d   1      -4.805  -3.940  -4.410  0.00  0.00    -0.081 A 
ATOM      2  C3  UNL d   1      -3.547  -3.764  -3.821  0.00  0.00     0.006 A 
ATOM      3  C4  UNL d   1      -2.430  -4.438  -4.320  0.00  0.00     0.002 A 
ATOM      4  C5  UNL d   1      -2.551  -5.292  -5.422  0.00  0.00    -0.080 A 
ATOM      5  C6  UNL d   1      -1.354  -5.998  -5.987  0.00  0.00     0.076 C 
ATOM      6  C7  UNL d   1      -3.810  -5.482  -6.000  0.00  0.00     0.002 A 
ATOM      7  C8  UNL d   1      -4.928  -4.809  -5.500  0.00  0.00     0.006 A 
ENDROOT
BRANCH   1   8
ATOM      8  C1  UNL d   1      -5.999  -3.165  -3.914  0.00  0.00     0.054 C 
ATOM      9  C   UNL d   1      -5.812  -1.669  -4.121  0.00  0.00     0.018 C 
ENDBRANCH   1   8
TORSDOF 1
ENDMDL
