MODEL 1
REMARK minimizedAffinity -0.417143345
REMARK minimizedRMSD -1
REMARK  1 active torsions:
REMARK  status: ('A' for Active; 'I' for Inactive)
REMARK    1  A    between atoms: C1_2  and  C2_3 
ROOT
ATOM      1  C2  UNL d   1      -5.251  -2.748  -4.114  0.00  0.00    -0.081 A 
ATOM      2  C3  UNL d   1      -4.412  -3.508  -3.291  0.00  0.00     0.006 A 
ATOM      3  C4  UNL d   1      -3.673  -4.569  -3.819  0.00  0.00     0.002 A 
ATOM      4  C5  UNL d   1      -3.755  -4.883  -5.180  0.00  0.00    -0.080 A 
ATOM      5  C6  UNL d   1      -2.945  -6.000  -5.767  0.00  0.00     0.076 C 
ATOM      6  C7  UNL d   1      -4.607  -4.134  -6.000  0.00  0.00     0.002 A 
ATOM      7  C8  UNL d   1      -5.346  -3.073  -5.471  0.00  0.00     0.006 A 
ENDROOT
BRANCH   1   8
ATOM      8  C1  UNL d   1      -5.999  -1.562  -3.560  0.00  0.00     0.054 C 
ATOM      9  C   UNL d   1      -5.983  -0.393  -4.534  0.00  0.00     0.018 C 
ENDBRANCH   1   8
TORSDOF 1
ENDMDL
