MODEL 1
REMARK minimizedAffinity 3.37867665
REMARK minimizedRMSD -1
REMARK  1 active torsions:
REMARK  status: ('A' for Active; 'I' for Inactive)
REMARK    1  A    between atoms: C1_2  and  C2_3 
ROOT
ATOM      1  C2  UNL d   1      -4.379  -4.739  -5.316  0.00  0.00    -0.081 A 
ATOM      2  C3  UNL d   1      -5.464  -4.130  -5.959  0.00  0.00     0.006 A 
ATOM      3  C4  UNL d   1      -5.999  -2.937  -5.467  0.00  0.00     0.002 A 
ATOM      4  C5  UNL d   1      -5.454  -2.330  -4.330  0.00  0.00    -0.080 A 
ATOM      5  C6  UNL d   1      -6.000  -1.034  -3.809  0.00  0.00     0.076 C 
ATOM      6  C7  UNL d   1      -4.381  -2.948  -3.678  0.00  0.00     0.002 A 
ATOM      7  C8  UNL d   1      -3.846  -4.141  -4.169  0.00  0.00     0.006 A 
ENDROOT
BRANCH   1   8
ATOM      8  C1  UNL d   1      -3.758  -5.991  -5.882  0.00  0.00     0.054 C 
ATOM      9  C   UNL d   1      -2.238  -5.929  -5.825  0.00  0.00     0.018 C 
ENDBRANCH   1   8
TORSDOF 1
ENDMDL
