MODEL 1
REMARK minimizedAffinity 1.52085173
REMARK minimizedRMSD -1
REMARK  1 active torsions:
REMARK  status: ('A' for Active; 'I' for Inactive)
REMARK    1  A    between atoms: C1_2  and  C2_3 
ROOT
ATOM      1  C2  UNL d   1      -3.458  -4.796  -5.117  0.00  0.00    -0.081 A 
ATOM      2  C3  UNL d   1      -4.421  -4.286  -5.996  0.00  0.00     0.006 A 
ATOM      3  C4  UNL d   1      -5.243  -3.225  -5.607  0.00  0.00     0.002 A 
ATOM      4  C5  UNL d   1      -5.111  -2.653  -4.338  0.00  0.00    -0.080 A 
ATOM      5  C6  UNL d   1      -5.967  -1.494  -3.919  0.00  0.00     0.076 C 
ATOM      6  C7  UNL d   1      -4.161  -3.174  -3.453  0.00  0.00     0.002 A 
ATOM      7  C8  UNL d   1      -3.339  -4.235  -3.841  0.00  0.00     0.006 A 
ENDROOT
BRANCH   1   8
ATOM      8  C1  UNL d   1      -2.526  -5.897  -5.556  0.00  0.00     0.054 C 
ATOM      9  C   UNL d   1      -1.113  -5.663  -5.042  0.00  0.00     0.018 C 
ENDBRANCH   1   8
TORSDOF 1
ENDMDL
