MODEL 1
REMARK minimizedAffinity -3.36378098
REMARK minimizedRMSD -1
REMARK  1 active torsions:
REMARK  status: ('A' for Active; 'I' for Inactive)
REMARK    1  A    between atoms: C1_2  and  C2_3 
ROOT
ATOM      1  C2  UNL d   1      -4.832  -4.020  -4.185  0.00  0.00    -0.081 A 
ATOM      2  C3  UNL d   1      -4.914  -5.355  -4.598  0.00  0.00     0.006 A 
ATOM      3  C4  UNL d   1      -3.817  -5.981  -5.195  0.00  0.00     0.002 A 
ATOM      4  C5  UNL d   1      -2.618  -5.285  -5.381  0.00  0.00    -0.080 A 
ATOM      5  C6  UNL d   1      -1.423  -5.953  -5.992  0.00  0.00     0.076 C 
ATOM      6  C7  UNL d   1      -2.541  -3.945  -4.983  0.00  0.00     0.002 A 
ATOM      7  C8  UNL d   1      -3.638  -3.319  -4.387  0.00  0.00     0.006 A 
ENDROOT
BRANCH   1   8
ATOM      8  C1  UNL d   1      -5.992  -3.363  -3.482  0.00  0.00     0.054 C 
ATOM      9  C   UNL d   1      -5.980  -1.854  -3.686  0.00  0.00     0.018 C 
ENDBRANCH   1   8
TORSDOF 1
ENDMDL
