MODEL 1
REMARK minimizedAffinity -3.73188758
REMARK minimizedRMSD -1
REMARK  1 active torsions:
REMARK  status: ('A' for Active; 'I' for Inactive)
REMARK    1  A    between atoms: C1_2  and  C2_3 
ROOT
ATOM      1  C2  UNL d   1      -4.349  -4.400  -4.699  0.00  0.00    -0.081 A 
ATOM      2  C3  UNL d   1      -3.174  -3.900  -4.125  0.00  0.00     0.006 A 
ATOM      3  C4  UNL d   1      -1.930  -4.424  -4.487  0.00  0.00     0.002 A 
ATOM      4  C5  UNL d   1      -1.840  -5.449  -5.434  0.00  0.00    -0.080 A 
ATOM      5  C6  UNL d   1      -0.510  -5.999  -5.854  0.00  0.00     0.076 C 
ATOM      6  C7  UNL d   1      -3.015  -5.961  -5.995  0.00  0.00     0.002 A 
ATOM      7  C8  UNL d   1      -4.259  -5.438  -5.633  0.00  0.00     0.006 A 
ENDROOT
BRANCH   1   8
ATOM      8  C1  UNL d   1      -5.686  -3.794  -4.359  0.00  0.00     0.054 C 
ATOM      9  C   UNL d   1      -5.655  -2.278  -4.488  0.00  0.00     0.018 C 
ENDBRANCH   1   8
TORSDOF 1
ENDMDL
