MODEL 1
REMARK minimizedAffinity -4.14229727
REMARK minimizedRMSD -1
REMARK  1 active torsions:
REMARK  status: ('A' for Active; 'I' for Inactive)
REMARK    1  A    between atoms: C1_2  and  C2_3 
ROOT
ATOM      1  C2  UNL d   1      -4.947  -2.922  -4.545  0.00  0.00    -0.081 A 
ATOM      2  C3  UNL d   1      -4.721  -4.022  -3.709  0.00  0.00     0.006 A 
ATOM      3  C4  UNL d   1      -3.724  -4.951  -4.014  0.00  0.00     0.002 A 
ATOM      4  C5  UNL d   1      -2.930  -4.791  -5.155  0.00  0.00    -0.080 A 
ATOM      5  C6  UNL d   1      -1.836  -5.765  -5.478  0.00  0.00     0.076 C 
ATOM      6  C7  UNL d   1      -3.167  -3.701  -6.000  0.00  0.00     0.002 A 
ATOM      7  C8  UNL d   1      -4.164  -2.773  -5.695  0.00  0.00     0.006 A 
ENDROOT
BRANCH   1   8
ATOM      8  C1  UNL d   1      -5.978  -1.884  -4.184  0.00  0.00     0.054 C 
ATOM      9  C   UNL d   1      -5.999  -0.749  -5.198  0.00  0.00     0.018 C 
ENDBRANCH   1   8
TORSDOF 1
ENDMDL
