MODEL 1
REMARK minimizedAffinity -2.93732929
REMARK minimizedRMSD -1
REMARK  1 active torsions:
REMARK  status: ('A' for Active; 'I' for Inactive)
REMARK    1  A    between atoms: C1_2  and  C2_3 
ROOT
ATOM      1  C2  UNL d   1      -3.359  -4.692  -4.884  0.00  0.00    -0.081 A 
ATOM      2  C3  UNL d   1      -4.143  -4.400  -3.761  0.00  0.00     0.006 A 
ATOM      3  C4  UNL d   1      -4.989  -3.288  -3.758  0.00  0.00     0.002 A 
ATOM      4  C5  UNL d   1      -5.072  -2.456  -4.880  0.00  0.00    -0.080 A 
ATOM      5  C6  UNL d   1      -5.999  -1.278  -4.901  0.00  0.00     0.076 C 
ATOM      6  C7  UNL d   1      -4.276  -2.738  -5.995  0.00  0.00     0.002 A 
ATOM      7  C8  UNL d   1      -3.429  -3.849  -5.999  0.00  0.00     0.006 A 
ENDROOT
BRANCH   1   8
ATOM      8  C1  UNL d   1      -2.494  -5.926  -4.915  0.00  0.00     0.054 C 
ATOM      9  C   UNL d   1      -1.423  -5.825  -5.992  0.00  0.00     0.018 C 
ENDBRANCH   1   8
TORSDOF 1
ENDMDL
