MODEL 1
REMARK minimizedAffinity -2.44249892
REMARK minimizedRMSD -1
REMARK  1 active torsions:
REMARK  status: ('A' for Active; 'I' for Inactive)
REMARK    1  A    between atoms: C1_2  and  C2_3 
ROOT
ATOM      1  C2  UNL d   1      -4.514  -3.900  -5.097  0.00  0.00    -0.081 A 
ATOM      2  C3  UNL d   1      -4.338  -5.169  -4.532  0.00  0.00     0.006 A 
ATOM      3  C4  UNL d   1      -3.133  -5.856  -4.697  0.00  0.00     0.002 A 
ATOM      4  C5  UNL d   1      -2.082  -5.283  -5.421  0.00  0.00    -0.080 A 
ATOM      5  C6  UNL d   1      -0.773  -5.998  -5.580  0.00  0.00     0.076 C 
ATOM      6  C7  UNL d   1      -2.264  -4.023  -6.000  0.00  0.00     0.002 A 
ATOM      7  C8  UNL d   1      -3.468  -3.335  -5.836  0.00  0.00     0.006 A 
ENDROOT
BRANCH   1   8
ATOM      8  C1  UNL d   1      -5.788  -3.128  -4.866  0.00  0.00     0.054 C 
ATOM      9  C   UNL d   1      -5.911  -2.683  -3.416  0.00  0.00     0.018 C 
ENDBRANCH   1   8
TORSDOF 1
ENDMDL
