MODEL 1
REMARK minimizedAffinity -2.97537708
REMARK minimizedRMSD -1
REMARK  3 active torsions:
REMARK  status: ('A' for Active; 'I' for Inactive)
REMARK    1  A    between atoms: C3'_2  and  C2'_3 
REMARK    2  A    between atoms: C2'_3  and  C1'_4 
REMARK    3  A    between atoms: C1'_4  and  C1_5 
ROOT
ATOM      1  C1  N4B d   1      -0.660  -0.238   0.065  0.00  0.00    -0.075 A 
ATOM      2  C2  N4B d   1      -1.681   0.352   0.842  0.00  0.00     0.002 A 
ATOM      3  C3  N4B d   1      -2.999   0.118   0.533  0.00  0.00     0.002 A 
ATOM      4  C4  N4B d   1      -3.318  -0.682  -0.554  0.00  0.00    -0.004 A 
ATOM      5  C5  N4B d   1      -2.325  -1.268  -1.283  0.00  0.00     0.002 A 
ATOM      6  C6  N4B d   1      -0.996  -1.046  -0.982  0.00  0.00     0.002 A 
ENDROOT
BRANCH   1   7
ATOM      7  C1' N4B d   1       0.795   0.057   0.311  0.00  0.00     0.057 C 
BRANCH   7   8
ATOM      8  C2' N4B d   1       1.093   1.493  -0.109  0.00  0.00     0.009 C 
BRANCH   8   9
ATOM      9  C3' N4B d   1       2.363   2.022   0.535  0.00  0.00     0.004 C 
ATOM     10  C4' N4B d   1       2.238   3.449   0.978  0.00  0.00     0.003 C 
ENDBRANCH   8   9
ENDBRANCH   7   8
ENDBRANCH   1   7
TORSDOF 3
ENDMDL
