MODEL 1
REMARK minimizedAffinity -0.869127929
REMARK minimizedRMSD -1
REMARK  3 active torsions:
REMARK  status: ('A' for Active; 'I' for Inactive)
REMARK    1  A    between atoms: C3'_2  and  C2'_3 
REMARK    2  A    between atoms: C2'_3  and  C1'_4 
REMARK    3  A    between atoms: C1'_4  and  C1_5 
ROOT
ATOM      1  C1  N4B d   1       0.123   0.621  -0.014  0.00  0.00    -0.075 A 
ATOM      2  C2  N4B d   1      -1.177   1.173  -0.040  0.00  0.00     0.002 A 
ATOM      3  C3  N4B d   1      -2.068   0.784  -1.010  0.00  0.00     0.002 A 
ATOM      4  C4  N4B d   1      -1.678  -0.137  -1.971  0.00  0.00    -0.004 A 
ATOM      5  C5  N4B d   1      -0.429  -0.684  -1.923  0.00  0.00     0.002 A 
ATOM      6  C6  N4B d   1       0.476  -0.305  -0.952  0.00  0.00     0.002 A 
ENDROOT
BRANCH   1   7
ATOM      7  C1' N4B d   1       1.160   1.078   0.976  0.00  0.00     0.057 C 
BRANCH   7   8
ATOM      8  C2' N4B d   1       2.125   2.036   0.283  0.00  0.00     0.009 C 
BRANCH   8   9
ATOM      9  C3' N4B d   1       2.338   3.308   1.086  0.00  0.00     0.004 C 
ATOM     10  C4' N4B d   1       1.764   3.224   2.469  0.00  0.00     0.003 C 
ENDBRANCH   8   9
ENDBRANCH   7   8
ENDBRANCH   1   7
TORSDOF 3
ENDMDL
