MODEL 1
REMARK minimizedAffinity -3.51925087
REMARK minimizedRMSD -1
REMARK  3 active torsions:
REMARK  status: ('A' for Active; 'I' for Inactive)
REMARK    1  A    between atoms: C3'_2  and  C2'_3 
REMARK    2  A    between atoms: C2'_3  and  C1'_4 
REMARK    3  A    between atoms: C1'_4  and  C1_5 
ROOT
ATOM      1  C1  N4B d   1      -0.578  -0.151   0.039  0.00  0.00    -0.075 A 
ATOM      2  C2  N4B d   1      -0.944  -0.507  -1.278  0.00  0.00     0.002 A 
ATOM      3  C3  N4B d   1      -2.196  -1.011  -1.529  0.00  0.00     0.002 A 
ATOM      4  C4  N4B d   1      -3.089  -1.185  -0.482  0.00  0.00    -0.004 A 
ATOM      5  C5  N4B d   1      -2.736  -0.816   0.783  0.00  0.00     0.002 A 
ATOM      6  C6  N4B d   1      -1.482  -0.304   1.050  0.00  0.00     0.002 A 
ENDROOT
BRANCH   1   7
ATOM      7  C1' N4B d   1       0.809   0.323   0.377  0.00  0.00     0.057 C 
BRANCH   7   8
ATOM      8  C2' N4B d   1       0.899   1.826   0.128  0.00  0.00     0.009 C 
BRANCH   8   9
ATOM      9  C3' N4B d   1       1.786   2.519   1.149  0.00  0.00     0.004 C 
ATOM     10  C4' N4B d   1       2.824   3.396   0.515  0.00  0.00     0.003 C 
ENDBRANCH   8   9
ENDBRANCH   7   8
ENDBRANCH   1   7
TORSDOF 3
ENDMDL
