MODEL 1
REMARK minimizedAffinity -4.98705912
REMARK minimizedRMSD -1
REMARK  3 active torsions:
REMARK  status: ('A' for Active; 'I' for Inactive)
REMARK    1  A    between atoms: C3'_2  and  C2'_3 
REMARK    2  A    between atoms: C2'_3  and  C1'_4 
REMARK    3  A    between atoms: C1'_4  and  C1_5 
ROOT
ATOM      1  C1  N4B d   1      -0.143   0.051  -0.162  0.00  0.00    -0.075 A 
ATOM      2  C2  N4B d   1      -0.781   0.106  -1.421  0.00  0.00     0.002 A 
ATOM      3  C3  N4B d   1      -2.051  -0.395  -1.570  0.00  0.00     0.002 A 
ATOM      4  C4  N4B d   1      -2.693  -0.970  -0.483  0.00  0.00    -0.004 A 
ATOM      5  C5  N4B d   1      -2.080  -0.996   0.735  0.00  0.00     0.002 A 
ATOM      6  C6  N4B d   1      -0.805  -0.493   0.900  0.00  0.00     0.002 A 
ENDROOT
BRANCH   1   7
ATOM      7  C1' N4B d   1       1.277   0.508   0.029  0.00  0.00     0.057 C 
BRANCH   7   8
ATOM      8  C2' N4B d   1       1.276   1.889   0.678  0.00  0.00     0.009 C 
BRANCH   8   9
ATOM      9  C3' N4B d   1       2.671   2.488   0.743  0.00  0.00     0.004 C 
ATOM     10  C4' N4B d   1       2.835   3.456   1.877  0.00  0.00     0.003 C 
ENDBRANCH   8   9
ENDBRANCH   7   8
ENDBRANCH   1   7
TORSDOF 3
ENDMDL
