MODEL 1
REMARK minimizedAffinity 0.232188627
REMARK minimizedRMSD -1
REMARK  3 active torsions:
REMARK  status: ('A' for Active; 'I' for Inactive)
REMARK    1  A    between atoms: C3'_2  and  C2'_3 
REMARK    2  A    between atoms: C2'_3  and  C1'_4 
REMARK    3  A    between atoms: C1'_4  and  C1_5 
ROOT
ATOM      1  C1  N4B d   1      -0.027   0.147  -0.053  0.00  0.00    -0.075 A 
ATOM      2  C2  N4B d   1      -1.434   0.044   0.008  0.00  0.00     0.002 A 
ATOM      3  C3  N4B d   1      -2.023  -0.753   0.960  0.00  0.00     0.002 A 
ATOM      4  C4  N4B d   1      -1.229  -1.467   1.844  0.00  0.00    -0.004 A 
ATOM      5  C5  N4B d   1       0.129  -1.342   1.794  0.00  0.00     0.002 A 
ATOM      6  C6  N4B d   1       0.734  -0.542   0.846  0.00  0.00     0.002 A 
ENDROOT
BRANCH   1   7
ATOM      7  C1' N4B d   1       0.665   0.937  -1.130  0.00  0.00     0.057 C 
BRANCH   7   8
ATOM      8  C2' N4B d   1       0.265   0.382  -2.494  0.00  0.00     0.009 C 
BRANCH   8   9
ATOM      9  C3' N4B d   1      -0.326   1.455  -3.393  0.00  0.00     0.004 C 
ATOM     10  C4' N4B d   1       0.184   1.377  -4.801  0.00  0.00     0.003 C 
ENDBRANCH   8   9
ENDBRANCH   7   8
ENDBRANCH   1   7
TORSDOF 3
ENDMDL
