MODEL 1
REMARK minimizedAffinity -4.96496058
REMARK minimizedRMSD -1
REMARK  3 active torsions:
REMARK  status: ('A' for Active; 'I' for Inactive)
REMARK    1  A    between atoms: C3'_2  and  C2'_3 
REMARK    2  A    between atoms: C2'_3  and  C1'_4 
REMARK    3  A    between atoms: C1'_4  and  C1_5 
ROOT
ATOM      1  C1  N4B d   1      -1.483  -0.486   0.458  0.00  0.00    -0.075 A 
ATOM      2  C2  N4B d   1      -0.518   0.321  -0.184  0.00  0.00     0.002 A 
ATOM      3  C3  N4B d   1       0.798   0.257   0.204  0.00  0.00     0.002 A 
ATOM      4  C4  N4B d   1       1.168  -0.589   1.239  0.00  0.00    -0.004 A 
ATOM      5  C5  N4B d   1       0.234  -1.383   1.836  0.00  0.00     0.002 A 
ATOM      6  C6  N4B d   1      -1.092  -1.332   1.454  0.00  0.00     0.002 A 
ENDROOT
BRANCH   1   7
ATOM      7  C1' N4B d   1      -2.947  -0.388   0.127  0.00  0.00     0.057 C 
BRANCH   7   8
ATOM      8  C2' N4B d   1      -3.348  -1.584  -0.731  0.00  0.00     0.009 C 
BRANCH   8   9
ATOM      9  C3' N4B d   1      -2.612  -1.602  -2.060  0.00  0.00     0.004 C 
ATOM     10  C4' N4B d   1      -2.434  -2.987  -2.607  0.00  0.00     0.003 C 
ENDBRANCH   8   9
ENDBRANCH   7   8
ENDBRANCH   1   7
TORSDOF 3
ENDMDL
