MODEL 1
REMARK minimizedAffinity -3.08363867
REMARK minimizedRMSD -1
REMARK  1 active torsions:
REMARK  status: ('A' for Active; 'I' for Inactive)
REMARK    1  A    between atoms: C3_4  and  O_7 
ROOT
ATOM      1  C   UNL d   1      -4.188   1.179   0.990  0.00  0.00    -0.033 A 
ATOM      2  C1  UNL d   1      -3.822   1.022  -0.349  0.00  0.00     0.039 A 
ATOM      3  C2  UNL d   1      -2.514   0.665  -0.680  0.00  0.00    -0.080 A 
ATOM      4  C3  UNL d   1      -1.582   0.468   0.335  0.00  0.00     0.150 A 
ATOM      5  C4  UNL d   1      -1.940   0.619   1.671  0.00  0.00    -0.007 A 
ATOM      6  C5  UNL d   1      -3.247   0.976   2.000  0.00  0.00     0.039 A 
ENDROOT
BRANCH   4   7
ATOM      7  O   UNL d   1      -0.291   0.124   0.061  0.00  0.00    -0.526 OA
ATOM      8  H5  UNL d   1      -0.182   0.084  -0.904  0.00  0.00     0.418 HD
ENDBRANCH   4   7
TORSDOF 1
ENDMDL
