MODEL 1
REMARK minimizedAffinity -2.9969306
REMARK minimizedRMSD -1
REMARK  1 active torsions:
REMARK  status: ('A' for Active; 'I' for Inactive)
REMARK    1  A    between atoms: C3_4  and  O_7 
ROOT
ATOM      1  C   UNL d   1      -1.145   0.398  -0.212  0.00  0.00    -0.033 A 
ATOM      2  C1  UNL d   1      -0.105   1.047   0.456  0.00  0.00     0.039 A 
ATOM      3  C2  UNL d   1       1.168   0.472   0.494  0.00  0.00    -0.080 A 
ATOM      4  C3  UNL d   1       1.386  -0.748  -0.139  0.00  0.00     0.150 A 
ATOM      5  C4  UNL d   1       0.355  -1.398  -0.809  0.00  0.00    -0.007 A 
ATOM      6  C5  UNL d   1      -0.915  -0.823  -0.846  0.00  0.00     0.039 A 
ENDROOT
BRANCH   4   7
ATOM      7  O   UNL d   1       2.609  -1.350  -0.124  0.00  0.00    -0.526 OA
ATOM      8  H5  UNL d   1       3.216  -0.801   0.400  0.00  0.00     0.418 HD
ENDBRANCH   4   7
TORSDOF 1
ENDMDL
