MODEL 1
REMARK minimizedAffinity -4.1356945
REMARK minimizedRMSD -1
REMARK  1 active torsions:
REMARK  status: ('A' for Active; 'I' for Inactive)
REMARK    1  A    between atoms: C3_4  and  O_7 
ROOT
ATOM      1  C   UNL d   1       0.108   0.273  -0.489  0.00  0.00    -0.033 A 
ATOM      2  C1  UNL d   1       0.847   0.858   0.541  0.00  0.00     0.039 A 
ATOM      3  C2  UNL d   1       1.790   0.104   1.242  0.00  0.00    -0.080 A 
ATOM      4  C3  UNL d   1       1.985  -1.232   0.903  0.00  0.00     0.150 A 
ATOM      5  C4  UNL d   1       1.256  -1.820  -0.125  0.00  0.00    -0.007 A 
ATOM      6  C5  UNL d   1       0.314  -1.066  -0.823  0.00  0.00     0.039 A 
ENDROOT
BRANCH   4   7
ATOM      7  O   UNL d   1       2.891  -2.009   1.561  0.00  0.00    -0.526 OA
ATOM      8  H5  UNL d   1       3.299  -1.477   2.265  0.00  0.00     0.418 HD
ENDBRANCH   4   7
TORSDOF 1
ENDMDL
