MODEL 1
REMARK minimizedAffinity -4.88852549
REMARK minimizedRMSD -1
REMARK  1 active torsions:
REMARK  status: ('A' for Active; 'I' for Inactive)
REMARK    1  A    between atoms: C3_4  and  O_7 
ROOT
ATOM      1  C   UNL d   1       0.514  -1.803  -0.363  0.00  0.00    -0.033 A 
ATOM      2  C1  UNL d   1       1.872  -1.813  -0.037  0.00  0.00     0.039 A 
ATOM      3  C2  UNL d   1       2.553  -0.611   0.162  0.00  0.00    -0.080 A 
ATOM      4  C3  UNL d   1       1.866   0.593   0.034  0.00  0.00     0.150 A 
ATOM      5  C4  UNL d   1       0.512   0.611  -0.287  0.00  0.00    -0.007 A 
ATOM      6  C5  UNL d   1      -0.166  -0.591  -0.486  0.00  0.00     0.039 A 
ENDROOT
BRANCH   4   7
ATOM      7  O   UNL d   1       2.489   1.792   0.214  0.00  0.00    -0.526 OA
ATOM      8  H5  UNL d   1       3.428   1.626   0.402  0.00  0.00     0.418 HD
ENDBRANCH   4   7
TORSDOF 1
ENDMDL
