MODEL 1
REMARK minimizedAffinity -3.65049863
REMARK minimizedRMSD -1
REMARK  1 active torsions:
REMARK  status: ('A' for Active; 'I' for Inactive)
REMARK    1  A    between atoms: C3_4  and  O_7 
ROOT
ATOM      1  C   UNL d   1       1.796  -1.760  -0.159  0.00  0.00    -0.033 A 
ATOM      2  C1  UNL d   1       0.623  -1.002  -0.148  0.00  0.00     0.039 A 
ATOM      3  C2  UNL d   1       0.691   0.391  -0.073  0.00  0.00    -0.080 A 
ATOM      4  C3  UNL d   1       1.935   1.012  -0.011  0.00  0.00     0.150 A 
ATOM      5  C4  UNL d   1       3.107   0.263  -0.025  0.00  0.00    -0.007 A 
ATOM      6  C5  UNL d   1       3.038  -1.127  -0.099  0.00  0.00     0.039 A 
ENDROOT
BRANCH   4   7
ATOM      7  O   UNL d   1       2.051   2.368   0.068  0.00  0.00    -0.526 OA
ATOM      8  H5  UNL d   1       1.159   2.752   0.098  0.00  0.00     0.418 HD
ENDBRANCH   4   7
TORSDOF 1
ENDMDL
