MODEL 1
REMARK minimizedAffinity -4.94085026
REMARK minimizedRMSD -1
REMARK  1 active torsions:
REMARK  status: ('A' for Active; 'I' for Inactive)
REMARK    1  A    between atoms: C3_4  and  O_7 
ROOT
ATOM      1  C   UNL d   1      -0.800  -0.202  -0.402  0.00  0.00    -0.033 A 
ATOM      2  C1  UNL d   1      -0.872  -0.551   0.948  0.00  0.00     0.039 A 
ATOM      3  C2  UNL d   1       0.254  -1.056   1.602  0.00  0.00    -0.080 A 
ATOM      4  C3  UNL d   1       1.444  -1.205   0.895  0.00  0.00     0.150 A 
ATOM      5  C4  UNL d   1       1.524  -0.856  -0.449  0.00  0.00    -0.007 A 
ATOM      6  C5  UNL d   1       0.399  -0.353  -1.100  0.00  0.00     0.039 A 
ENDROOT
BRANCH   4   7
ATOM      7  O   UNL d   1       2.568  -1.698   1.489  0.00  0.00    -0.526 OA
ATOM      8  H5  UNL d   1       2.356  -1.923   2.410  0.00  0.00     0.418 HD
ENDBRANCH   4   7
TORSDOF 1
ENDMDL
