MODEL 1
REMARK minimizedAffinity -4.46538019
REMARK minimizedRMSD -1
REMARK  1 active torsions:
REMARK  status: ('A' for Active; 'I' for Inactive)
REMARK    1  A    between atoms: C3_4  and  O_7 
ROOT
ATOM      1  C   UNL d   1      -0.841   0.888  -0.332  0.00  0.00    -0.033 A 
ATOM      2  C1  UNL d   1      -1.014  -0.442  -0.719  0.00  0.00     0.039 A 
ATOM      3  C2  UNL d   1       0.072  -1.319  -0.717  0.00  0.00    -0.080 A 
ATOM      4  C3  UNL d   1       1.325  -0.855  -0.323  0.00  0.00     0.150 A 
ATOM      5  C4  UNL d   1       1.504   0.468   0.068  0.00  0.00    -0.007 A 
ATOM      6  C5  UNL d   1       0.418   1.343   0.063  0.00  0.00     0.039 A 
ENDROOT
BRANCH   4   7
ATOM      7  O   UNL d   1       2.415  -1.672  -0.309  0.00  0.00    -0.526 OA
ATOM      8  H5  UNL d   1       2.147  -2.549  -0.631  0.00  0.00     0.418 HD
ENDBRANCH   4   7
TORSDOF 1
ENDMDL
