MODEL 1
REMARK minimizedAffinity -5.50809145
REMARK minimizedRMSD -1
REMARK  1 active torsions:
REMARK  status: ('A' for Active; 'I' for Inactive)
REMARK    1  A    between atoms: C3_4  and  O_7 
ROOT
ATOM      1  C   UNL d   1      -0.436  -0.114  -0.215  0.00  0.00    -0.033 A 
ATOM      2  C1  UNL d   1       0.399   0.596   0.650  0.00  0.00     0.039 A 
ATOM      3  C2  UNL d   1       1.615   0.044   1.059  0.00  0.00    -0.080 A 
ATOM      4  C3  UNL d   1       1.984  -1.216   0.596  0.00  0.00     0.150 A 
ATOM      5  C4  UNL d   1       1.159  -1.927  -0.269  0.00  0.00    -0.007 A 
ATOM      6  C5  UNL d   1      -0.055  -1.375  -0.675  0.00  0.00     0.039 A 
ENDROOT
BRANCH   4   7
ATOM      7  O   UNL d   1       3.158  -1.797   0.972  0.00  0.00    -0.526 OA
ATOM      8  H5  UNL d   1       3.611  -1.203   1.593  0.00  0.00     0.418 HD
ENDBRANCH   4   7
TORSDOF 1
ENDMDL
