MODEL 1
REMARK minimizedAffinity 10.6056662
REMARK minimizedRMSD -1
REMARK  2 active torsions:
REMARK  status: ('A' for Active; 'I' for Inactive)
REMARK    1  A    between atoms: C2'_3  and  C1'_4 
REMARK    2  A    between atoms: C1'_4  and  C1_5 
ROOT
ATOM      1  C1  I4B d   1      -0.376   1.737   1.584  0.00  0.00    -0.075 A 
ATOM      2  C2  I4B d   1      -0.541   3.091   1.738  0.00  0.00     0.003 A 
ATOM      3  C3  I4B d   1       0.399   3.992   1.182  0.00  0.00     0.002 A 
ATOM      4  C4  I4B d   1       1.508   3.498   0.527  0.00  0.00    -0.004 A 
ATOM      5  C5  I4B d   1       1.663   2.126   0.352  0.00  0.00     0.002 A 
ATOM      6  C6  I4B d   1       0.709   1.240   0.873  0.00  0.00     0.003 A 
ENDROOT
BRANCH   1   7
ATOM      7  C1' I4B d   1      -1.370   0.813   2.213  0.00  0.00     0.060 C 
BRANCH   7   8
ATOM      8  C2' I4B d   1      -0.928   0.552   3.639  0.00  0.00    -0.013 C 
ATOM      9  C4' I4B d   1      -0.211  -0.767   3.755  0.00  0.00     0.013 C 
ATOM     10  C3' I4B d   1      -0.045   1.687   4.065  0.00  0.00     0.013 C 
ENDBRANCH   7   8
ENDBRANCH   1   7
TORSDOF 2
ENDMDL
