MODEL 1
REMARK minimizedAffinity 3.24300408
REMARK minimizedRMSD -1
REMARK  2 active torsions:
REMARK  status: ('A' for Active; 'I' for Inactive)
REMARK    1  A    between atoms: C2'_3  and  C1'_4 
REMARK    2  A    between atoms: C1'_4  and  C1_5 
ROOT
ATOM      1  C1  I4B d   1       2.735   0.771   0.257  0.00  0.00    -0.075 A 
ATOM      2  C2  I4B d   1       1.485   1.287   0.497  0.00  0.00     0.003 A 
ATOM      3  C3  I4B d   1       1.343   2.532   1.155  0.00  0.00     0.002 A 
ATOM      4  C4  I4B d   1       2.466   3.200   1.597  0.00  0.00    -0.004 A 
ATOM      5  C5  I4B d   1       3.733   2.687   1.333  0.00  0.00     0.002 A 
ATOM      6  C6  I4B d   1       3.869   1.471   0.648  0.00  0.00     0.003 A 
ENDROOT
BRANCH   1   7
ATOM      7  C1' I4B d   1       2.848  -0.563  -0.411  0.00  0.00     0.060 C 
BRANCH   7   8
ATOM      8  C2' I4B d   1       2.169  -1.587   0.475  0.00  0.00    -0.013 C 
ATOM      9  C4' I4B d   1       1.939  -2.879  -0.263  0.00  0.00     0.013 C 
ATOM     10  C3' I4B d   1       3.033  -1.800   1.683  0.00  0.00     0.013 C 
ENDBRANCH   7   8
ENDBRANCH   1   7
TORSDOF 2
ENDMDL
