MODEL 1
REMARK minimizedAffinity 4.10010624
REMARK minimizedRMSD -1
REMARK  0 active torsions:
REMARK  status: ('A' for Active; 'I' for Inactive)
ROOT
ATOM      1  C   UNL d   1       4.568   0.040  -2.108  0.00  0.00    -0.002 A 
ATOM      2  C1  UNL d   1       3.830  -0.800  -1.286  0.00  0.00     0.010 A 
ATOM      3  C2  UNL d   1       2.513  -0.484  -0.947  0.00  0.00     0.041 A 
ATOM      4  C3  UNL d   1       1.943   0.700  -1.455  0.00  0.00    -0.075 A 
ATOM      5  S   UNL d   1       0.347   1.289  -1.175  0.00  0.00     0.015 SA
ATOM      6  C4  UNL d   1       0.607   2.669  -2.141  0.00  0.00     0.022 A 
ATOM      7  C5  UNL d   1       1.875   2.695  -2.672  0.00  0.00     0.026 A 
ATOM      8  C6  UNL d   1       2.666   1.561  -2.286  0.00  0.00    -0.082 A 
ATOM      9  C7  UNL d   1       3.999   1.214  -2.610  0.00  0.00     0.045 A 
ENDROOT
TORSDOF 0
ENDMDL
