MODEL 1
REMARK minimizedAffinity 16.1658821
REMARK minimizedRMSD -1
REMARK  0 active torsions:
REMARK  status: ('A' for Active; 'I' for Inactive)
ROOT
ATOM      1  C   UNL d   1       1.163  -1.050  -1.854  0.00  0.00    -0.002 A 
ATOM      2  C1  UNL d   1       2.517  -1.122  -1.557  0.00  0.00     0.010 A 
ATOM      3  C2  UNL d   1       2.978  -1.969  -0.547  0.00  0.00     0.041 A 
ATOM      4  C3  UNL d   1       2.047  -2.751   0.165  0.00  0.00    -0.075 A 
ATOM      5  S   UNL d   1       2.383  -3.860   1.442  0.00  0.00     0.015 SA
ATOM      6  C4  UNL d   1       0.737  -4.264   1.623  0.00  0.00     0.022 A 
ATOM      7  C5  UNL d   1      -0.063  -3.579   0.739  0.00  0.00     0.026 A 
ATOM      8  C6  UNL d   1       0.679  -2.696  -0.116  0.00  0.00    -0.082 A 
ATOM      9  C7  UNL d   1       0.243  -1.827  -1.145  0.00  0.00     0.045 A 
ENDROOT
TORSDOF 0
ENDMDL
