MODEL 1
REMARK minimizedAffinity 15.5603685
REMARK minimizedRMSD -1
REMARK  0 active torsions:
REMARK  status: ('A' for Active; 'I' for Inactive)
ROOT
ATOM      1  C   UNL d   1       2.349   2.024  -2.917  0.00  0.00    -0.002 A 
ATOM      2  C1  UNL d   1       1.165   2.576  -2.451  0.00  0.00     0.010 A 
ATOM      3  C2  UNL d   1       0.248   1.796  -1.744  0.00  0.00     0.041 A 
ATOM      4  C3  UNL d   1       0.545   0.439  -1.509  0.00  0.00    -0.075 A 
ATOM      5  S   UNL d   1      -0.428  -0.708  -0.666  0.00  0.00     0.015 SA
ATOM      6  C4  UNL d   1       0.707  -1.957  -0.905  0.00  0.00     0.022 A 
ATOM      7  C5  UNL d   1       1.806  -1.528  -1.609  0.00  0.00     0.026 A 
ATOM      8  C6  UNL d   1       1.732  -0.140  -1.969  0.00  0.00    -0.082 A 
ATOM      9  C7  UNL d   1       2.641   0.678  -2.683  0.00  0.00     0.045 A 
ENDROOT
TORSDOF 0
ENDMDL
