MODEL 1
REMARK minimizedAffinity 7.03137207
REMARK minimizedRMSD -1
REMARK  0 active torsions:
REMARK  status: ('A' for Active; 'I' for Inactive)
ROOT
ATOM      1  C   UNL d   1      -3.758  -1.345   5.610  0.00  0.00    -0.002 A 
ATOM      2  C1  UNL d   1      -3.072  -1.320   4.403  0.00  0.00     0.010 A 
ATOM      3  C2  UNL d   1      -3.354  -0.343   3.446  0.00  0.00     0.041 A 
ATOM      4  C3  UNL d   1      -4.343   0.620   3.726  0.00  0.00    -0.075 A 
ATOM      5  S   UNL d   1      -4.855   1.911   2.705  0.00  0.00     0.015 SA
ATOM      6  C4  UNL d   1      -5.995   2.461   3.847  0.00  0.00     0.022 A 
ATOM      7  C5  UNL d   1      -5.998   1.690   4.985  0.00  0.00     0.026 A 
ATOM      8  C6  UNL d   1      -5.046   0.616   4.934  0.00  0.00    -0.082 A 
ATOM      9  C7  UNL d   1      -4.739  -0.388   5.883  0.00  0.00     0.045 A 
ENDROOT
TORSDOF 0
ENDMDL
