MODEL 1
REMARK minimizedAffinity 4.66798782
REMARK minimizedRMSD -1
REMARK  0 active torsions:
REMARK  status: ('A' for Active; 'I' for Inactive)
ROOT
ATOM      1  C   UNL d   1      -4.772   0.026   3.826  0.00  0.00    -0.002 A 
ATOM      2  C1  UNL d   1      -4.025   0.761   4.736  0.00  0.00     0.010 A 
ATOM      3  C2  UNL d   1      -2.634   0.652   4.766  0.00  0.00     0.041 A 
ATOM      4  C3  UNL d   1      -1.998  -0.217   3.858  0.00  0.00    -0.075 A 
ATOM      5  S   UNL d   1      -0.306  -0.512   3.712  0.00  0.00     0.015 SA
ATOM      6  C4  UNL d   1      -0.534  -1.621   2.438  0.00  0.00     0.022 A 
ATOM      7  C5  UNL d   1      -1.862  -1.775   2.119  0.00  0.00     0.026 A 
ATOM      8  C6  UNL d   1      -2.728  -0.968   2.931  0.00  0.00    -0.082 A 
ATOM      9  C7  UNL d   1      -4.138  -0.835   2.926  0.00  0.00     0.045 A 
ENDROOT
TORSDOF 0
ENDMDL
