MODEL 1
REMARK minimizedAffinity 7.68630123
REMARK minimizedRMSD -1
REMARK  0 active torsions:
REMARK  status: ('A' for Active; 'I' for Inactive)
ROOT
ATOM      1  C   UNL d   1       1.062  -2.905  -2.138  0.00  0.00    -0.002 A 
ATOM      2  C1  UNL d   1       0.351  -2.558  -3.278  0.00  0.00     0.010 A 
ATOM      3  C2  UNL d   1       0.461  -1.277  -3.822  0.00  0.00     0.041 A 
ATOM      4  C3  UNL d   1       1.307  -0.341  -3.195  0.00  0.00    -0.075 A 
ATOM      5  S   UNL d   1       1.599   1.287  -3.683  0.00  0.00     0.015 SA
ATOM      6  C4  UNL d   1       2.675   1.560  -2.390  0.00  0.00     0.022 A 
ATOM      7  C5  UNL d   1       2.819   0.448  -1.595  0.00  0.00     0.026 A 
ATOM      8  C6  UNL d   1       2.034  -0.666  -2.046  0.00  0.00    -0.082 A 
ATOM      9  C7  UNL d   1       1.900  -1.973  -1.519  0.00  0.00     0.045 A 
ENDROOT
TORSDOF 0
ENDMDL
