MODEL 1
REMARK minimizedAffinity 6.50720644
REMARK minimizedRMSD -1
REMARK  0 active torsions:
REMARK  status: ('A' for Active; 'I' for Inactive)
ROOT
ATOM      1  C   UNL d   1       1.437   1.375  -3.219  0.00  0.00    -0.002 A 
ATOM      2  C1  UNL d   1       1.226   1.296  -4.588  0.00  0.00     0.010 A 
ATOM      3  C2  UNL d   1       1.350   2.431  -5.392  0.00  0.00     0.041 A 
ATOM      4  C3  UNL d   1       1.695   3.658  -4.791  0.00  0.00    -0.075 A 
ATOM      5  S   UNL d   1       1.904   5.178  -5.577  0.00  0.00     0.015 SA
ATOM      6  C4  UNL d   1       2.280   5.967  -4.114  0.00  0.00     0.022 A 
ATOM      7  C5  UNL d   1       2.251   5.107  -3.042  0.00  0.00     0.026 A 
ATOM      8  C6  UNL d   1       1.914   3.761  -3.415  0.00  0.00    -0.082 A 
ATOM      9  C7  UNL d   1       1.779   2.593  -2.627  0.00  0.00     0.045 A 
ENDROOT
TORSDOF 0
ENDMDL
