MODEL 1
REMARK minimizedAffinity -0.881598949
REMARK minimizedRMSD -1
REMARK  0 active torsions:
REMARK  status: ('A' for Active; 'I' for Inactive)
ROOT
ATOM      1  C   UNL d   1       3.341  -0.013  -2.564  0.00  0.00    -0.002 A 
ATOM      2  C1  UNL d   1       2.784   1.256  -2.641  0.00  0.00     0.010 A 
ATOM      3  C2  UNL d   1       1.534   1.519  -2.078  0.00  0.00     0.041 A 
ATOM      4  C3  UNL d   1       0.846   0.475  -1.428  0.00  0.00    -0.075 A 
ATOM      5  S   UNL d   1      -0.697   0.564  -0.664  0.00  0.00     0.015 SA
ATOM      6  C4  UNL d   1      -0.653  -1.080  -0.216  0.00  0.00     0.022 A 
ATOM      7  C5  UNL d   1       0.503  -1.697  -0.632  0.00  0.00     0.026 A 
ATOM      8  C6  UNL d   1       1.387  -0.811  -1.336  0.00  0.00    -0.082 A 
ATOM      9  C7  UNL d   1       2.656  -1.046  -1.918  0.00  0.00     0.045 A 
ENDROOT
TORSDOF 0
ENDMDL
