MODEL 1
REMARK minimizedAffinity 0.750721276
REMARK minimizedRMSD -1
REMARK  0 active torsions:
REMARK  status: ('A' for Active; 'I' for Inactive)
ROOT
ATOM      1  C   UNL d   1       0.840   2.245   1.078  0.00  0.00    -0.002 A 
ATOM      2  C1  UNL d   1      -0.356   2.400   0.391  0.00  0.00     0.010 A 
ATOM      3  C2  UNL d   1      -0.391   2.312  -1.002  0.00  0.00     0.041 A 
ATOM      4  C3  UNL d   1       0.807   2.062  -1.700  0.00  0.00    -0.075 A 
ATOM      5  S   UNL d   1       1.005   1.912  -3.406  0.00  0.00     0.015 SA
ATOM      6  C4  UNL d   1       2.681   1.639  -3.263  0.00  0.00     0.022 A 
ATOM      7  C5  UNL d   1       3.097   1.658  -1.953  0.00  0.00     0.026 A 
ATOM      8  C6  UNL d   1       2.024   1.901  -1.030  0.00  0.00    -0.082 A 
ATOM      9  C7  UNL d   1       2.027   1.997   0.382  0.00  0.00     0.045 A 
ENDROOT
TORSDOF 0
ENDMDL
