MODEL 1
REMARK minimizedAffinity 10.1570616
REMARK minimizedRMSD -1
REMARK  0 active torsions:
REMARK  status: ('A' for Active; 'I' for Inactive)
ROOT
ATOM      1  C   UNL d   1       1.498  -2.543  -1.584  0.00  0.00    -0.002 A 
ATOM      2  C1  UNL d   1       2.522  -2.034  -0.799  0.00  0.00     0.010 A 
ATOM      3  C2  UNL d   1       3.009  -0.743  -1.015  0.00  0.00     0.041 A 
ATOM      4  C3  UNL d   1       2.441   0.035  -2.043  0.00  0.00    -0.075 A 
ATOM      5  S   UNL d   1       2.875   1.643  -2.489  0.00  0.00     0.015 SA
ATOM      6  C4  UNL d   1       1.710   1.692  -3.733  0.00  0.00     0.022 A 
ATOM      7  C5  UNL d   1       0.999   0.519  -3.819  0.00  0.00     0.026 A 
ATOM      8  C6  UNL d   1       1.408  -0.455  -2.846  0.00  0.00    -0.082 A 
ATOM      9  C7  UNL d   1       0.938  -1.768  -2.603  0.00  0.00     0.045 A 
ENDROOT
TORSDOF 0
ENDMDL
