MODEL 1
REMARK minimizedAffinity 8.68856239
REMARK minimizedRMSD -1
REMARK  0 active torsions:
REMARK  status: ('A' for Active; 'I' for Inactive)
ROOT
ATOM      1  C   UNL d   1      -0.147   2.515   1.077  0.00  0.00    -0.002 A 
ATOM      2  C1  UNL d   1      -1.220   2.444   0.200  0.00  0.00     0.010 A 
ATOM      3  C2  UNL d   1      -1.051   1.934  -1.089  0.00  0.00     0.041 A 
ATOM      4  C3  UNL d   1       0.226   1.491  -1.485  0.00  0.00    -0.075 A 
ATOM      5  S   UNL d   1       0.670   0.829  -3.014  0.00  0.00     0.015 SA
ATOM      6  C4  UNL d   1       2.294   0.624  -2.538  0.00  0.00     0.022 A 
ATOM      7  C5  UNL d   1       2.510   1.046  -1.248  0.00  0.00     0.026 A 
ATOM      8  C6  UNL d   1       1.322   1.552  -0.619  0.00  0.00    -0.082 A 
ATOM      9  C7  UNL d   1       1.118   2.074   0.681  0.00  0.00     0.045 A 
ENDROOT
TORSDOF 0
ENDMDL
