MODEL 1
REMARK minimizedAffinity 6.82028484
REMARK minimizedRMSD -1
REMARK  0 active torsions:
REMARK  status: ('A' for Active; 'I' for Inactive)
ROOT
ATOM      1  C   UNL d   1       1.537   1.520  -3.362  0.00  0.00    -0.002 A 
ATOM      2  C1  UNL d   1       1.955   0.511  -2.506  0.00  0.00     0.010 A 
ATOM      3  C2  UNL d   1       1.548   0.498  -1.170  0.00  0.00     0.041 A 
ATOM      4  C3  UNL d   1       0.705   1.527  -0.705  0.00  0.00    -0.075 A 
ATOM      5  S   UNL d   1       0.079   1.716   0.891  0.00  0.00     0.015 SA
ATOM      6  C4  UNL d   1      -0.758   3.141   0.473  0.00  0.00     0.022 A 
ATOM      7  C5  UNL d   1      -0.576   3.478  -0.847  0.00  0.00     0.026 A 
ATOM      8  C6  UNL d   1       0.270   2.553  -1.548  0.00  0.00    -0.082 A 
ATOM      9  C7  UNL d   1       0.700   2.538  -2.896  0.00  0.00     0.045 A 
ENDROOT
TORSDOF 0
ENDMDL
