MODEL 1
REMARK minimizedAffinity 7.17925835
REMARK minimizedRMSD -1
REMARK  0 active torsions:
REMARK  status: ('A' for Active; 'I' for Inactive)
ROOT
ATOM      1  C   UNL d   1       3.556  -0.458  -2.441  0.00  0.00    -0.002 A 
ATOM      2  C1  UNL d   1       2.569  -0.935  -1.591  0.00  0.00     0.010 A 
ATOM      3  C2  UNL d   1       1.451  -0.154  -1.293  0.00  0.00     0.041 A 
ATOM      4  C3  UNL d   1       1.339   1.126  -1.871  0.00  0.00    -0.075 A 
ATOM      5  S   UNL d   1       0.058   2.258  -1.650  0.00  0.00     0.015 SA
ATOM      6  C4  UNL d   1       0.791   3.401  -2.680  0.00  0.00     0.022 A 
ATOM      7  C5  UNL d   1       1.985   2.947  -3.189  0.00  0.00     0.026 A 
ATOM      8  C6  UNL d   1       2.320   1.628  -2.731  0.00  0.00    -0.082 A 
ATOM      9  C7  UNL d   1       3.442   0.812  -3.013  0.00  0.00     0.045 A 
ENDROOT
TORSDOF 0
ENDMDL
