MODEL 1
REMARK minimizedAffinity 6.93971252
REMARK minimizedRMSD -1
REMARK  1 active torsions:
REMARK  status: ('A' for Active; 'I' for Inactive)
REMARK    1  A    between atoms: C3_4  and  O_7 
ROOT
ATOM      1  C   UNL d   1      -4.056   2.991   1.538  0.00  0.00    -0.033 A 
ATOM      2  C1  UNL d   1      -3.395   2.634   0.361  0.00  0.00     0.039 A 
ATOM      3  C2  UNL d   1      -4.034   2.780  -0.872  0.00  0.00    -0.080 A 
ATOM      4  C3  UNL d   1      -5.331   3.283  -0.914  0.00  0.00     0.150 A 
ATOM      5  C4  UNL d   1      -5.994   3.644   0.254  0.00  0.00    -0.007 A 
ATOM      6  C5  UNL d   1      -5.355   3.497   1.485  0.00  0.00     0.039 A 
ENDROOT
BRANCH   4   7
ATOM      7  O   UNL d   1      -5.998   3.438  -2.093  0.00  0.00    -0.526 OA
ATOM      8  H5  UNL d   1      -5.427   3.121  -2.813  0.00  0.00     0.418 HD
ENDBRANCH   4   7
TORSDOF 1
ENDMDL
