MODEL 1
REMARK minimizedAffinity -3.91900849
REMARK minimizedRMSD -1
REMARK  1 active torsions:
REMARK  status: ('A' for Active; 'I' for Inactive)
REMARK    1  A    between atoms: C3_4  and  O_7 
ROOT
ATOM      1  C   UNL d   1       2.972  -2.638   4.364  0.00  0.00    -0.033 A 
ATOM      2  C1  UNL d   1       3.118  -3.215   5.627  0.00  0.00     0.039 A 
ATOM      3  C2  UNL d   1       2.332  -4.309   5.992  0.00  0.00    -0.080 A 
ATOM      4  C3  UNL d   1       1.406  -4.818   5.085  0.00  0.00     0.150 A 
ATOM      5  C4  UNL d   1       1.258  -4.250   3.824  0.00  0.00    -0.007 A 
ATOM      6  C5  UNL d   1       2.043  -3.156   3.462  0.00  0.00     0.039 A 
ENDROOT
BRANCH   4   7
ATOM      7  O   UNL d   1       0.613  -5.882   5.397  0.00  0.00    -0.526 OA
ATOM      8  H5  UNL d   1       0.805  -6.151   6.311  0.00  0.00     0.418 HD
ENDBRANCH   4   7
TORSDOF 1
ENDMDL
