MODEL 1
REMARK minimizedAffinity 1.43949318
REMARK minimizedRMSD -1
REMARK  1 active torsions:
REMARK  status: ('A' for Active; 'I' for Inactive)
REMARK    1  A    between atoms: C3_4  and  O_7 
ROOT
ATOM      1  C   UNL d   1       3.937  -5.999  -1.924  0.00  0.00    -0.033 A 
ATOM      2  C1  UNL d   1       2.603  -6.000  -2.338  0.00  0.00     0.039 A 
ATOM      3  C2  UNL d   1       2.293  -5.998  -3.700  0.00  0.00    -0.080 A 
ATOM      4  C3  UNL d   1       3.324  -5.997  -4.635  0.00  0.00     0.150 A 
ATOM      5  C4  UNL d   1       4.655  -5.999  -4.230  0.00  0.00    -0.007 A 
ATOM      6  C5  UNL d   1       4.962  -6.000  -2.870  0.00  0.00     0.039 A 
ENDROOT
BRANCH   4   7
ATOM      7  O   UNL d   1       3.071  -5.990  -5.975  0.00  0.00    -0.526 OA
ATOM      8  H5  UNL d   1       2.109  -5.960  -6.106  0.00  0.00     0.418 HD
ENDBRANCH   4   7
TORSDOF 1
ENDMDL
