MODEL 1
REMARK minimizedAffinity 2.48322701
REMARK minimizedRMSD -1
REMARK  1 active torsions:
REMARK  status: ('A' for Active; 'I' for Inactive)
REMARK    1  A    between atoms: C3_4  and  O_7 
ROOT
ATOM      1  C   UNL d   1      -2.005   1.557  -1.685  0.00  0.00    -0.033 A 
ATOM      2  C1  UNL d   1      -2.854   1.810  -2.764  0.00  0.00     0.039 A 
ATOM      3  C2  UNL d   1      -3.333   0.754  -3.541  0.00  0.00    -0.080 A 
ATOM      4  C3  UNL d   1      -2.957  -0.550  -3.228  0.00  0.00     0.150 A 
ATOM      5  C4  UNL d   1      -2.115  -0.810  -2.152  0.00  0.00    -0.007 A 
ATOM      6  C5  UNL d   1      -1.637   0.247  -1.378  0.00  0.00     0.039 A 
ENDROOT
BRANCH   4   7
ATOM      7  O   UNL d   1      -3.395  -1.613  -3.959  0.00  0.00    -0.526 OA
ATOM      8  H5  UNL d   1      -3.946  -1.280  -4.688  0.00  0.00     0.418 HD
ENDBRANCH   4   7
TORSDOF 1
ENDMDL
