MODEL 1
REMARK minimizedAffinity 3.39915013
REMARK minimizedRMSD -1
REMARK  1 active torsions:
REMARK  status: ('A' for Active; 'I' for Inactive)
REMARK    1  A    between atoms: C3_4  and  O_7 
ROOT
ATOM      1  C   UNL d   1       3.165  -4.368   4.220  0.00  0.00    -0.033 A 
ATOM      2  C1  UNL d   1       2.056  -4.310   3.375  0.00  0.00     0.039 A 
ATOM      3  C2  UNL d   1       1.689  -3.099   2.784  0.00  0.00    -0.080 A 
ATOM      4  C3  UNL d   1       2.440  -1.956   3.046  0.00  0.00     0.150 A 
ATOM      5  C4  UNL d   1       3.549  -2.008   3.884  0.00  0.00    -0.007 A 
ATOM      6  C5  UNL d   1       3.913  -3.218   4.474  0.00  0.00     0.039 A 
ENDROOT
BRANCH   4   7
ATOM      7  O   UNL d   1       2.118  -0.751   2.496  0.00  0.00    -0.526 OA
ATOM      8  H5  UNL d   1       1.313  -0.861   1.963  0.00  0.00     0.418 HD
ENDBRANCH   4   7
TORSDOF 1
ENDMDL
