MODEL 1
REMARK minimizedAffinity 2.73895741
REMARK minimizedRMSD -1
REMARK  1 active torsions:
REMARK  status: ('A' for Active; 'I' for Inactive)
REMARK    1  A    between atoms: C3_4  and  O_7 
ROOT
ATOM      1  C   UNL d   1       1.343  -2.814   3.511  0.00  0.00    -0.033 A 
ATOM      2  C1  UNL d   1       2.234  -2.302   2.566  0.00  0.00     0.039 A 
ATOM      3  C2  UNL d   1       3.610  -2.378   2.789  0.00  0.00    -0.080 A 
ATOM      4  C3  UNL d   1       4.082  -2.969   3.958  0.00  0.00     0.150 A 
ATOM      5  C4  UNL d   1       3.199  -3.485   4.902  0.00  0.00    -0.007 A 
ATOM      6  C5  UNL d   1       1.825  -3.406   4.678  0.00  0.00     0.039 A 
ENDROOT
BRANCH   4   7
ATOM      7  O   UNL d   1       5.416  -3.062   4.221  0.00  0.00    -0.526 OA
ATOM      8  H5  UNL d   1       5.903  -2.639   3.495  0.00  0.00     0.418 HD
ENDBRANCH   4   7
TORSDOF 1
ENDMDL
