MODEL 1
REMARK minimizedAffinity 4.2002306
REMARK minimizedRMSD -1
REMARK  1 active torsions:
REMARK  status: ('A' for Active; 'I' for Inactive)
REMARK    1  A    between atoms: C3_4  and  O_7 
ROOT
ATOM      1  C   UNL d   1      -2.484   2.228  -0.854  0.00  0.00    -0.033 A 
ATOM      2  C1  UNL d   1      -3.016   2.442  -2.127  0.00  0.00     0.039 A 
ATOM      3  C2  UNL d   1      -3.145   1.377  -3.020  0.00  0.00    -0.080 A 
ATOM      4  C3  UNL d   1      -2.739   0.104  -2.628  0.00  0.00     0.150 A 
ATOM      5  C4  UNL d   1      -2.212  -0.118  -1.360  0.00  0.00    -0.007 A 
ATOM      6  C5  UNL d   1      -2.083   0.948  -0.470  0.00  0.00     0.039 A 
ENDROOT
BRANCH   4   7
ATOM      7  O   UNL d   1      -2.841  -0.966  -3.467  0.00  0.00    -0.526 OA
ATOM      8  H5  UNL d   1      -3.196  -0.658  -4.317  0.00  0.00     0.418 HD
ENDBRANCH   4   7
TORSDOF 1
ENDMDL
