MODEL 1
REMARK minimizedAffinity 4.06062555
REMARK minimizedRMSD -1
REMARK  1 active torsions:
REMARK  status: ('A' for Active; 'I' for Inactive)
REMARK    1  A    between atoms: C3_4  and  O_7 
ROOT
ATOM      1  C   UNL d   1      -5.405   3.000   1.582  0.00  0.00    -0.033 A 
ATOM      2  C1  UNL d   1      -6.000   3.373   0.375  0.00  0.00     0.039 A 
ATOM      3  C2  UNL d   1      -5.251   3.375  -0.803  0.00  0.00    -0.080 A 
ATOM      4  C3  UNL d   1      -3.910   3.001  -0.761  0.00  0.00     0.150 A 
ATOM      5  C4  UNL d   1      -3.313   2.625   0.437  0.00  0.00    -0.007 A 
ATOM      6  C5  UNL d   1      -4.062   2.625   1.613  0.00  0.00     0.039 A 
ENDROOT
BRANCH   4   7
ATOM      7  O   UNL d   1      -3.138   2.992  -1.884  0.00  0.00    -0.526 OA
ATOM      8  H5  UNL d   1      -3.677   3.303  -2.631  0.00  0.00     0.418 HD
ENDBRANCH   4   7
TORSDOF 1
ENDMDL
