MODEL 1
REMARK minimizedAffinity -0.102111854
REMARK minimizedRMSD -1
REMARK  1 active torsions:
REMARK  status: ('A' for Active; 'I' for Inactive)
REMARK    1  A    between atoms: C3_4  and  O_7 
ROOT
ATOM      1  C   UNL d   1       1.582  -4.122   4.319  0.00  0.00    -0.033 A 
ATOM      2  C1  UNL d   1       0.933  -2.893   4.457  0.00  0.00     0.039 A 
ATOM      3  C2  UNL d   1       1.340  -1.797   3.695  0.00  0.00    -0.080 A 
ATOM      4  C3  UNL d   1       2.394  -1.942   2.798  0.00  0.00     0.150 A 
ATOM      5  C4  UNL d   1       3.043  -3.163   2.652  0.00  0.00    -0.007 A 
ATOM      6  C5  UNL d   1       2.636  -4.257   3.415  0.00  0.00     0.039 A 
ENDROOT
BRANCH   4   7
ATOM      7  O   UNL d   1       2.830  -0.899   2.036  0.00  0.00    -0.526 OA
ATOM      8  H5  UNL d   1       2.307  -0.112   2.264  0.00  0.00     0.418 HD
ENDBRANCH   4   7
TORSDOF 1
ENDMDL
