MODEL 1
REMARK minimizedAffinity 1.24222016
REMARK minimizedRMSD -1
REMARK  1 active torsions:
REMARK  status: ('A' for Active; 'I' for Inactive)
REMARK    1  A    between atoms: C3_4  and  O_7 
ROOT
ATOM      1  C   UNL d   1       3.799  -5.999  -1.439  0.00  0.00    -0.033 A 
ATOM      2  C1  UNL d   1       2.487  -6.000  -1.918  0.00  0.00     0.039 A 
ATOM      3  C2  UNL d   1       2.244  -5.947  -3.292  0.00  0.00    -0.080 A 
ATOM      4  C3  UNL d   1       3.319  -5.895  -4.175  0.00  0.00     0.150 A 
ATOM      5  C4  UNL d   1       4.628  -5.898  -3.705  0.00  0.00    -0.007 A 
ATOM      6  C5  UNL d   1       4.869  -5.949  -2.332  0.00  0.00     0.039 A 
ENDROOT
BRANCH   4   7
ATOM      7  O   UNL d   1       3.131  -5.837  -5.524  0.00  0.00    -0.526 OA
ATOM      8  H5  UNL d   1       2.176  -5.813  -5.701  0.00  0.00     0.418 HD
ENDBRANCH   4   7
TORSDOF 1
ENDMDL
