MODEL 1
REMARK minimizedAffinity 5.84063768
REMARK minimizedRMSD -1
REMARK  1 active torsions:
REMARK  status: ('A' for Active; 'I' for Inactive)
REMARK    1  A    between atoms: C3_4  and  O_7 
ROOT
ATOM      1  C   UNL d   1      -6.000   4.128  -3.234  0.00  0.00    -0.033 A 
ATOM      2  C1  UNL d   1      -5.493   3.675  -4.454  0.00  0.00     0.039 A 
ATOM      3  C2  UNL d   1      -4.487   2.707  -4.478  0.00  0.00    -0.080 A 
ATOM      4  C3  UNL d   1      -3.998   2.200  -3.277  0.00  0.00     0.150 A 
ATOM      5  C4  UNL d   1      -4.502   2.643  -2.059  0.00  0.00    -0.007 A 
ATOM      6  C5  UNL d   1      -5.506   3.610  -2.037  0.00  0.00     0.039 A 
ENDROOT
BRANCH   4   7
ATOM      7  O   UNL d   1      -3.013   1.258  -3.250  0.00  0.00    -0.526 OA
ATOM      8  H5  UNL d   1      -2.743   1.068  -4.164  0.00  0.00     0.418 HD
ENDBRANCH   4   7
TORSDOF 1
ENDMDL
