MODEL 1
REMARK minimizedAffinity 8.6392231
REMARK minimizedRMSD -1
REMARK  1 active torsions:
REMARK  status: ('A' for Active; 'I' for Inactive)
REMARK    1  A    between atoms: N_2  and  C1_3 
ROOT
ATOM      1  C1  UNL d   1      -2.478   0.961  -3.952  0.00  0.00     0.143 A 
ATOM      2  C2  UNL d   1      -3.472   0.128  -3.427  0.00  0.00    -0.057 A 
ATOM      3  C3  UNL d   1      -4.470   0.631  -2.584  0.00  0.00     0.033 A 
ATOM      4  C4  UNL d   1      -4.475   1.975  -2.225  0.00  0.00    -0.042 A 
ATOM      5  C5  UNL d   1      -3.482   2.816  -2.715  0.00  0.00     0.033 A 
ATOM      6  C6  UNL d   1      -2.492   2.310  -3.562  0.00  0.00    -0.057 A 
ENDROOT
BRANCH   1   7
ATOM      7  N   UNL d   1      -1.402   0.503  -4.716  0.00  0.00    -0.732 N 
ATOM      8  C   UNL d   1      -0.226  -0.046  -4.077  0.00  0.00     0.284 C 
ATOM      9  H3  UNL d   1      -1.703  -0.007  -5.543  0.00  0.00     0.395 HD
ENDBRANCH   1   7
TORSDOF 1
ENDMDL
