MODEL 1
REMARK minimizedAffinity 8.77695751
REMARK minimizedRMSD -1
REMARK  1 active torsions:
REMARK  status: ('A' for Active; 'I' for Inactive)
REMARK    1  A    between atoms: N_2  and  C1_3 
ROOT
ATOM      1  C1  UNL d   1       2.799  -5.712  -1.213  0.00  0.00     0.143 A 
ATOM      2  C2  UNL d   1       2.188  -6.000   0.012  0.00  0.00    -0.057 A 
ATOM      3  C3  UNL d   1       0.872  -5.603   0.278  0.00  0.00     0.033 A 
ATOM      4  C4  UNL d   1       0.151  -4.884  -0.670  0.00  0.00    -0.042 A 
ATOM      5  C5  UNL d   1       0.747  -4.565  -1.885  0.00  0.00     0.033 A 
ATOM      6  C6  UNL d   1       2.060  -4.969  -2.147  0.00  0.00    -0.057 A 
ENDROOT
BRANCH   1   7
ATOM      7  N   UNL d   1       4.138  -5.992  -1.500  0.00  0.00    -0.732 N 
ATOM      8  C   UNL d   1       4.613  -5.999  -2.866  0.00  0.00     0.284 C 
ATOM      9  H3  UNL d   1       4.776  -5.554  -0.839  0.00  0.00     0.395 HD
ENDBRANCH   1   7
TORSDOF 1
ENDMDL
