MODEL 1
REMARK minimizedAffinity -2.66423821
REMARK minimizedRMSD -1
REMARK  1 active torsions:
REMARK  status: ('A' for Active; 'I' for Inactive)
REMARK    1  A    between atoms: N_2  and  C1_3 
ROOT
ATOM      1  C1  UNL d   1      -3.115   3.583   1.513  0.00  0.00     0.143 A 
ATOM      2  C2  UNL d   1      -2.626   4.892   1.437  0.00  0.00    -0.057 A 
ATOM      3  C3  UNL d   1      -3.494   5.991   1.408  0.00  0.00     0.033 A 
ATOM      4  C4  UNL d   1      -4.871   5.797   1.426  0.00  0.00    -0.042 A 
ATOM      5  C5  UNL d   1      -5.380   4.504   1.477  0.00  0.00     0.033 A 
ATOM      6  C6  UNL d   1      -4.508   3.412   1.512  0.00  0.00    -0.057 A 
ENDROOT
BRANCH   1   7
ATOM      7  N   UNL d   1      -2.306   2.446   1.445  0.00  0.00    -0.732 N 
ATOM      8  C   UNL d   1      -0.896   2.561   1.143  0.00  0.00     0.284 C 
ATOM      9  H3  UNL d   1      -2.521   1.773   2.178  0.00  0.00     0.395 HD
ENDBRANCH   1   7
TORSDOF 1
ENDMDL
