MODEL 1
REMARK minimizedAffinity -3.69715762
REMARK minimizedRMSD -1
REMARK  1 active torsions:
REMARK  status: ('A' for Active; 'I' for Inactive)
REMARK    1  A    between atoms: N_2  and  C1_3 
ROOT
ATOM      1  C1  UNL d   1      -3.277   4.851   1.187  0.00  0.00     0.143 A 
ATOM      2  C2  UNL d   1      -3.205   3.597   1.803  0.00  0.00    -0.057 A 
ATOM      3  C3  UNL d   1      -2.307   2.620   1.358  0.00  0.00     0.033 A 
ATOM      4  C4  UNL d   1      -1.481   2.870   0.267  0.00  0.00    -0.042 A 
ATOM      5  C5  UNL d   1      -1.553   4.101  -0.376  0.00  0.00     0.033 A 
ATOM      6  C6  UNL d   1      -2.448   5.075   0.077  0.00  0.00    -0.057 A 
ENDROOT
BRANCH   1   7
ATOM      7  N   UNL d   1      -4.217   5.829   1.520  0.00  0.00    -0.732 N 
ATOM      8  C   UNL d   1      -5.556   5.456   1.925  0.00  0.00     0.284 C 
ATOM      9  H3  UNL d   1      -3.814   6.586   2.066  0.00  0.00     0.395 HD
ENDBRANCH   1   7
TORSDOF 1
ENDMDL
