MODEL 1
REMARK minimizedAffinity -2.3121748
REMARK minimizedRMSD -1
REMARK  0 active torsions:
REMARK  status: ('A' for Active; 'I' for Inactive)
ROOT
ATOM      1  C4' PXY d   1       2.961   1.418   2.561  0.00  0.00     0.077 C 
ATOM      2  C1' PXY d   1       0.908  -2.487  -1.174  0.00  0.00     0.077 C 
ATOM      3  C1  PXY d   1       1.455  -1.472  -0.190  0.00  0.00    -0.082 A 
ATOM      4  C2  PXY d   1       0.677  -0.491   0.239  0.00  0.00     0.003 A 
ATOM      5  C3  PXY d   1       1.166   0.454   1.103  0.00  0.00     0.003 A 
ATOM      6  C4  PXY d   1       2.448   0.365   1.575  0.00  0.00    -0.082 A 
ATOM      7  C5  PXY d   1       3.245  -0.639   1.150  0.00  0.00     0.003 A 
ATOM      8  C6  PXY d   1       2.743  -1.565   0.241  0.00  0.00     0.003 A 
ENDROOT
TORSDOF 0
ENDMDL
