MODEL 1
REMARK minimizedAffinity -5.27147961
REMARK minimizedRMSD -1
REMARK  0 active torsions:
REMARK  status: ('A' for Active; 'I' for Inactive)
ROOT
ATOM      1  C4' PXY d   1       3.020  -0.142   1.031  0.00  0.00     0.077 C 
ATOM      2  C1' PXY d   1      -2.641  -0.216  -0.138  0.00  0.00     0.077 C 
ATOM      3  C1  PXY d   1      -1.155  -0.186   0.161  0.00  0.00    -0.082 A 
ATOM      4  C2  PXY d   1      -0.535  -1.302   0.512  0.00  0.00     0.003 A 
ATOM      5  C3  PXY d   1       0.801  -1.286   0.817  0.00  0.00     0.003 A 
ATOM      6  C4  PXY d   1       1.523  -0.127   0.711  0.00  0.00    -0.082 A 
ATOM      7  C5  PXY d   1       0.900   1.013   0.343  0.00  0.00     0.003 A 
ATOM      8  C6  PXY d   1      -0.466   0.984   0.078  0.00  0.00     0.003 A 
ENDROOT
TORSDOF 0
ENDMDL
