MODEL 1
REMARK minimizedAffinity -2.822824
REMARK minimizedRMSD -1
REMARK  0 active torsions:
REMARK  status: ('A' for Active; 'I' for Inactive)
ROOT
ATOM      1  C4' PXY d   1       1.078  -0.417  -0.182  0.00  0.00     0.077 C 
ATOM      2  C1' PXY d   1      -3.665   0.260  -3.417  0.00  0.00     0.077 C 
ATOM      3  C1  PXY d   1      -2.425   0.091  -2.560  0.00  0.00    -0.082 A 
ATOM      4  C2  PXY d   1      -1.304  -0.343  -3.110  0.00  0.00     0.003 A 
ATOM      5  C3  PXY d   1      -0.182  -0.532  -2.344  0.00  0.00     0.003 A 
ATOM      6  C4  PXY d   1      -0.195  -0.222  -1.010  0.00  0.00    -0.082 A 
ATOM      7  C5  PXY d   1      -1.333   0.232  -0.443  0.00  0.00     0.003 A 
ATOM      8  C6  PXY d   1      -2.471   0.377  -1.230  0.00  0.00     0.003 A 
ENDROOT
TORSDOF 0
ENDMDL
