MODEL 1
REMARK minimizedAffinity -4.58152056
REMARK minimizedRMSD -1
REMARK  0 active torsions:
REMARK  status: ('A' for Active; 'I' for Inactive)
ROOT
ATOM      1  C4' PXY d   1      -2.443  -0.021  -1.816  0.00  0.00     0.077 C 
ATOM      2  C1' PXY d   1       2.298   0.846   1.376  0.00  0.00     0.077 C 
ATOM      3  C1  PXY d   1       1.059   0.606   0.537  0.00  0.00    -0.082 A 
ATOM      4  C2  PXY d   1       0.429   1.635  -0.007  0.00  0.00     0.003 A 
ATOM      5  C3  PXY d   1      -0.712   1.439  -0.743  0.00  0.00     0.003 A 
ATOM      6  C4  PXY d   1      -1.182   0.173  -0.969  0.00  0.00    -0.082 A 
ATOM      7  C5  PXY d   1      -0.539  -0.882  -0.426  0.00  0.00     0.003 A 
ATOM      8  C6  PXY d   1       0.594  -0.659   0.352  0.00  0.00     0.003 A 
ENDROOT
TORSDOF 0
ENDMDL
