MODEL 1
REMARK minimizedAffinity -4.18367672
REMARK minimizedRMSD -1
REMARK  0 active torsions:
REMARK  status: ('A' for Active; 'I' for Inactive)
ROOT
ATOM      1  C4' PXY d   1       3.360  -0.721   0.972  0.00  0.00     0.077 C 
ATOM      2  C1' PXY d   1      -2.186   0.242  -0.342  0.00  0.00     0.077 C 
ATOM      3  C1  PXY d   1      -0.735  -0.021   0.009  0.00  0.00    -0.082 A 
ATOM      4  C2  PXY d   1       0.118   0.989   0.067  0.00  0.00     0.003 A 
ATOM      5  C3  PXY d   1       1.440   0.764   0.351  0.00  0.00     0.003 A 
ATOM      6  C4  PXY d   1       1.883  -0.501   0.631  0.00  0.00    -0.082 A 
ATOM      7  C5  PXY d   1       1.017  -1.535   0.585  0.00  0.00     0.003 A 
ATOM      8  C6  PXY d   1      -0.313  -1.291   0.254  0.00  0.00     0.003 A 
ENDROOT
TORSDOF 0
ENDMDL
