MODEL 1
REMARK minimizedAffinity -4.6678462
REMARK minimizedRMSD -1
REMARK  0 active torsions:
REMARK  status: ('A' for Active; 'I' for Inactive)
ROOT
ATOM      1  C4' PXY d   1      -1.493   0.095  -0.029  0.00  0.00     0.077 C 
ATOM      2  C1' PXY d   1       3.939  -1.215   1.451  0.00  0.00     0.077 C 
ATOM      3  C1  PXY d   1       2.518  -0.859   1.063  0.00  0.00    -0.082 A 
ATOM      4  C2  PXY d   1       1.537  -1.710   1.319  0.00  0.00     0.003 A 
ATOM      5  C3  PXY d   1       0.251  -1.417   0.946  0.00  0.00     0.003 A 
ATOM      6  C4  PXY d   1      -0.044  -0.219   0.353  0.00  0.00    -0.082 A 
ATOM      7  C5  PXY d   1       0.950   0.659   0.099  0.00  0.00     0.003 A 
ATOM      8  C6  PXY d   1       2.255   0.326   0.448  0.00  0.00     0.003 A 
ENDROOT
TORSDOF 0
ENDMDL
