MODEL 1
REMARK minimizedAffinity -5.22378349
REMARK minimizedRMSD -1
REMARK  0 active torsions:
REMARK  status: ('A' for Active; 'I' for Inactive)
ROOT
ATOM      1  C4' PXY d   1       3.270  -0.102   0.810  0.00  0.00     0.077 C 
ATOM      2  C1' PXY d   1      -2.265   0.971  -0.464  0.00  0.00     0.077 C 
ATOM      3  C1  PXY d   1      -0.817   0.679  -0.124  0.00  0.00    -0.082 A 
ATOM      4  C2  PXY d   1       0.055   1.672  -0.066  0.00  0.00     0.003 A 
ATOM      5  C3  PXY d   1       1.375   1.422   0.208  0.00  0.00     0.003 A 
ATOM      6  C4  PXY d   1       1.796   0.148   0.479  0.00  0.00    -0.082 A 
ATOM      7  C5  PXY d   1       0.911  -0.870   0.433  0.00  0.00     0.003 A 
ATOM      8  C6  PXY d   1      -0.416  -0.600   0.112  0.00  0.00     0.003 A 
ENDROOT
TORSDOF 0
ENDMDL
