MODEL 1
REMARK minimizedAffinity -4.96825266
REMARK minimizedRMSD -1
REMARK  0 active torsions:
REMARK  status: ('A' for Active; 'I' for Inactive)
ROOT
ATOM      1  C4' PXY d   1      -1.905  -0.418  -0.736  0.00  0.00     0.077 C 
ATOM      2  C1' PXY d   1       3.467   0.155   1.320  0.00  0.00     0.077 C 
ATOM      3  C1  PXY d   1       2.054   0.015   0.788  0.00  0.00    -0.082 A 
ATOM      4  C2  PXY d   1       1.628  -1.164   0.364  0.00  0.00     0.003 A 
ATOM      5  C3  PXY d   1       0.365  -1.301  -0.150  0.00  0.00     0.003 A 
ATOM      6  C4  PXY d   1      -0.490  -0.232  -0.182  0.00  0.00    -0.082 A 
ATOM      7  C5  PXY d   1      -0.067   0.972   0.258  0.00  0.00     0.003 A 
ATOM      8  C6  PXY d   1       1.233   1.099   0.738  0.00  0.00     0.003 A 
ENDROOT
TORSDOF 0
ENDMDL
