MODEL 1
REMARK minimizedAffinity -0.106240973
REMARK minimizedRMSD -1
REMARK  2 active torsions:
REMARK  status: ('A' for Active; 'I' for Inactive)
REMARK    1  A    between atoms: C1_2  and  C2_3 
REMARK    2  A    between atoms: C2_3  and  C3_4 
ROOT
ATOM      1  C3  UNL d   1       1.988  -1.375   2.825  0.00  0.00    -0.075 A 
ATOM      2  C4  UNL d   1       3.246  -1.993   2.774  0.00  0.00     0.002 A 
ATOM      3  C5  UNL d   1       3.455  -3.227   3.389  0.00  0.00     0.002 A 
ATOM      4  C6  UNL d   1       2.414  -3.853   4.072  0.00  0.00    -0.004 A 
ATOM      5  C7  UNL d   1       1.165  -3.241   4.144  0.00  0.00     0.002 A 
ATOM      6  C8  UNL d   1       0.952  -2.008   3.525  0.00  0.00     0.002 A 
ENDROOT
BRANCH   1   7
ATOM      7  C2  UNL d   1       1.747  -0.053   2.136  0.00  0.00     0.056 C 
BRANCH   7   8
ATOM      8  C1  UNL d   1       2.898   0.396   1.230  0.00  0.00     0.007 C 
ATOM      9  C   UNL d   1       2.855   1.881   0.896  0.00  0.00     0.009 C 
ENDBRANCH   7   8
ENDBRANCH   1   7
TORSDOF 2
ENDMDL
