MODEL 1
REMARK minimizedAffinity 6.60630941
REMARK minimizedRMSD -1
REMARK  2 active torsions:
REMARK  status: ('A' for Active; 'I' for Inactive)
REMARK    1  A    between atoms: C1_2  and  C2_3 
REMARK    2  A    between atoms: C2_3  and  C3_4 
ROOT
ATOM      1  C3  UNL d   1       2.639  -2.469   2.630  0.00  0.00    -0.075 A 
ATOM      2  C4  UNL d   1       3.075  -1.428   1.798  0.00  0.00     0.002 A 
ATOM      3  C5  UNL d   1       2.170  -0.481   1.315  0.00  0.00     0.002 A 
ATOM      4  C6  UNL d   1       0.821  -0.569   1.650  0.00  0.00    -0.004 A 
ATOM      5  C7  UNL d   1       0.374  -1.609   2.462  0.00  0.00     0.002 A 
ATOM      6  C8  UNL d   1       1.278  -2.555   2.950  0.00  0.00     0.002 A 
ENDROOT
BRANCH   1   7
ATOM      7  C2  UNL d   1       3.618  -3.480   3.179  0.00  0.00     0.056 C 
BRANCH   7   8
ATOM      8  C1  UNL d   1       4.899  -2.861   3.750  0.00  0.00     0.007 C 
ATOM      9  C   UNL d   1       6.000  -2.695   2.711  0.00  0.00     0.009 C 
ENDBRANCH   7   8
ENDBRANCH   1   7
TORSDOF 2
ENDMDL
