MODEL 1
REMARK minimizedAffinity 3.77618265
REMARK minimizedRMSD -1
REMARK  2 active torsions:
REMARK  status: ('A' for Active; 'I' for Inactive)
REMARK    1  A    between atoms: C1_2  and  C2_3 
REMARK    2  A    between atoms: C2_3  and  C3_4 
ROOT
ATOM      1  C3  UNL d   1       2.515  -5.913  -3.224  0.00  0.00    -0.075 A 
ATOM      2  C4  UNL d   1       1.199  -5.925  -3.708  0.00  0.00     0.002 A 
ATOM      3  C5  UNL d   1       0.949  -5.971  -5.080  0.00  0.00     0.002 A 
ATOM      4  C6  UNL d   1       2.009  -5.993  -5.983  0.00  0.00    -0.004 A 
ATOM      5  C7  UNL d   1       3.320  -5.964  -5.514  0.00  0.00     0.002 A 
ATOM      6  C8  UNL d   1       3.573  -5.923  -4.142  0.00  0.00     0.002 A 
ENDROOT
BRANCH   1   7
ATOM      7  C2  UNL d   1       2.792  -5.894  -1.740  0.00  0.00     0.056 C 
BRANCH   7   8
ATOM      8  C1  UNL d   1       4.164  -5.319  -1.369  0.00  0.00     0.007 C 
ATOM      9  C   UNL d   1       5.316  -5.998  -2.098  0.00  0.00     0.009 C 
ENDBRANCH   7   8
ENDBRANCH   1   7
TORSDOF 2
ENDMDL
