MODEL 1
REMARK minimizedAffinity 9.8621788
REMARK minimizedRMSD -1
REMARK  2 active torsions:
REMARK  status: ('A' for Active; 'I' for Inactive)
REMARK    1  A    between atoms: C1_2  and  C2_3 
REMARK    2  A    between atoms: C2_3  and  C3_4 
ROOT
ATOM      1  C3  UNL d   1      -5.280   3.101  -0.878  0.00  0.00    -0.075 A 
ATOM      2  C4  UNL d   1      -3.884   2.981  -0.804  0.00  0.00     0.002 A 
ATOM      3  C5  UNL d   1      -3.228   3.093   0.422  0.00  0.00     0.002 A 
ATOM      4  C6  UNL d   1      -3.955   3.336   1.585  0.00  0.00    -0.004 A 
ATOM      5  C7  UNL d   1      -5.340   3.474   1.521  0.00  0.00     0.002 A 
ATOM      6  C8  UNL d   1      -6.000   3.357   0.296  0.00  0.00     0.002 A 
ENDROOT
BRANCH   1   7
ATOM      7  C2  UNL d   1      -5.999   2.951  -2.198  0.00  0.00     0.056 C 
BRANCH   7   8
ATOM      8  C1  UNL d   1      -5.164   2.274  -3.290  0.00  0.00     0.007 C 
ATOM      9  C   UNL d   1      -5.538   2.723  -4.696  0.00  0.00     0.009 C 
ENDBRANCH   7   8
ENDBRANCH   1   7
TORSDOF 2
ENDMDL
