MODEL 1
REMARK minimizedAffinity 7.47432423
REMARK minimizedRMSD -1
REMARK  2 active torsions:
REMARK  status: ('A' for Active; 'I' for Inactive)
REMARK    1  A    between atoms: C1_2  and  C2_3 
REMARK    2  A    between atoms: C2_3  and  C3_4 
ROOT
ATOM      1  C3  UNL d   1       1.962  -2.099   3.336  0.00  0.00    -0.075 A 
ATOM      2  C4  UNL d   1       3.078  -2.297   4.162  0.00  0.00     0.002 A 
ATOM      3  C5  UNL d   1       3.442  -3.582   4.565  0.00  0.00     0.002 A 
ATOM      4  C6  UNL d   1       2.691  -4.682   4.157  0.00  0.00    -0.004 A 
ATOM      5  C7  UNL d   1       1.570  -4.496   3.350  0.00  0.00     0.002 A 
ATOM      6  C8  UNL d   1       1.206  -3.211   2.942  0.00  0.00     0.002 A 
ENDROOT
BRANCH   1   7
ATOM      7  C2  UNL d   1       1.580  -0.713   2.873  0.00  0.00     0.056 C 
BRANCH   7   8
ATOM      8  C1  UNL d   1       2.393  -0.209   1.676  0.00  0.00     0.007 C 
ATOM      9  C   UNL d   1       2.631   1.295   1.702  0.00  0.00     0.009 C 
ENDBRANCH   7   8
ENDBRANCH   1   7
TORSDOF 2
ENDMDL
