MODEL 1
REMARK minimizedAffinity 3.52847528
REMARK minimizedRMSD -1
REMARK  2 active torsions:
REMARK  status: ('A' for Active; 'I' for Inactive)
REMARK    1  A    between atoms: C1_2  and  C2_3 
REMARK    2  A    between atoms: C2_3  and  C3_4 
ROOT
ATOM      1  C3  UNL d   1       2.102  -1.742   2.853  0.00  0.00    -0.075 A 
ATOM      2  C4  UNL d   1       1.216  -2.814   3.038  0.00  0.00     0.002 A 
ATOM      3  C5  UNL d   1       1.686  -4.056   3.463  0.00  0.00     0.002 A 
ATOM      4  C6  UNL d   1       3.046  -4.247   3.699  0.00  0.00    -0.004 A 
ATOM      5  C7  UNL d   1       3.937  -3.194   3.502  0.00  0.00     0.002 A 
ATOM      6  C8  UNL d   1       3.469  -1.948   3.081  0.00  0.00     0.002 A 
ENDROOT
BRANCH   1   7
ATOM      7  C2  UNL d   1       1.596  -0.387   2.421  0.00  0.00     0.056 C 
BRANCH   7   8
ATOM      8  C1  UNL d   1       1.288   0.563   3.584  0.00  0.00     0.007 C 
ATOM      9  C   UNL d   1       1.511   2.029   3.236  0.00  0.00     0.009 C 
ENDBRANCH   7   8
ENDBRANCH   1   7
TORSDOF 2
ENDMDL
