MODEL 1
REMARK minimizedAffinity 1.80742931
REMARK minimizedRMSD -1
REMARK  0 active torsions:
REMARK  status: ('A' for Active; 'I' for Inactive)
ROOT
ATOM      1  C   UNL d   1       4.289   5.999   2.986  0.00  0.00     0.078 C 
ATOM      2  C1  UNL d   1       4.267   4.509   3.147  0.00  0.00    -0.077 A 
ATOM      3  C2  UNL d   1       4.006   3.670   2.057  0.00  0.00    -0.001 A 
ATOM      4  C3  UNL d   1       3.979   2.284   2.223  0.00  0.00     0.003 A 
ATOM      5  C4  UNL d   1       4.211   1.725   3.478  0.00  0.00    -0.005 A 
ATOM      6  C5  UNL d   1       4.470   2.552   4.569  0.00  0.00     0.003 A 
ATOM      7  C6  UNL d   1       4.497   3.938   4.405  0.00  0.00    -0.001 A 
ENDROOT
TORSDOF 0
ENDMDL
