MODEL 1
REMARK minimizedAffinity 10.1545362
REMARK minimizedRMSD -1
REMARK  0 active torsions:
REMARK  status: ('A' for Active; 'I' for Inactive)
ROOT
ATOM      1  C   UNL d   1      -0.377   3.046   5.997  0.00  0.00     0.078 C 
ATOM      2  C1  UNL d   1       0.010   2.029   4.965  0.00  0.00    -0.077 A 
ATOM      3  C2  UNL d   1       0.852   0.958   5.288  0.00  0.00    -0.001 A 
ATOM      4  C3  UNL d   1       1.212   0.024   4.315  0.00  0.00     0.003 A 
ATOM      5  C4  UNL d   1       0.736   0.153   3.012  0.00  0.00    -0.005 A 
ATOM      6  C5  UNL d   1      -0.101   1.217   2.680  0.00  0.00     0.003 A 
ATOM      7  C6  UNL d   1      -0.462   2.152   3.652  0.00  0.00    -0.001 A 
ENDROOT
TORSDOF 0
ENDMDL
