MODEL 1
REMARK minimizedAffinity 5.11074495
REMARK minimizedRMSD -1
REMARK  0 active torsions:
REMARK  status: ('A' for Active; 'I' for Inactive)
ROOT
ATOM      1  C   UNL d   1      -1.485   1.846   2.027  0.00  0.00     0.078 C 
ATOM      2  C1  UNL d   1      -0.546   0.814   2.576  0.00  0.00    -0.077 A 
ATOM      3  C2  UNL d   1      -0.640  -0.527   2.186  0.00  0.00    -0.001 A 
ATOM      4  C3  UNL d   1       0.235  -1.479   2.713  0.00  0.00     0.003 A 
ATOM      5  C4  UNL d   1       1.209  -1.099   3.633  0.00  0.00    -0.005 A 
ATOM      6  C5  UNL d   1       1.310   0.233   4.029  0.00  0.00     0.003 A 
ATOM      7  C6  UNL d   1       0.436   1.186   3.503  0.00  0.00    -0.001 A 
ENDROOT
TORSDOF 0
ENDMDL
