MODEL 1
REMARK minimizedAffinity 7.98076725
REMARK minimizedRMSD -1
REMARK  0 active torsions:
REMARK  status: ('A' for Active; 'I' for Inactive)
ROOT
ATOM      1  C   UNL d   1       4.834   1.140   4.896  0.00  0.00     0.078 C 
ATOM      2  C1  UNL d   1       3.532   1.772   5.286  0.00  0.00    -0.077 A 
ATOM      3  C2  UNL d   1       2.343   1.033   5.287  0.00  0.00    -0.001 A 
ATOM      4  C3  UNL d   1       1.136   1.637   5.643  0.00  0.00     0.003 A 
ATOM      5  C4  UNL d   1       1.106   2.984   6.000  0.00  0.00    -0.005 A 
ATOM      6  C5  UNL d   1       2.284   3.728   6.000  0.00  0.00     0.003 A 
ATOM      7  C6  UNL d   1       3.492   3.126   5.644  0.00  0.00    -0.001 A 
ENDROOT
TORSDOF 0
ENDMDL
