MODEL 1
REMARK minimizedAffinity 14.5701399
REMARK minimizedRMSD -1
REMARK  0 active torsions:
REMARK  status: ('A' for Active; 'I' for Inactive)
ROOT
ATOM      1  C   UNL d   1       5.724   4.277  -5.687  0.00  0.00     0.078 C 
ATOM      2  C1  UNL d   1       5.246   2.866  -5.518  0.00  0.00    -0.077 A 
ATOM      3  C2  UNL d   1       5.997   1.787  -5.999  0.00  0.00    -0.001 A 
ATOM      4  C3  UNL d   1       5.535   0.479  -5.843  0.00  0.00     0.003 A 
ATOM      5  C4  UNL d   1       4.319   0.238  -5.207  0.00  0.00    -0.005 A 
ATOM      6  C5  UNL d   1       3.563   1.306  -4.727  0.00  0.00     0.003 A 
ATOM      7  C6  UNL d   1       4.024   2.614  -4.882  0.00  0.00    -0.001 A 
ENDROOT
TORSDOF 0
ENDMDL
