MODEL 1
REMARK minimizedAffinity 16.0310307
REMARK minimizedRMSD -1
REMARK  0 active torsions:
REMARK  status: ('A' for Active; 'I' for Inactive)
ROOT
ATOM      1  C   UNL d   1       5.466   3.005  -5.999  0.00  0.00     0.078 C 
ATOM      2  C1  UNL d   1       5.106   1.578  -5.714  0.00  0.00    -0.077 A 
ATOM      3  C2  UNL d   1       5.999   0.538  -6.000  0.00  0.00    -0.001 A 
ATOM      4  C3  UNL d   1       5.646  -0.787  -5.738  0.00  0.00     0.003 A 
ATOM      5  C4  UNL d   1       4.400  -1.085  -5.189  0.00  0.00    -0.005 A 
ATOM      6  C5  UNL d   1       3.504  -0.057  -4.903  0.00  0.00     0.003 A 
ATOM      7  C6  UNL d   1       3.855   1.269  -5.165  0.00  0.00    -0.001 A 
ENDROOT
TORSDOF 0
ENDMDL
