MODEL 1
REMARK minimizedAffinity 8.20618725
REMARK minimizedRMSD -1
REMARK  0 active torsions:
REMARK  status: ('A' for Active; 'I' for Inactive)
ROOT
ATOM      1  C   UNL d   1       1.650  -2.526   4.719  0.00  0.00     0.078 C 
ATOM      2  C1  UNL d   1       1.097  -1.358   3.959  0.00  0.00    -0.077 A 
ATOM      3  C2  UNL d   1       1.323  -0.045   4.389  0.00  0.00    -0.001 A 
ATOM      4  C3  UNL d   1       0.793   1.032   3.677  0.00  0.00     0.003 A 
ATOM      5  C4  UNL d   1       0.033   0.808   2.531  0.00  0.00    -0.005 A 
ATOM      6  C5  UNL d   1      -0.199  -0.496   2.096  0.00  0.00     0.003 A 
ATOM      7  C6  UNL d   1       0.330  -1.574   2.807  0.00  0.00    -0.001 A 
ENDROOT
TORSDOF 0
ENDMDL
