MODEL 1
REMARK minimizedAffinity -4.47542
REMARK minimizedRMSD -1
REMARK  1 active torsions:
REMARK  status: ('A' for Active; 'I' for Inactive)
REMARK    1  A    between atoms: C3_4  and  O_7 
ROOT
ATOM      1  C   UNL d   1       1.131  -2.890   1.837  0.00  0.00    -0.033 A 
ATOM      2  C1  UNL d   1      -0.014  -2.319   2.396  0.00  0.00     0.039 A 
ATOM      3  C2  UNL d   1      -0.597  -1.197   1.805  0.00  0.00    -0.080 A 
ATOM      4  C3  UNL d   1      -0.027  -0.656   0.656  0.00  0.00     0.150 A 
ATOM      5  C4  UNL d   1       1.111  -1.222   0.091  0.00  0.00    -0.007 A 
ATOM      6  C5  UNL d   1       1.693  -2.343   0.683  0.00  0.00     0.039 A 
ENDROOT
BRANCH   4   7
ATOM      7  O   UNL d   1      -0.557   0.442   0.046  0.00  0.00    -0.526 OA
ATOM      8  H5  UNL d   1      -1.323   0.741   0.564  0.00  0.00     0.418 HD
ENDBRANCH   4   7
TORSDOF 1
ENDMDL
