MODEL 1
REMARK minimizedAffinity -5.42290926
REMARK minimizedRMSD -1
REMARK  1 active torsions:
REMARK  status: ('A' for Active; 'I' for Inactive)
REMARK    1  A    between atoms: C3_4  and  O_7 
ROOT
ATOM      1  C   UNL d   1       1.142  -2.448   1.921  0.00  0.00    -0.033 A 
ATOM      2  C1  UNL d   1      -0.149  -2.056   2.279  0.00  0.00     0.039 A 
ATOM      3  C2  UNL d   1      -0.811  -1.071   1.544  0.00  0.00    -0.080 A 
ATOM      4  C3  UNL d   1      -0.171  -0.487   0.454  0.00  0.00     0.150 A 
ATOM      5  C4  UNL d   1       1.114  -0.875   0.089  0.00  0.00    -0.007 A 
ATOM      6  C5  UNL d   1       1.773  -1.859   0.825  0.00  0.00     0.039 A 
ENDROOT
BRANCH   4   7
ATOM      7  O   UNL d   1      -0.774   0.483  -0.291  0.00  0.00    -0.526 OA
ATOM      8  H5  UNL d   1      -1.647   0.669   0.095  0.00  0.00     0.418 HD
ENDBRANCH   4   7
TORSDOF 1
ENDMDL
