MODEL 1
REMARK minimizedAffinity -4.83149719
REMARK minimizedRMSD -1
REMARK  1 active torsions:
REMARK  status: ('A' for Active; 'I' for Inactive)
REMARK    1  A    between atoms: C3_4  and  O_7 
ROOT
ATOM      1  C   UNL d   1      -1.372  -0.516   1.528  0.00  0.00    -0.033 A 
ATOM      2  C1  UNL d   1      -0.602  -0.488   0.364  0.00  0.00     0.039 A 
ATOM      3  C2  UNL d   1       0.499  -1.337   0.231  0.00  0.00    -0.080 A 
ATOM      4  C3  UNL d   1       0.817  -2.209   1.268  0.00  0.00     0.150 A 
ATOM      5  C4  UNL d   1       0.052  -2.246   2.430  0.00  0.00    -0.007 A 
ATOM      6  C5  UNL d   1      -1.045  -1.396   2.561  0.00  0.00     0.039 A 
ENDROOT
BRANCH   4   7
ATOM      7  O   UNL d   1       1.885  -3.053   1.187  0.00  0.00    -0.526 OA
ATOM      8  H5  UNL d   1       2.337  -2.897   0.341  0.00  0.00     0.418 HD
ENDBRANCH   4   7
TORSDOF 1
ENDMDL
