MODEL 1
REMARK minimizedAffinity -3.7710588
REMARK minimizedRMSD -1
REMARK  1 active torsions:
REMARK  status: ('A' for Active; 'I' for Inactive)
REMARK    1  A    between atoms: C3_4  and  O_7 
ROOT
ATOM      1  C   UNL d   1      -1.423  -0.882   1.978  0.00  0.00    -0.033 A 
ATOM      2  C1  UNL d   1      -0.717  -0.872   0.773  0.00  0.00     0.039 A 
ATOM      3  C2  UNL d   1       0.384  -1.713   0.600  0.00  0.00    -0.080 A 
ATOM      4  C3  UNL d   1       0.768  -2.557   1.638  0.00  0.00     0.150 A 
ATOM      5  C4  UNL d   1       0.068  -2.575   2.839  0.00  0.00    -0.007 A 
ATOM      6  C5  UNL d   1      -1.031  -1.734   3.010  0.00  0.00     0.039 A 
ENDROOT
BRANCH   4   7
ATOM      7  O   UNL d   1       1.839  -3.392   1.518  0.00  0.00    -0.526 OA
ATOM      8  H5  UNL d   1       2.243  -3.251   0.645  0.00  0.00     0.418 HD
ENDBRANCH   4   7
TORSDOF 1
ENDMDL
