MODEL 1
REMARK minimizedAffinity -4.82067347
REMARK minimizedRMSD -1
REMARK  1 active torsions:
REMARK  status: ('A' for Active; 'I' for Inactive)
REMARK    1  A    between atoms: C3_4  and  O_7 
ROOT
ATOM      1  C   UNL d   1       0.576   0.377  -0.005  0.00  0.00    -0.033 A 
ATOM      2  C1  UNL d   1      -0.412  -0.386   0.620  0.00  0.00     0.039 A 
ATOM      3  C2  UNL d   1      -0.156  -1.715   0.964  0.00  0.00    -0.080 A 
ATOM      4  C3  UNL d   1       1.090  -2.267   0.679  0.00  0.00     0.150 A 
ATOM      5  C4  UNL d   1       2.080  -1.511   0.060  0.00  0.00    -0.007 A 
ATOM      6  C5  UNL d   1       1.822  -0.185  -0.284  0.00  0.00     0.039 A 
ENDROOT
BRANCH   4   7
ATOM      7  O   UNL d   1       1.384  -3.561   0.992  0.00  0.00    -0.526 OA
ATOM      8  H5  UNL d   1       0.596  -3.969   1.388  0.00  0.00     0.418 HD
ENDBRANCH   4   7
TORSDOF 1
ENDMDL
