MODEL 1
REMARK minimizedAffinity -5.57230997
REMARK minimizedRMSD -1
REMARK  1 active torsions:
REMARK  status: ('A' for Active; 'I' for Inactive)
REMARK    1  A    between atoms: C3_4  and  O_7 
ROOT
ATOM      1  C   UNL d   1       0.780  -2.926   2.241  0.00  0.00    -0.033 A 
ATOM      2  C1  UNL d   1       1.418  -2.595   1.044  0.00  0.00     0.039 A 
ATOM      3  C2  UNL d   1       0.981  -1.499   0.297  0.00  0.00    -0.080 A 
ATOM      4  C3  UNL d   1      -0.093  -0.743   0.758  0.00  0.00     0.150 A 
ATOM      5  C4  UNL d   1      -0.731  -1.064   1.952  0.00  0.00    -0.007 A 
ATOM      6  C5  UNL d   1      -0.294  -2.159   2.695  0.00  0.00     0.039 A 
ENDROOT
BRANCH   4   7
ATOM      7  O   UNL d   1      -0.558   0.333   0.061  0.00  0.00    -0.526 OA
ATOM      8  H5  UNL d   1      -0.039   0.417  -0.756  0.00  0.00     0.418 HD
ENDBRANCH   4   7
TORSDOF 1
ENDMDL
