MODEL 1
REMARK minimizedAffinity -3.93927622
REMARK minimizedRMSD -1
REMARK  1 active torsions:
REMARK  status: ('A' for Active; 'I' for Inactive)
REMARK    1  A    between atoms: C3_4  and  O_7 
ROOT
ATOM      1  C   UNL d   1       0.348  -2.828   1.610  0.00  0.00    -0.033 A 
ATOM      2  C1  UNL d   1       1.689  -2.446   1.664  0.00  0.00     0.039 A 
ATOM      3  C2  UNL d   1       2.113  -1.284   1.015  0.00  0.00    -0.080 A 
ATOM      4  C3  UNL d   1       1.186  -0.514   0.319  0.00  0.00     0.150 A 
ATOM      5  C4  UNL d   1      -0.153  -0.887   0.264  0.00  0.00    -0.007 A 
ATOM      6  C5  UNL d   1      -0.574  -2.048   0.912  0.00  0.00     0.039 A 
ENDROOT
BRANCH   4   7
ATOM      7  O   UNL d   1       1.553   0.625  -0.334  0.00  0.00    -0.526 OA
ATOM      8  H5  UNL d   1       2.512   0.742  -0.234  0.00  0.00     0.418 HD
ENDBRANCH   4   7
TORSDOF 1
ENDMDL
