MODEL 1
REMARK minimizedAffinity -4.45945263
REMARK minimizedRMSD -1
REMARK  1 active torsions:
REMARK  status: ('A' for Active; 'I' for Inactive)
REMARK    1  A    between atoms: C3_4  and  O_7 
ROOT
ATOM      1  C   UNL d   1       1.296  -1.756   0.652  0.00  0.00    -0.033 A 
ATOM      2  C1  UNL d   1       0.276  -0.856   0.338  0.00  0.00     0.039 A 
ATOM      3  C2  UNL d   1      -0.767  -0.637   1.241  0.00  0.00    -0.080 A 
ATOM      4  C3  UNL d   1      -0.778  -1.323   2.452  0.00  0.00     0.150 A 
ATOM      5  C4  UNL d   1       0.237  -2.219   2.773  0.00  0.00    -0.007 A 
ATOM      6  C5  UNL d   1       1.277  -2.437   1.870  0.00  0.00     0.039 A 
ENDROOT
BRANCH   4   7
ATOM      7  O   UNL d   1      -1.777  -1.146   3.362  0.00  0.00    -0.526 OA
ATOM      8  H5  UNL d   1      -2.422  -0.521   2.993  0.00  0.00     0.418 HD
ENDBRANCH   4   7
TORSDOF 1
ENDMDL
