MODEL 1
REMARK minimizedAffinity -5.43409109
REMARK minimizedRMSD -1
REMARK  1 active torsions:
REMARK  status: ('A' for Active; 'I' for Inactive)
REMARK    1  A    between atoms: C3_4  and  O_7 
ROOT
ATOM      1  C   UNL d   1       1.399  -2.718   1.934  0.00  0.00    -0.033 A 
ATOM      2  C1  UNL d   1       2.032  -1.981   0.931  0.00  0.00     0.039 A 
ATOM      3  C2  UNL d   1       1.366  -0.918   0.317  0.00  0.00    -0.080 A 
ATOM      4  C3  UNL d   1       0.071  -0.602   0.717  0.00  0.00     0.150 A 
ATOM      5  C4  UNL d   1      -0.564  -1.328   1.719  0.00  0.00    -0.007 A 
ATOM      6  C5  UNL d   1       0.102  -2.390   2.329  0.00  0.00     0.039 A 
ENDROOT
BRANCH   4   7
ATOM      7  O   UNL d   1      -0.621   0.424   0.144  0.00  0.00    -0.526 OA
ATOM      8  H5  UNL d   1      -0.068   0.818  -0.552  0.00  0.00     0.418 HD
ENDBRANCH   4   7
TORSDOF 1
ENDMDL
