MODEL 1
REMARK minimizedAffinity -4.41146564
REMARK minimizedRMSD -1
REMARK  1 active torsions:
REMARK  status: ('A' for Active; 'I' for Inactive)
REMARK    1  A    between atoms: C3_4  and  O_7 
ROOT
ATOM      1  C   UNL d   1       1.276  -2.706   1.602  0.00  0.00    -0.033 A 
ATOM      2  C1  UNL d   1       1.903  -2.032   0.553  0.00  0.00     0.039 A 
ATOM      3  C2  UNL d   1       1.319  -0.885   0.010  0.00  0.00    -0.080 A 
ATOM      4  C3  UNL d   1       0.111  -0.424   0.525  0.00  0.00     0.150 A 
ATOM      5  C4  UNL d   1      -0.517  -1.089   1.573  0.00  0.00    -0.007 A 
ATOM      6  C5  UNL d   1       0.067  -2.234   2.113  0.00  0.00     0.039 A 
ENDROOT
BRANCH   4   7
ATOM      7  O   UNL d   1      -0.499   0.688   0.025  0.00  0.00    -0.526 OA
ATOM      8  H5  UNL d   1       0.035   1.026  -0.714  0.00  0.00     0.418 HD
ENDBRANCH   4   7
TORSDOF 1
ENDMDL
