MODEL 1
REMARK minimizedAffinity -3.82407522
REMARK minimizedRMSD -1
REMARK  1 active torsions:
REMARK  status: ('A' for Active; 'I' for Inactive)
REMARK    1  A    between atoms: C3_4  and  O_7 
ROOT
ATOM      1  C   UNL d   1       1.151  -2.862   2.104  0.00  0.00    -0.033 A 
ATOM      2  C1  UNL d   1      -0.039  -2.375   2.646  0.00  0.00     0.039 A 
ATOM      3  C2  UNL d   1      -0.769  -1.398   1.967  0.00  0.00    -0.080 A 
ATOM      4  C3  UNL d   1      -0.299  -0.918   0.748  0.00  0.00     0.150 A 
ATOM      5  C4  UNL d   1       0.884  -1.402   0.199  0.00  0.00    -0.007 A 
ATOM      6  C5  UNL d   1       1.612  -2.377   0.879  0.00  0.00     0.039 A 
ENDROOT
BRANCH   4   7
ATOM      7  O   UNL d   1      -0.975   0.039   0.050  0.00  0.00    -0.526 OA
ATOM      8  H5  UNL d   1      -1.758   0.299   0.564  0.00  0.00     0.418 HD
ENDBRANCH   4   7
TORSDOF 1
ENDMDL
