MODEL 1
REMARK minimizedAffinity -5.08554697
REMARK minimizedRMSD -1
REMARK  1 active torsions:
REMARK  status: ('A' for Active; 'I' for Inactive)
REMARK    1  A    between atoms: C3_4  and  O_7 
ROOT
ATOM      1  C   UNL d   1       1.178  -2.840   2.158  0.00  0.00    -0.033 A 
ATOM      2  C1  UNL d   1      -0.042  -2.230   2.458  0.00  0.00     0.039 A 
ATOM      3  C2  UNL d   1      -0.515  -1.183   1.663  0.00  0.00    -0.080 A 
ATOM      4  C3  UNL d   1       0.239  -0.758   0.573  0.00  0.00     0.150 A 
ATOM      5  C4  UNL d   1       1.453  -1.364   0.266  0.00  0.00    -0.007 A 
ATOM      6  C5  UNL d   1       1.925  -2.408   1.061  0.00  0.00     0.039 A 
ENDROOT
BRANCH   4   7
ATOM      7  O   UNL d   1      -0.180   0.262  -0.228  0.00  0.00    -0.526 OA
ATOM      8  H5  UNL d   1      -1.020   0.603   0.121  0.00  0.00     0.418 HD
ENDBRANCH   4   7
TORSDOF 1
ENDMDL
