MODEL 1
REMARK minimizedAffinity -0.0772832185
REMARK minimizedRMSD -1
REMARK  0 active torsions:
REMARK  status: ('A' for Active; 'I' for Inactive)
ROOT
ATOM      1  C1  BNZ d   1       5.999   3.824  -3.200  0.00  0.00     0.000 A 
ATOM      2  C2  BNZ d   1       6.000   4.841  -2.282  0.00  0.00     0.000 A 
ATOM      3  C3  BNZ d   1       4.930   5.683  -2.171  0.00  0.00     0.000 A 
ATOM      4  C4  BNZ d   1       3.878   5.534  -3.002  0.00  0.00     0.000 A 
ATOM      5  C5  BNZ d   1       3.867   4.519  -3.939  0.00  0.00     0.000 A 
ATOM      6  C6  BNZ d   1       4.929   3.648  -4.022  0.00  0.00     0.000 A 
ENDROOT
TORSDOF 0
ENDMDL
