MODEL 1
REMARK minimizedAffinity -1.7800436
REMARK minimizedRMSD -1
REMARK  0 active torsions:
REMARK  status: ('A' for Active; 'I' for Inactive)
ROOT
ATOM      1  C1  BNZ d   1       6.000   5.099  -3.299  0.00  0.00     0.000 A 
ATOM      2  C2  BNZ d   1       6.000   3.937  -4.023  0.00  0.00     0.000 A 
ATOM      3  C3  BNZ d   1       4.979   3.650  -4.886  0.00  0.00     0.000 A 
ATOM      4  C4  BNZ d   1       3.942   4.505  -4.994  0.00  0.00     0.000 A 
ATOM      5  C5  BNZ d   1       3.923   5.677  -4.264  0.00  0.00     0.000 A 
ATOM      6  C6  BNZ d   1       4.971   5.981  -3.425  0.00  0.00     0.000 A 
ENDROOT
TORSDOF 0
ENDMDL
