MODEL 1
REMARK minimizedAffinity -2.78016448
REMARK minimizedRMSD -1
REMARK  0 active torsions:
REMARK  status: ('A' for Active; 'I' for Inactive)
ROOT
ATOM      1  C1  BNZ d   1       5.800  -3.695   5.722  0.00  0.00     0.000 A 
ATOM      2  C2  BNZ d   1       5.120  -2.507   5.760  0.00  0.00     0.000 A 
ATOM      3  C3  BNZ d   1       4.155  -2.223   4.834  0.00  0.00     0.000 A 
ATOM      4  C4  BNZ d   1       3.901  -3.108   3.849  0.00  0.00     0.000 A 
ATOM      5  C5  BNZ d   1       4.585  -4.306   3.792  0.00  0.00     0.000 A 
ATOM      6  C6  BNZ d   1       5.527  -4.606   4.748  0.00  0.00     0.000 A 
ENDROOT
TORSDOF 0
ENDMDL
