MODEL 1
REMARK minimizedAffinity -1.65202224
REMARK minimizedRMSD -1
REMARK  0 active torsions:
REMARK  status: ('A' for Active; 'I' for Inactive)
ROOT
ATOM      1  C1  BNZ d   1       3.709   3.891  -4.030  0.00  0.00     0.000 A 
ATOM      2  C2  BNZ d   1       4.840   3.369  -4.600  0.00  0.00     0.000 A 
ATOM      3  C3  BNZ d   1       5.964   4.132  -4.749  0.00  0.00     0.000 A 
ATOM      4  C4  BNZ d   1       5.944   5.425  -4.365  0.00  0.00     0.000 A 
ATOM      5  C5  BNZ d   1       4.809   5.968  -3.797  0.00  0.00     0.000 A 
ATOM      6  C6  BNZ d   1       3.691   5.186  -3.613  0.00  0.00     0.000 A 
ENDROOT
TORSDOF 0
ENDMDL
