MODEL 1
REMARK minimizedAffinity -2.66842294
REMARK minimizedRMSD -1
REMARK  0 active torsions:
REMARK  status: ('A' for Active; 'I' for Inactive)
ROOT
ATOM      1  C1  BNZ d   1       3.259  -2.125   5.243  0.00  0.00     0.000 A 
ATOM      2  C2  BNZ d   1       4.021  -3.001   4.516  0.00  0.00     0.000 A 
ATOM      3  C3  BNZ d   1       5.386  -2.932   4.547  0.00  0.00     0.000 A 
ATOM      4  C4  BNZ d   1       5.985  -1.964   5.270  0.00  0.00     0.000 A 
ATOM      5  C5  BNZ d   1       5.230  -1.068   6.000  0.00  0.00     0.000 A 
ATOM      6  C6  BNZ d   1       3.857  -1.165   5.998  0.00  0.00     0.000 A 
ENDROOT
TORSDOF 0
ENDMDL
