MODEL 1
REMARK minimizedAffinity 8.05693817
REMARK minimizedRMSD -1
REMARK  0 active torsions:
REMARK  status: ('A' for Active; 'I' for Inactive)
ROOT
ATOM      1  C1  BNZ d   1       0.072   6.000   2.242  0.00  0.00     0.000 A 
ATOM      2  C2  BNZ d   1       1.392   5.998   1.876  0.00  0.00     0.000 A 
ATOM      3  C3  BNZ d   1       1.905   4.987   1.112  0.00  0.00     0.000 A 
ATOM      4  C4  BNZ d   1       1.109   3.960   0.750  0.00  0.00     0.000 A 
ATOM      5  C5  BNZ d   1      -0.221   3.943   1.119  0.00  0.00     0.000 A 
ATOM      6  C6  BNZ d   1      -0.744   4.982   1.854  0.00  0.00     0.000 A 
ENDROOT
TORSDOF 0
ENDMDL
