MODEL 1
REMARK minimizedAffinity 1.62762702
REMARK minimizedRMSD -1
REMARK  0 active torsions:
REMARK  status: ('A' for Active; 'I' for Inactive)
ROOT
ATOM      1  C1  BNZ d   1       3.378   4.994  -3.729  0.00  0.00     0.000 A 
ATOM      2  C2  BNZ d   1       3.912   5.997  -2.964  0.00  0.00     0.000 A 
ATOM      3  C3  BNZ d   1       5.218   5.952  -2.564  0.00  0.00     0.000 A 
ATOM      4  C4  BNZ d   1       5.977   4.886  -2.893  0.00  0.00     0.000 A 
ATOM      5  C5  BNZ d   1       5.450   3.863  -3.655  0.00  0.00     0.000 A 
ATOM      6  C6  BNZ d   1       4.146   3.930  -4.089  0.00  0.00     0.000 A 
ENDROOT
TORSDOF 0
ENDMDL
