MODEL 1
REMARK minimizedAffinity -1.78999138
REMARK minimizedRMSD -1
REMARK  0 active torsions:
REMARK  status: ('A' for Active; 'I' for Inactive)
ROOT
ATOM      1  C1  BNZ d   1       3.907   4.854  -4.395  0.00  0.00     0.000 A 
ATOM      2  C2  BNZ d   1       3.929   5.858  -3.465  0.00  0.00     0.000 A 
ATOM      3  C3  BNZ d   1       4.987   5.997  -2.610  0.00  0.00     0.000 A 
ATOM      4  C4  BNZ d   1       6.000   5.108  -2.659  0.00  0.00     0.000 A 
ATOM      5  C5  BNZ d   1       5.987   4.084  -3.585  0.00  0.00     0.000 A 
ATOM      6  C6  BNZ d   1       4.940   3.971  -4.470  0.00  0.00     0.000 A 
ENDROOT
TORSDOF 0
ENDMDL
