MODEL 1
REMARK minimizedAffinity -0.661312759
REMARK minimizedRMSD -1
REMARK  0 active torsions:
REMARK  status: ('A' for Active; 'I' for Inactive)
ROOT
ATOM      1  C1  BNZ d   1       5.297  -3.705   5.041  0.00  0.00     0.000 A 
ATOM      2  C2  BNZ d   1       4.326  -3.690   4.075  0.00  0.00     0.000 A 
ATOM      3  C3  BNZ d   1       3.378  -2.706   4.051  0.00  0.00     0.000 A 
ATOM      4  C4  BNZ d   1       3.378  -1.762   5.014  0.00  0.00     0.000 A 
ATOM      5  C5  BNZ d   1       4.345  -1.769   6.000  0.00  0.00     0.000 A 
ATOM      6  C6  BNZ d   1       5.321  -2.738   5.998  0.00  0.00     0.000 A 
ENDROOT
TORSDOF 0
ENDMDL
