MODEL 1
REMARK minimizedAffinity -3.13019633
REMARK minimizedRMSD -1
REMARK  0 active torsions:
REMARK  status: ('A' for Active; 'I' for Inactive)
ROOT
ATOM      1  C1  BNZ d   1       5.073  -3.400   4.883  0.00  0.00     0.000 A 
ATOM      2  C2  BNZ d   1       4.809  -2.654   6.000  0.00  0.00     0.000 A 
ATOM      3  C3  BNZ d   1       3.812  -1.718   5.997  0.00  0.00     0.000 A 
ATOM      4  C4  BNZ d   1       3.110  -1.502   4.866  0.00  0.00     0.000 A 
ATOM      5  C5  BNZ d   1       3.371  -2.240   3.729  0.00  0.00     0.000 A 
ATOM      6  C6  BNZ d   1       4.348  -3.208   3.747  0.00  0.00     0.000 A 
ENDROOT
TORSDOF 0
ENDMDL
