MODEL 1
REMARK minimizedAffinity -0.331830472
REMARK minimizedRMSD -1
REMARK  0 active torsions:
REMARK  status: ('A' for Active; 'I' for Inactive)
ROOT
ATOM      1  C1  BNZ d   1       3.744  -1.621   4.886  0.00  0.00     0.000 A 
ATOM      2  C2  BNZ d   1       4.499  -1.873   6.000  0.00  0.00     0.000 A 
ATOM      3  C3  BNZ d   1       5.455  -2.851   5.991  0.00  0.00     0.000 A 
ATOM      4  C4  BNZ d   1       5.626  -3.600   4.883  0.00  0.00     0.000 A 
ATOM      5  C5  BNZ d   1       4.866  -3.364   3.755  0.00  0.00     0.000 A 
ATOM      6  C6  BNZ d   1       3.931  -2.354   3.755  0.00  0.00     0.000 A 
ENDROOT
TORSDOF 0
ENDMDL
