MODEL 1
REMARK minimizedAffinity -1.12336826
REMARK minimizedRMSD -1
REMARK  0 active torsions:
REMARK  status: ('A' for Active; 'I' for Inactive)
ROOT
ATOM      1  C1  BNZ d   1       3.682   5.262  -3.378  0.00  0.00     0.000 A 
ATOM      2  C2  BNZ d   1       3.705   4.023  -3.961  0.00  0.00     0.000 A 
ATOM      3  C3  BNZ d   1       4.870   3.503  -4.453  0.00  0.00     0.000 A 
ATOM      4  C4  BNZ d   1       6.000   4.237  -4.396  0.00  0.00     0.000 A 
ATOM      5  C5  BNZ d   1       5.991   5.491  -3.819  0.00  0.00     0.000 A 
ATOM      6  C6  BNZ d   1       4.825   5.996  -3.291  0.00  0.00     0.000 A 
ENDROOT
TORSDOF 0
ENDMDL
