MODEL 1
REMARK minimizedAffinity -2.04054356
REMARK minimizedRMSD -1
REMARK  0 active torsions:
REMARK  status: ('A' for Active; 'I' for Inactive)
ROOT
ATOM      1  C1  BNZ d   1       3.244  -1.163   4.870  0.00  0.00     0.000 A 
ATOM      2  C2  BNZ d   1       3.367  -1.953   3.757  0.00  0.00     0.000 A 
ATOM      3  C3  BNZ d   1       4.178  -3.053   3.766  0.00  0.00     0.000 A 
ATOM      4  C4  BNZ d   1       4.894  -3.340   4.872  0.00  0.00     0.000 A 
ATOM      5  C5  BNZ d   1       4.789  -2.548   5.998  0.00  0.00     0.000 A 
ATOM      6  C6  BNZ d   1       3.942  -1.464   5.999  0.00  0.00     0.000 A 
ENDROOT
TORSDOF 0
ENDMDL
