MODEL 1
REMARK minimizedAffinity 5.05977249
REMARK minimizedRMSD -1
REMARK  1 active torsions:
REMARK  status: ('A' for Active; 'I' for Inactive)
REMARK    1  A    between atoms: C1_2  and  C2_3 
ROOT
ATOM      1  C2  UNL d   1      -0.798  -0.094   1.770  0.00  0.00    -0.076 A 
ATOM      2  C3  UNL d   1      -0.970   0.695   0.620  0.00  0.00     0.004 A 
ATOM      3  C4  UNL d   1      -2.218   1.224   0.293  0.00  0.00    -0.003 A 
ATOM      4  C5  UNL d   1      -3.313   0.972   1.112  0.00  0.00     0.000 A 
ATOM      5  C6  UNL d   1      -3.157   0.205   2.266  0.00  0.00     0.000 A 
ATOM      6  C7  UNL d   1      -1.902  -0.321   2.619  0.00  0.00    -0.073 A 
ATOM      7  C8  UNL d   1      -1.792  -1.146   3.872  0.00  0.00     0.078 C 
ENDROOT
BRANCH   1   8
ATOM      8  C1  UNL d   1       0.573  -0.663   2.059  0.00  0.00     0.053 C 
ATOM      9  C   UNL d   1       1.691   0.313   1.726  0.00  0.00     0.018 C 
ENDBRANCH   1   8
TORSDOF 1
ENDMDL
