MODEL 1
REMARK minimizedAffinity 3.95347142
REMARK minimizedRMSD -1
REMARK  1 active torsions:
REMARK  status: ('A' for Active; 'I' for Inactive)
REMARK    1  A    between atoms: C1_2  and  C2_3 
ROOT
ATOM      1  C2  UNL d   1       0.264   0.638   2.173  0.00  0.00    -0.076 A 
ATOM      2  C3  UNL d   1      -0.534  -0.253   1.435  0.00  0.00     0.004 A 
ATOM      3  C4  UNL d   1      -1.864   0.048   1.144  0.00  0.00    -0.003 A 
ATOM      4  C5  UNL d   1      -2.416   1.246   1.585  0.00  0.00     0.000 A 
ATOM      5  C6  UNL d   1      -1.633   2.149   2.304  0.00  0.00     0.000 A 
ATOM      6  C7  UNL d   1      -0.287   1.868   2.592  0.00  0.00    -0.073 A 
ATOM      7  C8  UNL d   1       0.509   2.875   3.376  0.00  0.00     0.078 C 
ENDROOT
BRANCH   1   8
ATOM      8  C1  UNL d   1       1.691   0.245   2.482  0.00  0.00     0.053 C 
ATOM      9  C   UNL d   1       1.998  -1.192   2.090  0.00  0.00     0.018 C 
ENDBRANCH   1   8
TORSDOF 1
ENDMDL
