MODEL 1
REMARK minimizedAffinity 7.79556704
REMARK minimizedRMSD -1
REMARK  1 active torsions:
REMARK  status: ('A' for Active; 'I' for Inactive)
REMARK    1  A    between atoms: C1_2  and  C2_3 
ROOT
ATOM      1  C2  UNL d   1       3.542   0.200  -4.249  0.00  0.00    -0.076 A 
ATOM      2  C3  UNL d   1       2.441  -0.426  -4.861  0.00  0.00     0.004 A 
ATOM      3  C4  UNL d   1       2.123  -1.753  -4.578  0.00  0.00    -0.003 A 
ATOM      4  C5  UNL d   1       2.899  -2.476  -3.679  0.00  0.00     0.000 A 
ATOM      5  C6  UNL d   1       3.984  -1.865  -3.050  0.00  0.00     0.000 A 
ATOM      6  C7  UNL d   1       4.309  -0.523  -3.311  0.00  0.00    -0.073 A 
ATOM      7  C8  UNL d   1       5.493   0.083  -2.609  0.00  0.00     0.078 C 
ENDROOT
BRANCH   1   8
ATOM      8  C1  UNL d   1       3.855   1.634  -4.615  0.00  0.00     0.053 C 
ATOM      9  C   UNL d   1       2.816   2.237  -5.548  0.00  0.00     0.018 C 
ENDBRANCH   1   8
TORSDOF 1
ENDMDL
