MODEL 1
REMARK minimizedAffinity 13.0356913
REMARK minimizedRMSD -1
REMARK  1 active torsions:
REMARK  status: ('A' for Active; 'I' for Inactive)
REMARK    1  A    between atoms: C1_2  and  C2_3 
ROOT
ATOM      1  C2  UNL d   1      -3.928  -0.234   0.763  0.00  0.00    -0.076 A 
ATOM      2  C3  UNL d   1      -3.553  -1.142   1.768  0.00  0.00     0.004 A 
ATOM      3  C4  UNL d   1      -2.850  -2.305   1.458  0.00  0.00    -0.003 A 
ATOM      4  C5  UNL d   1      -2.510  -2.578   0.137  0.00  0.00     0.000 A 
ATOM      5  C6  UNL d   1      -2.858  -1.679  -0.870  0.00  0.00     0.000 A 
ATOM      6  C7  UNL d   1      -3.552  -0.494  -0.573  0.00  0.00    -0.073 A 
ATOM      7  C8  UNL d   1      -3.908   0.437  -1.700  0.00  0.00     0.078 C 
ENDROOT
BRANCH   1   8
ATOM      8  C1  UNL d   1      -4.713   0.997   1.155  0.00  0.00     0.053 C 
ATOM      9  C   UNL d   1      -6.000   0.657   1.891  0.00  0.00     0.018 C 
ENDBRANCH   1   8
TORSDOF 1
ENDMDL
