MODEL 1
REMARK minimizedAffinity 0.78030163
REMARK minimizedRMSD -1
REMARK  1 active torsions:
REMARK  status: ('A' for Active; 'I' for Inactive)
REMARK    1  A    between atoms: C1_2  and  C2_3 
ROOT
ATOM      1  C2  UNL d   1      -4.154  -2.834   2.997  0.00  0.00    -0.076 A 
ATOM      2  C3  UNL d   1      -3.450  -1.858   3.725  0.00  0.00     0.004 A 
ATOM      3  C4  UNL d   1      -3.445  -1.867   5.118  0.00  0.00    -0.003 A 
ATOM      4  C5  UNL d   1      -4.143  -2.853   5.808  0.00  0.00     0.000 A 
ATOM      5  C6  UNL d   1      -4.832  -3.839   5.102  0.00  0.00     0.000 A 
ATOM      6  C7  UNL d   1      -4.833  -3.854   3.697  0.00  0.00    -0.073 A 
ATOM      7  C8  UNL d   1      -5.598  -4.938   2.987  0.00  0.00     0.078 C 
ENDROOT
BRANCH   1   8
ATOM      8  C1  UNL d   1      -4.146  -2.758   1.487  0.00  0.00     0.053 C 
ATOM      9  C   UNL d   1      -3.546  -1.458   0.973  0.00  0.00     0.018 C 
ENDBRANCH   1   8
TORSDOF 1
ENDMDL
