MODEL 1
REMARK minimizedAffinity 3.63173318
REMARK minimizedRMSD -1
REMARK  1 active torsions:
REMARK  status: ('A' for Active; 'I' for Inactive)
REMARK    1  A    between atoms: C1_2  and  C2_3 
ROOT
ATOM      1  C2  UNL d   1       3.649   1.899  -5.527  0.00  0.00    -0.076 A 
ATOM      2  C3  UNL d   1       2.244   1.878  -5.489  0.00  0.00     0.004 A 
ATOM      3  C4  UNL d   1       1.502   3.040  -5.693  0.00  0.00    -0.003 A 
ATOM      4  C5  UNL d   1       2.154   4.243  -5.940  0.00  0.00     0.000 A 
ATOM      5  C6  UNL d   1       3.547   4.280  -5.999  0.00  0.00     0.000 A 
ATOM      6  C7  UNL d   1       4.309   3.114  -5.812  0.00  0.00    -0.073 A 
ATOM      7  C8  UNL d   1       5.808   3.212  -5.881  0.00  0.00     0.078 C 
ENDROOT
BRANCH   1   8
ATOM      8  C1  UNL d   1       4.400   0.612  -5.272  0.00  0.00     0.053 C 
ATOM      9  C   UNL d   1       3.732  -0.252  -4.213  0.00  0.00     0.018 C 
ENDBRANCH   1   8
TORSDOF 1
ENDMDL
