MODEL 1
REMARK minimizedAffinity 5.23486853
REMARK minimizedRMSD -1
REMARK  1 active torsions:
REMARK  status: ('A' for Active; 'I' for Inactive)
REMARK    1  A    between atoms: C1_2  and  C2_3 
ROOT
ATOM      1  C2  UNL d   1      -0.628   0.729   1.596  0.00  0.00    -0.076 A 
ATOM      2  C3  UNL d   1      -1.672   0.314   0.751  0.00  0.00     0.004 A 
ATOM      3  C4  UNL d   1      -2.968   0.798   0.921  0.00  0.00    -0.003 A 
ATOM      4  C5  UNL d   1      -3.241   1.705   1.938  0.00  0.00     0.000 A 
ATOM      5  C6  UNL d   1      -2.214   2.141   2.775  0.00  0.00     0.000 A 
ATOM      6  C7  UNL d   1      -0.899   1.676   2.607  0.00  0.00    -0.073 A 
ATOM      7  C8  UNL d   1       0.169   2.175   3.542  0.00  0.00     0.078 C 
ENDROOT
BRANCH   1   8
ATOM      8  C1  UNL d   1       0.752   0.149   1.381  0.00  0.00     0.053 C 
ATOM      9  C   UNL d   1       1.254   0.352  -0.040  0.00  0.00     0.018 C 
ENDBRANCH   1   8
TORSDOF 1
ENDMDL
