MODEL 1
REMARK minimizedAffinity 10.4408922
REMARK minimizedRMSD -1
REMARK  1 active torsions:
REMARK  status: ('A' for Active; 'I' for Inactive)
REMARK    1  A    between atoms: C1_2  and  C2_3 
ROOT
ATOM      1  C2  UNL d   1      -0.743   0.420   1.487  0.00  0.00    -0.076 A 
ATOM      2  C3  UNL d   1      -0.408   1.233   2.584  0.00  0.00     0.004 A 
ATOM      3  C4  UNL d   1      -1.378   1.995   3.234  0.00  0.00    -0.003 A 
ATOM      4  C5  UNL d   1      -2.697   1.956   2.798  0.00  0.00     0.000 A 
ATOM      5  C6  UNL d   1      -3.051   1.141   1.723  0.00  0.00     0.000 A 
ATOM      6  C7  UNL d   1      -2.089   0.354   1.067  0.00  0.00    -0.073 A 
ATOM      7  C8  UNL d   1      -2.524  -0.502  -0.091  0.00  0.00     0.078 C 
ENDROOT
BRANCH   1   8
ATOM      8  C1  UNL d   1       0.355  -0.364   0.805  0.00  0.00     0.053 C 
ATOM      9  C   UNL d   1       1.626   0.452   0.623  0.00  0.00     0.018 C 
ENDBRANCH   1   8
TORSDOF 1
ENDMDL
