MODEL 1
REMARK minimizedAffinity -1.24230289
REMARK minimizedRMSD -1
REMARK  1 active torsions:
REMARK  status: ('A' for Active; 'I' for Inactive)
REMARK    1  A    between atoms: C1_2  and  C2_3 
ROOT
ATOM      1  C2  UNL d   1      -3.003   1.001   1.682  0.00  0.00    -0.076 A 
ATOM      2  C3  UNL d   1      -4.401   1.115   1.592  0.00  0.00     0.004 A 
ATOM      3  C4  UNL d   1      -5.168   1.435   2.712  0.00  0.00    -0.003 A 
ATOM      4  C5  UNL d   1      -4.548   1.647   3.938  0.00  0.00     0.000 A 
ATOM      5  C6  UNL d   1      -3.161   1.555   4.041  0.00  0.00     0.000 A 
ATOM      6  C7  UNL d   1      -2.372   1.250   2.919  0.00  0.00    -0.073 A 
ATOM      7  C8  UNL d   1      -0.880   1.157   3.089  0.00  0.00     0.078 C 
ENDROOT
BRANCH   1   8
ATOM      8  C1  UNL d   1      -2.226   0.625   0.440  0.00  0.00     0.053 C 
ATOM      9  C   UNL d   1      -1.874  -0.854   0.399  0.00  0.00     0.018 C 
ENDBRANCH   1   8
TORSDOF 1
ENDMDL
