MODEL 1
REMARK minimizedAffinity 7.48631144
REMARK minimizedRMSD -1
REMARK  0 active torsions:
REMARK  status: ('A' for Active; 'I' for Inactive)
ROOT
ATOM      1  C   UNL d   1      -0.243   2.107   0.881  0.00  0.00     0.124 A 
ATOM      2  C1  UNL d   1      -0.347   1.697  -0.441  0.00  0.00     0.062 A 
ATOM      3  C2  UNL d   1      -0.061   0.380  -0.790  0.00  0.00     0.162 A 
ATOM      4  C3  UNL d   1       0.331  -0.537   0.185  0.00  0.00    -0.034 A 
ATOM      5  C4  UNL d   1       0.434  -0.117   1.512  0.00  0.00     0.162 A 
ATOM      6  C5  UNL d   1       0.147   1.200   1.856  0.00  0.00     0.062 A 
ATOM      7  F   UNL d   1       0.247   1.594   3.134  0.00  0.00    -0.097 F 
ATOM      8  F1  UNL d   1       0.808  -0.973   2.475  0.00  0.00    -0.096 F 
ATOM      9  I   UNL d   1       0.760  -2.507  -0.333  0.00  0.00    -0.060 I 
ATOM     10  F2  UNL d   1      -0.169   0.012  -2.076  0.00  0.00    -0.096 F 
ATOM     11  F3  UNL d   1      -0.723   2.571  -1.386  0.00  0.00    -0.097 F 
ATOM     12  F4  UNL d   1      -0.518   3.374   1.213  0.00  0.00    -0.092 F 
ENDROOT
TORSDOF 0
ENDMDL
