MODEL 1
REMARK minimizedAffinity 4.47896433
REMARK minimizedRMSD -1
REMARK  0 active torsions:
REMARK  status: ('A' for Active; 'I' for Inactive)
ROOT
ATOM      1  C   UNL d   1      -0.012   2.733   0.338  0.00  0.00     0.124 A 
ATOM      2  C1  UNL d   1      -0.152   2.229  -0.948  0.00  0.00     0.062 A 
ATOM      3  C2  UNL d   1      -0.108   0.855  -1.169  0.00  0.00     0.162 A 
ATOM      4  C3  UNL d   1       0.076  -0.024  -0.103  0.00  0.00    -0.034 A 
ATOM      5  C4  UNL d   1       0.218   0.491   1.187  0.00  0.00     0.162 A 
ATOM      6  C5  UNL d   1       0.173   1.864   1.404  0.00  0.00     0.062 A 
ATOM      7  F   UNL d   1       0.309   2.349   2.646  0.00  0.00    -0.097 F 
ATOM      8  F1  UNL d   1       0.396  -0.327   2.236  0.00  0.00    -0.096 F 
ATOM      9  I   UNL d   1       0.143  -2.079  -0.430  0.00  0.00    -0.060 I 
ATOM     10  F2  UNL d   1      -0.246   0.396  -2.422  0.00  0.00    -0.096 F 
ATOM     11  F3  UNL d   1      -0.329   3.066  -1.979  0.00  0.00    -0.097 F 
ATOM     12  F4  UNL d   1      -0.053   4.055   0.548  0.00  0.00    -0.092 F 
ENDROOT
TORSDOF 0
ENDMDL
