MODEL 1
REMARK minimizedAffinity 9.62647629
REMARK minimizedRMSD -1
REMARK  0 active torsions:
REMARK  status: ('A' for Active; 'I' for Inactive)
ROOT
ATOM      1  C   UNL d   1       0.411   0.446   2.478  0.00  0.00     0.124 A 
ATOM      2  C1  UNL d   1       0.601   1.722   1.965  0.00  0.00     0.062 A 
ATOM      3  C2  UNL d   1       0.291   1.995   0.635  0.00  0.00     0.162 A 
ATOM      4  C3  UNL d   1      -0.213   0.990  -0.191  0.00  0.00    -0.034 A 
ATOM      5  C4  UNL d   1      -0.400  -0.291   0.333  0.00  0.00     0.162 A 
ATOM      6  C5  UNL d   1      -0.089  -0.558   1.662  0.00  0.00     0.062 A 
ATOM      7  F   UNL d   1      -0.274  -1.791   2.156  0.00  0.00    -0.097 F 
ATOM      8  F1  UNL d   1      -0.883  -1.280  -0.434  0.00  0.00    -0.096 F 
ATOM      9  I   UNL d   1      -0.676   1.394  -2.179  0.00  0.00    -0.060 I 
ATOM     10  F2  UNL d   1       0.485   3.236   0.166  0.00  0.00    -0.096 F 
ATOM     11  F3  UNL d   1       1.084   2.694   2.751  0.00  0.00    -0.097 F 
ATOM     12  F4  UNL d   1       0.710   0.186   3.757  0.00  0.00    -0.092 F 
ENDROOT
TORSDOF 0
ENDMDL
