MODEL 1
REMARK minimizedAffinity 0.792545319
REMARK minimizedRMSD -1
REMARK  0 active torsions:
REMARK  status: ('A' for Active; 'I' for Inactive)
ROOT
ATOM      1  C   UNL d   1       0.134   1.709   0.535  0.00  0.00     0.124 A 
ATOM      2  C1  UNL d   1       0.054   1.417  -0.820  0.00  0.00     0.062 A 
ATOM      3  C2  UNL d   1       0.016   0.094  -1.250  0.00  0.00     0.162 A 
ATOM      4  C3  UNL d   1       0.057  -0.949  -0.324  0.00  0.00    -0.034 A 
ATOM      5  C4  UNL d   1       0.138  -0.647   1.037  0.00  0.00     0.162 A 
ATOM      6  C5  UNL d   1       0.176   0.677   1.462  0.00  0.00     0.062 A 
ATOM      7  F   UNL d   1       0.253   0.956   2.771  0.00  0.00    -0.097 F 
ATOM      8  F1  UNL d   1       0.178  -1.625   1.954  0.00  0.00    -0.096 F 
ATOM      9  I   UNL d   1      -0.000  -2.928  -0.963  0.00  0.00    -0.060 I 
ATOM     10  F2  UNL d   1      -0.061  -0.158  -2.565  0.00  0.00    -0.096 F 
ATOM     11  F3  UNL d   1       0.015   2.413  -1.717  0.00  0.00    -0.097 F 
ATOM     12  F4  UNL d   1       0.172   2.983   0.946  0.00  0.00    -0.092 F 
ENDROOT
TORSDOF 0
ENDMDL
