MODEL 1
REMARK minimizedAffinity 12.8807487
REMARK minimizedRMSD -1
REMARK  0 active torsions:
REMARK  status: ('A' for Active; 'I' for Inactive)
ROOT
ATOM      1  C   UNL d   1       1.272   4.012   2.155  0.00  0.00     0.124 A 
ATOM      2  C1  UNL d   1       0.597   2.805   2.274  0.00  0.00     0.062 A 
ATOM      3  C2  UNL d   1      -0.004   2.225   1.161  0.00  0.00     0.162 A 
ATOM      4  C3  UNL d   1       0.068   2.852  -0.084  0.00  0.00    -0.034 A 
ATOM      5  C4  UNL d   1       0.748   4.066  -0.196  0.00  0.00     0.162 A 
ATOM      6  C5  UNL d   1       1.347   4.641   0.920  0.00  0.00     0.062 A 
ATOM      7  F   UNL d   1       1.998   5.807   0.803  0.00  0.00    -0.097 F 
ATOM      8  F1  UNL d   1       0.836   4.695  -1.377  0.00  0.00    -0.096 F 
ATOM      9  I   UNL d   1      -0.830   1.989  -1.751  0.00  0.00    -0.060 I 
ATOM     10  F2  UNL d   1      -0.650   1.059   1.306  0.00  0.00    -0.096 F 
ATOM     11  F3  UNL d   1       0.523   2.195   3.466  0.00  0.00    -0.097 F 
ATOM     12  F4  UNL d   1       1.849   4.567   3.228  0.00  0.00    -0.092 F 
ENDROOT
TORSDOF 0
ENDMDL
