MODEL 1
REMARK minimizedAffinity 13.2270155
REMARK minimizedRMSD -1
REMARK  0 active torsions:
REMARK  status: ('A' for Active; 'I' for Inactive)
ROOT
ATOM      1  C   UNL d   1       3.359  -3.086  -0.703  0.00  0.00     0.124 A 
ATOM      2  C1  UNL d   1       4.417  -2.376  -1.253  0.00  0.00     0.062 A 
ATOM      3  C2  UNL d   1       4.978  -2.780  -2.461  0.00  0.00     0.162 A 
ATOM      4  C3  UNL d   1       4.482  -3.900  -3.128  0.00  0.00    -0.034 A 
ATOM      5  C4  UNL d   1       3.419  -4.610  -2.568  0.00  0.00     0.162 A 
ATOM      6  C5  UNL d   1       2.861  -4.202  -1.360  0.00  0.00     0.062 A 
ATOM      7  F   UNL d   1       1.839  -4.889  -0.830  0.00  0.00    -0.097 F 
ATOM      8  F1  UNL d   1       2.917  -5.692  -3.182  0.00  0.00    -0.096 F 
ATOM      9  I   UNL d   1       5.319  -4.508  -4.934  0.00  0.00    -0.060 I 
ATOM     10  F2  UNL d   1       6.000  -2.075  -2.970  0.00  0.00    -0.096 F 
ATOM     11  F3  UNL d   1       4.900  -1.297  -0.620  0.00  0.00    -0.097 F 
ATOM     12  F4  UNL d   1       2.821  -2.695   0.460  0.00  0.00    -0.092 F 
ENDROOT
TORSDOF 0
ENDMDL
