MODEL 1
REMARK minimizedAffinity 7.33227444
REMARK minimizedRMSD -1
REMARK  0 active torsions:
REMARK  status: ('A' for Active; 'I' for Inactive)
ROOT
ATOM      1  C   UNL d   1      -1.441  -3.248  -3.875  0.00  0.00     0.124 A 
ATOM      2  C1  UNL d   1      -1.285  -3.794  -2.608  0.00  0.00     0.062 A 
ATOM      3  C2  UNL d   1      -0.429  -3.195  -1.688  0.00  0.00     0.162 A 
ATOM      4  C3  UNL d   1       0.277  -2.042  -2.031  0.00  0.00    -0.034 A 
ATOM      5  C4  UNL d   1       0.116  -1.500  -3.307  0.00  0.00     0.162 A 
ATOM      6  C5  UNL d   1      -0.740  -2.102  -4.223  0.00  0.00     0.062 A 
ATOM      7  F   UNL d   1      -0.889  -1.572  -5.446  0.00  0.00    -0.097 F 
ATOM      8  F1  UNL d   1       0.780  -0.392  -3.669  0.00  0.00    -0.096 F 
ATOM      9  I   UNL d   1       1.558  -1.144  -0.658  0.00  0.00    -0.060 I 
ATOM     10  F2  UNL d   1      -0.298  -3.745  -0.471  0.00  0.00    -0.096 F 
ATOM     11  F3  UNL d   1      -1.960  -4.902  -2.270  0.00  0.00    -0.097 F 
ATOM     12  F4  UNL d   1      -2.264  -3.826  -4.758  0.00  0.00    -0.092 F 
ENDROOT
TORSDOF 0
ENDMDL
