MODEL 1
REMARK minimizedAffinity 4.81644869
REMARK minimizedRMSD -1
REMARK  0 active torsions:
REMARK  status: ('A' for Active; 'I' for Inactive)
ROOT
ATOM      1  C   UNL d   1       2.567  -2.094   2.057  0.00  0.00     0.020 A 
ATOM      2  C1  UNL d   1       3.243  -1.087   1.369  0.00  0.00     0.020 A 
ATOM      3  C2  UNL d   1       3.029  -0.911   0.000  0.00  0.00     0.034 A 
ATOM      4  C3  UNL d   1       2.138  -1.745  -0.686  0.00  0.00     0.017 A 
ATOM      5  C4  UNL d   1       1.460  -2.756   0.006  0.00  0.00     0.017 A 
ATOM      6  C5  UNL d   1       1.677  -2.926   1.376  0.00  0.00     0.034 A 
ATOM      7 Cl   UNL d   1       0.345  -3.823  -0.772  0.00  0.00    -0.070 Cl
ATOM      8 Cl1  UNL d   1       1.922  -1.471  -2.378  0.00  0.00    -0.070 Cl
ENDROOT
TORSDOF 0
ENDMDL
