MODEL 1
REMARK minimizedAffinity 2.7845397
REMARK minimizedRMSD -1
REMARK  0 active torsions:
REMARK  status: ('A' for Active; 'I' for Inactive)
ROOT
ATOM      1  C   UNL d   1       1.748  -2.072  -0.253  0.00  0.00     0.020 A 
ATOM      2  C1  UNL d   1       3.094  -1.940   0.085  0.00  0.00     0.020 A 
ATOM      3  C2  UNL d   1       3.597  -0.698   0.478  0.00  0.00     0.034 A 
ATOM      4  C3  UNL d   1       2.753   0.417   0.534  0.00  0.00     0.017 A 
ATOM      5  C4  UNL d   1       1.402   0.284   0.194  0.00  0.00     0.017 A 
ATOM      6  C5  UNL d   1       0.904  -0.962  -0.199  0.00  0.00     0.034 A 
ATOM      7 Cl   UNL d   1       0.299   1.614   0.238  0.00  0.00    -0.070 Cl
ATOM      8 Cl1  UNL d   1       3.442   1.923   1.028  0.00  0.00    -0.070 Cl
ENDROOT
TORSDOF 0
ENDMDL
