MODEL 1
REMARK minimizedAffinity -0.56338948
REMARK minimizedRMSD -1
REMARK  0 active torsions:
REMARK  status: ('A' for Active; 'I' for Inactive)
ROOT
ATOM      1  C   UNL d   1       2.417  -2.048  -0.084  0.00  0.00     0.020 A 
ATOM      2  C1  UNL d   1       1.376  -1.738  -0.958  0.00  0.00     0.020 A 
ATOM      3  C2  UNL d   1       0.884  -0.433  -1.021  0.00  0.00     0.034 A 
ATOM      4  C3  UNL d   1       1.431   0.567  -0.209  0.00  0.00     0.017 A 
ATOM      5  C4  UNL d   1       2.476   0.254   0.669  0.00  0.00     0.017 A 
ATOM      6  C5  UNL d   1       2.965  -1.055   0.728  0.00  0.00     0.034 A 
ATOM      7 Cl   UNL d   1       3.203   1.433   1.703  0.00  0.00    -0.070 Cl
ATOM      8 Cl1  UNL d   1       0.773   2.159  -0.339  0.00  0.00    -0.070 Cl
ENDROOT
TORSDOF 0
ENDMDL
