MODEL 1
REMARK minimizedAffinity 2.09980536
REMARK minimizedRMSD -1
REMARK  0 active torsions:
REMARK  status: ('A' for Active; 'I' for Inactive)
ROOT
ATOM      1  C   UNL d   1       2.267   0.299   0.007  0.00  0.00     0.020 A 
ATOM      2  C1  UNL d   1       1.831  -0.578  -0.986  0.00  0.00     0.020 A 
ATOM      3  C2  UNL d   1       0.485  -0.601  -1.355  0.00  0.00     0.034 A 
ATOM      4  C3  UNL d   1      -0.431   0.254  -0.731  0.00  0.00     0.017 A 
ATOM      5  C4  UNL d   1       0.007   1.133   0.265  0.00  0.00     0.017 A 
ATOM      6  C5  UNL d   1       1.356   1.153   0.631  0.00  0.00     0.034 A 
ATOM      7 Cl   UNL d   1      -1.064   2.218   1.080  0.00  0.00    -0.070 Cl
ATOM      8 Cl1  UNL d   1      -2.081   0.171  -1.238  0.00  0.00    -0.070 Cl
ENDROOT
TORSDOF 0
ENDMDL
