MODEL 1
REMARK minimizedAffinity 9.02493763
REMARK minimizedRMSD -1
REMARK  0 active torsions:
REMARK  status: ('A' for Active; 'I' for Inactive)
ROOT
ATOM      1  C   UNL d   1      -2.886   1.855  -4.617  0.00  0.00     0.020 A 
ATOM      2  C1  UNL d   1      -4.184   1.455  -4.303  0.00  0.00     0.020 A 
ATOM      3  C2  UNL d   1      -4.415   0.640  -3.193  0.00  0.00     0.034 A 
ATOM      4  C3  UNL d   1      -3.345   0.223  -2.392  0.00  0.00     0.017 A 
ATOM      5  C4  UNL d   1      -2.043   0.625  -2.708  0.00  0.00     0.017 A 
ATOM      6  C5  UNL d   1      -1.817   1.441  -3.821  0.00  0.00     0.034 A 
ATOM      7 Cl   UNL d   1      -0.672   0.150  -1.767  0.00  0.00    -0.070 Cl
ATOM      8 Cl1  UNL d   1      -3.704  -0.784  -1.034  0.00  0.00    -0.070 Cl
ENDROOT
TORSDOF 0
ENDMDL
