MODEL 1
REMARK minimizedAffinity 7.49250555
REMARK minimizedRMSD -1
REMARK  0 active torsions:
REMARK  status: ('A' for Active; 'I' for Inactive)
ROOT
ATOM      1  C   UNL d   1       2.914  -1.000   0.509  0.00  0.00     0.020 A 
ATOM      2  C1  UNL d   1       2.762  -2.191   1.218  0.00  0.00     0.020 A 
ATOM      3  C2  UNL d   1       1.734  -3.076   0.885  0.00  0.00     0.034 A 
ATOM      4  C3  UNL d   1       0.854  -2.771  -0.160  0.00  0.00     0.017 A 
ATOM      5  C4  UNL d   1       1.008  -1.575  -0.871  0.00  0.00     0.017 A 
ATOM      6  C5  UNL d   1       2.039  -0.693  -0.534  0.00  0.00     0.034 A 
ATOM      7 Cl   UNL d   1      -0.039  -1.130  -2.173  0.00  0.00    -0.070 Cl
ATOM      8 Cl1  UNL d   1      -0.394  -3.911  -0.518  0.00  0.00    -0.070 Cl
ENDROOT
TORSDOF 0
ENDMDL
