MODEL 1
REMARK minimizedAffinity 7.73366261
REMARK minimizedRMSD -1
REMARK  0 active torsions:
REMARK  status: ('A' for Active; 'I' for Inactive)
ROOT
ATOM      1  C   UNL d   1       3.645  -1.133   1.914  0.00  0.00     0.020 A 
ATOM      2  C1  UNL d   1       3.398  -2.198   1.048  0.00  0.00     0.020 A 
ATOM      3  C2  UNL d   1       2.621  -2.003  -0.095  0.00  0.00     0.034 A 
ATOM      4  C3  UNL d   1       2.087  -0.740  -0.376  0.00  0.00     0.017 A 
ATOM      5  C4  UNL d   1       2.335   0.328   0.493  0.00  0.00     0.017 A 
ATOM      6  C5  UNL d   1       3.114   0.127   1.636  0.00  0.00     0.034 A 
ATOM      7 Cl   UNL d   1       1.710   1.915   0.213  0.00  0.00    -0.070 Cl
ATOM      8 Cl1  UNL d   1       1.135  -0.571  -1.808  0.00  0.00    -0.070 Cl
ENDROOT
TORSDOF 0
ENDMDL
