MODEL 1
REMARK minimizedAffinity 8.52600861
REMARK minimizedRMSD -1
REMARK  0 active torsions:
REMARK  status: ('A' for Active; 'I' for Inactive)
ROOT
ATOM      1  C   UNL d   1       1.597  -1.809  -0.263  0.00  0.00     0.020 A 
ATOM      2  C1  UNL d   1       2.924  -1.381  -0.242  0.00  0.00     0.020 A 
ATOM      3  C2  UNL d   1       3.219  -0.034  -0.021  0.00  0.00     0.034 A 
ATOM      4  C3  UNL d   1       2.186   0.889   0.178  0.00  0.00     0.017 A 
ATOM      5  C4  UNL d   1       0.854   0.458   0.157  0.00  0.00     0.017 A 
ATOM      6  C5  UNL d   1       0.565  -0.892  -0.064  0.00  0.00     0.034 A 
ATOM      7 Cl   UNL d   1      -0.474   1.538   0.395  0.00  0.00    -0.070 Cl
ATOM      8 Cl1  UNL d   1       2.624   2.539   0.446  0.00  0.00    -0.070 Cl
ENDROOT
TORSDOF 0
ENDMDL
