MODEL 1
REMARK minimizedAffinity 4.57715702
REMARK minimizedRMSD -1
REMARK  0 active torsions:
REMARK  status: ('A' for Active; 'I' for Inactive)
ROOT
ATOM      1  C   UNL d   1       2.803  -1.502   0.954  0.00  0.00     0.020 A 
ATOM      2  C1  UNL d   1       3.391  -0.287   1.302  0.00  0.00     0.020 A 
ATOM      3  C2  UNL d   1       4.147   0.418   0.363  0.00  0.00     0.034 A 
ATOM      4  C3  UNL d   1       4.317  -0.092  -0.929  0.00  0.00     0.017 A 
ATOM      5  C4  UNL d   1       3.727  -1.311  -1.278  0.00  0.00     0.017 A 
ATOM      6  C5  UNL d   1       2.971  -2.013  -0.334  0.00  0.00     0.034 A 
ATOM      7 Cl   UNL d   1       3.892  -2.004  -2.853  0.00  0.00    -0.070 Cl
ATOM      8 Cl1  UNL d   1       5.264   0.833  -2.039  0.00  0.00    -0.070 Cl
ENDROOT
TORSDOF 0
ENDMDL
