MODEL 1
REMARK minimizedAffinity 10.2256985
REMARK minimizedRMSD -1
REMARK  0 active torsions:
REMARK  status: ('A' for Active; 'I' for Inactive)
ROOT
ATOM      1  C   UNL d   1       0.645   2.330   0.200  0.00  0.00     0.020 A 
ATOM      2  C1  UNL d   1      -0.478   1.925   0.920  0.00  0.00     0.020 A 
ATOM      3  C2  UNL d   1      -0.365   1.630   2.281  0.00  0.00     0.034 A 
ATOM      4  C3  UNL d   1       0.872   1.740   2.925  0.00  0.00     0.017 A 
ATOM      5  C4  UNL d   1       1.999   2.147   2.201  0.00  0.00     0.017 A 
ATOM      6  C5  UNL d   1       1.881   2.441   0.839  0.00  0.00     0.034 A 
ATOM      7 Cl   UNL d   1       3.559   2.306   2.927  0.00  0.00    -0.070 Cl
ATOM      8 Cl1  UNL d   1       0.938   1.359   4.609  0.00  0.00    -0.070 Cl
ENDROOT
TORSDOF 0
ENDMDL
