MODEL 1
REMARK minimizedAffinity 12.0758801
REMARK minimizedRMSD -1
REMARK  0 active torsions:
REMARK  status: ('A' for Active; 'I' for Inactive)
ROOT
ATOM      1  C   UNL d   1       2.453  -2.090   2.309  0.00  0.00     0.020 A 
ATOM      2  C1  UNL d   1       3.575  -1.411   1.837  0.00  0.00     0.020 A 
ATOM      3  C2  UNL d   1       3.783  -1.277   0.463  0.00  0.00     0.034 A 
ATOM      4  C3  UNL d   1       2.868  -1.823  -0.444  0.00  0.00     0.017 A 
ATOM      5  C4  UNL d   1       1.741  -2.504   0.031  0.00  0.00     0.017 A 
ATOM      6  C5  UNL d   1       1.538  -2.635   1.408  0.00  0.00     0.034 A 
ATOM      7 Cl   UNL d   1       0.568  -3.205  -1.027  0.00  0.00    -0.070 Cl
ATOM      8 Cl1  UNL d   1       3.188  -1.619  -2.130  0.00  0.00    -0.070 Cl
ENDROOT
TORSDOF 0
ENDMDL
