MODEL 1
REMARK minimizedAffinity 4.89272976
REMARK minimizedRMSD -1
REMARK  0 active torsions:
REMARK  status: ('A' for Active; 'I' for Inactive)
ROOT
ATOM      1  C   UNL d   1       2.830  -0.869  -0.620  0.00  0.00     0.020 A 
ATOM      2  C1  UNL d   1       3.246  -1.437  -1.824  0.00  0.00     0.020 A 
ATOM      3  C2  UNL d   1       2.322  -1.657  -2.848  0.00  0.00     0.034 A 
ATOM      4  C3  UNL d   1       0.978  -1.308  -2.670  0.00  0.00     0.017 A 
ATOM      5  C4  UNL d   1       0.562  -0.739  -1.462  0.00  0.00     0.017 A 
ATOM      6  C5  UNL d   1       1.491  -0.521  -0.440  0.00  0.00     0.034 A 
ATOM      7 Cl   UNL d   1      -1.079  -0.283  -1.169  0.00  0.00    -0.070 Cl
ATOM      8 Cl1  UNL d   1      -0.109  -1.608  -3.980  0.00  0.00    -0.070 Cl
ENDROOT
TORSDOF 0
ENDMDL
