MODEL 1
REMARK minimizedAffinity -4.67137623
REMARK minimizedRMSD -1
REMARK  0 active torsions:
REMARK  status: ('A' for Active; 'I' for Inactive)
ROOT
ATOM      1  C   UNL d   1      -0.145  -0.030   2.952  0.00  0.00     0.023 A 
ATOM      2  C1  UNL d   1       1.138  -0.104   2.409  0.00  0.00     0.003 A 
ATOM      3  C2  UNL d   1       1.308  -0.242   1.030  0.00  0.00     0.048 A 
ATOM      4  C3  UNL d   1       0.190  -0.304   0.199  0.00  0.00     0.023 A 
ATOM      5  C4  UNL d   1      -1.096  -0.229   0.737  0.00  0.00     0.048 A 
ATOM      6  C5  UNL d   1      -1.261  -0.092   2.117  0.00  0.00     0.003 A 
ATOM      7  I   UNL d   1       0.440  -0.509  -1.854  0.00  0.00    -0.146 I 
ENDROOT
TORSDOF 0
ENDMDL
