MODEL 1
REMARK minimizedAffinity 1.42395747
REMARK minimizedRMSD -1
REMARK  0 active torsions:
REMARK  status: ('A' for Active; 'I' for Inactive)
ROOT
ATOM      1  C   UNL d   1      -1.845  -0.000   0.345  0.00  0.00     0.023 A 
ATOM      2  C1  UNL d   1      -0.633  -0.648   0.588  0.00  0.00     0.003 A 
ATOM      3  C2  UNL d   1       0.355  -0.677  -0.398  0.00  0.00     0.048 A 
ATOM      4  C3  UNL d   1       0.125  -0.055  -1.625  0.00  0.00     0.023 A 
ATOM      5  C4  UNL d   1      -1.085   0.595  -1.872  0.00  0.00     0.048 A 
ATOM      6  C5  UNL d   1      -2.070   0.620  -0.884  0.00  0.00     0.003 A 
ATOM      7  I   UNL d   1       1.594  -0.097  -3.095  0.00  0.00    -0.146 I 
ENDROOT
TORSDOF 0
ENDMDL
