MODEL 1
REMARK minimizedAffinity -0.298949122
REMARK minimizedRMSD -1
REMARK  0 active torsions:
REMARK  status: ('A' for Active; 'I' for Inactive)
ROOT
ATOM      1  C   UNL d   1      -2.427   0.066   0.660  0.00  0.00     0.023 A 
ATOM      2  C1  UNL d   1      -1.147  -0.229   1.129  0.00  0.00     0.003 A 
ATOM      3  C2  UNL d   1      -0.062  -0.226   0.250  0.00  0.00     0.048 A 
ATOM      4  C3  UNL d   1      -0.264   0.074  -1.096  0.00  0.00     0.023 A 
ATOM      5  C4  UNL d   1      -1.542   0.372  -1.570  0.00  0.00     0.048 A 
ATOM      6  C5  UNL d   1      -2.624   0.367  -0.688  0.00  0.00     0.003 A 
ATOM      7  I   UNL d   1       1.350   0.080  -2.407  0.00  0.00    -0.146 I 
ENDROOT
TORSDOF 0
ENDMDL
