MODEL 1
REMARK minimizedAffinity -2.83317995
REMARK minimizedRMSD -1
REMARK  0 active torsions:
REMARK  status: ('A' for Active; 'I' for Inactive)
ROOT
ATOM      1  C   UNL d   1       0.083  -0.316   3.159  0.00  0.00     0.023 A 
ATOM      2  C1  UNL d   1       1.032   0.500   2.542  0.00  0.00     0.003 A 
ATOM      3  C2  UNL d   1       1.098   0.564   1.148  0.00  0.00     0.048 A 
ATOM      4  C3  UNL d   1       0.213  -0.188   0.378  0.00  0.00     0.023 A 
ATOM      5  C4  UNL d   1      -0.739  -1.005   0.991  0.00  0.00     0.048 A 
ATOM      6  C5  UNL d   1      -0.801  -1.067   2.384  0.00  0.00     0.003 A 
ATOM      7  I   UNL d   1       0.310  -0.094  -1.696  0.00  0.00    -0.146 I 
ENDROOT
TORSDOF 0
ENDMDL
