MODEL 1
REMARK minimizedAffinity 3.12808037
REMARK minimizedRMSD -1
REMARK  0 active torsions:
REMARK  status: ('A' for Active; 'I' for Inactive)
ROOT
ATOM      1  C   UNL d   1       2.619  -0.920  -4.300  0.00  0.00     0.023 A 
ATOM      2  C1  UNL d   1       3.847  -1.174  -4.911  0.00  0.00     0.003 A 
ATOM      3  C2  UNL d   1       4.689  -0.115  -5.255  0.00  0.00     0.048 A 
ATOM      4  C3  UNL d   1       4.299   1.196  -4.984  0.00  0.00     0.023 A 
ATOM      5  C4  UNL d   1       3.072   1.455  -4.371  0.00  0.00     0.048 A 
ATOM      6  C5  UNL d   1       2.232   0.393  -4.030  0.00  0.00     0.003 A 
ATOM      7  I   UNL d   1       5.552   2.773  -5.494  0.00  0.00    -0.146 I 
ENDROOT
TORSDOF 0
ENDMDL
