MODEL 1
REMARK minimizedAffinity -2.32152939
REMARK minimizedRMSD -1
REMARK  0 active torsions:
REMARK  status: ('A' for Active; 'I' for Inactive)
ROOT
ATOM      1  C   UNL d   1       1.638   0.313   1.086  0.00  0.00     0.023 A 
ATOM      2  C1  UNL d   1       0.690   0.328   0.063  0.00  0.00     0.003 A 
ATOM      3  C2  UNL d   1      -0.652   0.576   0.356  0.00  0.00     0.048 A 
ATOM      4  C3  UNL d   1      -1.040   0.810   1.675  0.00  0.00     0.023 A 
ATOM      5  C4  UNL d   1      -0.095   0.797   2.702  0.00  0.00     0.048 A 
ATOM      6  C5  UNL d   1       1.246   0.547   2.404  0.00  0.00     0.003 A 
ATOM      7  I   UNL d   1      -3.037   1.179   2.114  0.00  0.00    -0.146 I 
ENDROOT
TORSDOF 0
ENDMDL
