MODEL 1
REMARK minimizedAffinity -2.12242055
REMARK minimizedRMSD -1
REMARK  0 active torsions:
REMARK  status: ('A' for Active; 'I' for Inactive)
ROOT
ATOM      1  C   UNL d   1      -0.216   0.228   3.085  0.00  0.00     0.023 A 
ATOM      2  C1  UNL d   1      -1.217  -0.344   2.300  0.00  0.00     0.003 A 
ATOM      3  C2  UNL d   1      -1.064  -0.417   0.914  0.00  0.00     0.048 A 
ATOM      4  C3  UNL d   1       0.093   0.084   0.319  0.00  0.00     0.023 A 
ATOM      5  C4  UNL d   1       1.098   0.657   1.100  0.00  0.00     0.048 A 
ATOM      6  C5  UNL d   1       0.941   0.729   2.485  0.00  0.00     0.003 A 
ATOM      7  I   UNL d   1       0.323  -0.023  -1.744  0.00  0.00    -0.146 I 
ENDROOT
TORSDOF 0
ENDMDL
