MODEL 1
REMARK minimizedAffinity 1.43107879
REMARK minimizedRMSD -1
REMARK  0 active torsions:
REMARK  status: ('A' for Active; 'I' for Inactive)
ROOT
ATOM      1  C   UNL d   1      -0.024   0.252   2.912  0.00  0.00     0.023 A 
ATOM      2  C1  UNL d   1      -1.061  -0.333   2.186  0.00  0.00     0.003 A 
ATOM      3  C2  UNL d   1      -0.960  -0.457   0.799  0.00  0.00     0.048 A 
ATOM      4  C3  UNL d   1       0.181   0.005   0.144  0.00  0.00     0.023 A 
ATOM      5  C4  UNL d   1       1.222   0.591   0.867  0.00  0.00     0.048 A 
ATOM      6  C5  UNL d   1       1.116   0.714   2.254  0.00  0.00     0.003 A 
ATOM      7  I   UNL d   1       0.334  -0.179  -1.920  0.00  0.00    -0.146 I 
ENDROOT
TORSDOF 0
ENDMDL
