MODEL 1
REMARK minimizedAffinity 0.771821022
REMARK minimizedRMSD -1
REMARK  0 active torsions:
REMARK  status: ('A' for Active; 'I' for Inactive)
ROOT
ATOM      1  C   UNL d   1      -0.254   0.018   1.695  0.00  0.00     0.023 A 
ATOM      2  C1  UNL d   1      -1.098  -0.618   0.785  0.00  0.00     0.003 A 
ATOM      3  C2  UNL d   1      -0.752  -0.679  -0.567  0.00  0.00     0.048 A 
ATOM      4  C3  UNL d   1       0.441  -0.103  -1.001  0.00  0.00     0.023 A 
ATOM      5  C4  UNL d   1       1.290   0.534  -0.094  0.00  0.00     0.048 A 
ATOM      6  C5  UNL d   1       0.939   0.593   1.256  0.00  0.00     0.003 A 
ATOM      7  I   UNL d   1       0.959  -0.192  -3.012  0.00  0.00    -0.146 I 
ENDROOT
TORSDOF 0
ENDMDL
