MODEL 1
REMARK minimizedAffinity -1.93167388
REMARK minimizedRMSD -1
REMARK  0 active torsions:
REMARK  status: ('A' for Active; 'I' for Inactive)
ROOT
ATOM      1  C   UNL d   1      -2.446  -0.290   3.145  0.00  0.00     0.023 A 
ATOM      2  C1  UNL d   1      -3.099  -0.167   1.918  0.00  0.00     0.003 A 
ATOM      3  C2  UNL d   1      -2.361  -0.133   0.733  0.00  0.00     0.048 A 
ATOM      4  C3  UNL d   1      -0.971  -0.225   0.782  0.00  0.00     0.023 A 
ATOM      5  C4  UNL d   1      -0.313  -0.349   2.007  0.00  0.00     0.048 A 
ATOM      6  C5  UNL d   1      -1.055  -0.381   3.189  0.00  0.00     0.003 A 
ATOM      7  I   UNL d   1       0.130  -0.176  -0.981  0.00  0.00    -0.146 I 
ENDROOT
TORSDOF 0
ENDMDL
