MODEL 1
REMARK minimizedAffinity -1.49568868
REMARK minimizedRMSD -1
REMARK  0 active torsions:
REMARK  status: ('A' for Active; 'I' for Inactive)
ROOT
ATOM      1  C   UNL d   1      -0.197   0.824   2.670  0.00  0.00     0.023 A 
ATOM      2  C1  UNL d   1      -1.170   0.369   1.780  0.00  0.00     0.003 A 
ATOM      3  C2  UNL d   1      -0.805  -0.050   0.499  0.00  0.00     0.048 A 
ATOM      4  C3  UNL d   1       0.535  -0.014   0.115  0.00  0.00     0.023 A 
ATOM      5  C4  UNL d   1       1.513   0.439   1.003  0.00  0.00     0.048 A 
ATOM      6  C5  UNL d   1       1.143   0.859   2.283  0.00  0.00     0.003 A 
ATOM      7  I   UNL d   1       1.081  -0.638  -1.790  0.00  0.00    -0.146 I 
ENDROOT
TORSDOF 0
ENDMDL
