MODEL 1
REMARK minimizedAffinity -3.10631251
REMARK minimizedRMSD -1
REMARK  0 active torsions:
REMARK  status: ('A' for Active; 'I' for Inactive)
ROOT
ATOM      1  C   UNL d   1      -1.303   0.812   3.070  0.00  0.00     0.023 A 
ATOM      2  C1  UNL d   1       0.050   0.586   2.818  0.00  0.00     0.003 A 
ATOM      3  C2  UNL d   1       0.479   0.277   1.525  0.00  0.00     0.048 A 
ATOM      4  C3  UNL d   1      -0.451   0.197   0.489  0.00  0.00     0.023 A 
ATOM      5  C4  UNL d   1      -1.806   0.423   0.737  0.00  0.00     0.048 A 
ATOM      6  C5  UNL d   1      -2.230   0.730   2.031  0.00  0.00     0.003 A 
ATOM      7  I   UNL d   1       0.184  -0.262  -1.436  0.00  0.00    -0.146 I 
ENDROOT
TORSDOF 0
ENDMDL
