MODEL 1
REMARK minimizedAffinity 0.609686911
REMARK minimizedRMSD -1
REMARK  0 active torsions:
REMARK  status: ('A' for Active; 'I' for Inactive)
ROOT
ATOM      1  C1  DEN d   1      -0.133  -3.324   2.389  0.00  0.00     0.130 A 
ATOM      2  C2  DEN d   1      -0.947  -2.139   2.642  0.00  0.00    -0.031 A 
ATOM      3  C3  DEN d   1      -1.302  -1.541   1.339  0.00  0.00     0.027 A 
ATOM      4  C4  DEN d   1      -0.675  -2.334  -1.034  0.00  0.00     0.027 A 
ATOM      5  C5  DEN d   1       0.013  -3.286  -1.754  0.00  0.00    -0.003 A 
ATOM      6  C6  DEN d   1       0.723  -4.288  -1.149  0.00  0.00     0.001 A 
ATOM      7  C7  DEN d   1       0.724  -4.390   0.217  0.00  0.00     0.017 A 
ATOM      8  C8  DEN d   1       0.039  -3.430   0.951  0.00  0.00    -0.094 A 
ATOM      9  C9  DEN d   1      -0.683  -2.431   0.320  0.00  0.00    -0.072 A 
ENDROOT
TORSDOF 0
ENDMDL
