MODEL 1
REMARK minimizedAffinity 7.1568861
REMARK minimizedRMSD -1
REMARK  0 active torsions:
REMARK  status: ('A' for Active; 'I' for Inactive)
ROOT
ATOM      1  C1  DEN d   1      -0.100   0.656  -1.850  0.00  0.00     0.130 A 
ATOM      2  C2  DEN d   1       1.312   0.680  -1.478  0.00  0.00    -0.031 A 
ATOM      3  C3  DEN d   1       1.550   1.888  -0.663  0.00  0.00     0.027 A 
ATOM      4  C4  DEN d   1      -0.124   3.712   0.060  0.00  0.00     0.027 A 
ATOM      5  C5  DEN d   1      -1.434   4.130  -0.022  0.00  0.00    -0.003 A 
ATOM      6  C6  DEN d   1      -2.376   3.443  -0.742  0.00  0.00     0.001 A 
ATOM      7  C7  DEN d   1      -2.031   2.275  -1.371  0.00  0.00     0.017 A 
ATOM      8  C8  DEN d   1      -0.711   1.852  -1.298  0.00  0.00    -0.094 A 
ATOM      9  C9  DEN d   1       0.224   2.554  -0.556  0.00  0.00    -0.072 A 
ENDROOT
TORSDOF 0
ENDMDL
