MODEL 1
REMARK minimizedAffinity -0.144380674
REMARK minimizedRMSD -1
REMARK  0 active torsions:
REMARK  status: ('A' for Active; 'I' for Inactive)
ROOT
ATOM      1  C1  DEN d   1      -0.557  -0.985  -0.509  0.00  0.00     0.130 A 
ATOM      2  C2  DEN d   1      -0.802  -1.999   0.512  0.00  0.00    -0.031 A 
ATOM      3  C3  DEN d   1      -0.389  -3.307  -0.035  0.00  0.00     0.027 A 
ATOM      4  C4  DEN d   1       0.605  -3.856  -2.351  0.00  0.00     0.027 A 
ATOM      5  C5  DEN d   1       0.987  -3.325  -3.563  0.00  0.00    -0.003 A 
ATOM      6  C6  DEN d   1       0.850  -1.993  -3.853  0.00  0.00     0.001 A 
ATOM      7  C7  DEN d   1       0.361  -1.139  -2.900  0.00  0.00     0.017 A 
ATOM      8  C8  DEN d   1      -0.033  -1.668  -1.678  0.00  0.00    -0.094 A 
ATOM      9  C9  DEN d   1       0.124  -3.015  -1.401  0.00  0.00    -0.072 A 
ENDROOT
TORSDOF 0
ENDMDL
