MODEL 1
REMARK minimizedAffinity -3.8185761
REMARK minimizedRMSD -1
REMARK  0 active torsions:
REMARK  status: ('A' for Active; 'I' for Inactive)
ROOT
ATOM      1  C1  DEN d   1      -0.890  -1.162   1.164  0.00  0.00     0.130 A 
ATOM      2  C2  DEN d   1      -0.863  -1.945   2.396  0.00  0.00    -0.031 A 
ATOM      3  C3  DEN d   1      -0.321  -3.281   2.076  0.00  0.00     0.027 A 
ATOM      4  C4  DEN d   1       0.477  -4.206  -0.196  0.00  0.00     0.027 A 
ATOM      5  C5  DEN d   1       0.635  -3.916  -1.533  0.00  0.00    -0.003 A 
ATOM      6  C6  DEN d   1       0.267  -2.710  -2.067  0.00  0.00     0.001 A 
ATOM      7  C7  DEN d   1      -0.236  -1.732  -1.251  0.00  0.00     0.017 A 
ATOM      8  C8  DEN d   1      -0.405  -2.019   0.097  0.00  0.00    -0.094 A 
ATOM      9  C9  DEN d   1      -0.015  -3.240   0.620  0.00  0.00    -0.072 A 
ENDROOT
TORSDOF 0
ENDMDL
