MODEL 1
REMARK minimizedAffinity 6.73750973
REMARK minimizedRMSD -1
REMARK  0 active torsions:
REMARK  status: ('A' for Active; 'I' for Inactive)
ROOT
ATOM      1  C1  DEN d   1      -1.456  -1.679   1.230  0.00  0.00     0.130 A 
ATOM      2  C2  DEN d   1      -0.999  -3.057   1.079  0.00  0.00    -0.031 A 
ATOM      3  C3  DEN d   1      -0.155  -3.128  -0.131  0.00  0.00     0.027 A 
ATOM      4  C4  DEN d   1       0.490  -1.246  -1.772  0.00  0.00     0.027 A 
ATOM      5  C5  DEN d   1       0.333   0.090  -2.065  0.00  0.00    -0.003 A 
ATOM      6  C6  DEN d   1      -0.452   0.917  -1.306  0.00  0.00     0.001 A 
ATOM      7  C7  DEN d   1      -1.074   0.425  -0.189  0.00  0.00     0.017 A 
ATOM      8  C8  DEN d   1      -0.927  -0.924   0.108  0.00  0.00    -0.094 A 
ATOM      9  C9  DEN d   1      -0.119  -1.740  -0.665  0.00  0.00    -0.072 A 
ENDROOT
TORSDOF 0
ENDMDL
