MODEL 1
REMARK minimizedAffinity 11.4552546
REMARK minimizedRMSD -1
REMARK  0 active torsions:
REMARK  status: ('A' for Active; 'I' for Inactive)
ROOT
ATOM      1  C1  DEN d   1       0.967   0.221  -0.717  0.00  0.00     0.130 A 
ATOM      2  C2  DEN d   1       1.632   0.759  -1.901  0.00  0.00    -0.031 A 
ATOM      3  C3  DEN d   1       1.507  -0.235  -2.986  0.00  0.00     0.027 A 
ATOM      4  C4  DEN d   1       0.351  -2.541  -2.949  0.00  0.00     0.027 A 
ATOM      5  C5  DEN d   1      -0.343  -3.436  -2.165  0.00  0.00    -0.003 A 
ATOM      6  C6  DEN d   1      -0.616  -3.193  -0.846  0.00  0.00     0.001 A 
ATOM      7  C7  DEN d   1      -0.233  -2.005  -0.281  0.00  0.00     0.017 A 
ATOM      8  C8  DEN d   1       0.473  -1.100  -1.063  0.00  0.00    -0.094 A 
ATOM      9  C9  DEN d   1       0.729  -1.359  -2.399  0.00  0.00    -0.072 A 
ENDROOT
TORSDOF 0
ENDMDL
