MODEL 1
REMARK minimizedAffinity 9.99113369
REMARK minimizedRMSD -1
REMARK  0 active torsions:
REMARK  status: ('A' for Active; 'I' for Inactive)
ROOT
ATOM      1  C1  DEN d   1      -1.662   2.168   0.918  0.00  0.00     0.130 A 
ATOM      2  C2  DEN d   1      -2.237   1.106   0.097  0.00  0.00    -0.031 A 
ATOM      3  C3  DEN d   1      -3.222   1.718  -0.817  0.00  0.00     0.027 A 
ATOM      4  C4  DEN d   1      -3.907   4.195  -1.042  0.00  0.00     0.027 A 
ATOM      5  C5  DEN d   1      -3.701   5.466  -0.551  0.00  0.00    -0.003 A 
ATOM      6  C6  DEN d   1      -2.833   5.719   0.478  0.00  0.00     0.001 A 
ATOM      7  C7  DEN d   1      -2.105   4.694   1.020  0.00  0.00     0.017 A 
ATOM      8  C8  DEN d   1      -2.313   3.409   0.536  0.00  0.00    -0.094 A 
ATOM      9  C9  DEN d   1      -3.185   3.175  -0.513  0.00  0.00    -0.072 A 
ENDROOT
TORSDOF 0
ENDMDL
