MODEL 1
REMARK minimizedAffinity 9.63353348
REMARK minimizedRMSD -1
REMARK  0 active torsions:
REMARK  status: ('A' for Active; 'I' for Inactive)
ROOT
ATOM      1  C1  DEN d   1       1.717   0.745  -0.656  0.00  0.00     0.130 A 
ATOM      2  C2  DEN d   1       2.728   1.430  -1.457  0.00  0.00    -0.031 A 
ATOM      3  C3  DEN d   1       2.802   0.758  -2.770  0.00  0.00     0.027 A 
ATOM      4  C4  DEN d   1       1.453  -1.262  -3.637  0.00  0.00     0.027 A 
ATOM      5  C5  DEN d   1       0.487  -2.189  -3.314  0.00  0.00    -0.003 A 
ATOM      6  C6  DEN d   1      -0.108  -2.224  -2.081  0.00  0.00     0.001 A 
ATOM      7  C7  DEN d   1       0.225  -1.286  -1.140  0.00  0.00     0.017 A 
ATOM      8  C8  DEN d   1       1.204  -0.353  -1.456  0.00  0.00    -0.094 A 
ATOM      9  C9  DEN d   1       1.785  -0.326  -2.712  0.00  0.00    -0.072 A 
ENDROOT
TORSDOF 0
ENDMDL
