MODEL 1
REMARK minimizedAffinity 8.8036871
REMARK minimizedRMSD -1
REMARK  0 active torsions:
REMARK  status: ('A' for Active; 'I' for Inactive)
ROOT
ATOM      1  C1  DEN d   1       2.309   0.597  -0.602  0.00  0.00     0.130 A 
ATOM      2  C2  DEN d   1       3.283   1.300  -1.432  0.00  0.00    -0.031 A 
ATOM      3  C3  DEN d   1       3.297   0.659  -2.762  0.00  0.00     0.027 A 
ATOM      4  C4  DEN d   1       1.908  -1.340  -3.614  0.00  0.00     0.027 A 
ATOM      5  C5  DEN d   1       0.956  -2.274  -3.269  0.00  0.00    -0.003 A 
ATOM      6  C6  DEN d   1       0.418  -2.338  -2.011  0.00  0.00     0.001 A 
ATOM      7  C7  DEN d   1       0.795  -1.422  -1.065  0.00  0.00     0.017 A 
ATOM      8  C8  DEN d   1       1.759  -0.482  -1.403  0.00  0.00    -0.094 A 
ATOM      9  C9  DEN d   1       2.282  -0.426  -2.683  0.00  0.00    -0.072 A 
ENDROOT
TORSDOF 0
ENDMDL
