MODEL 1
REMARK minimizedAffinity 3.3687098
REMARK minimizedRMSD -1
REMARK  0 active torsions:
REMARK  status: ('A' for Active; 'I' for Inactive)
ROOT
ATOM      1  C1  DEN d   1      -1.421   0.022   1.009  0.00  0.00     0.130 A 
ATOM      2  C2  DEN d   1      -2.320   0.324  -0.101  0.00  0.00    -0.031 A 
ATOM      3  C3  DEN d   1      -2.684  -0.950  -0.754  0.00  0.00     0.027 A 
ATOM      4  C4  DEN d   1      -1.951  -3.349  -0.152  0.00  0.00     0.027 A 
ATOM      5  C5  DEN d   1      -1.184  -4.106   0.706  0.00  0.00    -0.003 A 
ATOM      6  C6  DEN d   1      -0.422  -3.543   1.695  0.00  0.00     0.001 A 
ATOM      7  C7  DEN d   1      -0.445  -2.186   1.880  0.00  0.00     0.017 A 
ATOM      8  C8  DEN d   1      -1.210  -1.415   1.014  0.00  0.00    -0.094 A 
ATOM      9  C9  DEN d   1      -1.984  -2.004   0.029  0.00  0.00    -0.072 A 
ENDROOT
TORSDOF 0
ENDMDL
