MODEL 1
REMARK minimizedAffinity 19.7926865
REMARK minimizedRMSD -1
REMARK  0 active torsions:
REMARK  status: ('A' for Active; 'I' for Inactive)
ROOT
ATOM      1  C1  DEN d   1       1.253  -1.182  -1.923  0.00  0.00     0.130 A 
ATOM      2  C2  DEN d   1       0.783   0.174  -2.195  0.00  0.00    -0.031 A 
ATOM      3  C3  DEN d   1       1.567   1.105  -1.359  0.00  0.00     0.027 A 
ATOM      4  C4  DEN d   1       3.455   0.583   0.319  0.00  0.00     0.027 A 
ATOM      5  C5  DEN d   1       4.195  -0.424   0.898  0.00  0.00    -0.003 A 
ATOM      6  C6  DEN d   1       3.986  -1.745   0.605  0.00  0.00     0.001 A 
ATOM      7  C7  DEN d   1       3.042  -2.093  -0.325  0.00  0.00     0.017 A 
ATOM      8  C8  DEN d   1       2.286  -1.084  -0.908  0.00  0.00    -0.094 A 
ATOM      9  C9  DEN d   1       2.522   0.247  -0.607  0.00  0.00    -0.072 A 
ENDROOT
TORSDOF 0
ENDMDL
