MODEL 1
REMARK minimizedAffinity 3.60844588
REMARK minimizedRMSD -1
REMARK  0 active torsions:
REMARK  status: ('A' for Active; 'I' for Inactive)
ROOT
ATOM      1  C1  DEN d   1      -1.530  -3.416   0.455  0.00  0.00     0.130 A 
ATOM      2  C2  DEN d   1      -2.893  -3.389   0.980  0.00  0.00    -0.031 A 
ATOM      3  C3  DEN d   1      -3.414  -2.016   0.824  0.00  0.00     0.027 A 
ATOM      4  C4  DEN d   1      -2.252   0.058  -0.176  0.00  0.00     0.027 A 
ATOM      5  C5  DEN d   1      -1.088   0.528  -0.741  0.00  0.00    -0.003 A 
ATOM      6  C6  DEN d   1       0.014  -0.267  -0.914  0.00  0.00     0.001 A 
ATOM      7  C7  DEN d   1      -0.042  -1.589  -0.560  0.00  0.00     0.017 A 
ATOM      8  C8  DEN d   1      -1.210  -2.070   0.017  0.00  0.00    -0.094 A 
ATOM      9  C9  DEN d   1      -2.317  -1.252   0.173  0.00  0.00    -0.072 A 
ENDROOT
TORSDOF 0
ENDMDL
