MODEL 1
REMARK minimizedAffinity 1.47670507
REMARK minimizedRMSD -1
REMARK  0 active torsions:
REMARK  status: ('A' for Active; 'I' for Inactive)
ROOT
ATOM      1  C1  DEN d   1      -2.852   4.444  -2.231  0.00  0.00     0.130 A 
ATOM      2  C2  DEN d   1      -3.991   5.249  -2.663  0.00  0.00    -0.031 A 
ATOM      3  C3  DEN d   1      -4.488   6.000  -1.493  0.00  0.00     0.027 A 
ATOM      4  C4  DEN d   1      -3.607   5.998   0.931  0.00  0.00     0.027 A 
ATOM      5  C5  DEN d   1      -2.666   5.464   1.782  0.00  0.00    -0.003 A 
ATOM      6  C6  DEN d   1      -1.749   4.535   1.367  0.00  0.00     0.001 A 
ATOM      7  C7  DEN d   1      -1.726   4.144   0.055  0.00  0.00     0.017 A 
ATOM      8  C8  DEN d   1      -2.676   4.673  -0.809  0.00  0.00    -0.094 A 
ATOM      9  C9  DEN d   1      -3.587   5.620  -0.373  0.00  0.00    -0.072 A 
ENDROOT
TORSDOF 0
ENDMDL
