MODEL 1
REMARK minimizedAffinity 8.31994152
REMARK minimizedRMSD -1
REMARK  0 active torsions:
REMARK  status: ('A' for Active; 'I' for Inactive)
ROOT
ATOM      1  C1  DEN d   1       1.227  -0.379  -3.233  0.00  0.00     0.130 A 
ATOM      2  C2  DEN d   1       1.971   0.410  -2.254  0.00  0.00    -0.031 A 
ATOM      3  C3  DEN d   1       1.889  -0.283  -0.953  0.00  0.00     0.027 A 
ATOM      4  C4  DEN d   1       0.694  -2.491  -0.362  0.00  0.00     0.027 A 
ATOM      5  C5  DEN d   1      -0.080  -3.516  -0.859  0.00  0.00    -0.003 A 
ATOM      6  C6  DEN d   1      -0.498  -3.550  -2.163  0.00  0.00     0.001 A 
ATOM      7  C7  DEN d   1      -0.106  -2.562  -3.027  0.00  0.00     0.017 A 
ATOM      8  C8  DEN d   1       0.669  -1.521  -2.531  0.00  0.00    -0.094 A 
ATOM      9  C9  DEN d   1       1.091  -1.511  -1.213  0.00  0.00    -0.072 A 
ENDROOT
TORSDOF 0
ENDMDL
