MODEL 1
REMARK minimizedAffinity -4.14136887
REMARK minimizedRMSD -1
REMARK  0 active torsions:
REMARK  status: ('A' for Active; 'I' for Inactive)
ROOT
ATOM      1  C   UNL d   1       0.827   2.915  -0.857  0.00  0.00     0.020 A 
ATOM      2  C1  UNL d   1      -0.456   3.125  -0.353  0.00  0.00     0.020 A 
ATOM      3  C2  UNL d   1      -1.110   2.103   0.340  0.00  0.00     0.034 A 
ATOM      4  C3  UNL d   1      -0.481   0.868   0.531  0.00  0.00     0.017 A 
ATOM      5  C4  UNL d   1       0.807   0.658   0.026  0.00  0.00     0.017 A 
ATOM      6  C5  UNL d   1       1.457   1.684  -0.667  0.00  0.00     0.034 A 
ATOM      7 Cl   UNL d   1       1.648  -0.839   0.222  0.00  0.00    -0.070 Cl
ATOM      8 Cl1  UNL d   1      -1.348  -0.349   1.398  0.00  0.00    -0.070 Cl
ENDROOT
TORSDOF 0
ENDMDL
