MODEL 1
REMARK minimizedAffinity -2.16148543
REMARK minimizedRMSD -1
REMARK  0 active torsions:
REMARK  status: ('A' for Active; 'I' for Inactive)
ROOT
ATOM      1  C   UNL d   1       0.428   3.121   0.494  0.00  0.00     0.020 A 
ATOM      2  C1  UNL d   1       1.058   2.634  -0.651  0.00  0.00     0.020 A 
ATOM      3  C2  UNL d   1       0.868   1.307  -1.042  0.00  0.00     0.034 A 
ATOM      4  C3  UNL d   1       0.046   0.462  -0.287  0.00  0.00     0.017 A 
ATOM      5  C4  UNL d   1      -0.586   0.952   0.861  0.00  0.00     0.017 A 
ATOM      6  C5  UNL d   1      -0.392   2.281   1.248  0.00  0.00     0.034 A 
ATOM      7 Cl   UNL d   1      -1.615  -0.031   1.843  0.00  0.00    -0.070 Cl
ATOM      8 Cl1  UNL d   1      -0.144  -1.168  -0.829  0.00  0.00    -0.070 Cl
ENDROOT
TORSDOF 0
ENDMDL
