MODEL 1
REMARK minimizedAffinity -4.83372688
REMARK minimizedRMSD -1
REMARK  0 active torsions:
REMARK  status: ('A' for Active; 'I' for Inactive)
ROOT
ATOM      1  C   UNL d   1       2.106   2.654   0.351  0.00  0.00     0.020 A 
ATOM      2  C1  UNL d   1       0.953   3.437   0.365  0.00  0.00     0.020 A 
ATOM      3  C2  UNL d   1      -0.294   2.848   0.144  0.00  0.00     0.034 A 
ATOM      4  C3  UNL d   1      -0.390   1.472  -0.092  0.00  0.00     0.017 A 
ATOM      5  C4  UNL d   1       0.768   0.686  -0.106  0.00  0.00     0.017 A 
ATOM      6  C5  UNL d   1       2.014   1.281   0.116  0.00  0.00     0.034 A 
ATOM      7 Cl   UNL d   1       0.729  -1.018  -0.390  0.00  0.00    -0.070 Cl
ATOM      8 Cl1  UNL d   1      -1.964   0.810  -0.358  0.00  0.00    -0.070 Cl
ENDROOT
TORSDOF 0
ENDMDL
