MODEL 1
REMARK minimizedAffinity -5.31883478
REMARK minimizedRMSD -1
REMARK  0 active torsions:
REMARK  status: ('A' for Active; 'I' for Inactive)
ROOT
ATOM      1  C   UNL d   1       2.297   3.187   0.116  0.00  0.00     0.020 A 
ATOM      2  C1  UNL d   1       2.989   2.039   0.499  0.00  0.00     0.020 A 
ATOM      3  C2  UNL d   1       2.294   0.850   0.732  0.00  0.00     0.034 A 
ATOM      4  C3  UNL d   1       0.903   0.807   0.584  0.00  0.00     0.017 A 
ATOM      5  C4  UNL d   1       0.209   1.961   0.200  0.00  0.00     0.017 A 
ATOM      6  C5  UNL d   1       0.910   3.148  -0.033  0.00  0.00     0.034 A 
ATOM      7 Cl   UNL d   1      -1.507   1.985  -0.004  0.00  0.00    -0.070 Cl
ATOM      8 Cl1  UNL d   1       0.109  -0.696   0.889  0.00  0.00    -0.070 Cl
ENDROOT
TORSDOF 0
ENDMDL
