MODEL 1
REMARK minimizedAffinity -4.46849251
REMARK minimizedRMSD -1
REMARK  0 active torsions:
REMARK  status: ('A' for Active; 'I' for Inactive)
ROOT
ATOM      1  C   UNL d   1       0.188   3.212  -0.177  0.00  0.00     0.020 A 
ATOM      2  C1  UNL d   1       1.319   2.575  -0.684  0.00  0.00     0.020 A 
ATOM      3  C2  UNL d   1       1.406   1.181  -0.658  0.00  0.00     0.034 A 
ATOM      4  C3  UNL d   1       0.360   0.421  -0.124  0.00  0.00     0.017 A 
ATOM      5  C4  UNL d   1      -0.776   1.061   0.385  0.00  0.00     0.017 A 
ATOM      6  C5  UNL d   1      -0.857   2.457   0.356  0.00  0.00     0.034 A 
ATOM      7 Cl   UNL d   1      -2.107   0.190   1.060  0.00  0.00    -0.070 Cl
ATOM      8 Cl1  UNL d   1       0.535  -1.298  -0.124  0.00  0.00    -0.070 Cl
ENDROOT
TORSDOF 0
ENDMDL
