MODEL 1
REMARK minimizedAffinity -5.53475189
REMARK minimizedRMSD -1
REMARK  0 active torsions:
REMARK  status: ('A' for Active; 'I' for Inactive)
ROOT
ATOM      1  C   UNL d   1       0.544   2.951  -0.205  0.00  0.00     0.020 A 
ATOM      2  C1  UNL d   1       1.534   2.013  -0.499  0.00  0.00     0.020 A 
ATOM      3  C2  UNL d   1       1.287   0.653  -0.303  0.00  0.00     0.034 A 
ATOM      4  C3  UNL d   1       0.048   0.226   0.187  0.00  0.00     0.017 A 
ATOM      5  C4  UNL d   1      -0.945   1.168   0.482  0.00  0.00     0.017 A 
ATOM      6  C5  UNL d   1      -0.692   2.529   0.285  0.00  0.00     0.034 A 
ATOM      7 Cl   UNL d   1      -2.499   0.717   1.091  0.00  0.00    -0.070 Cl
ATOM      8 Cl1  UNL d   1      -0.189  -1.472   0.404  0.00  0.00    -0.070 Cl
ENDROOT
TORSDOF 0
ENDMDL
