MODEL 1
REMARK minimizedAffinity -5.65316629
REMARK minimizedRMSD -1
REMARK  0 active torsions:
REMARK  status: ('A' for Active; 'I' for Inactive)
ROOT
ATOM      1  C   UNL d   1       2.503   2.445   0.420  0.00  0.00     0.020 A 
ATOM      2  C1  UNL d   1       2.981   1.136   0.418  0.00  0.00     0.020 A 
ATOM      3  C2  UNL d   1       2.091   0.068   0.280  0.00  0.00     0.034 A 
ATOM      4  C3  UNL d   1       0.719   0.308   0.144  0.00  0.00     0.017 A 
ATOM      5  C4  UNL d   1       0.240   1.623   0.147  0.00  0.00     0.017 A 
ATOM      6  C5  UNL d   1       1.135   2.689   0.285  0.00  0.00     0.034 A 
ATOM      7 Cl   UNL d   1      -1.439   1.999  -0.016  0.00  0.00    -0.070 Cl
ATOM      8 Cl1  UNL d   1      -0.324  -1.060  -0.022  0.00  0.00    -0.070 Cl
ENDROOT
TORSDOF 0
ENDMDL
