MODEL 1
REMARK minimizedAffinity -1.68945694
REMARK minimizedRMSD -1
REMARK  0 active torsions:
REMARK  status: ('A' for Active; 'I' for Inactive)
ROOT
ATOM      1  C   UNL d   1       2.851   2.016   0.658  0.00  0.00     0.020 A 
ATOM      2  C1  UNL d   1       2.059   3.155   0.798  0.00  0.00     0.020 A 
ATOM      3  C2  UNL d   1       0.683   3.081   0.568  0.00  0.00     0.034 A 
ATOM      4  C3  UNL d   1       0.096   1.866   0.198  0.00  0.00     0.017 A 
ATOM      5  C4  UNL d   1       0.892   0.723   0.058  0.00  0.00     0.017 A 
ATOM      6  C5  UNL d   1       2.269   0.803   0.289  0.00  0.00     0.034 A 
ATOM      7 Cl   UNL d   1       0.240  -0.812  -0.395  0.00  0.00    -0.070 Cl
ATOM      8 Cl1  UNL d   1      -1.611   1.847  -0.070  0.00  0.00    -0.070 Cl
ENDROOT
TORSDOF 0
ENDMDL
