MODEL 1
REMARK minimizedAffinity -4.11579514
REMARK minimizedRMSD -1
REMARK  0 active torsions:
REMARK  status: ('A' for Active; 'I' for Inactive)
ROOT
ATOM      1  C   UNL d   1       0.694   3.544   0.732  0.00  0.00     0.020 A 
ATOM      2  C1  UNL d   1      -0.540   2.961   0.445  0.00  0.00     0.020 A 
ATOM      3  C2  UNL d   1      -0.621   1.592   0.184  0.00  0.00     0.034 A 
ATOM      4  C3  UNL d   1       0.533   0.801   0.208  0.00  0.00     0.017 A 
ATOM      5  C4  UNL d   1       1.771   1.387   0.495  0.00  0.00     0.017 A 
ATOM      6  C5  UNL d   1       1.847   2.758   0.757  0.00  0.00     0.034 A 
ATOM      7 Cl   UNL d   1       3.239   0.475   0.543  0.00  0.00    -0.070 Cl
ATOM      8 Cl1  UNL d   1       0.358  -0.886  -0.125  0.00  0.00    -0.070 Cl
ENDROOT
TORSDOF 0
ENDMDL
