MODEL 1
REMARK minimizedAffinity -5.99270487
REMARK minimizedRMSD -1
REMARK  0 active torsions:
REMARK  status: ('A' for Active; 'I' for Inactive)
ROOT
ATOM      1  C   UNL d   1       3.078   1.961   0.664  0.00  0.00     0.020 A 
ATOM      2  C1  UNL d   1       2.345   3.143   0.564  0.00  0.00     0.020 A 
ATOM      3  C2  UNL d   1       0.950   3.098   0.528  0.00  0.00     0.034 A 
ATOM      4  C3  UNL d   1       0.283   1.869   0.593  0.00  0.00     0.017 A 
ATOM      5  C4  UNL d   1       1.020   0.683   0.694  0.00  0.00     0.017 A 
ATOM      6  C5  UNL d   1       2.417   0.734   0.729  0.00  0.00     0.034 A 
ATOM      7 Cl   UNL d   1       0.268  -0.871   0.778  0.00  0.00    -0.070 Cl
ATOM      8 Cl1  UNL d   1      -1.444   1.888   0.544  0.00  0.00    -0.070 Cl
ENDROOT
TORSDOF 0
ENDMDL
