MODEL 1
REMARK minimizedAffinity -3.50402713
REMARK minimizedRMSD -1
REMARK  0 active torsions:
REMARK  status: ('A' for Active; 'I' for Inactive)
ROOT
ATOM      1  C   UNL d   1       1.525   2.579  -0.098  0.00  0.00     0.020 A 
ATOM      2  C1  UNL d   1       0.443   3.414   0.180  0.00  0.00     0.020 A 
ATOM      3  C2  UNL d   1      -0.825   2.867   0.386  0.00  0.00     0.034 A 
ATOM      4  C3  UNL d   1      -1.016   1.482   0.314  0.00  0.00     0.017 A 
ATOM      5  C4  UNL d   1       0.071   0.646   0.035  0.00  0.00     0.017 A 
ATOM      6  C5  UNL d   1       1.339   1.198  -0.171  0.00  0.00     0.034 A 
ATOM      7 Cl   UNL d   1      -0.086  -1.073  -0.070  0.00  0.00    -0.070 Cl
ATOM      8 Cl1  UNL d   1      -2.611   0.876   0.581  0.00  0.00    -0.070 Cl
ENDROOT
TORSDOF 0
ENDMDL
