MODEL 1
REMARK minimizedAffinity -4.44436169
REMARK minimizedRMSD -1
REMARK  0 active torsions:
REMARK  status: ('A' for Active; 'I' for Inactive)
ROOT
ATOM      1  C   UNL d   1      -0.890   2.604  -0.684  0.00  0.00     0.020 A 
ATOM      2  C1  UNL d   1       0.244   3.417  -0.672  0.00  0.00     0.020 A 
ATOM      3  C2  UNL d   1       1.467   2.903  -0.236  0.00  0.00     0.034 A 
ATOM      4  C3  UNL d   1       1.560   1.573   0.190  0.00  0.00     0.017 A 
ATOM      5  C4  UNL d   1       0.422   0.758   0.178  0.00  0.00     0.017 A 
ATOM      6  C5  UNL d   1      -0.801   1.278  -0.260  0.00  0.00     0.034 A 
ATOM      7 Cl   UNL d   1       0.458  -0.893   0.688  0.00  0.00    -0.070 Cl
ATOM      8 Cl1  UNL d   1       3.104   1.003   0.716  0.00  0.00    -0.070 Cl
ENDROOT
TORSDOF 0
ENDMDL
