MODEL 1
REMARK minimizedAffinity -4.39882278
REMARK minimizedRMSD -1
REMARK  0 active torsions:
REMARK  status: ('A' for Active; 'I' for Inactive)
ROOT
ATOM      1  C   UNL d   1      -1.683   1.239   0.622  0.00  0.00     0.020 A 
ATOM      2  C1  UNL d   1      -0.961   0.046   0.611  0.00  0.00     0.020 A 
ATOM      3  C2  UNL d   1       0.419   0.068   0.398  0.00  0.00     0.034 A 
ATOM      4  C3  UNL d   1       1.081   1.285   0.196  0.00  0.00     0.017 A 
ATOM      5  C4  UNL d   1       0.355   2.481   0.208  0.00  0.00     0.017 A 
ATOM      6  C5  UNL d   1      -1.027   2.453   0.421  0.00  0.00     0.034 A 
ATOM      7 Cl   UNL d   1       1.102   4.021  -0.034  0.00  0.00    -0.070 Cl
ATOM      8 Cl1  UNL d   1       2.789   1.237  -0.061  0.00  0.00    -0.070 Cl
ENDROOT
TORSDOF 0
ENDMDL
