MODEL 1
REMARK minimizedAffinity -0.574284673
REMARK minimizedRMSD -1
REMARK  0 active torsions:
REMARK  status: ('A' for Active; 'I' for Inactive)
ROOT
ATOM      1  C   UNL d   1      -2.326   1.750   0.108  0.00  0.00     0.020 A 
ATOM      2  C1  UNL d   1      -1.491   2.818   0.434  0.00  0.00     0.020 A 
ATOM      3  C2  UNL d   1      -0.133   2.596   0.669  0.00  0.00     0.034 A 
ATOM      4  C3  UNL d   1       0.395   1.302   0.576  0.00  0.00     0.017 A 
ATOM      5  C4  UNL d   1      -0.444   0.231   0.248  0.00  0.00     0.017 A 
ATOM      6  C5  UNL d   1      -1.803   0.460   0.015  0.00  0.00     0.034 A 
ATOM      7 Cl   UNL d   1       0.134  -1.392   0.116  0.00  0.00    -0.070 Cl
ATOM      8 Cl1  UNL d   1       2.084   1.101   0.878  0.00  0.00    -0.070 Cl
ENDROOT
TORSDOF 0
ENDMDL
