MODEL 1
REMARK minimizedAffinity -1.53218317
REMARK minimizedRMSD -1
REMARK  0 active torsions:
REMARK  status: ('A' for Active; 'I' for Inactive)
ROOT
ATOM      1  C   UNL d   1       0.442   2.710  -1.076  0.00  0.00     0.020 A 
ATOM      2  C1  UNL d   1      -0.141   3.065   0.140  0.00  0.00     0.020 A 
ATOM      3  C2  UNL d   1      -0.701   2.082   0.959  0.00  0.00     0.034 A 
ATOM      4  C3  UNL d   1      -0.679   0.740   0.564  0.00  0.00     0.017 A 
ATOM      5  C4  UNL d   1      -0.094   0.384  -0.657  0.00  0.00     0.017 A 
ATOM      6  C5  UNL d   1       0.465   1.372  -1.473  0.00  0.00     0.034 A 
ATOM      7 Cl   UNL d   1      -0.029  -1.251  -1.212  0.00  0.00    -0.070 Cl
ATOM      8 Cl1  UNL d   1      -1.389  -0.422   1.627  0.00  0.00    -0.070 Cl
ENDROOT
TORSDOF 0
ENDMDL
