MODEL 1
REMARK minimizedAffinity -1.33530807
REMARK minimizedRMSD -1
REMARK  0 active torsions:
REMARK  status: ('A' for Active; 'I' for Inactive)
ROOT
ATOM      1  C   UNL d   1      -0.311  -1.578  -0.203  0.00  0.00     0.020 A 
ATOM      2  C1  UNL d   1      -1.502  -0.858  -0.125  0.00  0.00     0.020 A 
ATOM      3  C2  UNL d   1      -1.481   0.486   0.255  0.00  0.00     0.034 A 
ATOM      4  C3  UNL d   1      -0.267   1.113   0.558  0.00  0.00     0.017 A 
ATOM      5  C4  UNL d   1       0.928   0.389   0.479  0.00  0.00     0.017 A 
ATOM      6  C5  UNL d   1       0.901  -0.956   0.098  0.00  0.00     0.034 A 
ATOM      7 Cl   UNL d   1       2.464   1.095   0.837  0.00  0.00    -0.070 Cl
ATOM      8 Cl1  UNL d   1      -0.316   2.778   1.020  0.00  0.00    -0.070 Cl
ENDROOT
TORSDOF 0
ENDMDL
