MODEL 1
REMARK minimizedAffinity -3.72588873
REMARK minimizedRMSD -1
REMARK  0 active torsions:
REMARK  status: ('A' for Active; 'I' for Inactive)
ROOT
ATOM      1  C   UNL d   1      -1.644   2.006   0.408  0.00  0.00     0.020 A 
ATOM      2  C1  UNL d   1      -0.588   2.917   0.395  0.00  0.00     0.020 A 
ATOM      3  C2  UNL d   1       0.714   2.473   0.156  0.00  0.00     0.034 A 
ATOM      4  C3  UNL d   1       0.964   1.114  -0.070  0.00  0.00     0.017 A 
ATOM      5  C4  UNL d   1      -0.097   0.201  -0.056  0.00  0.00     0.017 A 
ATOM      6  C5  UNL d   1      -1.399   0.651   0.184  0.00  0.00     0.034 A 
ATOM      7 Cl   UNL d   1       0.133  -1.491  -0.326  0.00  0.00    -0.070 Cl
ATOM      8 Cl1  UNL d   1       2.599   0.635  -0.358  0.00  0.00    -0.070 Cl
ENDROOT
TORSDOF 0
ENDMDL
