MODEL 1
REMARK minimizedAffinity -1.63355017
REMARK minimizedRMSD -1
REMARK  0 active torsions:
REMARK  status: ('A' for Active; 'I' for Inactive)
ROOT
ATOM      1  C   UNL d   1       5.967   3.005   3.385  0.00  0.00     0.172 C 
ATOM      2  N   UNL d   1       5.892   1.721   4.041  0.00  0.00    -0.070 N 
ATOM      3  C1  UNL d   1       6.000   1.505   5.389  0.00  0.00    -0.004 A 
ATOM      4  C2  UNL d   1       5.875   0.151   5.611  0.00  0.00    -0.047 A 
ATOM      5  C3  UNL d   1       5.685  -0.469   4.353  0.00  0.00    -0.047 A 
ATOM      6  C4  UNL d   1       5.700   0.526   3.398  0.00  0.00    -0.004 A 
ENDROOT
TORSDOF 0
ENDMDL
