MODEL 1
REMARK minimizedAffinity -1.82456684
REMARK minimizedRMSD -1
REMARK  0 active torsions:
REMARK  status: ('A' for Active; 'I' for Inactive)
ROOT
ATOM      1  C   UNL d   1       5.998   0.746   4.033  0.00  0.00     0.172 C 
ATOM      2  N   UNL d   1       5.388   2.034   3.801  0.00  0.00    -0.070 N 
ATOM      3  C1  UNL d   1       6.000   3.115   3.225  0.00  0.00    -0.004 A 
ATOM      4  C2  UNL d   1       5.086   4.145   3.183  0.00  0.00    -0.047 A 
ATOM      5  C3  UNL d   1       3.883   3.667   3.756  0.00  0.00    -0.047 A 
ATOM      6  C4  UNL d   1       4.098   2.358   4.130  0.00  0.00    -0.004 A 
ENDROOT
TORSDOF 0
ENDMDL
