MODEL 1
REMARK minimizedAffinity -1.85960674
REMARK minimizedRMSD -1
REMARK  0 active torsions:
REMARK  status: ('A' for Active; 'I' for Inactive)
ROOT
ATOM      1  C   UNL d   1       5.999   5.944   4.726  0.00  0.00     0.172 C 
ATOM      2  N   UNL d   1       5.999   5.266   3.451  0.00  0.00    -0.070 N 
ATOM      3  C1  UNL d   1       6.000   3.909   3.268  0.00  0.00    -0.004 A 
ATOM      4  C2  UNL d   1       5.999   3.666   1.911  0.00  0.00    -0.047 A 
ATOM      5  C3  UNL d   1       5.999   4.920   1.256  0.00  0.00    -0.047 A 
ATOM      6  C4  UNL d   1       5.999   5.893   2.233  0.00  0.00    -0.004 A 
ENDROOT
TORSDOF 0
ENDMDL
