MODEL 1
REMARK minimizedAffinity -1.92455494
REMARK minimizedRMSD -1
REMARK  0 active torsions:
REMARK  status: ('A' for Active; 'I' for Inactive)
ROOT
ATOM      1  C   UNL d   1       5.231   2.423   4.489  0.00  0.00     0.172 C 
ATOM      2  N   UNL d   1       5.380   3.788   4.042  0.00  0.00    -0.070 N 
ATOM      3  C1  UNL d   1       5.995   4.794   4.739  0.00  0.00    -0.004 A 
ATOM      4  C2  UNL d   1       5.929   5.939   3.975  0.00  0.00    -0.047 A 
ATOM      5  C3  UNL d   1       5.251   5.610   2.777  0.00  0.00    -0.047 A 
ATOM      6  C4  UNL d   1       4.922   4.273   2.845  0.00  0.00    -0.004 A 
ENDROOT
TORSDOF 0
ENDMDL
