MODEL 1
REMARK minimizedAffinity -2.59858322
REMARK minimizedRMSD -1
REMARK  0 active torsions:
REMARK  status: ('A' for Active; 'I' for Inactive)
ROOT
ATOM      1  C   UNL d   1       5.091   3.591   4.126  0.00  0.00     0.172 C 
ATOM      2  N   UNL d   1       5.313   2.207   4.473  0.00  0.00    -0.070 N 
ATOM      3  C1  UNL d   1       4.878   1.591   5.616  0.00  0.00    -0.004 A 
ATOM      4  C2  UNL d   1       5.291   0.277   5.570  0.00  0.00    -0.047 A 
ATOM      5  C3  UNL d   1       6.000   0.098   4.358  0.00  0.00    -0.047 A 
ATOM      6  C4  UNL d   1       5.998   1.308   3.698  0.00  0.00    -0.004 A 
ENDROOT
TORSDOF 0
ENDMDL
