MODEL 1
REMARK minimizedAffinity -1.72833502
REMARK minimizedRMSD -1
REMARK  0 active torsions:
REMARK  status: ('A' for Active; 'I' for Inactive)
ROOT
ATOM      1  C   UNL d   1       5.868   0.953   4.133  0.00  0.00     0.172 C 
ATOM      2  N   UNL d   1       5.922   2.396   4.124  0.00  0.00    -0.070 N 
ATOM      3  C1  UNL d   1       5.951   3.187   3.006  0.00  0.00    -0.004 A 
ATOM      4  C2  UNL d   1       5.999   4.501   3.420  0.00  0.00    -0.047 A 
ATOM      5  C3  UNL d   1       6.000   4.499   4.835  0.00  0.00    -0.047 A 
ATOM      6  C4  UNL d   1       5.952   3.184   5.244  0.00  0.00    -0.004 A 
ENDROOT
TORSDOF 0
ENDMDL
