MODEL 1
REMARK minimizedAffinity -2.05005646
REMARK minimizedRMSD -1
REMARK  0 active torsions:
REMARK  status: ('A' for Active; 'I' for Inactive)
ROOT
ATOM      1  C   UNL d   1      -2.132   0.178   3.475  0.00  0.00     0.172 C 
ATOM      2  N   UNL d   1      -1.810   1.583   3.552  0.00  0.00    -0.070 N 
ATOM      3  C1  UNL d   1      -2.402   2.579   2.822  0.00  0.00    -0.004 A 
ATOM      4  C2  UNL d   1      -1.817   3.773   3.186  0.00  0.00    -0.047 A 
ATOM      5  C3  UNL d   1      -0.840   3.485   4.167  0.00  0.00    -0.047 A 
ATOM      6  C4  UNL d   1      -0.856   2.122   4.375  0.00  0.00    -0.004 A 
ENDROOT
TORSDOF 0
ENDMDL
