MODEL 1
REMARK minimizedAffinity -1.04371512
REMARK minimizedRMSD -1
REMARK  0 active torsions:
REMARK  status: ('A' for Active; 'I' for Inactive)
ROOT
ATOM      1  C   UNL d   1       5.956   1.125   2.646  0.00  0.00     0.172 C 
ATOM      2  N   UNL d   1       5.974   2.514   3.040  0.00  0.00    -0.070 N 
ATOM      3  C1  UNL d   1       5.985   3.586   2.188  0.00  0.00    -0.004 A 
ATOM      4  C2  UNL d   1       6.000   4.733   2.952  0.00  0.00    -0.047 A 
ATOM      5  C3  UNL d   1       5.999   4.337   4.311  0.00  0.00    -0.047 A 
ATOM      6  C4  UNL d   1       5.983   2.958   4.336  0.00  0.00    -0.004 A 
ENDROOT
TORSDOF 0
ENDMDL
