MODEL 1
REMARK minimizedAffinity -2.58757424
REMARK minimizedRMSD -1
REMARK  0 active torsions:
REMARK  status: ('A' for Active; 'I' for Inactive)
ROOT
ATOM      1  C   UNL d   1       5.523  -2.511   4.419  0.00  0.00     0.172 C 
ATOM      2  N   UNL d   1       5.638  -1.114   4.763  0.00  0.00    -0.070 N 
ATOM      3  C1  UNL d   1       5.405  -0.574   6.000  0.00  0.00    -0.004 A 
ATOM      4  C2  UNL d   1       5.623   0.784   5.915  0.00  0.00    -0.047 A 
ATOM      5  C3  UNL d   1       5.999   1.071   4.581  0.00  0.00    -0.047 A 
ATOM      6  C4  UNL d   1       6.000  -0.122   3.890  0.00  0.00    -0.004 A 
ENDROOT
TORSDOF 0
ENDMDL
