MODEL 1
REMARK minimizedAffinity -1.25275493
REMARK minimizedRMSD -1
REMARK  0 active torsions:
REMARK  status: ('A' for Active; 'I' for Inactive)
ROOT
ATOM      1  C   UNL d   1       5.956  -1.853   4.991  0.00  0.00     0.172 C 
ATOM      2  N   UNL d   1       5.971  -0.411   4.916  0.00  0.00    -0.070 N 
ATOM      3  C1  UNL d   1       5.990   0.329   3.764  0.00  0.00    -0.004 A 
ATOM      4  C2  UNL d   1       6.000   1.661   4.117  0.00  0.00    -0.047 A 
ATOM      5  C3  UNL d   1       5.988   1.724   5.531  0.00  0.00    -0.047 A 
ATOM      6  C4  UNL d   1       5.970   0.427   6.000  0.00  0.00    -0.004 A 
ENDROOT
TORSDOF 0
ENDMDL
