MODEL 1
REMARK minimizedAffinity -2.30835533
REMARK minimizedRMSD -1
REMARK  0 active torsions:
REMARK  status: ('A' for Active; 'I' for Inactive)
ROOT
ATOM      1  C   UNL d   1       5.631  -1.368   5.256  0.00  0.00     0.172 C 
ATOM      2  N   UNL d   1       5.728   0.045   4.971  0.00  0.00    -0.070 N 
ATOM      3  C1  UNL d   1       5.986   0.595   3.744  0.00  0.00    -0.004 A 
ATOM      4  C2  UNL d   1       5.996   1.966   3.890  0.00  0.00    -0.047 A 
ATOM      5  C3  UNL d   1       5.735   2.248   5.252  0.00  0.00    -0.047 A 
ATOM      6  C4  UNL d   1       5.573   1.041   5.898  0.00  0.00    -0.004 A 
ENDROOT
TORSDOF 0
ENDMDL
