MODEL 1
REMARK minimizedAffinity -2.7653656
REMARK minimizedRMSD -1
REMARK  0 active torsions:
REMARK  status: ('A' for Active; 'I' for Inactive)
ROOT
ATOM      1  C   UNL d   1       5.664  -0.671   5.240  0.00  0.00     0.172 C 
ATOM      2  N   UNL d   1       5.744   0.716   4.849  0.00  0.00    -0.070 N 
ATOM      3  C1  UNL d   1       5.998   1.176   3.585  0.00  0.00    -0.004 A 
ATOM      4  C2  UNL d   1       5.991   2.554   3.627  0.00  0.00    -0.047 A 
ATOM      5  C3  UNL d   1       5.724   2.935   4.963  0.00  0.00    -0.047 A 
ATOM      6  C4  UNL d   1       5.576   1.778   5.699  0.00  0.00    -0.004 A 
ENDROOT
TORSDOF 0
ENDMDL
