MODEL 1
REMARK minimizedAffinity -1.61296833
REMARK minimizedRMSD -1
REMARK  0 active torsions:
REMARK  status: ('A' for Active; 'I' for Inactive)
ROOT
ATOM      1  C   UNL d   1       5.473   4.263   3.749  0.00  0.00     0.172 C 
ATOM      2  N   UNL d   1       5.606   2.852   4.024  0.00  0.00    -0.070 N 
ATOM      3  C1  UNL d   1       6.000   1.897   3.125  0.00  0.00    -0.004 A 
ATOM      4  C2  UNL d   1       5.999   0.681   3.773  0.00  0.00    -0.047 A 
ATOM      5  C3  UNL d   1       5.589   0.913   5.108  0.00  0.00    -0.047 A 
ATOM      6  C4  UNL d   1       5.352   2.265   5.236  0.00  0.00    -0.004 A 
ENDROOT
TORSDOF 0
ENDMDL
