MODEL 1
REMARK minimizedAffinity -1.95603597
REMARK minimizedRMSD -1
REMARK  0 active torsions:
REMARK  status: ('A' for Active; 'I' for Inactive)
ROOT
ATOM      1  C   UNL d   1       5.999  -2.427   4.493  0.00  0.00     0.172 C 
ATOM      2  N   UNL d   1       5.996  -0.993   4.665  0.00  0.00    -0.070 N 
ATOM      3  C1  UNL d   1       6.000  -0.333   5.865  0.00  0.00    -0.004 A 
ATOM      4  C2  UNL d   1       5.996   1.020   5.602  0.00  0.00    -0.047 A 
ATOM      5  C3  UNL d   1       5.989   1.179   4.196  0.00  0.00    -0.047 A 
ATOM      6  C4  UNL d   1       5.989  -0.083   3.640  0.00  0.00    -0.004 A 
ENDROOT
TORSDOF 0
ENDMDL
