MODEL 1
REMARK minimizedAffinity -1.743137
REMARK minimizedRMSD -1
REMARK  0 active torsions:
REMARK  status: ('A' for Active; 'I' for Inactive)
ROOT
ATOM      1  C   UNL d   1       5.995  -1.358   4.738  0.00  0.00     0.172 C 
ATOM      2  N   UNL d   1       5.996   0.016   4.294  0.00  0.00    -0.070 N 
ATOM      3  C1  UNL d   1       6.000   0.433   2.990  0.00  0.00    -0.004 A 
ATOM      4  C2  UNL d   1       5.999   1.811   2.988  0.00  0.00    -0.047 A 
ATOM      5  C3  UNL d   1       5.995   2.237   4.337  0.00  0.00    -0.047 A 
ATOM      6  C4  UNL d   1       5.993   1.105   5.125  0.00  0.00    -0.004 A 
ENDROOT
TORSDOF 0
ENDMDL
