MODEL 1
REMARK minimizedAffinity -2.35299635
REMARK minimizedRMSD -1
REMARK  0 active torsions:
REMARK  status: ('A' for Active; 'I' for Inactive)
ROOT
ATOM      1  C   UNL d   1       5.843  -1.157   4.511  0.00  0.00     0.172 C 
ATOM      2  N   UNL d   1       5.704   0.274   4.384  0.00  0.00    -0.070 N 
ATOM      3  C1  UNL d   1       6.000   1.009   3.267  0.00  0.00    -0.004 A 
ATOM      4  C2  UNL d   1       5.732   2.332   3.548  0.00  0.00    -0.047 A 
ATOM      5  C3  UNL d   1       5.260   2.394   4.881  0.00  0.00    -0.047 A 
ATOM      6  C4  UNL d   1       5.253   1.106   5.375  0.00  0.00    -0.004 A 
ENDROOT
TORSDOF 0
ENDMDL
