MODEL 1
REMARK minimizedAffinity -0.148349538
REMARK minimizedRMSD -1
REMARK  0 active torsions:
REMARK  status: ('A' for Active; 'I' for Inactive)
ROOT
ATOM      1  C   UNL d   1       0.491  -0.464  -0.810  0.00  0.00     0.172 C 
ATOM      2  N   UNL d   1       0.982  -1.294  -1.885  0.00  0.00    -0.070 N 
ATOM      3  C1  UNL d   1       1.645  -0.849  -2.998  0.00  0.00    -0.004 A 
ATOM      4  C2  UNL d   1       1.943  -1.946  -3.777  0.00  0.00    -0.047 A 
ATOM      5  C3  UNL d   1       1.441  -3.089  -3.110  0.00  0.00    -0.047 A 
ATOM      6  C4  UNL d   1       0.851  -2.656  -1.942  0.00  0.00    -0.004 A 
ENDROOT
TORSDOF 0
ENDMDL
