MODEL 1
REMARK minimizedAffinity -6.13201046
REMARK minimizedRMSD -1
REMARK  2 active torsions:
REMARK  status: ('A' for Active; 'I' for Inactive)
REMARK    1  A    between atoms: C2'_3  and  C1'_4 
REMARK    2  A    between atoms: C1'_4  and  C1_5 
ROOT
ATOM      1  C1  I4B d   1      -0.749   0.066  -0.620  0.00  0.00    -0.075 A 
ATOM      2  C2  I4B d   1       0.460   0.276  -0.007  0.00  0.00     0.003 A 
ATOM      3  C3  I4B d   1       0.520   0.523   1.386  0.00  0.00     0.002 A 
ATOM      4  C4  I4B d   1      -0.650   0.601   2.113  0.00  0.00    -0.004 A 
ATOM      5  C5  I4B d   1      -1.874   0.365   1.494  0.00  0.00     0.002 A 
ATOM      6  C6  I4B d   1      -1.924   0.083   0.121  0.00  0.00     0.003 A 
ENDROOT
BRANCH   1   7
ATOM      7  C1' I4B d   1      -0.778  -0.159  -2.099  0.00  0.00     0.060 C 
BRANCH   7   8
ATOM      8  C2' I4B d   1       0.343  -1.117  -2.447  0.00  0.00    -0.013 C 
ATOM      9  C4' I4B d   1      -0.197  -2.438  -2.927  0.00  0.00     0.013 C 
ATOM     10  C3' I4B d   1       1.197  -0.468  -3.495  0.00  0.00     0.013 C 
ENDBRANCH   7   8
ENDBRANCH   1   7
TORSDOF 2
ENDMDL
