MODEL 1
REMARK minimizedAffinity -4.56671143
REMARK minimizedRMSD -1
REMARK  2 active torsions:
REMARK  status: ('A' for Active; 'I' for Inactive)
REMARK    1  A    between atoms: C2'_3  and  C1'_4 
REMARK    2  A    between atoms: C1'_4  and  C1_5 
ROOT
ATOM      1  C1  I4B d   1      -0.211   0.146  -0.447  0.00  0.00    -0.075 A 
ATOM      2  C2  I4B d   1      -1.562   0.353  -0.325  0.00  0.00     0.003 A 
ATOM      3  C3  I4B d   1      -2.112   0.766   0.913  0.00  0.00     0.002 A 
ATOM      4  C4  I4B d   1      -1.285   0.911   2.008  0.00  0.00    -0.004 A 
ATOM      5  C5  I4B d   1       0.088   0.723   1.877  0.00  0.00     0.002 A 
ATOM      6  C6  I4B d   1       0.630   0.350   0.639  0.00  0.00     0.003 A 
ENDROOT
BRANCH   1   7
ATOM      7  C1' I4B d   1       0.331  -0.322  -1.760  0.00  0.00     0.060 C 
BRANCH   7   8
ATOM      8  C2' I4B d   1       0.645   0.901  -2.598  0.00  0.00    -0.013 C 
ATOM      9  C4' I4B d   1       2.127   1.038  -2.829  0.00  0.00     0.013 C 
ATOM     10  C3' I4B d   1      -0.096   0.776  -3.896  0.00  0.00     0.013 C 
ENDBRANCH   7   8
ENDBRANCH   1   7
TORSDOF 2
ENDMDL
