MODEL 1
REMARK minimizedAffinity -4.40025663
REMARK minimizedRMSD -1
REMARK  2 active torsions:
REMARK  status: ('A' for Active; 'I' for Inactive)
REMARK    1  A    between atoms: C2'_3  and  C1'_4 
REMARK    2  A    between atoms: C1'_4  and  C1_5 
ROOT
ATOM      1  C1  I4B d   1       0.353  -0.010  -0.050  0.00  0.00    -0.075 A 
ATOM      2  C2  I4B d   1       1.174   0.196   1.031  0.00  0.00     0.003 A 
ATOM      3  C3  I4B d   1       0.637   0.667   2.254  0.00  0.00     0.002 A 
ATOM      4  C4  I4B d   1      -0.708   0.964   2.337  0.00  0.00    -0.004 A 
ATOM      5  C5  I4B d   1      -1.542   0.733   1.247  0.00  0.00     0.002 A 
ATOM      6  C6  I4B d   1      -1.011   0.231   0.050  0.00  0.00     0.003 A 
ENDROOT
BRANCH   1   7
ATOM      7  C1' I4B d   1       0.958  -0.476  -1.336  0.00  0.00     0.060 C 
BRANCH   7   8
ATOM      8  C2' I4B d   1       0.503   0.465  -2.433  0.00  0.00    -0.013 C 
ATOM      9  C4' I4B d   1       1.624   1.366  -2.878  0.00  0.00     0.013 C 
ATOM     10  C3' I4B d   1      -0.008  -0.366  -3.573  0.00  0.00     0.013 C 
ENDBRANCH   7   8
ENDBRANCH   1   7
TORSDOF 2
ENDMDL
