MODEL 1
REMARK minimizedAffinity -0.0966904834
REMARK minimizedRMSD -1
REMARK  2 active torsions:
REMARK  status: ('A' for Active; 'I' for Inactive)
REMARK    1  A    between atoms: C2'_3  and  C1'_4 
REMARK    2  A    between atoms: C1'_4  and  C1_5 
ROOT
ATOM      1  C1  I4B d   1       0.512   0.403   1.575  0.00  0.00    -0.075 A 
ATOM      2  C2  I4B d   1      -0.046  -0.033   0.399  0.00  0.00     0.003 A 
ATOM      3  C3  I4B d   1      -1.369  -0.536   0.380  0.00  0.00     0.002 A 
ATOM      4  C4  I4B d   1      -2.076  -0.632   1.561  0.00  0.00    -0.004 A 
ATOM      5  C5  I4B d   1      -1.518  -0.169   2.749  0.00  0.00     0.002 A 
ATOM      6  C6  I4B d   1      -0.220   0.363   2.755  0.00  0.00     0.003 A 
ENDROOT
BRANCH   1   7
ATOM      7  C1' I4B d   1       1.923   0.897   1.564  0.00  0.00     0.060 C 
BRANCH   7   8
ATOM      8  C2' I4B d   1       2.773  -0.100   2.325  0.00  0.00    -0.013 C 
ATOM      9  C4' I4B d   1       2.919  -1.389   1.560  0.00  0.00     0.013 C 
ATOM     10  C3' I4B d   1       4.109   0.531   2.582  0.00  0.00     0.013 C 
ENDBRANCH   7   8
ENDBRANCH   1   7
TORSDOF 2
ENDMDL
