MODEL 1
REMARK minimizedAffinity -1.85042536
REMARK minimizedRMSD -1
REMARK  2 active torsions:
REMARK  status: ('A' for Active; 'I' for Inactive)
REMARK    1  A    between atoms: C2'_3  and  C1'_4 
REMARK    2  A    between atoms: C1'_4  and  C1_5 
ROOT
ATOM      1  C1  I4B d   1       0.015   0.852  -0.337  0.00  0.00    -0.075 A 
ATOM      2  C2  I4B d   1       0.359   0.431   0.923  0.00  0.00     0.003 A 
ATOM      3  C3  I4B d   1      -0.648   0.125   1.872  0.00  0.00     0.002 A 
ATOM      4  C4  I4B d   1      -1.974   0.303   1.536  0.00  0.00    -0.004 A 
ATOM      5  C5  I4B d   1      -2.321   0.709   0.251  0.00  0.00     0.002 A 
ATOM      6  C6  I4B d   1      -1.321   0.973  -0.696  0.00  0.00     0.003 A 
ENDROOT
BRANCH   1   7
ATOM      7  C1' I4B d   1       1.103   1.198  -1.303  0.00  0.00     0.060 C 
BRANCH   7   8
ATOM      8  C2' I4B d   1       0.908   0.355  -2.547  0.00  0.00    -0.013 C 
ATOM      9  C4' I4B d   1       0.299   1.162  -3.663  0.00  0.00     0.013 C 
ATOM     10  C3' I4B d   1       2.244  -0.198  -2.946  0.00  0.00     0.013 C 
ENDBRANCH   7   8
ENDBRANCH   1   7
TORSDOF 2
ENDMDL
