MODEL 1
REMARK minimizedAffinity -5.39782858
REMARK minimizedRMSD -1
REMARK  2 active torsions:
REMARK  status: ('A' for Active; 'I' for Inactive)
REMARK    1  A    between atoms: C2'_3  and  C1'_4 
REMARK    2  A    between atoms: C1'_4  and  C1_5 
ROOT
ATOM      1  C1  I4B d   1      -0.111   0.167   0.219  0.00  0.00    -0.075 A 
ATOM      2  C2  I4B d   1       0.605   0.729   1.246  0.00  0.00     0.003 A 
ATOM      3  C3  I4B d   1      -0.064   1.410   2.292  0.00  0.00     0.002 A 
ATOM      4  C4  I4B d   1      -1.436   1.548   2.245  0.00  0.00    -0.004 A 
ATOM      5  C5  I4B d   1      -2.162   0.957   1.214  0.00  0.00     0.002 A 
ATOM      6  C6  I4B d   1      -1.497   0.252   0.201  0.00  0.00     0.003 A 
ENDROOT
BRANCH   1   7
ATOM      7  C1' I4B d   1       0.630  -0.516  -0.887  0.00  0.00     0.060 C 
BRANCH   7   8
ATOM      8  C2' I4B d   1       0.320   0.214  -2.178  0.00  0.00    -0.013 C 
ATOM      9  C4' I4B d   1       1.410   1.193  -2.525  0.00  0.00     0.013 C 
ATOM     10  C3' I4B d   1       0.148  -0.811  -3.259  0.00  0.00     0.013 C 
ENDBRANCH   7   8
ENDBRANCH   1   7
TORSDOF 2
ENDMDL
