MODEL 1
REMARK minimizedAffinity -6.26388407
REMARK minimizedRMSD -1
REMARK  2 active torsions:
REMARK  status: ('A' for Active; 'I' for Inactive)
REMARK    1  A    between atoms: C2'_3  and  C1'_4 
REMARK    2  A    between atoms: C1'_4  and  C1_5 
ROOT
ATOM      1  C1  I4B d   1      -0.586   0.414   0.397  0.00  0.00    -0.075 A 
ATOM      2  C2  I4B d   1       0.329   1.364   0.777  0.00  0.00     0.003 A 
ATOM      3  C3  I4B d   1       0.326   1.867   2.101  0.00  0.00     0.002 A 
ATOM      4  C4  I4B d   1      -0.634   1.430   2.992  0.00  0.00    -0.004 A 
ATOM      5  C5  I4B d   1      -1.545   0.450   2.611  0.00  0.00     0.002 A 
ATOM      6  C6  I4B d   1      -1.514  -0.071   1.310  0.00  0.00     0.003 A 
ENDROOT
BRANCH   1   7
ATOM      7  C1' I4B d   1      -0.575  -0.071  -1.018  0.00  0.00     0.060 C 
BRANCH   7   8
ATOM      8  C2' I4B d   1       0.867  -0.300  -1.423  0.00  0.00    -0.013 C 
ATOM      9  C4' I4B d   1       1.373  -1.622  -0.909  0.00  0.00     0.013 C 
ATOM     10  C3' I4B d   1       0.944  -0.235  -2.919  0.00  0.00     0.013 C 
ENDBRANCH   7   8
ENDBRANCH   1   7
TORSDOF 2
ENDMDL
