MODEL 1
REMARK minimizedAffinity -3.33504367
REMARK minimizedRMSD -1
REMARK  2 active torsions:
REMARK  status: ('A' for Active; 'I' for Inactive)
REMARK    1  A    between atoms: C1_2  and  C2_3 
REMARK    2  A    between atoms: C2_3  and  C3_4 
ROOT
ATOM      1  C3  UNL d   1       0.111  -0.030  -0.333  0.00  0.00    -0.075 A 
ATOM      2  C4  UNL d   1       0.839  -1.211  -0.541  0.00  0.00     0.002 A 
ATOM      3  C5  UNL d   1       2.101  -1.170  -1.135  0.00  0.00     0.002 A 
ATOM      4  C6  UNL d   1       2.645   0.048  -1.538  0.00  0.00    -0.004 A 
ATOM      5  C7  UNL d   1       1.923   1.225  -1.352  0.00  0.00     0.002 A 
ATOM      6  C8  UNL d   1       0.663   1.188  -0.754  0.00  0.00     0.002 A 
ENDROOT
BRANCH   1   7
ATOM      7  C2  UNL d   1      -1.242  -0.064   0.336  0.00  0.00     0.056 C 
BRANCH   7   8
ATOM      8  C1  UNL d   1      -1.492   1.101   1.299  0.00  0.00     0.007 C 
ATOM      9  C   UNL d   1      -2.099   0.665   2.625  0.00  0.00     0.009 C 
ENDBRANCH   7   8
ENDBRANCH   1   7
TORSDOF 2
ENDMDL
