MODEL 1
REMARK minimizedAffinity -2.32351327
REMARK minimizedRMSD -1
REMARK  2 active torsions:
REMARK  status: ('A' for Active; 'I' for Inactive)
REMARK    1  A    between atoms: C1_2  and  C2_3 
REMARK    2  A    between atoms: C2_3  and  C3_4 
ROOT
ATOM      1  C3  UNL d   1       1.663  -0.755  -0.172  0.00  0.00    -0.075 A 
ATOM      2  C4  UNL d   1       1.056   0.508  -0.233  0.00  0.00     0.002 A 
ATOM      3  C5  UNL d   1      -0.310   0.651   0.009  0.00  0.00     0.002 A 
ATOM      4  C6  UNL d   1      -1.088  -0.466   0.306  0.00  0.00    -0.004 A 
ATOM      5  C7  UNL d   1      -0.499  -1.728   0.354  0.00  0.00     0.002 A 
ATOM      6  C8  UNL d   1       0.869  -1.873   0.116  0.00  0.00     0.002 A 
ENDROOT
BRANCH   1   7
ATOM      7  C2  UNL d   1       3.147  -0.911  -0.404  0.00  0.00     0.056 C 
BRANCH   7   8
ATOM      8  C1  UNL d   1       3.526  -1.162  -1.868  0.00  0.00     0.007 C 
ATOM      9  C   UNL d   1       2.913  -2.435  -2.437  0.00  0.00     0.009 C 
ENDBRANCH   7   8
ENDBRANCH   1   7
TORSDOF 2
ENDMDL
