MODEL 1
REMARK minimizedAffinity -4.48338223
REMARK minimizedRMSD -1
REMARK  2 active torsions:
REMARK  status: ('A' for Active; 'I' for Inactive)
REMARK    1  A    between atoms: C1_2  and  C2_3 
REMARK    2  A    between atoms: C2_3  and  C3_4 
ROOT
ATOM      1  C3  UNL d   1      -0.138  -0.120  -0.077  0.00  0.00    -0.075 A 
ATOM      2  C4  UNL d   1       0.230  -1.469  -0.186  0.00  0.00     0.002 A 
ATOM      3  C5  UNL d   1       1.491  -1.823  -0.665  0.00  0.00     0.002 A 
ATOM      4  C6  UNL d   1       2.395  -0.836  -1.051  0.00  0.00    -0.004 A 
ATOM      5  C7  UNL d   1       2.035   0.507  -0.963  0.00  0.00     0.002 A 
ATOM      6  C8  UNL d   1       0.775   0.864  -0.479  0.00  0.00     0.002 A 
ENDROOT
BRANCH   1   7
ATOM      7  C2  UNL d   1      -1.490   0.271   0.469  0.00  0.00     0.056 C 
BRANCH   7   8
ATOM      8  C1  UNL d   1      -1.429   1.058   1.782  0.00  0.00     0.007 C 
ATOM      9  C   UNL d   1      -2.274   0.444   2.891  0.00  0.00     0.009 C 
ENDBRANCH   7   8
ENDBRANCH   1   7
TORSDOF 2
ENDMDL
