MODEL 1
REMARK minimizedAffinity -5.04538441
REMARK minimizedRMSD -1
REMARK  2 active torsions:
REMARK  status: ('A' for Active; 'I' for Inactive)
REMARK    1  A    between atoms: C1_2  and  C2_3 
REMARK    2  A    between atoms: C2_3  and  C3_4 
ROOT
ATOM      1  C3  UNL d   1      -0.202   0.060   0.078  0.00  0.00    -0.075 A 
ATOM      2  C4  UNL d   1      -0.063  -1.334   0.018  0.00  0.00     0.002 A 
ATOM      3  C5  UNL d   1       1.113  -1.909  -0.466  0.00  0.00     0.002 A 
ATOM      4  C6  UNL d   1       2.158  -1.099  -0.905  0.00  0.00    -0.004 A 
ATOM      5  C7  UNL d   1       2.025   0.287  -0.865  0.00  0.00     0.002 A 
ATOM      6  C8  UNL d   1       0.851   0.865  -0.378  0.00  0.00     0.002 A 
ENDROOT
BRANCH   1   7
ATOM      7  C2  UNL d   1      -1.460   0.688   0.628  0.00  0.00     0.056 C 
BRANCH   7   8
ATOM      8  C1  UNL d   1      -1.245   1.487   1.918  0.00  0.00     0.007 C 
ATOM      9  C   UNL d   1      -1.925   0.865   3.130  0.00  0.00     0.009 C 
ENDBRANCH   7   8
ENDBRANCH   1   7
TORSDOF 2
ENDMDL
