MODEL 1
REMARK minimizedAffinity -4.18140745
REMARK minimizedRMSD -1
REMARK  2 active torsions:
REMARK  status: ('A' for Active; 'I' for Inactive)
REMARK    1  A    between atoms: C1_2  and  C2_3 
REMARK    2  A    between atoms: C2_3  and  C3_4 
ROOT
ATOM      1  C3  UNL d   1       0.016  -0.149   0.328  0.00  0.00    -0.075 A 
ATOM      2  C4  UNL d   1       0.297  -1.435  -0.157  0.00  0.00     0.002 A 
ATOM      3  C5  UNL d   1       1.468  -1.681  -0.875  0.00  0.00     0.002 A 
ATOM      4  C6  UNL d   1       2.366  -0.645  -1.126  0.00  0.00    -0.004 A 
ATOM      5  C7  UNL d   1       2.088   0.639  -0.663  0.00  0.00     0.002 A 
ATOM      6  C8  UNL d   1       0.920   0.887   0.059  0.00  0.00     0.002 A 
ENDROOT
BRANCH   1   7
ATOM      7  C2  UNL d   1      -1.235   0.117   1.130  0.00  0.00     0.056 C 
BRANCH   7   8
ATOM      8  C1  UNL d   1      -1.027   1.072   2.311  0.00  0.00     0.007 C 
ATOM      9  C   UNL d   1      -1.879   0.722   3.523  0.00  0.00     0.009 C 
ENDBRANCH   7   8
ENDBRANCH   1   7
TORSDOF 2
ENDMDL
