MODEL 1
REMARK minimizedAffinity -5.86828756
REMARK minimizedRMSD -1
REMARK  2 active torsions:
REMARK  status: ('A' for Active; 'I' for Inactive)
REMARK    1  A    between atoms: C1_2  and  C2_3 
REMARK    2  A    between atoms: C2_3  and  C3_4 
ROOT
ATOM      1  C3  UNL d   1      -0.479   0.353  -0.614  0.00  0.00    -0.075 A 
ATOM      2  C4  UNL d   1       0.263  -0.660   0.011  0.00  0.00     0.002 A 
ATOM      3  C5  UNL d   1       1.649  -0.719  -0.139  0.00  0.00     0.002 A 
ATOM      4  C6  UNL d   1       2.308   0.225  -0.922  0.00  0.00    -0.004 A 
ATOM      5  C7  UNL d   1       1.580   1.226  -1.562  0.00  0.00     0.002 A 
ATOM      6  C8  UNL d   1       0.194   1.290  -1.410  0.00  0.00     0.002 A 
ENDROOT
BRANCH   1   7
ATOM      7  C2  UNL d   1      -1.975   0.440  -0.432  0.00  0.00     0.056 C 
BRANCH   7   8
ATOM      8  C1  UNL d   1      -2.459   0.028   0.962  0.00  0.00     0.007 C 
ATOM      9  C   UNL d   1      -2.158   1.068   2.033  0.00  0.00     0.009 C 
ENDBRANCH   7   8
ENDBRANCH   1   7
TORSDOF 2
ENDMDL
