MODEL 1
REMARK minimizedAffinity -4.84764147
REMARK minimizedRMSD -1
REMARK  2 active torsions:
REMARK  status: ('A' for Active; 'I' for Inactive)
REMARK    1  A    between atoms: C1_2  and  C2_3 
REMARK    2  A    between atoms: C2_3  and  C3_4 
ROOT
ATOM      1  C3  UNL d   1      -0.230  -0.053   0.198  0.00  0.00    -0.075 A 
ATOM      2  C4  UNL d   1       0.351  -1.316   0.017  0.00  0.00     0.002 A 
ATOM      3  C5  UNL d   1       1.534  -1.454  -0.710  0.00  0.00     0.002 A 
ATOM      4  C6  UNL d   1       2.143  -0.335  -1.274  0.00  0.00    -0.004 A 
ATOM      5  C7  UNL d   1       1.565   0.923  -1.114  0.00  0.00     0.002 A 
ATOM      6  C8  UNL d   1       0.384   1.064  -0.383  0.00  0.00     0.002 A 
ENDROOT
BRANCH   1   7
ATOM      7  C2  UNL d   1      -1.494   0.107   1.009  0.00  0.00     0.056 C 
BRANCH   7   8
ATOM      8  C1  UNL d   1      -1.402   1.175   2.103  0.00  0.00     0.007 C 
ATOM      9  C   UNL d   1      -1.949   0.708   3.446  0.00  0.00     0.009 C 
ENDBRANCH   7   8
ENDBRANCH   1   7
TORSDOF 2
ENDMDL
