MODEL 1
REMARK minimizedAffinity -4.3052063
REMARK minimizedRMSD -1
REMARK  2 active torsions:
REMARK  status: ('A' for Active; 'I' for Inactive)
REMARK    1  A    between atoms: C1_2  and  C2_3 
REMARK    2  A    between atoms: C2_3  and  C3_4 
ROOT
ATOM      1  C3  UNL d   1      -0.757   0.189   0.414  0.00  0.00    -0.075 A 
ATOM      2  C4  UNL d   1      -0.093  -1.046   0.413  0.00  0.00     0.002 A 
ATOM      3  C5  UNL d   1       1.026  -1.247  -0.397  0.00  0.00     0.002 A 
ATOM      4  C6  UNL d   1       1.487  -0.223  -1.221  0.00  0.00    -0.004 A 
ATOM      5  C7  UNL d   1       0.824   1.003  -1.240  0.00  0.00     0.002 A 
ATOM      6  C8  UNL d   1      -0.292   1.209  -0.428  0.00  0.00     0.002 A 
ENDROOT
BRANCH   1   7
ATOM      7  C2  UNL d   1      -1.950   0.424   1.309  0.00  0.00     0.056 C 
BRANCH   7   8
ATOM      8  C1  UNL d   1      -1.702   1.445   2.425  0.00  0.00     0.007 C 
ATOM      9  C   UNL d   1      -1.693   0.825   3.815  0.00  0.00     0.009 C 
ENDBRANCH   7   8
ENDBRANCH   1   7
TORSDOF 2
ENDMDL
