MODEL 1
REMARK minimizedAffinity -0.736070275
REMARK minimizedRMSD -1
REMARK  0 active torsions:
REMARK  status: ('A' for Active; 'I' for Inactive)
ROOT
ATOM      1  C   UNL d   1       0.042   0.006  -1.916  0.00  0.00     0.077 C 
ATOM      2  C1  UNL d   1       1.216   0.681  -2.560  0.00  0.00    -0.074 A 
ATOM      3  C2  UNL d   1       2.426   0.829  -1.874  0.00  0.00    -0.005 A 
ATOM      4  C3  UNL d   1       3.512   1.450  -2.490  0.00  0.00     0.006 A 
ATOM      5  C4  UNL d   1       3.400   1.929  -3.796  0.00  0.00    -0.005 A 
ATOM      6  C5  UNL d   1       2.199   1.789  -4.498  0.00  0.00    -0.074 A 
ATOM      7  C6  UNL d   1       2.065   2.289  -5.906  0.00  0.00     0.077 C 
ATOM      8  C7  UNL d   1       1.114   1.158  -3.875  0.00  0.00    -0.001 A 
ENDROOT
TORSDOF 0
ENDMDL
