MODEL 1
REMARK minimizedAffinity -1.60115457
REMARK minimizedRMSD -1
REMARK  0 active torsions:
REMARK  status: ('A' for Active; 'I' for Inactive)
ROOT
ATOM      1  C   UNL d   1       1.491   0.353  -1.482  0.00  0.00     0.077 C 
ATOM      2  C1  UNL d   1       1.932   0.946  -2.787  0.00  0.00    -0.074 A 
ATOM      3  C2  UNL d   1       3.288   1.143  -3.066  0.00  0.00    -0.005 A 
ATOM      4  C3  UNL d   1       3.683   1.687  -4.288  0.00  0.00     0.006 A 
ATOM      5  C4  UNL d   1       2.728   2.040  -5.242  0.00  0.00    -0.005 A 
ATOM      6  C5  UNL d   1       1.367   1.851  -4.981  0.00  0.00    -0.074 A 
ATOM      7  C6  UNL d   1       0.328   2.216  -5.999  0.00  0.00     0.077 C 
ATOM      8  C7  UNL d   1       0.978   1.296  -3.753  0.00  0.00    -0.001 A 
ENDROOT
TORSDOF 0
ENDMDL
