MODEL 1
REMARK minimizedAffinity 7.65108871
REMARK minimizedRMSD -1
REMARK  0 active torsions:
REMARK  status: ('A' for Active; 'I' for Inactive)
ROOT
ATOM      1  C   UNL d   1       0.376   1.872  -5.999  0.00  0.00     0.077 C 
ATOM      2  C1  UNL d   1       1.673   1.962  -5.252  0.00  0.00    -0.074 A 
ATOM      3  C2  UNL d   1       2.845   2.377  -5.894  0.00  0.00    -0.005 A 
ATOM      4  C3  UNL d   1       4.042   2.464  -5.184  0.00  0.00     0.006 A 
ATOM      5  C4  UNL d   1       4.080   2.138  -3.828  0.00  0.00    -0.005 A 
ATOM      6  C5  UNL d   1       2.919   1.722  -3.169  0.00  0.00    -0.074 A 
ATOM      7  C6  UNL d   1       2.941   1.378  -1.710  0.00  0.00     0.077 C 
ATOM      8  C7  UNL d   1       1.718   1.643  -3.888  0.00  0.00    -0.001 A 
ENDROOT
TORSDOF 0
ENDMDL
