MODEL 1
REMARK minimizedAffinity 9.90709972
REMARK minimizedRMSD -1
REMARK  0 active torsions:
REMARK  status: ('A' for Active; 'I' for Inactive)
ROOT
ATOM      1  C   UNL d   1       5.412   5.668   5.335  0.00  0.00     0.077 C 
ATOM      2  C1  UNL d   1       5.429   5.203   3.909  0.00  0.00    -0.074 A 
ATOM      3  C2  UNL d   1       5.981   5.998   2.900  0.00  0.00    -0.005 A 
ATOM      4  C3  UNL d   1       5.998   5.548   1.580  0.00  0.00     0.006 A 
ATOM      5  C4  UNL d   1       5.464   4.300   1.256  0.00  0.00    -0.005 A 
ATOM      6  C5  UNL d   1       4.908   3.491   2.252  0.00  0.00    -0.074 A 
ATOM      7  C6  UNL d   1       4.338   2.143   1.923  0.00  0.00     0.077 C 
ATOM      8  C7  UNL d   1       4.901   3.947   3.577  0.00  0.00    -0.001 A 
ENDROOT
TORSDOF 0
ENDMDL
