MODEL 1
REMARK minimizedAffinity -0.886048019
REMARK minimizedRMSD -1
REMARK  0 active torsions:
REMARK  status: ('A' for Active; 'I' for Inactive)
ROOT
ATOM      1  C   UNL d   1       0.442   1.436  -5.999  0.00  0.00     0.077 C 
ATOM      2  C1  UNL d   1       1.164   1.291  -4.692  0.00  0.00    -0.074 A 
ATOM      3  C2  UNL d   1       2.473   1.756  -4.538  0.00  0.00    -0.005 A 
ATOM      4  C3  UNL d   1       3.128   1.623  -3.313  0.00  0.00     0.006 A 
ATOM      5  C4  UNL d   1       2.480   1.024  -2.232  0.00  0.00    -0.005 A 
ATOM      6  C5  UNL d   1       1.171   0.553  -2.367  0.00  0.00    -0.074 A 
ATOM      7  C6  UNL d   1       0.457  -0.085  -1.212  0.00  0.00     0.077 C 
ATOM      8  C7  UNL d   1       0.517   0.697  -3.599  0.00  0.00    -0.001 A 
ENDROOT
TORSDOF 0
ENDMDL
