MODEL 1
REMARK minimizedAffinity -1.44662774
REMARK minimizedRMSD -1
REMARK  0 active torsions:
REMARK  status: ('A' for Active; 'I' for Inactive)
ROOT
ATOM      1  C   UNL d   1       3.373   0.003  -1.679  0.00  0.00     0.077 C 
ATOM      2  C1  UNL d   1       2.546   0.856  -2.595  0.00  0.00    -0.074 A 
ATOM      3  C2  UNL d   1       2.988   1.162  -3.886  0.00  0.00    -0.005 A 
ATOM      4  C3  UNL d   1       2.203   1.948  -4.730  0.00  0.00     0.006 A 
ATOM      5  C4  UNL d   1       0.971   2.435  -4.292  0.00  0.00    -0.005 A 
ATOM      6  C5  UNL d   1       0.513   2.139  -3.005  0.00  0.00    -0.074 A 
ATOM      7  C6  UNL d   1      -0.813   2.646  -2.522  0.00  0.00     0.077 C 
ATOM      8  C7  UNL d   1       1.304   1.342  -2.165  0.00  0.00    -0.001 A 
ENDROOT
TORSDOF 0
ENDMDL
