MODEL 1
REMARK minimizedAffinity 0.307275742
REMARK minimizedRMSD -1
REMARK  0 active torsions:
REMARK  status: ('A' for Active; 'I' for Inactive)
ROOT
ATOM      1  C   UNL d   1       4.333   2.312  -5.331  0.00  0.00     0.077 C 
ATOM      2  C1  UNL d   1       3.091   1.981  -4.557  0.00  0.00    -0.074 A 
ATOM      3  C2  UNL d   1       1.825   2.141  -5.128  0.00  0.00    -0.005 A 
ATOM      4  C3  UNL d   1       0.679   1.820  -4.400  0.00  0.00     0.006 A 
ATOM      5  C4  UNL d   1       0.789   1.337  -3.095  0.00  0.00    -0.005 A 
ATOM      6  C5  UNL d   1       2.047   1.170  -2.508  0.00  0.00    -0.074 A 
ATOM      7  C6  UNL d   1       2.182   0.643  -1.110  0.00  0.00     0.077 C 
ATOM      8  C7  UNL d   1       3.193   1.488  -3.249  0.00  0.00    -0.001 A 
ENDROOT
TORSDOF 0
ENDMDL
