MODEL 1
REMARK minimizedAffinity -4.43106365
REMARK minimizedRMSD -1
REMARK  0 active torsions:
REMARK  status: ('A' for Active; 'I' for Inactive)
ROOT
ATOM      1  C   UNL d   1       2.992   1.277  -1.743  0.00  0.00     0.077 C 
ATOM      2  C1  UNL d   1       2.954   1.495  -3.226  0.00  0.00    -0.074 A 
ATOM      3  C2  UNL d   1       4.133   1.678  -3.956  0.00  0.00    -0.005 A 
ATOM      4  C3  UNL d   1       4.083   1.870  -5.337  0.00  0.00     0.006 A 
ATOM      5  C4  UNL d   1       2.855   1.883  -6.000  0.00  0.00    -0.005 A 
ATOM      6  C5  UNL d   1       1.666   1.701  -5.287  0.00  0.00    -0.074 A 
ATOM      7  C6  UNL d   1       0.339   1.702  -5.985  0.00  0.00     0.077 C 
ATOM      8  C7  UNL d   1       1.725   1.501  -3.901  0.00  0.00    -0.001 A 
ENDROOT
TORSDOF 0
ENDMDL
