MODEL 1
REMARK minimizedAffinity -1.17721963
REMARK minimizedRMSD -1
REMARK  0 active torsions:
REMARK  status: ('A' for Active; 'I' for Inactive)
ROOT
ATOM      1  C   UNL d   1       2.204  -1.211  -1.474  0.00  0.00     0.077 C 
ATOM      2  C1  UNL d   1       2.243   0.077  -2.243  0.00  0.00    -0.074 A 
ATOM      3  C2  UNL d   1       3.380   0.446  -2.969  0.00  0.00    -0.005 A 
ATOM      4  C3  UNL d   1       3.398   1.642  -3.686  0.00  0.00     0.006 A 
ATOM      5  C4  UNL d   1       2.282   2.479  -3.685  0.00  0.00    -0.005 A 
ATOM      6  C5  UNL d   1       1.136   2.126  -2.966  0.00  0.00    -0.074 A 
ATOM      7  C6  UNL d   1      -0.076   3.010  -2.962  0.00  0.00     0.077 C 
ATOM      8  C7  UNL d   1       1.122   0.919  -2.253  0.00  0.00    -0.001 A 
ENDROOT
TORSDOF 0
ENDMDL
