MODEL 1
REMARK minimizedAffinity 4.34125662
REMARK minimizedRMSD -1
REMARK  0 active torsions:
REMARK  status: ('A' for Active; 'I' for Inactive)
ROOT
ATOM      1  C   UNL d   1       5.995   5.766   3.473  0.00  0.00     0.077 C 
ATOM      2  C1  UNL d   1       5.271   5.820   2.161  0.00  0.00    -0.074 A 
ATOM      3  C2  UNL d   1       5.972   5.956   0.959  0.00  0.00    -0.005 A 
ATOM      4  C3  UNL d   1       5.285   5.995  -0.255  0.00  0.00     0.006 A 
ATOM      5  C4  UNL d   1       3.893   5.898  -0.278  0.00  0.00    -0.005 A 
ATOM      6  C5  UNL d   1       3.176   5.760   0.914  0.00  0.00    -0.074 A 
ATOM      7  C6  UNL d   1       1.680   5.645   0.906  0.00  0.00     0.077 C 
ATOM      8  C7  UNL d   1       3.873   5.715   2.129  0.00  0.00    -0.001 A 
ENDROOT
TORSDOF 0
ENDMDL
