MODEL 1
REMARK minimizedAffinity 5.61652994
REMARK minimizedRMSD -1
REMARK  0 active torsions:
REMARK  status: ('A' for Active; 'I' for Inactive)
ROOT
ATOM      1  C   UNL d   1       2.333   1.192  -1.533  0.00  0.00     0.077 C 
ATOM      2  C1  UNL d   1       2.478   1.574  -2.976  0.00  0.00    -0.074 A 
ATOM      3  C2  UNL d   1       3.737   1.824  -3.531  0.00  0.00    -0.005 A 
ATOM      4  C3  UNL d   1       3.857   2.170  -4.877  0.00  0.00     0.006 A 
ATOM      5  C4  UNL d   1       2.721   2.268  -5.681  0.00  0.00    -0.005 A 
ATOM      6  C5  UNL d   1       1.454   2.020  -5.145  0.00  0.00    -0.074 A 
ATOM      7  C6  UNL d   1       0.223   2.111  -5.998  0.00  0.00     0.077 C 
ATOM      8  C7  UNL d   1       1.342   1.667  -3.793  0.00  0.00    -0.001 A 
ENDROOT
TORSDOF 0
ENDMDL
