MODEL 1
REMARK minimizedAffinity 3.50530148
REMARK minimizedRMSD -1
REMARK  0 active torsions:
REMARK  status: ('A' for Active; 'I' for Inactive)
ROOT
ATOM      1  C   UNL d   1      -3.363   2.359   2.798  0.00  0.00     0.077 C 
ATOM      2  C1  UNL d   1      -4.022   1.012   2.794  0.00  0.00    -0.074 A 
ATOM      3  C2  UNL d   1      -5.401   0.887   2.597  0.00  0.00    -0.005 A 
ATOM      4  C3  UNL d   1      -6.000  -0.373   2.586  0.00  0.00     0.006 A 
ATOM      5  C4  UNL d   1      -5.226  -1.519   2.771  0.00  0.00    -0.005 A 
ATOM      6  C5  UNL d   1      -3.846  -1.415   2.969  0.00  0.00    -0.074 A 
ATOM      7  C6  UNL d   1      -2.998  -2.637   3.159  0.00  0.00     0.077 C 
ATOM      8  C7  UNL d   1      -3.251  -0.145   2.971  0.00  0.00    -0.001 A 
ENDROOT
TORSDOF 0
ENDMDL
