MODEL 1
REMARK minimizedAffinity -3.58700037
REMARK minimizedRMSD -1
REMARK  0 active torsions:
REMARK  status: ('A' for Active; 'I' for Inactive)
ROOT
ATOM      1  C   UNL d   1       0.256   3.136  -3.092  0.00  0.00     0.077 C 
ATOM      2  C1  UNL d   1       0.921   1.904  -2.552  0.00  0.00    -0.074 A 
ATOM      3  C2  UNL d   1       2.306   1.860  -2.362  0.00  0.00    -0.005 A 
ATOM      4  C3  UNL d   1       2.909   0.711  -1.850  0.00  0.00     0.006 A 
ATOM      5  C4  UNL d   1       2.134  -0.403  -1.523  0.00  0.00    -0.005 A 
ATOM      6  C5  UNL d   1       0.748  -0.376  -1.704  0.00  0.00    -0.074 A 
ATOM      7  C6  UNL d   1      -0.100  -1.561  -1.348  0.00  0.00     0.077 C 
ATOM      8  C7  UNL d   1       0.149   0.784  -2.213  0.00  0.00    -0.001 A 
ENDROOT
TORSDOF 0
ENDMDL
