MODEL 1
REMARK minimizedAffinity 0.930917978
REMARK minimizedRMSD -1
REMARK  0 active torsions:
REMARK  status: ('A' for Active; 'I' for Inactive)
ROOT
ATOM      1  C   UNL d   1       5.132   5.673   4.626  0.00  0.00     0.077 C 
ATOM      2  C1  UNL d   1       4.916   5.780   3.146  0.00  0.00    -0.074 A 
ATOM      3  C2  UNL d   1       6.000   5.804   2.262  0.00  0.00    -0.005 A 
ATOM      4  C3  UNL d   1       5.783   5.895   0.887  0.00  0.00     0.006 A 
ATOM      5  C4  UNL d   1       4.483   5.962   0.383  0.00  0.00    -0.005 A 
ATOM      6  C5  UNL d   1       3.388   5.938   1.252  0.00  0.00    -0.074 A 
ATOM      7  C6  UNL d   1       1.984   6.000   0.727  0.00  0.00     0.077 C 
ATOM      8  C7  UNL d   1       3.614   5.840   2.632  0.00  0.00    -0.001 A 
ENDROOT
TORSDOF 0
ENDMDL
