MODEL 1
REMARK minimizedAffinity 3.44859576
REMARK minimizedRMSD -1
REMARK  0 active torsions:
REMARK  status: ('A' for Active; 'I' for Inactive)
ROOT
ATOM      1  C   UNL d   1       2.061   5.998   0.606  0.00  0.00     0.077 C 
ATOM      2  C1  UNL d   1       3.438   5.967   1.199  0.00  0.00    -0.074 A 
ATOM      3  C2  UNL d   1       4.573   5.995   0.383  0.00  0.00    -0.005 A 
ATOM      4  C3  UNL d   1       5.848   5.976   0.949  0.00  0.00     0.006 A 
ATOM      5  C4  UNL d   1       6.000   5.929   2.335  0.00  0.00    -0.005 A 
ATOM      6  C5  UNL d   1       4.876   5.902   3.168  0.00  0.00    -0.074 A 
ATOM      7  C6  UNL d   1       5.022   5.861   4.660  0.00  0.00     0.077 C 
ATOM      8  C7  UNL d   1       3.599   5.928   2.591  0.00  0.00    -0.001 A 
ENDROOT
TORSDOF 0
ENDMDL
