MODEL 1
REMARK minimizedAffinity 2.38723922
REMARK minimizedRMSD -1
REMARK  0 active torsions:
REMARK  status: ('A' for Active; 'I' for Inactive)
ROOT
ATOM      1  C   UNL d   1       2.997   2.654  -5.999  0.00  0.00     0.077 C 
ATOM      2  C1  UNL d   1       2.303   1.906  -4.900  0.00  0.00    -0.074 A 
ATOM      3  C2  UNL d   1       0.966   1.516  -5.029  0.00  0.00    -0.005 A 
ATOM      4  C3  UNL d   1       0.336   0.812  -4.003  0.00  0.00     0.006 A 
ATOM      5  C4  UNL d   1       1.035   0.492  -2.838  0.00  0.00    -0.005 A 
ATOM      6  C5  UNL d   1       2.373   0.873  -2.692  0.00  0.00    -0.074 A 
ATOM      7  C6  UNL d   1       3.142   0.528  -1.451  0.00  0.00     0.077 C 
ATOM      8  C7  UNL d   1       3.001   1.573  -3.730  0.00  0.00    -0.001 A 
ENDROOT
TORSDOF 0
ENDMDL
