MODEL 1
REMARK minimizedAffinity 5.37350321
REMARK minimizedRMSD -1
REMARK  0 active torsions:
REMARK  status: ('A' for Active; 'I' for Inactive)
ROOT
ATOM      1  C   UNL d   1      -0.025   0.760  -2.450  0.00  0.00     0.077 C 
ATOM      2  C1  UNL d   1       1.379   1.149  -2.805  0.00  0.00    -0.074 A 
ATOM      3  C2  UNL d   1       2.431   0.944  -1.906  0.00  0.00    -0.005 A 
ATOM      4  C3  UNL d   1       3.733   1.302  -2.253  0.00  0.00     0.006 A 
ATOM      5  C4  UNL d   1       3.997   1.867  -3.502  0.00  0.00    -0.005 A 
ATOM      6  C5  UNL d   1       2.959   2.078  -4.414  0.00  0.00    -0.074 A 
ATOM      7  C6  UNL d   1       3.227   2.675  -5.764  0.00  0.00     0.077 C 
ATOM      8  C7  UNL d   1       1.654   1.709  -4.060  0.00  0.00    -0.001 A 
ENDROOT
TORSDOF 0
ENDMDL
