MODEL 1
REMARK minimizedAffinity -5.60490799
REMARK minimizedRMSD -1
REMARK  0 active torsions:
REMARK  status: ('A' for Active; 'I' for Inactive)
ROOT
ATOM      1  C   UNL d   1      -0.393   2.873  -0.403  0.00  0.00     0.077 C 
ATOM      2  C1  UNL d   1      -0.057   1.415  -0.307  0.00  0.00    -0.074 A 
ATOM      3  C2  UNL d   1      -0.930   0.514   0.312  0.00  0.00    -0.005 A 
ATOM      4  C3  UNL d   1      -0.608  -0.841   0.384  0.00  0.00     0.006 A 
ATOM      5  C4  UNL d   1       0.588  -1.309  -0.160  0.00  0.00    -0.005 A 
ATOM      6  C5  UNL d   1       1.474  -0.424  -0.783  0.00  0.00    -0.074 A 
ATOM      7  C6  UNL d   1       2.759  -0.912  -1.382  0.00  0.00     0.077 C 
ATOM      8  C7  UNL d   1       1.140   0.935  -0.858  0.00  0.00    -0.001 A 
ENDROOT
TORSDOF 0
ENDMDL
