MODEL 1
REMARK minimizedAffinity -2.96611857
REMARK minimizedRMSD -1
REMARK  0 active torsions:
REMARK  status: ('A' for Active; 'I' for Inactive)
ROOT
ATOM      1  C   UNL d   1       0.730   1.552   1.754  0.00  0.00     0.078 C 
ATOM      2  C1  UNL d   1       0.891   1.216   0.301  0.00  0.00    -0.077 A 
ATOM      3  C2  UNL d   1       0.871  -0.114  -0.138  0.00  0.00    -0.001 A 
ATOM      4  C3  UNL d   1       1.031  -0.412  -1.492  0.00  0.00     0.003 A 
ATOM      5  C4  UNL d   1       1.213   0.613  -2.418  0.00  0.00    -0.005 A 
ATOM      6  C5  UNL d   1       1.236   1.939  -1.990  0.00  0.00     0.003 A 
ATOM      7  C6  UNL d   1       1.076   2.240  -0.637  0.00  0.00    -0.001 A 
ENDROOT
TORSDOF 0
ENDMDL
