MODEL 1
REMARK minimizedAffinity -5.28627729
REMARK minimizedRMSD -1
REMARK  0 active torsions:
REMARK  status: ('A' for Active; 'I' for Inactive)
ROOT
ATOM      1  C   UNL d   1       1.529  -1.129  -0.821  0.00  0.00     0.078 C 
ATOM      2  C1  UNL d   1       1.361   0.359  -0.755  0.00  0.00    -0.077 A 
ATOM      3  C2  UNL d   1       0.949   0.987   0.426  0.00  0.00    -0.001 A 
ATOM      4  C3  UNL d   1       0.788   2.373   0.471  0.00  0.00     0.003 A 
ATOM      5  C4  UNL d   1       1.035   3.142  -0.664  0.00  0.00    -0.005 A 
ATOM      6  C5  UNL d   1       1.444   2.527  -1.845  0.00  0.00     0.003 A 
ATOM      7  C6  UNL d   1       1.606   1.141  -1.891  0.00  0.00    -0.001 A 
ENDROOT
TORSDOF 0
ENDMDL
