MODEL 1
REMARK minimizedAffinity -3.88890719
REMARK minimizedRMSD -1
REMARK  0 active torsions:
REMARK  status: ('A' for Active; 'I' for Inactive)
ROOT
ATOM      1  C   UNL d   1       0.721   3.830   0.525  0.00  0.00     0.078 C 
ATOM      2  C1  UNL d   1       0.961   2.516  -0.156  0.00  0.00    -0.077 A 
ATOM      3  C2  UNL d   1       1.080   1.332   0.582  0.00  0.00    -0.001 A 
ATOM      4  C3  UNL d   1       1.313   0.117  -0.065  0.00  0.00     0.003 A 
ATOM      5  C4  UNL d   1       1.430   0.075  -1.453  0.00  0.00    -0.005 A 
ATOM      6  C5  UNL d   1       1.315   1.248  -2.196  0.00  0.00     0.003 A 
ATOM      7  C6  UNL d   1       1.082   2.464  -1.551  0.00  0.00    -0.001 A 
ENDROOT
TORSDOF 0
ENDMDL
