MODEL 1
REMARK minimizedAffinity -1.45483446
REMARK minimizedRMSD -1
REMARK  0 active torsions:
REMARK  status: ('A' for Active; 'I' for Inactive)
ROOT
ATOM      1  C   UNL d   1       1.203   3.859  -1.421  0.00  0.00     0.078 C 
ATOM      2  C1  UNL d   1       1.155   2.476  -0.844  0.00  0.00    -0.077 A 
ATOM      3  C2  UNL d   1       1.540   2.234   0.480  0.00  0.00    -0.001 A 
ATOM      4  C3  UNL d   1       1.499   0.939   1.001  0.00  0.00     0.003 A 
ATOM      5  C4  UNL d   1       1.074  -0.122   0.205  0.00  0.00    -0.005 A 
ATOM      6  C5  UNL d   1       0.691   0.109  -1.114  0.00  0.00     0.003 A 
ATOM      7  C6  UNL d   1       0.731   1.403  -1.637  0.00  0.00    -0.001 A 
ENDROOT
TORSDOF 0
ENDMDL
