MODEL 1
REMARK minimizedAffinity -1.50886643
REMARK minimizedRMSD -1
REMARK  0 active torsions:
REMARK  status: ('A' for Active; 'I' for Inactive)
ROOT
ATOM      1  C   UNL d   1       0.864  -0.312  -1.172  0.00  0.00     0.078 C 
ATOM      2  C1  UNL d   1       0.899   1.175  -0.979  0.00  0.00    -0.077 A 
ATOM      3  C2  UNL d   1       0.910   2.045  -2.076  0.00  0.00    -0.001 A 
ATOM      4  C3  UNL d   1       0.953   3.426  -1.881  0.00  0.00     0.003 A 
ATOM      5  C4  UNL d   1       0.987   3.950  -0.590  0.00  0.00    -0.005 A 
ATOM      6  C5  UNL d   1       0.979   3.092   0.508  0.00  0.00     0.003 A 
ATOM      7  C6  UNL d   1       0.936   1.711   0.315  0.00  0.00    -0.001 A 
ENDROOT
TORSDOF 0
ENDMDL
