MODEL 1
REMARK minimizedAffinity 9.02880192
REMARK minimizedRMSD -1
REMARK  0 active torsions:
REMARK  status: ('A' for Active; 'I' for Inactive)
ROOT
ATOM      1  C   UNL d   1       3.156   0.594   1.143  0.00  0.00     0.078 C 
ATOM      2  C1  UNL d   1       2.255   0.823  -0.033  0.00  0.00    -0.077 A 
ATOM      3  C2  UNL d   1       1.735  -0.252  -0.763  0.00  0.00    -0.001 A 
ATOM      4  C3  UNL d   1       0.905  -0.024  -1.862  0.00  0.00     0.003 A 
ATOM      5  C4  UNL d   1       0.589   1.279  -2.241  0.00  0.00    -0.005 A 
ATOM      6  C5  UNL d   1       1.104   2.356  -1.522  0.00  0.00     0.003 A 
ATOM      7  C6  UNL d   1       1.934   2.129  -0.423  0.00  0.00    -0.001 A 
ENDROOT
TORSDOF 0
ENDMDL
