MODEL 1
REMARK minimizedAffinity -0.782998741
REMARK minimizedRMSD -1
REMARK  0 active torsions:
REMARK  status: ('A' for Active; 'I' for Inactive)
ROOT
ATOM      1  C   UNL d   1       0.444   3.512   0.429  0.00  0.00     0.078 C 
ATOM      2  C1  UNL d   1       0.908   2.302  -0.325  0.00  0.00    -0.077 A 
ATOM      3  C2  UNL d   1       0.908   1.036   0.273  0.00  0.00    -0.001 A 
ATOM      4  C3  UNL d   1       1.352  -0.080  -0.438  0.00  0.00     0.003 A 
ATOM      5  C4  UNL d   1       1.801   0.059  -1.750  0.00  0.00    -0.005 A 
ATOM      6  C5  UNL d   1       1.806   1.316  -2.353  0.00  0.00     0.003 A 
ATOM      7  C6  UNL d   1       1.363   2.433  -1.643  0.00  0.00    -0.001 A 
ENDROOT
TORSDOF 0
ENDMDL
