MODEL 1
REMARK minimizedAffinity -0.543339789
REMARK minimizedRMSD -1
REMARK  0 active torsions:
REMARK  status: ('A' for Active; 'I' for Inactive)
ROOT
ATOM      1  C   UNL d   1       0.386   3.018  -2.240  0.00  0.00     0.078 C 
ATOM      2  C1  UNL d   1       0.722   1.993  -1.199  0.00  0.00    -0.077 A 
ATOM      3  C2  UNL d   1       1.215   2.373   0.055  0.00  0.00    -0.001 A 
ATOM      4  C3  UNL d   1       1.533   1.408   1.012  0.00  0.00     0.003 A 
ATOM      5  C4  UNL d   1       1.363   0.055   0.724  0.00  0.00    -0.005 A 
ATOM      6  C5  UNL d   1       0.875  -0.333  -0.522  0.00  0.00     0.003 A 
ATOM      7  C6  UNL d   1       0.557   0.631  -1.480  0.00  0.00    -0.001 A 
ENDROOT
TORSDOF 0
ENDMDL
