MODEL 1
REMARK minimizedAffinity -1.23061991
REMARK minimizedRMSD -1
REMARK  0 active torsions:
REMARK  status: ('A' for Active; 'I' for Inactive)
ROOT
ATOM      1  C   UNL d   1      -1.599   1.128   5.909  0.00  0.00     0.078 C 
ATOM      2  C1  UNL d   1      -2.256   1.341   4.579  0.00  0.00    -0.077 A 
ATOM      3  C2  UNL d   1      -1.922   2.439   3.777  0.00  0.00    -0.001 A 
ATOM      4  C3  UNL d   1      -2.550   2.630   2.545  0.00  0.00     0.003 A 
ATOM      5  C4  UNL d   1      -3.515   1.727   2.104  0.00  0.00    -0.005 A 
ATOM      6  C5  UNL d   1      -3.856   0.633   2.896  0.00  0.00     0.003 A 
ATOM      7  C6  UNL d   1      -3.230   0.440   4.128  0.00  0.00    -0.001 A 
ENDROOT
TORSDOF 0
ENDMDL
