MODEL 1
REMARK minimizedAffinity -5.38768244
REMARK minimizedRMSD -1
REMARK  0 active torsions:
REMARK  status: ('A' for Active; 'I' for Inactive)
ROOT
ATOM      1  C   UNL d   1       1.014   4.617  -0.722  0.00  0.00     0.078 C 
ATOM      2  C1  UNL d   1       1.034   3.133  -0.506  0.00  0.00    -0.077 A 
ATOM      3  C2  UNL d   1       0.546   2.570   0.679  0.00  0.00    -0.001 A 
ATOM      4  C3  UNL d   1       0.580   1.188   0.870  0.00  0.00     0.003 A 
ATOM      5  C4  UNL d   1       1.102   0.357  -0.119  0.00  0.00    -0.005 A 
ATOM      6  C5  UNL d   1       1.592   0.908  -1.301  0.00  0.00     0.003 A 
ATOM      7  C6  UNL d   1       1.559   2.290  -1.494  0.00  0.00    -0.001 A 
ENDROOT
TORSDOF 0
ENDMDL
