MODEL 1
REMARK minimizedAffinity -5.14130354
REMARK minimizedRMSD -1
REMARK  0 active torsions:
REMARK  status: ('A' for Active; 'I' for Inactive)
ROOT
ATOM      1  C   UNL d   1       1.141   4.212  -1.132  0.00  0.00     0.078 C 
ATOM      2  C1  UNL d   1       1.010   2.823  -0.581  0.00  0.00    -0.077 A 
ATOM      3  C2  UNL d   1       0.924   1.715  -1.433  0.00  0.00    -0.001 A 
ATOM      4  C3  UNL d   1       0.792   0.429  -0.907  0.00  0.00     0.003 A 
ATOM      5  C4  UNL d   1       0.743   0.239   0.473  0.00  0.00    -0.005 A 
ATOM      6  C5  UNL d   1       0.826   1.336   1.328  0.00  0.00     0.003 A 
ATOM      7  C6  UNL d   1       0.958   2.622   0.804  0.00  0.00    -0.001 A 
ENDROOT
TORSDOF 0
ENDMDL
