MODEL 1
REMARK minimizedAffinity -3.95736933
REMARK minimizedRMSD -1
REMARK  0 active torsions:
REMARK  status: ('A' for Active; 'I' for Inactive)
ROOT
ATOM      1  C   UNL d   1       1.291   3.994  -1.811  0.00  0.00     0.078 C 
ATOM      2  C1  UNL d   1       1.134   2.676  -1.113  0.00  0.00    -0.077 A 
ATOM      3  C2  UNL d   1       0.877   2.615   0.262  0.00  0.00    -0.001 A 
ATOM      4  C3  UNL d   1       0.743   1.381   0.900  0.00  0.00     0.003 A 
ATOM      5  C4  UNL d   1       0.866   0.199   0.172  0.00  0.00    -0.005 A 
ATOM      6  C5  UNL d   1       1.125   0.250  -1.196  0.00  0.00     0.003 A 
ATOM      7  C6  UNL d   1       1.259   1.483  -1.836  0.00  0.00    -0.001 A 
ENDROOT
TORSDOF 0
ENDMDL
