MODEL 1
REMARK minimizedAffinity 1.94642329
REMARK minimizedRMSD -1
REMARK  0 active torsions:
REMARK  status: ('A' for Active; 'I' for Inactive)
ROOT
ATOM      1  C   UNL d   1       0.854   3.549  -1.884  0.00  0.00     0.078 C 
ATOM      2  C1  UNL d   1       1.052   2.281  -1.108  0.00  0.00    -0.077 A 
ATOM      3  C2  UNL d   1       1.468   1.105  -1.743  0.00  0.00    -0.001 A 
ATOM      4  C3  UNL d   1       1.639  -0.071  -1.010  0.00  0.00     0.003 A 
ATOM      5  C4  UNL d   1       1.395  -0.081   0.362  0.00  0.00    -0.005 A 
ATOM      6  C5  UNL d   1       0.979   1.084   1.002  0.00  0.00     0.003 A 
ATOM      7  C6  UNL d   1       0.807   2.260   0.271  0.00  0.00    -0.001 A 
ENDROOT
TORSDOF 0
ENDMDL
