MODEL 1
REMARK minimizedAffinity 1.07990122
REMARK minimizedRMSD -1
REMARK  0 active torsions:
REMARK  status: ('A' for Active; 'I' for Inactive)
ROOT
ATOM      1  C   UNL d   1       1.149   1.876   1.516  0.00  0.00     0.078 C 
ATOM      2  C1  UNL d   1       1.120   1.446   0.080  0.00  0.00    -0.077 A 
ATOM      3  C2  UNL d   1       0.809   2.354  -0.940  0.00  0.00    -0.001 A 
ATOM      4  C3  UNL d   1       0.776   1.937  -2.271  0.00  0.00     0.003 A 
ATOM      5  C4  UNL d   1       1.053   0.611  -2.596  0.00  0.00    -0.005 A 
ATOM      6  C5  UNL d   1       1.362  -0.301  -1.588  0.00  0.00     0.003 A 
ATOM      7  C6  UNL d   1       1.395   0.114  -0.256  0.00  0.00    -0.001 A 
ENDROOT
TORSDOF 0
ENDMDL
