MODEL 1
REMARK minimizedAffinity 13.0686188
REMARK minimizedRMSD -1
REMARK  0 active torsions:
REMARK  status: ('A' for Active; 'I' for Inactive)
ROOT
ATOM      1  N1  IND d   1      -3.808   4.589  -3.788  0.00  0.00    -0.196 N 
ATOM      2  C2  IND d   1      -4.809   5.187  -4.501  0.00  0.00     0.054 A 
ATOM      3  C3  IND d   1      -5.738   4.274  -4.864  0.00  0.00    -0.031 A 
ATOM      4  C4  IND d   1      -5.868   1.764  -4.310  0.00  0.00     0.051 A 
ATOM      5  C5  IND d   1      -5.165   0.754  -3.716  0.00  0.00    -0.031 A 
ATOM      6  C6  IND d   1      -3.950   0.976  -3.100  0.00  0.00     0.015 A 
ATOM      7  C7  IND d   1      -3.396   2.224  -3.046  0.00  0.00    -0.016 A 
ATOM      8  C8  IND d   1      -4.104   3.250  -3.655  0.00  0.00    -0.047 A 
ATOM      9  C9  IND d   1      -5.317   3.023  -4.318  0.00  0.00    -0.096 A 
ATOM     10  HN1 IND d   1      -3.110   4.982  -3.475  0.00  0.00     0.298 HD
ENDROOT
TORSDOF 0
ENDMDL
