MODEL 1
REMARK minimizedAffinity 4.48970652
REMARK minimizedRMSD -1
REMARK  0 active torsions:
REMARK  status: ('A' for Active; 'I' for Inactive)
ROOT
ATOM      1  N1  IND d   1      -3.990  -1.303  -1.402  0.00  0.00    -0.196 N 
ATOM      2  C2  IND d   1      -4.227  -2.511  -1.998  0.00  0.00     0.054 A 
ATOM      3  C3  IND d   1      -4.674  -2.333  -3.261  0.00  0.00    -0.031 A 
ATOM      4  C4  IND d   1      -4.992  -0.151  -4.591  0.00  0.00     0.051 A 
ATOM      5  C5  IND d   1      -4.940   1.208  -4.459  0.00  0.00    -0.031 A 
ATOM      6  C6  IND d   1      -4.558   1.812  -3.278  0.00  0.00     0.015 A 
ATOM      7  C7  IND d   1      -4.202   1.075  -2.184  0.00  0.00    -0.016 A 
ATOM      8  C8  IND d   1      -4.260  -0.305  -2.312  0.00  0.00    -0.047 A 
ATOM      9  C9  IND d   1      -4.688  -0.923  -3.495  0.00  0.00    -0.096 A 
ATOM     10  HN1 IND d   1      -3.717  -1.187  -0.595  0.00  0.00     0.298 HD
ENDROOT
TORSDOF 0
ENDMDL
