MODEL 1
REMARK minimizedAffinity 13.6471138
REMARK minimizedRMSD -1
REMARK  0 active torsions:
REMARK  status: ('A' for Active; 'I' for Inactive)
ROOT
ATOM      1  N1  IND d   1       1.203  -5.085   1.852  0.00  0.00    -0.196 N 
ATOM      2  C2  IND d   1       2.343  -4.472   1.412  0.00  0.00     0.054 A 
ATOM      3  C3  IND d   1       2.259  -3.135   1.597  0.00  0.00    -0.031 A 
ATOM      4  C4  IND d   1       0.387  -1.750   2.695  0.00  0.00     0.051 A 
ATOM      5  C5  IND d   1      -0.871  -1.863   3.218  0.00  0.00    -0.031 A 
ATOM      6  C6  IND d   1      -1.513  -3.080   3.317  0.00  0.00     0.015 A 
ATOM      7  C7  IND d   1      -0.915  -4.237   2.905  0.00  0.00    -0.016 A 
ATOM      8  C8  IND d   1       0.359  -4.126   2.367  0.00  0.00    -0.047 A 
ATOM      9  C9  IND d   1       0.999  -2.888   2.225  0.00  0.00    -0.096 A 
ATOM     10  HN1 IND d   1       1.040  -5.929   1.813  0.00  0.00     0.298 HD
ENDROOT
TORSDOF 0
ENDMDL
