MODEL 1
REMARK minimizedAffinity 13.2277765
REMARK minimizedRMSD -1
REMARK  0 active torsions:
REMARK  status: ('A' for Active; 'I' for Inactive)
ROOT
ATOM      1  N1  IND d   1       4.145   0.199  -3.827  0.00  0.00    -0.196 N 
ATOM      2  C2  IND d   1       5.306  -0.009  -3.135  0.00  0.00     0.054 A 
ATOM      3  C3  IND d   1       5.104   0.180  -1.811  0.00  0.00    -0.031 A 
ATOM      4  C4  IND d   1       2.930   0.737  -0.551  0.00  0.00     0.051 A 
ATOM      5  C5  IND d   1       1.617   1.057  -0.756  0.00  0.00    -0.031 A 
ATOM      6  C6  IND d   1       1.068   1.105  -2.022  0.00  0.00     0.015 A 
ATOM      7  C7  IND d   1       1.812   0.823  -3.132  0.00  0.00    -0.016 A 
ATOM      8  C8  IND d   1       3.147   0.505  -2.927  0.00  0.00    -0.047 A 
ATOM      9  C9  IND d   1       3.721   0.496  -1.649  0.00  0.00    -0.096 A 
ATOM     10  HN1 IND d   1       4.054   0.147  -4.680  0.00  0.00     0.298 HD
ENDROOT
TORSDOF 0
ENDMDL
