MODEL 1
REMARK minimizedAffinity 10.6824961
REMARK minimizedRMSD -1
REMARK  0 active torsions:
REMARK  status: ('A' for Active; 'I' for Inactive)
ROOT
ATOM      1  N1  IND d   1       4.140  -4.500  -1.460  0.00  0.00    -0.196 N 
ATOM      2  C2  IND d   1       5.450  -4.890  -1.489  0.00  0.00     0.054 A 
ATOM      3  C3  IND d   1       6.000  -4.782  -0.259  0.00  0.00    -0.031 A 
ATOM      4  C4  IND d   1       4.908  -4.083   1.965  0.00  0.00     0.051 A 
ATOM      5  C5  IND d   1       3.740  -3.603   2.488  0.00  0.00    -0.031 A 
ATOM      6  C6  IND d   1       2.622  -3.396   1.706  0.00  0.00     0.015 A 
ATOM      7  C7  IND d   1       2.628  -3.673   0.368  0.00  0.00    -0.016 A 
ATOM      8  C8  IND d   1       3.814  -4.154  -0.167  0.00  0.00    -0.047 A 
ATOM      9  C9  IND d   1       4.964  -4.326   0.613  0.00  0.00    -0.096 A 
ATOM     10  HN1 IND d   1       3.609  -4.475  -2.136  0.00  0.00     0.298 HD
ENDROOT
TORSDOF 0
ENDMDL
