MODEL 1
REMARK minimizedAffinity 4.40619516
REMARK minimizedRMSD -1
REMARK  0 active torsions:
REMARK  status: ('A' for Active; 'I' for Inactive)
ROOT
ATOM      1  N1  IND d   1       0.981  -1.355   4.024  0.00  0.00    -0.196 N 
ATOM      2  C2  IND d   1      -0.163  -1.210   3.290  0.00  0.00     0.054 A 
ATOM      3  C3  IND d   1      -0.146  -2.039   2.223  0.00  0.00    -0.031 A 
ATOM      4  C4  IND d   1       1.611  -3.793   1.542  0.00  0.00     0.051 A 
ATOM      5  C5  IND d   1       2.847  -4.267   1.881  0.00  0.00    -0.031 A 
ATOM      6  C6  IND d   1       3.537  -3.787   2.975  0.00  0.00     0.015 A 
ATOM      7  C7  IND d   1       3.010  -2.818   3.781  0.00  0.00    -0.016 A 
ATOM      8  C8  IND d   1       1.758  -2.330   3.436  0.00  0.00    -0.047 A 
ATOM      9  C9  IND d   1       1.071  -2.783   2.302  0.00  0.00    -0.096 A 
ATOM     10  HN1 IND d   1       1.182  -0.912   4.733  0.00  0.00     0.298 HD
ENDROOT
TORSDOF 0
ENDMDL
