MODEL 1
REMARK minimizedAffinity 5.9135313
REMARK minimizedRMSD -1
REMARK  0 active torsions:
REMARK  status: ('A' for Active; 'I' for Inactive)
ROOT
ATOM      1  N1  IND d   1      -2.378   1.444   3.614  0.00  0.00    -0.196 N 
ATOM      2  C2  IND d   1      -3.650   1.268   3.144  0.00  0.00     0.054 A 
ATOM      3  C3  IND d   1      -3.823  -0.005   2.722  0.00  0.00    -0.031 A 
ATOM      4  C4  IND d   1      -2.189  -1.993   2.805  0.00  0.00     0.051 A 
ATOM      5  C5  IND d   1      -0.897  -2.313   3.116  0.00  0.00    -0.031 A 
ATOM      6  C6  IND d   1      -0.016  -1.379   3.622  0.00  0.00     0.015 A 
ATOM      7  C7  IND d   1      -0.399  -0.087   3.847  0.00  0.00    -0.016 A 
ATOM      8  C8  IND d   1      -1.708   0.243   3.526  0.00  0.00    -0.047 A 
ATOM      9  C9  IND d   1      -2.594  -0.690   2.972  0.00  0.00    -0.096 A 
ATOM     10  HN1 IND d   1      -2.052   2.180   3.915  0.00  0.00     0.298 HD
ENDROOT
TORSDOF 0
ENDMDL
