MODEL 1
REMARK minimizedAffinity 6.99611378
REMARK minimizedRMSD -1
REMARK  0 active torsions:
REMARK  status: ('A' for Active; 'I' for Inactive)
ROOT
ATOM      1  N1  IND d   1       1.544  -3.274   0.816  0.00  0.00    -0.196 N 
ATOM      2  C2  IND d   1       1.259  -2.496   1.904  0.00  0.00     0.054 A 
ATOM      3  C3  IND d   1       2.364  -2.327   2.664  0.00  0.00    -0.031 A 
ATOM      4  C4  IND d   1       4.769  -3.150   2.259  0.00  0.00     0.051 A 
ATOM      5  C5  IND d   1       5.514  -3.928   1.418  0.00  0.00    -0.031 A 
ATOM      6  C6  IND d   1       4.963  -4.538   0.309  0.00  0.00     0.015 A 
ATOM      7  C7  IND d   1       3.643  -4.382  -0.007  0.00  0.00    -0.016 A 
ATOM      8  C8  IND d   1       2.882  -3.598   0.849  0.00  0.00    -0.047 A 
ATOM      9  C9  IND d   1       3.426  -3.012   1.999  0.00  0.00    -0.096 A 
ATOM     10  HN1 IND d   1       0.982  -3.518   0.213  0.00  0.00     0.298 HD
ENDROOT
TORSDOF 0
ENDMDL
