MODEL 1
REMARK minimizedAffinity 6.97154236
REMARK minimizedRMSD -1
REMARK  0 active torsions:
REMARK  status: ('A' for Active; 'I' for Inactive)
ROOT
ATOM      1  N1  IND d   1       1.969  -4.485   0.493  0.00  0.00    -0.196 N 
ATOM      2  C2  IND d   1       1.715  -3.608   1.511  0.00  0.00     0.054 A 
ATOM      3  C3  IND d   1       2.863  -3.031   1.932  0.00  0.00    -0.031 A 
ATOM      4  C4  IND d   1       5.257  -3.300   1.027  0.00  0.00     0.051 A 
ATOM      5  C5  IND d   1       5.994  -4.018   0.127  0.00  0.00    -0.031 A 
ATOM      6  C6  IND d   1       5.415  -4.945  -0.716  0.00  0.00     0.015 A 
ATOM      7  C7  IND d   1       4.070  -5.181  -0.698  0.00  0.00    -0.016 A 
ATOM      8  C8  IND d   1       3.319  -4.459   0.220  0.00  0.00    -0.047 A 
ATOM      9  C9  IND d   1       3.907  -3.548   1.107  0.00  0.00    -0.096 A 
ATOM     10  HN1 IND d   1       1.385  -4.971   0.091  0.00  0.00     0.298 HD
ENDROOT
TORSDOF 0
ENDMDL
