MODEL 1
REMARK minimizedAffinity 5.88156843
REMARK minimizedRMSD -1
REMARK  0 active torsions:
REMARK  status: ('A' for Active; 'I' for Inactive)
ROOT
ATOM      1  N1  IND d   1       3.756  -4.937   4.744  0.00  0.00    -0.196 N 
ATOM      2  C2  IND d   1       4.141  -3.961   5.620  0.00  0.00     0.054 A 
ATOM      3  C3  IND d   1       3.702  -2.753   5.202  0.00  0.00    -0.031 A 
ATOM      4  C4  IND d   1       2.247  -2.159   3.162  0.00  0.00     0.051 A 
ATOM      5  C5  IND d   1       1.678  -2.709   2.048  0.00  0.00    -0.031 A 
ATOM      6  C6  IND d   1       1.773  -4.058   1.771  0.00  0.00     0.015 A 
ATOM      7  C7  IND d   1       2.433  -4.912   2.608  0.00  0.00    -0.016 A 
ATOM      8  C8  IND d   1       3.018  -4.356   3.737  0.00  0.00    -0.047 A 
ATOM      9  C9  IND d   1       2.962  -2.981   4.001  0.00  0.00    -0.096 A 
ATOM     10  HN1 IND d   1       3.944  -5.774   4.811  0.00  0.00     0.298 HD
ENDROOT
TORSDOF 0
ENDMDL
