MODEL 1
REMARK minimizedAffinity -3.68548465
REMARK minimizedRMSD -1
REMARK  0 active torsions:
REMARK  status: ('A' for Active; 'I' for Inactive)
ROOT
ATOM      1  C   UNL d   1       1.359   4.126  -4.972  0.00  0.00     0.077 C 
ATOM      2  C1  UNL d   1       2.813   3.829  -5.188  0.00  0.00    -0.074 A 
ATOM      3  C2  UNL d   1       3.297   2.518  -5.122  0.00  0.00    -0.005 A 
ATOM      4  C3  UNL d   1       4.650   2.256  -5.335  0.00  0.00     0.006 A 
ATOM      5  C4  UNL d   1       5.532   3.300  -5.616  0.00  0.00    -0.005 A 
ATOM      6  C5  UNL d   1       5.067   4.617  -5.688  0.00  0.00    -0.074 A 
ATOM      7  C6  UNL d   1       6.000   5.749  -5.999  0.00  0.00     0.077 C 
ATOM      8  C7  UNL d   1       3.704   4.871  -5.479  0.00  0.00    -0.001 A 
ENDROOT
TORSDOF 0
ENDMDL
