MODEL 1
REMARK minimizedAffinity -0.245649904
REMARK minimizedRMSD -1
REMARK  0 active torsions:
REMARK  status: ('A' for Active; 'I' for Inactive)
ROOT
ATOM      1  C   UNL d   1       3.373   0.967  -5.262  0.00  0.00     0.077 C 
ATOM      2  C1  UNL d   1       3.367   2.444  -5.522  0.00  0.00    -0.074 A 
ATOM      3  C2  UNL d   1       2.165   3.149  -5.635  0.00  0.00    -0.005 A 
ATOM      4  C3  UNL d   1       2.175   4.525  -5.868  0.00  0.00     0.006 A 
ATOM      5  C4  UNL d   1       3.386   5.207  -5.990  0.00  0.00    -0.005 A 
ATOM      6  C5  UNL d   1       4.598   4.519  -5.879  0.00  0.00    -0.074 A 
ATOM      7  C6  UNL d   1       5.908   5.240  -5.998  0.00  0.00     0.077 C 
ATOM      8  C7  UNL d   1       4.579   3.139  -5.638  0.00  0.00    -0.001 A 
ENDROOT
TORSDOF 0
ENDMDL
