MODEL 1
REMARK minimizedAffinity 1.75346899
REMARK minimizedRMSD -1
REMARK  0 active torsions:
REMARK  status: ('A' for Active; 'I' for Inactive)
ROOT
ATOM      1  C   UNL d   1       2.155  -0.247   0.207  0.00  0.00     0.077 C 
ATOM      2  C1  UNL d   1       3.332   0.531   0.716  0.00  0.00    -0.074 A 
ATOM      3  C2  UNL d   1       4.361  -0.102   1.420  0.00  0.00    -0.005 A 
ATOM      4  C3  UNL d   1       5.454   0.634   1.879  0.00  0.00     0.006 A 
ATOM      5  C4  UNL d   1       5.528   2.006   1.639  0.00  0.00    -0.005 A 
ATOM      6  C5  UNL d   1       4.509   2.656   0.936  0.00  0.00    -0.074 A 
ATOM      7  C6  UNL d   1       4.577   4.128   0.661  0.00  0.00     0.077 C 
ATOM      8  C7  UNL d   1       3.417   1.909   0.472  0.00  0.00    -0.001 A 
ENDROOT
TORSDOF 0
ENDMDL
