MODEL 1
REMARK minimizedAffinity -3.838305
REMARK minimizedRMSD -1
REMARK  0 active torsions:
REMARK  status: ('A' for Active; 'I' for Inactive)
ROOT
ATOM      1  C   UNL d   1       6.000   5.828  -6.000  0.00  0.00     0.077 C 
ATOM      2  C1  UNL d   1       5.097   4.675  -5.677  0.00  0.00    -0.074 A 
ATOM      3  C2  UNL d   1       5.596   3.370  -5.600  0.00  0.00    -0.005 A 
ATOM      4  C3  UNL d   1       4.746   2.309  -5.289  0.00  0.00     0.006 A 
ATOM      5  C4  UNL d   1       3.390   2.541  -5.053  0.00  0.00    -0.005 A 
ATOM      6  C5  UNL d   1       2.873   3.838  -5.124  0.00  0.00    -0.074 A 
ATOM      7  C6  UNL d   1       1.421   4.106  -4.863  0.00  0.00     0.077 C 
ATOM      8  C7  UNL d   1       3.735   4.900  -5.430  0.00  0.00    -0.001 A 
ENDROOT
TORSDOF 0
ENDMDL
