MODEL 1
REMARK minimizedAffinity -2.21752596
REMARK minimizedRMSD -1
REMARK  0 active torsions:
REMARK  status: ('A' for Active; 'I' for Inactive)
ROOT
ATOM      1  C   UNL d   1       5.976   5.956  -5.999  0.00  0.00     0.077 C 
ATOM      2  C1  UNL d   1       4.955   4.872  -5.822  0.00  0.00    -0.074 A 
ATOM      3  C2  UNL d   1       5.296   3.527  -6.000  0.00  0.00    -0.005 A 
ATOM      4  C3  UNL d   1       4.338   2.529  -5.823  0.00  0.00     0.006 A 
ATOM      5  C4  UNL d   1       3.031   2.865  -5.466  0.00  0.00    -0.005 A 
ATOM      6  C5  UNL d   1       2.672   4.204  -5.283  0.00  0.00    -0.074 A 
ATOM      7  C6  UNL d   1       1.275   4.582  -4.891  0.00  0.00     0.077 C 
ATOM      8  C7  UNL d   1       3.642   5.201  -5.457  0.00  0.00    -0.001 A 
ENDROOT
TORSDOF 0
ENDMDL
