MODEL 1
REMARK minimizedAffinity -4.28248549
REMARK minimizedRMSD -1
REMARK  0 active torsions:
REMARK  status: ('A' for Active; 'I' for Inactive)
ROOT
ATOM      1  C   UNL d   1       6.000   4.787  -6.000  0.00  0.00     0.077 C 
ATOM      2  C1  UNL d   1       4.587   4.354  -5.745  0.00  0.00    -0.074 A 
ATOM      3  C2  UNL d   1       4.267   3.001  -5.589  0.00  0.00    -0.005 A 
ATOM      4  C3  UNL d   1       2.949   2.614  -5.343  0.00  0.00     0.006 A 
ATOM      5  C4  UNL d   1       1.940   3.574  -5.252  0.00  0.00    -0.005 A 
ATOM      6  C5  UNL d   1       2.242   4.931  -5.405  0.00  0.00    -0.074 A 
ATOM      7  C6  UNL d   1       1.171   5.976  -5.300  0.00  0.00     0.077 C 
ATOM      8  C7  UNL d   1       3.569   5.313  -5.644  0.00  0.00    -0.001 A 
ENDROOT
TORSDOF 0
ENDMDL
