MODEL 1
REMARK minimizedAffinity -2.30056572
REMARK minimizedRMSD -1
REMARK  0 active torsions:
REMARK  status: ('A' for Active; 'I' for Inactive)
ROOT
ATOM      1  C   UNL d   1       5.781   5.938  -6.000  0.00  0.00     0.077 C 
ATOM      2  C1  UNL d   1       4.855   4.763  -5.904  0.00  0.00    -0.074 A 
ATOM      3  C2  UNL d   1       5.351   3.470  -5.709  0.00  0.00    -0.005 A 
ATOM      4  C3  UNL d   1       4.477   2.388  -5.612  0.00  0.00     0.006 A 
ATOM      5  C4  UNL d   1       3.099   2.587  -5.709  0.00  0.00    -0.005 A 
ATOM      6  C5  UNL d   1       2.584   3.873  -5.903  0.00  0.00    -0.074 A 
ATOM      7  C6  UNL d   1       1.105   4.106  -6.000  0.00  0.00     0.077 C 
ATOM      8  C7  UNL d   1       3.469   4.956  -5.992  0.00  0.00    -0.001 A 
ENDROOT
TORSDOF 0
ENDMDL
