MODEL 1
REMARK minimizedAffinity -3.19547629
REMARK minimizedRMSD -1
REMARK  0 active torsions:
REMARK  status: ('A' for Active; 'I' for Inactive)
ROOT
ATOM      1  C   UNL d   1       4.125   1.500  -4.871  0.00  0.00     0.077 C 
ATOM      2  C1  UNL d   1       3.865   2.925  -5.259  0.00  0.00    -0.074 A 
ATOM      3  C2  UNL d   1       4.915   3.771  -5.631  0.00  0.00    -0.005 A 
ATOM      4  C3  UNL d   1       4.657   5.091  -6.000  0.00  0.00     0.006 A 
ATOM      5  C4  UNL d   1       3.349   5.578  -6.000  0.00  0.00    -0.005 A 
ATOM      6  C5  UNL d   1       2.287   4.746  -5.632  0.00  0.00    -0.074 A 
ATOM      7  C6  UNL d   1       0.874   5.251  -5.636  0.00  0.00     0.077 C 
ATOM      8  C7  UNL d   1       2.553   3.419  -5.270  0.00  0.00    -0.001 A 
ENDROOT
TORSDOF 0
ENDMDL
