MODEL 1
REMARK minimizedAffinity -2.48546004
REMARK minimizedRMSD -1
REMARK  0 active torsions:
REMARK  status: ('A' for Active; 'I' for Inactive)
ROOT
ATOM      1  C   UNL d   1       0.583   5.650  -5.937  0.00  0.00     0.077 C 
ATOM      2  C1  UNL d   1       1.989   5.129  -5.891  0.00  0.00    -0.074 A 
ATOM      3  C2  UNL d   1       3.081   5.997  -6.000  0.00  0.00    -0.005 A 
ATOM      4  C3  UNL d   1       4.383   5.499  -5.945  0.00  0.00     0.006 A 
ATOM      5  C4  UNL d   1       4.606   4.131  -5.781  0.00  0.00    -0.005 A 
ATOM      6  C5  UNL d   1       3.527   3.249  -5.669  0.00  0.00    -0.074 A 
ATOM      7  C6  UNL d   1       3.749   1.777  -5.482  0.00  0.00     0.077 C 
ATOM      8  C7  UNL d   1       2.221   3.757  -5.718  0.00  0.00    -0.001 A 
ENDROOT
TORSDOF 0
ENDMDL
