MODEL 1
REMARK minimizedAffinity -1.95108879
REMARK minimizedRMSD -1
REMARK  0 active torsions:
REMARK  status: ('A' for Active; 'I' for Inactive)
ROOT
ATOM      1  C   UNL d   1       0.751   5.149  -5.618  0.00  0.00     0.077 C 
ATOM      2  C1  UNL d   1       2.177   4.686  -5.629  0.00  0.00    -0.074 A 
ATOM      3  C2  UNL d   1       3.211   5.552  -6.000  0.00  0.00    -0.005 A 
ATOM      4  C3  UNL d   1       4.534   5.110  -5.996  0.00  0.00     0.006 A 
ATOM      5  C4  UNL d   1       4.836   3.801  -5.621  0.00  0.00    -0.005 A 
ATOM      6  C5  UNL d   1       3.816   2.921  -5.246  0.00  0.00    -0.074 A 
ATOM      7  C6  UNL d   1       4.125   1.513  -4.831  0.00  0.00     0.077 C 
ATOM      8  C7  UNL d   1       2.490   3.374  -5.246  0.00  0.00    -0.001 A 
ENDROOT
TORSDOF 0
ENDMDL
