MODEL 1
REMARK minimizedAffinity 4.0121007
REMARK minimizedRMSD -1
REMARK  0 active torsions:
REMARK  status: ('A' for Active; 'I' for Inactive)
ROOT
ATOM      1  C   UNL d   1       3.062   0.573  -5.558  0.00  0.00     0.077 C 
ATOM      2  C1  UNL d   1       3.056   2.070  -5.643  0.00  0.00    -0.074 A 
ATOM      3  C2  UNL d   1       1.859   2.789  -5.573  0.00  0.00    -0.005 A 
ATOM      4  C3  UNL d   1       1.870   4.182  -5.644  0.00  0.00     0.006 A 
ATOM      5  C4  UNL d   1       3.076   4.869  -5.785  0.00  0.00    -0.005 A 
ATOM      6  C5  UNL d   1       4.284   4.167  -5.856  0.00  0.00    -0.074 A 
ATOM      7  C6  UNL d   1       5.590   4.890  -5.997  0.00  0.00     0.077 C 
ATOM      8  C7  UNL d   1       4.265   2.767  -5.777  0.00  0.00    -0.001 A 
ENDROOT
TORSDOF 0
ENDMDL
