MODEL 1
REMARK minimizedAffinity -2.09813547
REMARK minimizedRMSD -1
REMARK  0 active torsions:
REMARK  status: ('A' for Active; 'I' for Inactive)
ROOT
ATOM      1  C   UNL d   1       5.746   5.925  -6.000  0.00  0.00     0.077 C 
ATOM      2  C1  UNL d   1       4.900   4.686  -5.974  0.00  0.00    -0.074 A 
ATOM      3  C2  UNL d   1       5.485   3.418  -5.911  0.00  0.00    -0.005 A 
ATOM      4  C3  UNL d   1       4.685   2.275  -5.878  0.00  0.00     0.006 A 
ATOM      5  C4  UNL d   1       3.295   2.390  -5.907  0.00  0.00    -0.005 A 
ATOM      6  C5  UNL d   1       2.692   3.651  -5.969  0.00  0.00    -0.074 A 
ATOM      7  C6  UNL d   1       1.199   3.792  -5.991  0.00  0.00     0.077 C 
ATOM      8  C7  UNL d   1       3.503   4.794  -5.995  0.00  0.00    -0.001 A 
ENDROOT
TORSDOF 0
ENDMDL
