MODEL 1
REMARK minimizedAffinity -2.16894174
REMARK minimizedRMSD -1
REMARK  0 active torsions:
REMARK  status: ('A' for Active; 'I' for Inactive)
ROOT
ATOM      1  C   UNL d   1       5.885   5.688  -5.892  0.00  0.00     0.077 C 
ATOM      2  C1  UNL d   1       4.698   4.793  -5.698  0.00  0.00    -0.074 A 
ATOM      3  C2  UNL d   1       3.406   5.235  -6.000  0.00  0.00    -0.005 A 
ATOM      4  C3  UNL d   1       2.313   4.388  -5.823  0.00  0.00     0.006 A 
ATOM      5  C4  UNL d   1       2.499   3.091  -5.343  0.00  0.00    -0.005 A 
ATOM      6  C5  UNL d   1       3.784   2.630  -5.036  0.00  0.00    -0.074 A 
ATOM      7  C6  UNL d   1       4.003   1.236  -4.529  0.00  0.00     0.077 C 
ATOM      8  C7  UNL d   1       4.878   3.486  -5.223  0.00  0.00    -0.001 A 
ENDROOT
TORSDOF 0
ENDMDL
