MODEL 1
REMARK minimizedAffinity -0.592680395
REMARK minimizedRMSD -1
REMARK  0 active torsions:
REMARK  status: ('A' for Active; 'I' for Inactive)
ROOT
ATOM      1  C   UNL d   1       0.145   5.015  -6.000  0.00  0.00     0.077 C 
ATOM      2  C1  UNL d   1       1.392   4.502  -5.343  0.00  0.00    -0.074 A 
ATOM      3  C2  UNL d   1       1.834   5.034  -4.127  0.00  0.00    -0.005 A 
ATOM      4  C3  UNL d   1       2.991   4.541  -3.523  0.00  0.00     0.006 A 
ATOM      5  C4  UNL d   1       3.715   3.512  -4.127  0.00  0.00    -0.005 A 
ATOM      6  C5  UNL d   1       3.287   2.968  -5.342  0.00  0.00    -0.074 A 
ATOM      7  C6  UNL d   1       4.049   1.855  -6.000  0.00  0.00     0.077 C 
ATOM      8  C7  UNL d   1       2.121   3.464  -5.939  0.00  0.00    -0.001 A 
ENDROOT
TORSDOF 0
ENDMDL
