MODEL 1
REMARK minimizedAffinity -1.10409606
REMARK minimizedRMSD -1
REMARK  0 active torsions:
REMARK  status: ('A' for Active; 'I' for Inactive)
ROOT
ATOM      1  C   UNL d   1       5.619   5.985  -6.000  0.00  0.00     0.077 C 
ATOM      2  C1  UNL d   1       4.408   5.108  -5.877  0.00  0.00    -0.074 A 
ATOM      3  C2  UNL d   1       3.120   5.640  -6.000  0.00  0.00    -0.005 A 
ATOM      4  C3  UNL d   1       2.004   4.810  -5.893  0.00  0.00     0.006 A 
ATOM      5  C4  UNL d   1       2.164   3.443  -5.662  0.00  0.00    -0.005 A 
ATOM      6  C5  UNL d   1       3.444   2.894  -5.537  0.00  0.00    -0.074 A 
ATOM      7  C6  UNL d   1       3.634   1.426  -5.298  0.00  0.00     0.077 C 
ATOM      8  C7  UNL d   1       4.561   3.733  -5.653  0.00  0.00    -0.001 A 
ENDROOT
TORSDOF 0
ENDMDL
