MODEL 1
REMARK minimizedAffinity -3.08292031
REMARK minimizedRMSD -1
REMARK  0 active torsions:
REMARK  status: ('A' for Active; 'I' for Inactive)
ROOT
ATOM      1  C   UNL d   1       1.124   5.763  -5.294  0.00  0.00     0.077 C 
ATOM      2  C1  UNL d   1       2.430   5.064  -5.533  0.00  0.00    -0.074 A 
ATOM      3  C2  UNL d   1       3.597   5.790  -5.789  0.00  0.00    -0.005 A 
ATOM      4  C3  UNL d   1       4.806   5.126  -6.000  0.00  0.00     0.006 A 
ATOM      5  C4  UNL d   1       4.859   3.732  -5.957  0.00  0.00    -0.005 A 
ATOM      6  C5  UNL d   1       3.702   2.990  -5.702  0.00  0.00    -0.074 A 
ATOM      7  C6  UNL d   1       3.744   1.492  -5.642  0.00  0.00     0.077 C 
ATOM      8  C7  UNL d   1       2.493   3.664  -5.484  0.00  0.00    -0.001 A 
ENDROOT
TORSDOF 0
ENDMDL
