MODEL 1
REMARK minimizedAffinity -0.676024795
REMARK minimizedRMSD -1
REMARK  0 active torsions:
REMARK  status: ('A' for Active; 'I' for Inactive)
ROOT
ATOM      1  C   UNL d   1       5.982   5.973  -5.981  0.00  0.00     0.077 C 
ATOM      2  C1  UNL d   1       4.878   4.975  -5.797  0.00  0.00    -0.074 A 
ATOM      3  C2  UNL d   1       3.542   5.336  -6.000  0.00  0.00    -0.005 A 
ATOM      4  C3  UNL d   1       2.526   4.394  -5.835  0.00  0.00     0.006 A 
ATOM      5  C4  UNL d   1       2.836   3.084  -5.466  0.00  0.00    -0.005 A 
ATOM      6  C5  UNL d   1       4.166   2.705  -5.260  0.00  0.00    -0.074 A 
ATOM      7  C6  UNL d   1       4.516   1.299  -4.873  0.00  0.00     0.077 C 
ATOM      8  C7  UNL d   1       5.181   3.655  -5.435  0.00  0.00    -0.001 A 
ENDROOT
TORSDOF 0
ENDMDL
