MODEL 1
REMARK minimizedAffinity -2.56967402
REMARK minimizedRMSD -1
REMARK  0 active torsions:
REMARK  status: ('A' for Active; 'I' for Inactive)
ROOT
ATOM      1  C   UNL d   1       6.000   5.919  -6.000  0.00  0.00     0.077 C 
ATOM      2  C1  UNL d   1       4.814   5.037  -5.743  0.00  0.00    -0.074 A 
ATOM      3  C2  UNL d   1       3.515   5.487  -5.997  0.00  0.00    -0.005 A 
ATOM      4  C3  UNL d   1       2.422   4.653  -5.762  0.00  0.00     0.006 A 
ATOM      5  C4  UNL d   1       2.618   3.361  -5.272  0.00  0.00    -0.005 A 
ATOM      6  C5  UNL d   1       3.910   2.892  -5.014  0.00  0.00    -0.074 A 
ATOM      7  C6  UNL d   1       4.138   1.503  -4.496  0.00  0.00     0.077 C 
ATOM      8  C7  UNL d   1       5.003   3.735  -5.259  0.00  0.00    -0.001 A 
ENDROOT
TORSDOF 0
ENDMDL
