MODEL 1
REMARK minimizedAffinity -0.547288656
REMARK minimizedRMSD -1
REMARK  0 active torsions:
REMARK  status: ('A' for Active; 'I' for Inactive)
ROOT
ATOM      1  C   UNL d   1       6.000   4.869   4.523  0.00  0.00     0.077 C 
ATOM      2  C1  UNL d   1       4.932   4.141   3.763  0.00  0.00    -0.074 A 
ATOM      3  C2  UNL d   1       3.910   3.460   4.433  0.00  0.00    -0.005 A 
ATOM      4  C3  UNL d   1       2.918   2.796   3.712  0.00  0.00     0.006 A 
ATOM      5  C4  UNL d   1       2.937   2.805   2.317  0.00  0.00    -0.005 A 
ATOM      6  C5  UNL d   1       3.950   3.481   1.630  0.00  0.00    -0.074 A 
ATOM      7  C6  UNL d   1       3.980   3.510   0.130  0.00  0.00     0.077 C 
ATOM      8  C7  UNL d   1       4.940   4.153   2.361  0.00  0.00    -0.001 A 
ENDROOT
TORSDOF 0
ENDMDL
