MODEL 1
REMARK minimizedAffinity -5.30286026
REMARK minimizedRMSD -1
REMARK  0 active torsions:
REMARK  status: ('A' for Active; 'I' for Inactive)
ROOT
ATOM      1  C   UNL d   1       0.673  -2.206   2.376  0.00  0.00     0.077 C 
ATOM      2  C1  UNL d   1       0.268  -1.441   1.151  0.00  0.00    -0.074 A 
ATOM      3  C2  UNL d   1       1.199  -0.679   0.439  0.00  0.00    -0.005 A 
ATOM      4  C3  UNL d   1       0.810   0.020  -0.704  0.00  0.00     0.006 A 
ATOM      5  C4  UNL d   1      -0.513  -0.037  -1.145  0.00  0.00    -0.005 A 
ATOM      6  C5  UNL d   1      -1.458  -0.794  -0.447  0.00  0.00    -0.074 A 
ATOM      7  C6  UNL d   1      -2.881  -0.874  -0.913  0.00  0.00     0.077 C 
ATOM      8  C7  UNL d   1      -1.057  -1.499   0.697  0.00  0.00    -0.001 A 
ENDROOT
TORSDOF 0
ENDMDL
