MODEL 1
REMARK minimizedAffinity -5.96451712
REMARK minimizedRMSD -1
REMARK  0 active torsions:
REMARK  status: ('A' for Active; 'I' for Inactive)
ROOT
ATOM      1  C   UNL d   1       1.999   1.233   0.358  0.00  0.00     0.077 C 
ATOM      2  C1  UNL d   1       0.848   0.274   0.426  0.00  0.00    -0.074 A 
ATOM      3  C2  UNL d   1       0.846  -0.784   1.341  0.00  0.00    -0.005 A 
ATOM      4  C3  UNL d   1      -0.236  -1.662   1.399  0.00  0.00     0.006 A 
ATOM      5  C4  UNL d   1      -1.326  -1.491   0.544  0.00  0.00    -0.005 A 
ATOM      6  C5  UNL d   1      -1.342  -0.439  -0.376  0.00  0.00    -0.074 A 
ATOM      7  C6  UNL d   1      -2.510  -0.235  -1.295  0.00  0.00     0.077 C 
ATOM      8  C7  UNL d   1      -0.254   0.444  -0.424  0.00  0.00    -0.001 A 
ENDROOT
TORSDOF 0
ENDMDL
