MODEL 1
REMARK minimizedAffinity 6.23328447
REMARK minimizedRMSD -1
REMARK  0 active torsions:
REMARK  status: ('A' for Active; 'I' for Inactive)
ROOT
ATOM      1  C   UNL d   1      -4.448  -0.886  -0.089  0.00  0.00     0.077 C 
ATOM      2  C1  UNL d   1      -3.224  -0.532  -0.880  0.00  0.00    -0.074 A 
ATOM      3  C2  UNL d   1      -2.102  -1.367  -0.881  0.00  0.00    -0.005 A 
ATOM      4  C3  UNL d   1      -0.974  -1.028  -1.629  0.00  0.00     0.006 A 
ATOM      5  C4  UNL d   1      -0.957   0.147  -2.382  0.00  0.00    -0.005 A 
ATOM      6  C5  UNL d   1      -2.069   0.994  -2.393  0.00  0.00    -0.074 A 
ATOM      7  C6  UNL d   1      -2.071   2.255  -3.204  0.00  0.00     0.077 C 
ATOM      8  C7  UNL d   1      -3.201   0.643  -1.645  0.00  0.00    -0.001 A 
ENDROOT
TORSDOF 0
ENDMDL
