MODEL 1
REMARK minimizedAffinity 4.35342121
REMARK minimizedRMSD -1
REMARK  0 active torsions:
REMARK  status: ('A' for Active; 'I' for Inactive)
ROOT
ATOM      1  C   UNL d   1      -1.687  -0.830  -1.491  0.00  0.00     0.077 C 
ATOM      2  C1  UNL d   1      -1.092  -1.239  -0.176  0.00  0.00    -0.074 A 
ATOM      3  C2  UNL d   1      -1.605  -2.328   0.537  0.00  0.00    -0.005 A 
ATOM      4  C3  UNL d   1      -1.035  -2.703   1.754  0.00  0.00     0.006 A 
ATOM      5  C4  UNL d   1       0.051  -1.994   2.269  0.00  0.00    -0.005 A 
ATOM      6  C5  UNL d   1       0.578  -0.904   1.570  0.00  0.00    -0.074 A 
ATOM      7  C6  UNL d   1       1.751  -0.138   2.104  0.00  0.00     0.077 C 
ATOM      8  C7  UNL d   1       0.005  -0.538   0.344  0.00  0.00    -0.001 A 
ENDROOT
TORSDOF 0
ENDMDL
