MODEL 1
REMARK minimizedAffinity 6.74426794
REMARK minimizedRMSD -1
REMARK  0 active torsions:
REMARK  status: ('A' for Active; 'I' for Inactive)
ROOT
ATOM      1  C   UNL d   1      -3.997  -2.352   4.774  0.00  0.00     0.077 C 
ATOM      2  C1  UNL d   1      -2.900  -1.518   4.180  0.00  0.00    -0.074 A 
ATOM      3  C2  UNL d   1      -2.881  -0.130   4.348  0.00  0.00    -0.005 A 
ATOM      4  C3  UNL d   1      -1.849   0.631   3.799  0.00  0.00     0.006 A 
ATOM      5  C4  UNL d   1      -0.827   0.013   3.077  0.00  0.00    -0.005 A 
ATOM      6  C5  UNL d   1      -0.829  -1.375   2.900  0.00  0.00    -0.074 A 
ATOM      7  C6  UNL d   1       0.267  -2.056   2.136  0.00  0.00     0.077 C 
ATOM      8  C7  UNL d   1      -1.865  -2.133   3.461  0.00  0.00    -0.001 A 
ENDROOT
TORSDOF 0
ENDMDL
