MODEL 1
REMARK minimizedAffinity -4.2931447
REMARK minimizedRMSD -1
REMARK  0 active torsions:
REMARK  status: ('A' for Active; 'I' for Inactive)
ROOT
ATOM      1  C   UNL d   1      -0.682  -1.960   0.596  0.00  0.00     0.077 C 
ATOM      2  C1  UNL d   1      -1.555  -0.950  -0.088  0.00  0.00    -0.074 A 
ATOM      3  C2  UNL d   1      -2.841  -0.673   0.386  0.00  0.00    -0.005 A 
ATOM      4  C3  UNL d   1      -3.638   0.275  -0.255  0.00  0.00     0.006 A 
ATOM      5  C4  UNL d   1      -3.157   0.956  -1.375  0.00  0.00    -0.005 A 
ATOM      6  C5  UNL d   1      -1.874   0.692  -1.863  0.00  0.00    -0.074 A 
ATOM      7  C6  UNL d   1      -1.338   1.422  -3.059  0.00  0.00     0.077 C 
ATOM      8  C7  UNL d   1      -1.076  -0.257  -1.209  0.00  0.00    -0.001 A 
ENDROOT
TORSDOF 0
ENDMDL
