MODEL 1
REMARK minimizedAffinity 4.68298054
REMARK minimizedRMSD -1
REMARK  0 active torsions:
REMARK  status: ('A' for Active; 'I' for Inactive)
ROOT
ATOM      1  C   UNL d   1      -0.134  -1.793   1.098  0.00  0.00     0.077 C 
ATOM      2  C1  UNL d   1      -1.105  -1.385   0.031  0.00  0.00    -0.074 A 
ATOM      3  C2  UNL d   1      -2.390  -1.934  -0.019  0.00  0.00    -0.005 A 
ATOM      4  C3  UNL d   1      -3.286  -1.539  -1.012  0.00  0.00     0.006 A 
ATOM      5  C4  UNL d   1      -2.906  -0.591  -1.964  0.00  0.00    -0.005 A 
ATOM      6  C5  UNL d   1      -1.626  -0.031  -1.929  0.00  0.00    -0.074 A 
ATOM      7  C6  UNL d   1      -1.205   0.996  -2.939  0.00  0.00     0.077 C 
ATOM      8  C7  UNL d   1      -0.734  -0.428  -0.924  0.00  0.00    -0.001 A 
ENDROOT
TORSDOF 0
ENDMDL
