MODEL 1
REMARK minimizedAffinity -5.99516249
REMARK minimizedRMSD -1
REMARK  0 active torsions:
REMARK  status: ('A' for Active; 'I' for Inactive)
ROOT
ATOM      1  C   UNL d   1      -3.242  -0.762   0.137  0.00  0.00     0.077 C 
ATOM      2  C1  UNL d   1      -1.827  -0.338  -0.123  0.00  0.00    -0.074 A 
ATOM      3  C2  UNL d   1      -1.411   0.027  -1.407  0.00  0.00    -0.005 A 
ATOM      4  C3  UNL d   1      -0.094   0.428  -1.632  0.00  0.00     0.006 A 
ATOM      5  C4  UNL d   1       0.818   0.468  -0.577  0.00  0.00    -0.005 A 
ATOM      6  C5  UNL d   1       0.420   0.107   0.714  0.00  0.00    -0.074 A 
ATOM      7  C6  UNL d   1       1.385   0.154   1.861  0.00  0.00     0.077 C 
ATOM      8  C7  UNL d   1      -0.907  -0.288   0.933  0.00  0.00    -0.001 A 
ENDROOT
TORSDOF 0
ENDMDL
