MODEL 1
REMARK minimizedAffinity -0.910745859
REMARK minimizedRMSD -1
REMARK  0 active torsions:
REMARK  status: ('A' for Active; 'I' for Inactive)
ROOT
ATOM      1  C   UNL d   1       0.689  -0.286  -1.881  0.00  0.00     0.077 C 
ATOM      2  C1  UNL d   1      -0.090  -0.479  -0.615  0.00  0.00    -0.074 A 
ATOM      3  C2  UNL d   1       0.125   0.345   0.494  0.00  0.00    -0.005 A 
ATOM      4  C3  UNL d   1      -0.614   0.159   1.663  0.00  0.00     0.006 A 
ATOM      5  C4  UNL d   1      -1.574  -0.851   1.733  0.00  0.00    -0.005 A 
ATOM      6  C5  UNL d   1      -1.803  -1.685   0.634  0.00  0.00    -0.074 A 
ATOM      7  C6  UNL d   1      -2.838  -2.769   0.690  0.00  0.00     0.077 C 
ATOM      8  C7  UNL d   1      -1.062  -1.487  -0.538  0.00  0.00    -0.001 A 
ENDROOT
TORSDOF 0
ENDMDL
