MODEL 1
REMARK minimizedAffinity 2.65786338
REMARK minimizedRMSD -1
REMARK  0 active torsions:
REMARK  status: ('A' for Active; 'I' for Inactive)
ROOT
ATOM      1  C   UNL d   1      -2.712   1.357   5.999  0.00  0.00     0.077 C 
ATOM      2  C1  UNL d   1      -2.612   0.220   5.025  0.00  0.00    -0.074 A 
ATOM      3  C2  UNL d   1      -2.034   0.403   3.765  0.00  0.00    -0.005 A 
ATOM      4  C3  UNL d   1      -1.938  -0.665   2.873  0.00  0.00     0.006 A 
ATOM      5  C4  UNL d   1      -2.419  -1.925   3.232  0.00  0.00    -0.005 A 
ATOM      6  C5  UNL d   1      -2.999  -2.127   4.489  0.00  0.00    -0.074 A 
ATOM      7  C6  UNL d   1      -3.512  -3.477   4.894  0.00  0.00     0.077 C 
ATOM      8  C7  UNL d   1      -3.085  -1.050   5.382  0.00  0.00    -0.001 A 
ENDROOT
TORSDOF 0
ENDMDL
