MODEL 1
REMARK minimizedAffinity 5.84301567
REMARK minimizedRMSD -1
REMARK  0 active torsions:
REMARK  status: ('A' for Active; 'I' for Inactive)
ROOT
ATOM      1  C   UNL d   1      -0.428   0.710  -3.694  0.00  0.00     0.077 C 
ATOM      2  C1  UNL d   1      -0.186   0.239  -2.290  0.00  0.00    -0.074 A 
ATOM      3  C2  UNL d   1       1.094  -0.133  -1.867  0.00  0.00    -0.005 A 
ATOM      4  C3  UNL d   1       1.304  -0.560  -0.556  0.00  0.00     0.006 A 
ATOM      5  C4  UNL d   1       0.239  -0.620   0.343  0.00  0.00    -0.005 A 
ATOM      6  C5  UNL d   1      -1.048  -0.252  -0.062  0.00  0.00    -0.074 A 
ATOM      7  C6  UNL d   1      -2.202  -0.302   0.895  0.00  0.00     0.077 C 
ATOM      8  C7  UNL d   1      -1.250   0.183  -1.379  0.00  0.00    -0.001 A 
ENDROOT
TORSDOF 0
ENDMDL
