MODEL 1
REMARK minimizedAffinity 6.87160206
REMARK minimizedRMSD -1
REMARK  0 active torsions:
REMARK  status: ('A' for Active; 'I' for Inactive)
ROOT
ATOM      1  C   UNL d   1      -5.493   6.000   2.558  0.00  0.00     0.077 C 
ATOM      2  C1  UNL d   1      -5.327   5.425   1.183  0.00  0.00    -0.074 A 
ATOM      3  C2  UNL d   1      -5.971   5.999   0.082  0.00  0.00    -0.005 A 
ATOM      4  C3  UNL d   1      -5.800   5.459  -1.193  0.00  0.00     0.006 A 
ATOM      5  C4  UNL d   1      -4.984   4.342  -1.380  0.00  0.00    -0.005 A 
ATOM      6  C5  UNL d   1      -4.331   3.756  -0.291  0.00  0.00    -0.074 A 
ATOM      7  C6  UNL d   1      -3.443   2.561  -0.475  0.00  0.00     0.077 C 
ATOM      8  C7  UNL d   1      -4.503   4.308   0.986  0.00  0.00    -0.001 A 
ENDROOT
TORSDOF 0
ENDMDL
