MODEL 1
REMARK minimizedAffinity 3.76580954
REMARK minimizedRMSD -1
REMARK  0 active torsions:
REMARK  status: ('A' for Active; 'I' for Inactive)
ROOT
ATOM      1  C   UNL d   1      -2.416   0.267   2.723  0.00  0.00     0.077 C 
ATOM      2  C1  UNL d   1      -1.297   0.059   1.747  0.00  0.00    -0.074 A 
ATOM      3  C2  UNL d   1      -0.340  -0.940   1.954  0.00  0.00    -0.005 A 
ATOM      4  C3  UNL d   1       0.691  -1.128   1.032  0.00  0.00     0.006 A 
ATOM      5  C4  UNL d   1       0.774  -0.320  -0.103  0.00  0.00    -0.005 A 
ATOM      6  C5  UNL d   1      -0.175   0.683  -0.326  0.00  0.00    -0.074 A 
ATOM      7  C6  UNL d   1      -0.105   1.553  -1.546  0.00  0.00     0.077 C 
ATOM      8  C7  UNL d   1      -1.211   0.861   0.601  0.00  0.00    -0.001 A 
ENDROOT
TORSDOF 0
ENDMDL
