MODEL 1
REMARK minimizedAffinity 1.06665063
REMARK minimizedRMSD -1
REMARK  0 active torsions:
REMARK  status: ('A' for Active; 'I' for Inactive)
ROOT
ATOM      1  C   UNL d   1      -5.380   4.954   1.694  0.00  0.00     0.077 C 
ATOM      2  C1  UNL d   1      -5.416   4.925   3.193  0.00  0.00    -0.074 A 
ATOM      3  C2  UNL d   1      -5.963   5.988   3.919  0.00  0.00    -0.005 A 
ATOM      4  C3  UNL d   1      -5.999   5.943   5.313  0.00  0.00     0.006 A 
ATOM      5  C4  UNL d   1      -5.489   4.837   5.993  0.00  0.00    -0.005 A 
ATOM      6  C5  UNL d   1      -4.939   3.764   5.284  0.00  0.00    -0.074 A 
ATOM      7  C6  UNL d   1      -4.396   2.563   6.000  0.00  0.00     0.077 C 
ATOM      8  C7  UNL d   1      -4.913   3.814   3.884  0.00  0.00    -0.001 A 
ENDROOT
TORSDOF 0
ENDMDL
