MODEL 1
REMARK minimizedAffinity -1.73999751
REMARK minimizedRMSD -1
REMARK  0 active torsions:
REMARK  status: ('A' for Active; 'I' for Inactive)
ROOT
ATOM      1  C   UNL d   1      -0.857   0.334  -2.671  0.00  0.00     0.077 C 
ATOM      2  C1  UNL d   1      -0.985  -0.665  -1.560  0.00  0.00    -0.074 A 
ATOM      3  C2  UNL d   1      -1.984  -1.644  -1.585  0.00  0.00    -0.005 A 
ATOM      4  C3  UNL d   1      -2.085  -2.572  -0.549  0.00  0.00     0.006 A 
ATOM      5  C4  UNL d   1      -1.190  -2.531   0.521  0.00  0.00    -0.005 A 
ATOM      6  C5  UNL d   1      -0.184  -1.560   0.563  0.00  0.00    -0.074 A 
ATOM      7  C6  UNL d   1       0.792  -1.508   1.701  0.00  0.00     0.077 C 
ATOM      8  C7  UNL d   1      -0.085  -0.635  -0.485  0.00  0.00    -0.001 A 
ENDROOT
TORSDOF 0
ENDMDL
