MODEL 1
REMARK minimizedAffinity -4.25703096
REMARK minimizedRMSD -1
REMARK  0 active torsions:
REMARK  status: ('A' for Active; 'I' for Inactive)
ROOT
ATOM      1  C   UNL d   1      -0.868  -3.147   2.206  0.00  0.00     0.077 C 
ATOM      2  C1  UNL d   1      -0.557  -2.006   1.284  0.00  0.00    -0.074 A 
ATOM      3  C2  UNL d   1       0.683  -1.361   1.331  0.00  0.00    -0.005 A 
ATOM      4  C3  UNL d   1       0.962  -0.307   0.461  0.00  0.00     0.006 A 
ATOM      5  C4  UNL d   1       0.004   0.112  -0.464  0.00  0.00    -0.005 A 
ATOM      6  C5  UNL d   1      -1.241  -0.521  -0.526  0.00  0.00    -0.074 A 
ATOM      7  C6  UNL d   1      -2.278  -0.089  -1.520  0.00  0.00     0.077 C 
ATOM      8  C7  UNL d   1      -1.511  -1.584   0.347  0.00  0.00    -0.001 A 
ENDROOT
TORSDOF 0
ENDMDL
