MODEL 1
REMARK minimizedAffinity -4.96570635
REMARK minimizedRMSD -1
REMARK  0 active torsions:
REMARK  status: ('A' for Active; 'I' for Inactive)
ROOT
ATOM      1  C   UNL d   1      -2.983  -0.656  -0.923  0.00  0.00     0.077 C 
ATOM      2  C1  UNL d   1      -1.570  -0.607  -0.422  0.00  0.00    -0.074 A 
ATOM      3  C2  UNL d   1      -0.618   0.214  -1.035  0.00  0.00    -0.005 A 
ATOM      4  C3  UNL d   1       0.689   0.257  -0.552  0.00  0.00     0.006 A 
ATOM      5  C4  UNL d   1       1.058  -0.520   0.547  0.00  0.00    -0.005 A 
ATOM      6  C5  UNL d   1       0.120  -1.346   1.173  0.00  0.00    -0.074 A 
ATOM      7  C6  UNL d   1       0.497  -2.180   2.361  0.00  0.00     0.077 C 
ATOM      8  C7  UNL d   1      -1.194  -1.378   0.686  0.00  0.00    -0.001 A 
ENDROOT
TORSDOF 0
ENDMDL
