MODEL 1
REMARK minimizedAffinity -0.437610626
REMARK minimizedRMSD -1
REMARK  0 active torsions:
REMARK  status: ('A' for Active; 'I' for Inactive)
ROOT
ATOM      1  C   UNL d   1      -1.024  -2.896   0.856  0.00  0.00     0.077 C 
ATOM      2  C1  UNL d   1      -0.406  -1.666   1.454  0.00  0.00    -0.074 A 
ATOM      3  C2  UNL d   1       0.932  -1.342   1.207  0.00  0.00    -0.005 A 
ATOM      4  C3  UNL d   1       1.490  -0.190   1.762  0.00  0.00     0.006 A 
ATOM      5  C4  UNL d   1       0.717   0.647   2.567  0.00  0.00    -0.005 A 
ATOM      6  C5  UNL d   1      -0.622   0.339   2.825  0.00  0.00    -0.074 A 
ATOM      7  C6  UNL d   1      -1.469   1.233   3.681  0.00  0.00     0.077 C 
ATOM      8  C7  UNL d   1      -1.178  -0.816   2.258  0.00  0.00    -0.001 A 
ENDROOT
TORSDOF 0
ENDMDL
