MODEL 1
REMARK minimizedAffinity 2.37345314
REMARK minimizedRMSD -1
REMARK  0 active torsions:
REMARK  status: ('A' for Active; 'I' for Inactive)
ROOT
ATOM      1  C   UNL d   1      -0.760  -0.704   1.456  0.00  0.00     0.172 C 
ATOM      2  N   UNL d   1      -0.225  -0.079   0.269  0.00  0.00    -0.070 N 
ATOM      3  C1  UNL d   1      -0.275   1.259  -0.020  0.00  0.00    -0.004 A 
ATOM      4  C2  UNL d   1       0.342   1.451  -1.237  0.00  0.00    -0.047 A 
ATOM      5  C3  UNL d   1       0.777   0.185  -1.695  0.00  0.00    -0.047 A 
ATOM      6  C4  UNL d   1       0.413  -0.744  -0.744  0.00  0.00    -0.004 A 
ENDROOT
TORSDOF 0
ENDMDL
