MODEL 1
REMARK minimizedAffinity -2.19905972
REMARK minimizedRMSD -1
REMARK  0 active torsions:
REMARK  status: ('A' for Active; 'I' for Inactive)
ROOT
ATOM      1  C   UNL d   1      -0.667  -1.961   0.675  0.00  0.00     0.172 C 
ATOM      2  N   UNL d   1      -0.451  -0.688   0.029  0.00  0.00    -0.070 N 
ATOM      3  C1  UNL d   1       0.319  -0.478  -1.083  0.00  0.00    -0.004 A 
ATOM      4  C2  UNL d   1       0.268   0.866  -1.385  0.00  0.00    -0.047 A 
ATOM      5  C3  UNL d   1      -0.561   1.485  -0.419  0.00  0.00    -0.047 A 
ATOM      6  C4  UNL d   1      -0.993   0.500   0.444  0.00  0.00    -0.004 A 
ENDROOT
TORSDOF 0
ENDMDL
