MODEL 1
REMARK minimizedAffinity 0.0937668905
REMARK minimizedRMSD -1
REMARK  0 active torsions:
REMARK  status: ('A' for Active; 'I' for Inactive)
ROOT
ATOM      1  C   UNL d   1       0.604   0.531  -2.297  0.00  0.00     0.172 C 
ATOM      2  N   UNL d   1       0.171   0.490  -0.920  0.00  0.00    -0.070 N 
ATOM      3  C1  UNL d   1      -0.803  -0.329  -0.414  0.00  0.00    -0.004 A 
ATOM      4  C2  UNL d   1      -0.917  -0.066   0.934  0.00  0.00    -0.047 A 
ATOM      5  C3  UNL d   1       0.021   0.947   1.249  0.00  0.00    -0.047 A 
ATOM      6  C4  UNL d   1       0.681   1.272   0.083  0.00  0.00    -0.004 A 
ENDROOT
TORSDOF 0
ENDMDL
