MODEL 1
REMARK minimizedAffinity -1.21783972
REMARK minimizedRMSD -1
REMARK  0 active torsions:
REMARK  status: ('A' for Active; 'I' for Inactive)
ROOT
ATOM      1  C   UNL d   1      -1.109  -2.808   0.629  0.00  0.00     0.172 C 
ATOM      2  N   UNL d   1      -0.528  -1.561   0.190  0.00  0.00    -0.070 N 
ATOM      3  C1  UNL d   1       0.014  -1.323  -1.045  0.00  0.00    -0.004 A 
ATOM      4  C2  UNL d   1       0.457  -0.018  -1.068  0.00  0.00    -0.047 A 
ATOM      5  C3  UNL d   1       0.172   0.548   0.198  0.00  0.00    -0.047 A 
ATOM      6  C4  UNL d   1      -0.438  -0.429   0.957  0.00  0.00    -0.004 A 
ENDROOT
TORSDOF 0
ENDMDL
