MODEL 1
REMARK minimizedAffinity 1.48174465
REMARK minimizedRMSD -1
REMARK  0 active torsions:
REMARK  status: ('A' for Active; 'I' for Inactive)
ROOT
ATOM      1  C   UNL d   1      -2.126  -2.457   0.363  0.00  0.00     0.172 C 
ATOM      2  N   UNL d   1      -1.625  -1.255   0.989  0.00  0.00    -0.070 N 
ATOM      3  C1  UNL d   1      -1.233  -0.118   0.334  0.00  0.00    -0.004 A 
ATOM      4  C2  UNL d   1      -0.822   0.794   1.282  0.00  0.00    -0.047 A 
ATOM      5  C3  UNL d   1      -0.971   0.183   2.550  0.00  0.00    -0.047 A 
ATOM      6  C4  UNL d   1      -1.470  -1.085   2.339  0.00  0.00    -0.004 A 
ENDROOT
TORSDOF 0
ENDMDL
