MODEL 1
REMARK minimizedAffinity 1.86353099
REMARK minimizedRMSD -1
REMARK  0 active torsions:
REMARK  status: ('A' for Active; 'I' for Inactive)
ROOT
ATOM      1  C   UNL d   1       1.582   3.555   1.963  0.00  0.00     0.172 C 
ATOM      2  N   UNL d   1       2.447   2.965   0.969  0.00  0.00    -0.070 N 
ATOM      3  C1  UNL d   1       2.130   1.904   0.163  0.00  0.00    -0.004 A 
ATOM      4  C2  UNL d   1       3.218   1.647  -0.644  0.00  0.00    -0.047 A 
ATOM      5  C3  UNL d   1       4.224   2.585  -0.310  0.00  0.00    -0.047 A 
ATOM      6  C4  UNL d   1       3.720   3.388   0.691  0.00  0.00    -0.004 A 
ENDROOT
TORSDOF 0
ENDMDL
