MODEL 1
REMARK minimizedAffinity 2.0317862
REMARK minimizedRMSD -1
REMARK  0 active torsions:
REMARK  status: ('A' for Active; 'I' for Inactive)
ROOT
ATOM      1  C   UNL d   1      -1.678  -0.138   1.061  0.00  0.00     0.172 C 
ATOM      2  N   UNL d   1      -0.656   0.342   0.162  0.00  0.00    -0.070 N 
ATOM      3  C1  UNL d   1       0.170   1.411   0.389  0.00  0.00    -0.004 A 
ATOM      4  C2  UNL d   1       1.001   1.542  -0.702  0.00  0.00    -0.047 A 
ATOM      5  C3  UNL d   1       0.663   0.517  -1.618  0.00  0.00    -0.047 A 
ATOM      6  C4  UNL d   1      -0.366  -0.211  -1.058  0.00  0.00    -0.004 A 
ENDROOT
TORSDOF 0
ENDMDL
