MODEL 1
REMARK minimizedAffinity 0.0700855032
REMARK minimizedRMSD -1
REMARK  0 active torsions:
REMARK  status: ('A' for Active; 'I' for Inactive)
ROOT
ATOM      1  C   UNL d   1      -1.073  -3.213   0.679  0.00  0.00     0.172 C 
ATOM      2  N   UNL d   1      -0.650  -1.841   0.526  0.00  0.00    -0.070 N 
ATOM      3  C1  UNL d   1      -0.573  -1.157  -0.658  0.00  0.00    -0.004 A 
ATOM      4  C2  UNL d   1      -0.129   0.118  -0.380  0.00  0.00    -0.047 A 
ATOM      5  C3  UNL d   1       0.069   0.202   1.018  0.00  0.00    -0.047 A 
ATOM      6  C4  UNL d   1      -0.261  -1.024   1.555  0.00  0.00    -0.004 A 
ENDROOT
TORSDOF 0
ENDMDL
