MODEL 1
REMARK minimizedAffinity -2.30938482
REMARK minimizedRMSD -1
REMARK  0 active torsions:
REMARK  status: ('A' for Active; 'I' for Inactive)
ROOT
ATOM      1  C   UNL d   1       6.000  -5.481   5.993  0.00  0.00     0.172 C 
ATOM      2  N   UNL d   1       5.347  -4.193   5.962  0.00  0.00    -0.070 N 
ATOM      3  C1  UNL d   1       3.994  -3.983   5.996  0.00  0.00    -0.004 A 
ATOM      4  C2  UNL d   1       3.778  -2.623   5.949  0.00  0.00    -0.047 A 
ATOM      5  C3  UNL d   1       5.044  -1.994   5.884  0.00  0.00    -0.047 A 
ATOM      6  C4  UNL d   1       5.998  -2.990   5.893  0.00  0.00    -0.004 A 
ENDROOT
TORSDOF 0
ENDMDL
