MODEL 1
REMARK minimizedAffinity -2.57329798
REMARK minimizedRMSD -1
REMARK  0 active torsions:
REMARK  status: ('A' for Active; 'I' for Inactive)
ROOT
ATOM      1  C   UNL d   1       1.103  -2.559   0.573  0.00  0.00     0.172 C 
ATOM      2  N   UNL d   1       0.140  -1.508   0.341  0.00  0.00    -0.070 N 
ATOM      3  C1  UNL d   1      -1.143  -1.481   0.820  0.00  0.00    -0.004 A 
ATOM      4  C2  UNL d   1      -1.733  -0.316   0.380  0.00  0.00    -0.047 A 
ATOM      5  C3  UNL d   1      -0.772   0.380  -0.391  0.00  0.00    -0.047 A 
ATOM      6  C4  UNL d   1       0.378  -0.380  -0.399  0.00  0.00    -0.004 A 
ENDROOT
TORSDOF 0
ENDMDL
