MODEL 1
REMARK minimizedAffinity -4.0776329
REMARK minimizedRMSD -1
REMARK  0 active torsions:
REMARK  status: ('A' for Active; 'I' for Inactive)
ROOT
ATOM      1  C   UNL d   1       0.631   0.121  -0.798  0.00  0.00     0.172 C 
ATOM      2  N   UNL d   1       0.348  -1.293  -0.876  0.00  0.00    -0.070 N 
ATOM      3  C1  UNL d   1       0.024  -2.102   0.180  0.00  0.00    -0.004 A 
ATOM      4  C2  UNL d   1      -0.171  -3.376  -0.308  0.00  0.00    -0.047 A 
ATOM      5  C3  UNL d   1       0.044  -3.331  -1.706  0.00  0.00    -0.047 A 
ATOM      6  C4  UNL d   1       0.364  -2.030  -2.031  0.00  0.00    -0.004 A 
ENDROOT
TORSDOF 0
ENDMDL
