MODEL 1
REMARK minimizedAffinity -0.245797336
REMARK minimizedRMSD -1
REMARK  0 active torsions:
REMARK  status: ('A' for Active; 'I' for Inactive)
ROOT
ATOM      1  C   UNL d   1       0.606  -0.176  -2.410  0.00  0.00     0.172 C 
ATOM      2  N   UNL d   1       0.082  -0.192  -1.064  0.00  0.00    -0.070 N 
ATOM      3  C1  UNL d   1      -0.531  -1.256  -0.459  0.00  0.00    -0.004 A 
ATOM      4  C2  UNL d   1      -0.883  -0.870   0.816  0.00  0.00    -0.047 A 
ATOM      5  C3  UNL d   1      -0.468   0.472   0.983  0.00  0.00    -0.047 A 
ATOM      6  C4  UNL d   1       0.127   0.868  -0.197  0.00  0.00    -0.004 A 
ENDROOT
TORSDOF 0
ENDMDL
