MODEL 1
REMARK minimizedAffinity -3.72455907
REMARK minimizedRMSD -1
REMARK  0 active torsions:
REMARK  status: ('A' for Active; 'I' for Inactive)
ROOT
ATOM      1  C   UNL d   1       0.149   0.057  -1.389  0.00  0.00     0.172 C 
ATOM      2  N   UNL d   1      -0.133  -1.193  -0.722  0.00  0.00    -0.070 N 
ATOM      3  C1  UNL d   1      -0.084  -2.434  -1.297  0.00  0.00    -0.004 A 
ATOM      4  C2  UNL d   1      -0.417  -3.360  -0.333  0.00  0.00    -0.047 A 
ATOM      5  C3  UNL d   1      -0.676  -2.651   0.864  0.00  0.00    -0.047 A 
ATOM      6  C4  UNL d   1      -0.493  -1.311   0.595  0.00  0.00    -0.004 A 
ENDROOT
TORSDOF 0
ENDMDL
