MODEL 1
REMARK minimizedAffinity -2.53175259
REMARK minimizedRMSD -1
REMARK  0 active torsions:
REMARK  status: ('A' for Active; 'I' for Inactive)
ROOT
ATOM      1  C   UNL d   1      -2.226  -2.413   1.023  0.00  0.00     0.172 C 
ATOM      2  N   UNL d   1      -0.920  -2.310   0.415  0.00  0.00    -0.070 N 
ATOM      3  C1  UNL d   1       0.019  -3.305   0.368  0.00  0.00    -0.004 A 
ATOM      4  C2  UNL d   1       1.123  -2.813  -0.294  0.00  0.00    -0.047 A 
ATOM      5  C3  UNL d   1       0.838  -1.475  -0.656  0.00  0.00    -0.047 A 
ATOM      6  C4  UNL d   1      -0.433  -1.190  -0.205  0.00  0.00    -0.004 A 
ENDROOT
TORSDOF 0
ENDMDL
