MODEL 1
REMARK minimizedAffinity -3.90317702
REMARK minimizedRMSD -1
REMARK  0 active torsions:
REMARK  status: ('A' for Active; 'I' for Inactive)
ROOT
ATOM      1  C   UNL d   1      -0.751  -2.207   0.624  0.00  0.00     0.172 C 
ATOM      2  N   UNL d   1       0.071  -2.239  -0.562  0.00  0.00    -0.070 N 
ATOM      3  C1  UNL d   1       0.629  -3.360  -1.117  0.00  0.00    -0.004 A 
ATOM      4  C2  UNL d   1       1.336  -2.971  -2.234  0.00  0.00    -0.047 A 
ATOM      5  C3  UNL d   1       1.200  -1.567  -2.354  0.00  0.00    -0.047 A 
ATOM      6  C4  UNL d   1       0.412  -1.140  -1.307  0.00  0.00    -0.004 A 
ENDROOT
TORSDOF 0
ENDMDL
