MODEL 1
REMARK minimizedAffinity -3.47736478
REMARK minimizedRMSD -1
REMARK  0 active torsions:
REMARK  status: ('A' for Active; 'I' for Inactive)
ROOT
ATOM      1  C   UNL d   1       0.020   3.384  -0.208  0.00  0.00     0.172 C 
ATOM      2  N   UNL d   1       0.181   2.010  -0.623  0.00  0.00    -0.070 N 
ATOM      3  C1  UNL d   1       0.837   1.035   0.081  0.00  0.00    -0.004 A 
ATOM      4  C2  UNL d   1       0.767  -0.131  -0.650  0.00  0.00    -0.047 A 
ATOM      5  C3  UNL d   1       0.045   0.152  -1.833  0.00  0.00    -0.047 A 
ATOM      6  C4  UNL d   1      -0.306   1.485  -1.791  0.00  0.00    -0.004 A 
ENDROOT
TORSDOF 0
ENDMDL
