MODEL 1
REMARK minimizedAffinity -5.57869196
REMARK minimizedRMSD -1
REMARK  0 active torsions:
REMARK  status: ('A' for Active; 'I' for Inactive)
ROOT
ATOM      1  N1  IND d   1      -1.959   1.093   1.172  0.00  0.00    -0.196 N 
ATOM      2  C2  IND d   1      -3.028   0.909   2.003  0.00  0.00     0.054 A 
ATOM      3  C3  IND d   1      -3.196  -0.406   2.271  0.00  0.00    -0.031 A 
ATOM      4  C4  IND d   1      -1.770  -2.419   1.533  0.00  0.00     0.051 A 
ATOM      5  C5  IND d   1      -0.711  -2.756   0.738  0.00  0.00    -0.031 A 
ATOM      6  C6  IND d   1       0.002  -1.807   0.034  0.00  0.00     0.015 A 
ATOM      7  C7  IND d   1      -0.311  -0.479   0.109  0.00  0.00    -0.016 A 
ATOM      8  C8  IND d   1      -1.391  -0.135   0.911  0.00  0.00    -0.047 A 
ATOM      9  C9  IND d   1      -2.145  -1.098   1.594  0.00  0.00    -0.096 A 
ATOM     10  HN1 IND d   1      -1.687   1.848   0.864  0.00  0.00     0.298 HD
ENDROOT
TORSDOF 0
ENDMDL
