MODEL 1
REMARK minimizedAffinity -4.86353159
REMARK minimizedRMSD -1
REMARK  0 active torsions:
REMARK  status: ('A' for Active; 'I' for Inactive)
ROOT
ATOM      1  N1  IND d   1      -0.864   0.829   0.021  0.00  0.00    -0.196 N 
ATOM      2  C2  IND d   1       0.373   1.187  -0.436  0.00  0.00     0.054 A 
ATOM      3  C3  IND d   1       1.263   0.193  -0.214  0.00  0.00    -0.031 A 
ATOM      4  C4  IND d   1       0.883  -2.146   0.792  0.00  0.00     0.051 A 
ATOM      5  C5  IND d   1      -0.072  -2.920   1.388  0.00  0.00    -0.031 A 
ATOM      6  C6  IND d   1      -1.367  -2.477   1.560  0.00  0.00     0.015 A 
ATOM      7  C7  IND d   1      -1.760  -1.241   1.130  0.00  0.00    -0.016 A 
ATOM      8  C8  IND d   1      -0.791  -0.449   0.531  0.00  0.00    -0.047 A 
ATOM      9  C9  IND d   1       0.536  -0.877   0.392  0.00  0.00    -0.096 A 
ATOM     10  HN1 IND d   1      -1.570   1.319  -0.006  0.00  0.00     0.298 HD
ENDROOT
TORSDOF 0
ENDMDL
