MODEL 1
REMARK minimizedAffinity -3.70299411
REMARK minimizedRMSD -1
REMARK  0 active torsions:
REMARK  status: ('A' for Active; 'I' for Inactive)
ROOT
ATOM      1  N1  IND d   1      -0.335   1.426   0.013  0.00  0.00    -0.196 N 
ATOM      2  C2  IND d   1       0.746   1.523  -0.819  0.00  0.00     0.054 A 
ATOM      3  C3  IND d   1       1.225   0.293  -1.113  0.00  0.00    -0.031 A 
ATOM      4  C4  IND d   1       0.328  -2.019  -0.421  0.00  0.00     0.051 A 
ATOM      5  C5  IND d   1      -0.617  -2.617   0.364  0.00  0.00    -0.031 A 
ATOM      6  C6  IND d   1      -1.537  -1.883   1.085  0.00  0.00     0.015 A 
ATOM      7  C7  IND d   1      -1.553  -0.518   1.038  0.00  0.00    -0.016 A 
ATOM      8  C8  IND d   1      -0.590   0.093   0.247  0.00  0.00    -0.047 A 
ATOM      9  C9  IND d   1       0.373  -0.645  -0.453  0.00  0.00    -0.096 A 
ATOM     10  HN1 IND d   1      -0.781   2.087   0.335  0.00  0.00     0.298 HD
ENDROOT
TORSDOF 0
ENDMDL
