MODEL 1
REMARK minimizedAffinity -1.48555934
REMARK minimizedRMSD -1
REMARK  0 active torsions:
REMARK  status: ('A' for Active; 'I' for Inactive)
ROOT
ATOM      1  N1  IND d   1       0.006   1.493   0.241  0.00  0.00    -0.196 N 
ATOM      2  C2  IND d   1       1.004   0.843  -0.430  0.00  0.00     0.054 A 
ATOM      3  C3  IND d   1       0.678  -0.455  -0.617  0.00  0.00    -0.031 A 
ATOM      4  C4  IND d   1      -1.486  -1.704   0.006  0.00  0.00     0.051 A 
ATOM      5  C5  IND d   1      -2.672  -1.541   0.665  0.00  0.00    -0.031 A 
ATOM      6  C6  IND d   1      -3.034  -0.333   1.226  0.00  0.00     0.015 A 
ATOM      7  C7  IND d   1      -2.226   0.765   1.138  0.00  0.00    -0.016 A 
ATOM      8  C8  IND d   1      -1.017   0.601   0.475  0.00  0.00    -0.047 A 
ATOM      9  C9  IND d   1      -0.625  -0.633  -0.059  0.00  0.00    -0.096 A 
ATOM     10  HN1 IND d   1       0.016   2.319   0.478  0.00  0.00     0.298 HD
ENDROOT
TORSDOF 0
ENDMDL
