MODEL 1
REMARK minimizedAffinity -1.03333557
REMARK minimizedRMSD -1
REMARK  0 active torsions:
REMARK  status: ('A' for Active; 'I' for Inactive)
ROOT
ATOM      1  N1  IND d   1      -1.456   0.502   0.128  0.00  0.00    -0.196 N 
ATOM      2  C2  IND d   1      -0.659   1.504  -0.351  0.00  0.00     0.054 A 
ATOM      3  C3  IND d   1       0.645   1.173  -0.219  0.00  0.00    -0.031 A 
ATOM      4  C4  IND d   1       1.698  -1.005   0.662  0.00  0.00     0.051 A 
ATOM      5  C5  IND d   1       1.375  -2.198   1.246  0.00  0.00    -0.031 A 
ATOM      6  C6  IND d   1       0.066  -2.561   1.489  0.00  0.00     0.015 A 
ATOM      7  C7  IND d   1      -0.975  -1.745   1.146  0.00  0.00    -0.016 A 
ATOM      8  C8  IND d   1      -0.651  -0.530   0.559  0.00  0.00    -0.047 A 
ATOM      9  C9  IND d   1       0.678  -0.138   0.349  0.00  0.00    -0.096 A 
ATOM     10  HN1 IND d   1      -2.315   0.513   0.155  0.00  0.00     0.298 HD
ENDROOT
TORSDOF 0
ENDMDL
