MODEL 1
REMARK minimizedAffinity -2.03034902
REMARK minimizedRMSD -1
REMARK  0 active torsions:
REMARK  status: ('A' for Active; 'I' for Inactive)
ROOT
ATOM      1  N1  IND d   1       1.245  -0.412   1.073  0.00  0.00    -0.196 N 
ATOM      2  C2  IND d   1       1.264   0.636   0.196  0.00  0.00     0.054 A 
ATOM      3  C3  IND d   1       0.082   0.728  -0.453  0.00  0.00    -0.031 A 
ATOM      4  C4  IND d   1      -2.058  -0.672  -0.158  0.00  0.00     0.051 A 
ATOM      5  C5  IND d   1      -2.548  -1.765   0.499  0.00  0.00    -0.031 A 
ATOM      6  C6  IND d   1      -1.784  -2.476   1.402  0.00  0.00     0.015 A 
ATOM      7  C7  IND d   1      -0.500  -2.112   1.690  0.00  0.00    -0.016 A 
ATOM      8  C8  IND d   1       0.004  -1.006   1.019  0.00  0.00    -0.047 A 
ATOM      9  C9  IND d   1      -0.753  -0.306   0.071  0.00  0.00    -0.096 A 
ATOM     10  HN1 IND d   1       1.899  -0.659   1.574  0.00  0.00     0.298 HD
ENDROOT
TORSDOF 0
ENDMDL
