MODEL 1
REMARK minimizedAffinity -4.96700716
REMARK minimizedRMSD -1
REMARK  0 active torsions:
REMARK  status: ('A' for Active; 'I' for Inactive)
ROOT
ATOM      1  N1  IND d   1       1.489   0.565  -0.056  0.00  0.00    -0.196 N 
ATOM      2  C2  IND d   1       0.534   1.509  -0.312  0.00  0.00     0.054 A 
ATOM      3  C3  IND d   1      -0.701   0.975  -0.185  0.00  0.00    -0.031 A 
ATOM      4  C4  IND d   1      -1.390  -1.400   0.531  0.00  0.00     0.051 A 
ATOM      5  C5  IND d   1      -0.871  -2.627   0.833  0.00  0.00    -0.031 A 
ATOM      6  C6  IND d   1       0.490  -2.857   0.858  0.00  0.00     0.015 A 
ATOM      7  C7  IND d   1       1.385  -1.861   0.591  0.00  0.00    -0.016 A 
ATOM      8  C8  IND d   1       0.861  -0.615   0.276  0.00  0.00    -0.047 A 
ATOM      9  C9  IND d   1      -0.519  -0.386   0.209  0.00  0.00    -0.096 A 
ATOM     10  HN1 IND d   1       2.339   0.688  -0.096  0.00  0.00     0.298 HD
ENDROOT
TORSDOF 0
ENDMDL
