MODEL 1
REMARK minimizedAffinity -5.18089199
REMARK minimizedRMSD -1
REMARK  0 active torsions:
REMARK  status: ('A' for Active; 'I' for Inactive)
ROOT
ATOM      1  N1  IND d   1      -0.044   1.097   0.503  0.00  0.00    -0.196 N 
ATOM      2  C2  IND d   1       1.040   0.541  -0.117  0.00  0.00     0.054 A 
ATOM      3  C3  IND d   1       0.942  -0.807  -0.118  0.00  0.00    -0.031 A 
ATOM      4  C4  IND d   1      -0.960  -2.309   0.751  0.00  0.00     0.051 A 
ATOM      5  C5  IND d   1      -2.144  -2.262   1.431  0.00  0.00    -0.031 A 
ATOM      6  C6  IND d   1      -2.702  -1.069   1.842  0.00  0.00     0.015 A 
ATOM      7  C7  IND d   1      -2.099   0.128   1.578  0.00  0.00    -0.016 A 
ATOM      8  C8  IND d   1      -0.892   0.084   0.894  0.00  0.00    -0.047 A 
ATOM      9  C9  IND d   1      -0.300  -1.127   0.512  0.00  0.00    -0.096 A 
ATOM     10  HN1 IND d   1      -0.175   1.937   0.628  0.00  0.00     0.298 HD
ENDROOT
TORSDOF 0
ENDMDL
