MODEL 1
REMARK minimizedAffinity -2.44336677
REMARK minimizedRMSD -1
REMARK  0 active torsions:
REMARK  status: ('A' for Active; 'I' for Inactive)
ROOT
ATOM      1  N1  IND d   1       0.149   2.708  -0.221  0.00  0.00    -0.196 N 
ATOM      2  C2  IND d   1       1.380   2.339  -0.686  0.00  0.00     0.054 A 
ATOM      3  C3  IND d   1       1.522   0.995  -0.627  0.00  0.00    -0.031 A 
ATOM      4  C4  IND d   1      -0.175  -0.797   0.104  0.00  0.00     0.051 A 
ATOM      5  C5  IND d   1      -1.422  -0.943   0.645  0.00  0.00    -0.031 A 
ATOM      6  C6  IND d   1      -2.226   0.142   0.928  0.00  0.00     0.015 A 
ATOM      7  C7  IND d   1      -1.816   1.419   0.669  0.00  0.00    -0.016 A 
ATOM      8  C8  IND d   1      -0.548   1.572   0.127  0.00  0.00    -0.047 A 
ATOM      9  C9  IND d   1       0.290   0.477  -0.123  0.00  0.00    -0.096 A 
ATOM     10  HN1 IND d   1      -0.141   3.515  -0.155  0.00  0.00     0.298 HD
ENDROOT
TORSDOF 0
ENDMDL
