MODEL 1
REMARK minimizedAffinity -3.45290065
REMARK minimizedRMSD -1
REMARK  0 active torsions:
REMARK  status: ('A' for Active; 'I' for Inactive)
ROOT
ATOM      1  N1  IND d   1      -0.984   1.397   0.465  0.00  0.00    -0.196 N 
ATOM      2  C2  IND d   1       0.071   2.087  -0.064  0.00  0.00     0.054 A 
ATOM      3  C3  IND d   1       1.074   1.239  -0.384  0.00  0.00    -0.031 A 
ATOM      4  C4  IND d   1       1.160  -1.329  -0.220  0.00  0.00     0.051 A 
ATOM      5  C5  IND d   1       0.449  -2.404   0.235  0.00  0.00    -0.031 A 
ATOM      6  C6  IND d   1      -0.803  -2.264   0.798  0.00  0.00     0.015 A 
ATOM      7  C7  IND d   1      -1.397  -1.040   0.918  0.00  0.00    -0.016 A 
ATOM      8  C8  IND d   1      -0.675   0.055   0.464  0.00  0.00    -0.047 A 
ATOM      9  C9  IND d   1       0.613  -0.076  -0.070  0.00  0.00    -0.096 A 
ATOM     10  HN1 IND d   1      -1.718   1.743   0.750  0.00  0.00     0.298 HD
ENDROOT
TORSDOF 0
ENDMDL
