MODEL 1
REMARK minimizedAffinity -3.32959723
REMARK minimizedRMSD -1
REMARK  0 active torsions:
REMARK  status: ('A' for Active; 'I' for Inactive)
ROOT
ATOM      1  N1  IND d   1      -0.839   0.330  -0.123  0.00  0.00    -0.196 N 
ATOM      2  C2  IND d   1       0.395   0.501  -0.684  0.00  0.00     0.054 A 
ATOM      3  C3  IND d   1       1.246  -0.456  -0.251  0.00  0.00    -0.031 A 
ATOM      4  C4  IND d   1       0.799  -2.461   1.301  0.00  0.00     0.051 A 
ATOM      5  C5  IND d   1      -0.167  -3.016   2.091  0.00  0.00    -0.031 A 
ATOM      6  C6  IND d   1      -1.433  -2.476   2.184  0.00  0.00     0.015 A 
ATOM      7  C7  IND d   1      -1.785  -1.361   1.478  0.00  0.00    -0.016 A 
ATOM      8  C8  IND d   1      -0.804  -0.789   0.679  0.00  0.00    -0.047 A 
ATOM      9  C9  IND d   1       0.495  -1.309   0.614  0.00  0.00    -0.096 A 
ATOM     10  HN1 IND d   1      -1.522   0.837  -0.249  0.00  0.00     0.298 HD
ENDROOT
TORSDOF 0
ENDMDL
