MODEL 1
REMARK minimizedAffinity -3.12831044
REMARK minimizedRMSD -1
REMARK  0 active torsions:
REMARK  status: ('A' for Active; 'I' for Inactive)
ROOT
ATOM      1  N1  IND d   1      -1.057   1.003  -0.288  0.00  0.00    -0.196 N 
ATOM      2  C2  IND d   1       0.176   1.362  -0.759  0.00  0.00     0.054 A 
ATOM      3  C3  IND d   1       1.096   0.429  -0.428  0.00  0.00    -0.031 A 
ATOM      4  C4  IND d   1       0.783  -1.815   0.796  0.00  0.00     0.051 A 
ATOM      5  C5  IND d   1      -0.155  -2.563   1.450  0.00  0.00    -0.031 A 
ATOM      6  C6  IND d   1      -1.469  -2.154   1.559  0.00  0.00     0.015 A 
ATOM      7  C7  IND d   1      -1.897  -0.981   1.004  0.00  0.00    -0.016 A 
ATOM      8  C8  IND d   1      -0.946  -0.215   0.345  0.00  0.00    -0.047 A 
ATOM      9  C9  IND d   1       0.397  -0.605   0.268  0.00  0.00    -0.096 A 
ATOM     10  HN1 IND d   1      -1.779   1.462  -0.373  0.00  0.00     0.298 HD
ENDROOT
TORSDOF 0
ENDMDL
