MODEL 1
REMARK minimizedAffinity -4.64972544
REMARK minimizedRMSD -1
REMARK  0 active torsions:
REMARK  status: ('A' for Active; 'I' for Inactive)
ROOT
ATOM      1  N1  IND d   1       0.090   1.175   0.036  0.00  0.00    -0.196 N 
ATOM      2  C2  IND d   1       1.155   0.461  -0.438  0.00  0.00     0.054 A 
ATOM      3  C3  IND d   1       1.158  -0.785   0.087  0.00  0.00    -0.031 A 
ATOM      4  C4  IND d   1      -0.544  -1.899   1.665  0.00  0.00     0.051 A 
ATOM      5  C5  IND d   1      -1.666  -1.634   2.399  0.00  0.00    -0.031 A 
ATOM      6  C6  IND d   1      -2.274  -0.395   2.380  0.00  0.00     0.015 A 
ATOM      7  C7  IND d   1      -1.787   0.626   1.615  0.00  0.00    -0.016 A 
ATOM      8  C8  IND d   1      -0.643   0.363   0.873  0.00  0.00    -0.047 A 
ATOM      9  C9  IND d   1       0.002  -0.879   0.921  0.00  0.00    -0.096 A 
ATOM     10  HN1 IND d   1      -0.092   1.993  -0.157  0.00  0.00     0.298 HD
ENDROOT
TORSDOF 0
ENDMDL
