MODEL 1
REMARK minimizedAffinity 0.0380045064
REMARK minimizedRMSD -1
REMARK  0 active torsions:
REMARK  status: ('A' for Active; 'I' for Inactive)
ROOT
ATOM      1  N1  IND d   1      -0.766   0.734   0.437  0.00  0.00    -0.196 N 
ATOM      2  C2  IND d   1       0.067   1.562  -0.263  0.00  0.00     0.054 A 
ATOM      3  C3  IND d   1       1.208   0.915  -0.589  0.00  0.00    -0.031 A 
ATOM      4  C4  IND d   1       1.879  -1.534  -0.164  0.00  0.00     0.051 A 
ATOM      5  C5  IND d   1       1.462  -2.670   0.470  0.00  0.00    -0.031 A 
ATOM      6  C6  IND d   1       0.255  -2.732   1.136  0.00  0.00     0.015 A 
ATOM      7  C7  IND d   1      -0.588  -1.658   1.184  0.00  0.00    -0.016 A 
ATOM      8  C8  IND d   1      -0.165  -0.500   0.548  0.00  0.00    -0.047 A 
ATOM      9  C9  IND d   1       1.078  -0.418  -0.094  0.00  0.00    -0.096 A 
ATOM     10  HN1 IND d   1      -1.535   0.949   0.755  0.00  0.00     0.298 HD
ENDROOT
TORSDOF 0
ENDMDL
