MODEL 1
REMARK minimizedAffinity -4.11734915
REMARK minimizedRMSD -1
REMARK  0 active torsions:
REMARK  status: ('A' for Active; 'I' for Inactive)
ROOT
ATOM      1  N1  IND d   1      -0.182   1.490   0.233  0.00  0.00    -0.196 N 
ATOM      2  C2  IND d   1       1.009   1.007  -0.232  0.00  0.00     0.054 A 
ATOM      3  C3  IND d   1       1.172  -0.282   0.142  0.00  0.00    -0.031 A 
ATOM      4  C4  IND d   1      -0.434  -1.826   1.431  0.00  0.00     0.051 A 
ATOM      5  C5  IND d   1      -1.628  -1.825   2.096  0.00  0.00    -0.031 A 
ATOM      6  C6  IND d   1      -2.419  -0.696   2.173  0.00  0.00     0.015 A 
ATOM      7  C7  IND d   1      -2.048   0.475   1.576  0.00  0.00    -0.016 A 
ATOM      8  C8  IND d   1      -0.833   0.480   0.906  0.00  0.00    -0.047 A 
ATOM      9  C9  IND d   1      -0.006  -0.651   0.860  0.00  0.00    -0.096 A 
ATOM     10  HN1 IND d   1      -0.476   2.291   0.124  0.00  0.00     0.298 HD
ENDROOT
TORSDOF 0
ENDMDL
