MODEL 1
REMARK minimizedAffinity -1.99991381
REMARK minimizedRMSD -1
REMARK  0 active torsions:
REMARK  status: ('A' for Active; 'I' for Inactive)
ROOT
ATOM      1  N1  IND d   1       0.933  -0.600  -0.169  0.00  0.00    -0.196 N 
ATOM      2  C2  IND d   1      -0.257  -0.938   0.414  0.00  0.00     0.054 A 
ATOM      3  C3  IND d   1      -1.271  -0.249  -0.155  0.00  0.00    -0.031 A 
ATOM      4  C4  IND d   1      -1.222   1.409  -2.123  0.00  0.00     0.051 A 
ATOM      5  C5  IND d   1      -0.361   2.064  -2.959  0.00  0.00    -0.031 A 
ATOM      6  C6  IND d   1       1.002   1.858  -2.908  0.00  0.00     0.015 A 
ATOM      7  C7  IND d   1       1.557   0.977  -2.023  0.00  0.00    -0.016 A 
ATOM      8  C8  IND d   1       0.687   0.316  -1.168  0.00  0.00    -0.047 A 
ATOM      9  C9  IND d   1      -0.694   0.552  -1.187  0.00  0.00    -0.096 A 
ATOM     10  HN1 IND d   1       1.705  -0.907   0.052  0.00  0.00     0.298 HD
ENDROOT
TORSDOF 0
ENDMDL
