MODEL 1
REMARK minimizedAffinity -5.26837492
REMARK minimizedRMSD -1
REMARK  0 active torsions:
REMARK  status: ('A' for Active; 'I' for Inactive)
ROOT
ATOM      1  C2' OXE d   1      -1.156   0.139   1.147  0.00  0.00     0.078 C 
ATOM      2  C1' OXE d   1       0.335  -0.342  -1.182  0.00  0.00     0.078 C 
ATOM      3  C1  OXE d   1       0.853  -0.913   0.115  0.00  0.00    -0.078 A 
ATOM      4  C2  OXE d   1       0.141  -0.633   1.257  0.00  0.00    -0.078 A 
ATOM      5  C3  OXE d   1       0.544  -1.180   2.472  0.00  0.00     0.003 A 
ATOM      6  C4  OXE d   1       1.751  -1.885   2.566  0.00  0.00    -0.002 A 
ATOM      7  C5  OXE d   1       2.511  -2.147   1.422  0.00  0.00    -0.002 A 
ATOM      8  C6  OXE d   1       2.055  -1.706   0.185  0.00  0.00     0.003 A 
ENDROOT
TORSDOF 0
ENDMDL
