MODEL 1
REMARK minimizedAffinity -1.12323821
REMARK minimizedRMSD -1
REMARK  0 active torsions:
REMARK  status: ('A' for Active; 'I' for Inactive)
ROOT
ATOM      1  C2' OXE d   1      -1.494   2.725   1.531  0.00  0.00     0.078 C 
ATOM      2  C1' OXE d   1      -0.450   1.975  -0.964  0.00  0.00     0.078 C 
ATOM      3  C1  OXE d   1      -0.478   0.935   0.128  0.00  0.00    -0.078 A 
ATOM      4  C2  OXE d   1      -0.947   1.324   1.360  0.00  0.00    -0.078 A 
ATOM      5  C3  OXE d   1      -1.044   0.390   2.387  0.00  0.00     0.003 A 
ATOM      6  C4  OXE d   1      -0.527  -0.901   2.222  0.00  0.00    -0.002 A 
ATOM      7  C5  OXE d   1      -0.009  -1.306   0.988  0.00  0.00    -0.002 A 
ATOM      8  C6  OXE d   1      -0.016  -0.415  -0.080  0.00  0.00     0.003 A 
ENDROOT
TORSDOF 0
ENDMDL
