MODEL 1
REMARK minimizedAffinity -1.38914466
REMARK minimizedRMSD -1
REMARK  0 active torsions:
REMARK  status: ('A' for Active; 'I' for Inactive)
ROOT
ATOM      1  C2' OXE d   1      -0.659  -0.320   1.242  0.00  0.00     0.078 C 
ATOM      2  C1' OXE d   1      -0.237  -0.782  -1.495  0.00  0.00     0.078 C 
ATOM      3  C1  OXE d   1      -0.494   0.637  -1.053  0.00  0.00    -0.078 A 
ATOM      4  C2  OXE d   1      -0.746   0.847   0.282  0.00  0.00    -0.078 A 
ATOM      5  C3  OXE d   1      -0.935   2.144   0.751  0.00  0.00     0.003 A 
ATOM      6  C4  OXE d   1      -1.024   3.216  -0.144  0.00  0.00    -0.002 A 
ATOM      7  C5  OXE d   1      -0.810   3.018  -1.513  0.00  0.00    -0.002 A 
ATOM      8  C6  OXE d   1      -0.503   1.744  -1.977  0.00  0.00     0.003 A 
ENDROOT
TORSDOF 0
ENDMDL
