MODEL 1
REMARK minimizedAffinity -0.997779191
REMARK minimizedRMSD -1
REMARK  0 active torsions:
REMARK  status: ('A' for Active; 'I' for Inactive)
ROOT
ATOM      1  C2' OXE d   1      -0.562   0.263  -1.528  0.00  0.00     0.078 C 
ATOM      2  C1' OXE d   1       1.726  -1.186  -0.789  0.00  0.00     0.078 C 
ATOM      3  C1  OXE d   1       0.708  -0.884   0.282  0.00  0.00    -0.078 A 
ATOM      4  C2  OXE d   1      -0.386  -0.134  -0.078  0.00  0.00    -0.078 A 
ATOM      5  C3  OXE d   1      -1.382   0.127   0.858  0.00  0.00     0.003 A 
ATOM      6  C4  OXE d   1      -1.207  -0.236   2.199  0.00  0.00    -0.002 A 
ATOM      7  C5  OXE d   1      -0.082  -0.966   2.596  0.00  0.00    -0.002 A 
ATOM      8  C6  OXE d   1       0.862  -1.334   1.644  0.00  0.00     0.003 A 
ENDROOT
TORSDOF 0
ENDMDL
