MODEL 1
REMARK minimizedAffinity -4.15915632
REMARK minimizedRMSD -1
REMARK  0 active torsions:
REMARK  status: ('A' for Active; 'I' for Inactive)
ROOT
ATOM      1  C2' OXE d   1       1.552  -1.470  -1.443  0.00  0.00     0.078 C 
ATOM      2  C1' OXE d   1       2.044  -2.579   1.089  0.00  0.00     0.078 C 
ATOM      3  C1  OXE d   1       0.921  -1.579   0.964  0.00  0.00    -0.078 A 
ATOM      4  C2  OXE d   1       0.717  -1.007  -0.268  0.00  0.00    -0.078 A 
ATOM      5  C3  OXE d   1      -0.340  -0.121  -0.451  0.00  0.00     0.003 A 
ATOM      6  C4  OXE d   1      -1.101   0.310   0.642  0.00  0.00    -0.002 A 
ATOM      7  C5  OXE d   1      -0.885  -0.230   1.915  0.00  0.00    -0.002 A 
ATOM      8  C6  OXE d   1       0.092  -1.206   2.084  0.00  0.00     0.003 A 
ENDROOT
TORSDOF 0
ENDMDL
