MODEL 1
REMARK minimizedAffinity -1.9655658
REMARK minimizedRMSD -1
REMARK  0 active torsions:
REMARK  status: ('A' for Active; 'I' for Inactive)
ROOT
ATOM      1  C2' OXE d   1       2.518  -2.765   1.020  0.00  0.00     0.078 C 
ATOM      2  C1' OXE d   1       1.814  -1.293  -1.264  0.00  0.00     0.078 C 
ATOM      3  C1  OXE d   1       1.001  -1.080  -0.012  0.00  0.00    -0.078 A 
ATOM      4  C2  OXE d   1       1.323  -1.839   1.088  0.00  0.00    -0.078 A 
ATOM      5  C3  OXE d   1       0.640  -1.644   2.285  0.00  0.00     0.003 A 
ATOM      6  C4  OXE d   1      -0.471  -0.793   2.336  0.00  0.00    -0.002 A 
ATOM      7  C5  OXE d   1      -0.841  -0.040   1.217  0.00  0.00    -0.002 A 
ATOM      8  C6  OXE d   1      -0.091  -0.140   0.050  0.00  0.00     0.003 A 
ENDROOT
TORSDOF 0
ENDMDL
