MODEL 1
REMARK minimizedAffinity -0.585237801
REMARK minimizedRMSD -1
REMARK  0 active torsions:
REMARK  status: ('A' for Active; 'I' for Inactive)
ROOT
ATOM      1  C2' OXE d   1       2.174  -2.221   0.286  0.00  0.00     0.078 C 
ATOM      2  C1' OXE d   1       0.536  -1.836   2.533  0.00  0.00     0.078 C 
ATOM      3  C1  OXE d   1       0.185  -1.089   1.271  0.00  0.00    -0.078 A 
ATOM      4  C2  OXE d   1       1.019  -1.247   0.190  0.00  0.00    -0.078 A 
ATOM      5  C3  OXE d   1       0.710  -0.624  -1.016  0.00  0.00     0.003 A 
ATOM      6  C4  OXE d   1      -0.354   0.282  -1.093  0.00  0.00    -0.002 A 
ATOM      7  C5  OXE d   1      -1.192   0.489   0.007  0.00  0.00    -0.002 A 
ATOM      8  C6  OXE d   1      -0.962  -0.220   1.181  0.00  0.00     0.003 A 
ENDROOT
TORSDOF 0
ENDMDL
