MODEL 1
REMARK minimizedAffinity 1.58709705
REMARK minimizedRMSD -1
REMARK  0 active torsions:
REMARK  status: ('A' for Active; 'I' for Inactive)
ROOT
ATOM      1  N1  IND d   1       0.262  -0.856  -0.080  0.00  0.00    -0.196 N 
ATOM      2  C2  IND d   1      -1.044  -0.644   0.264  0.00  0.00     0.054 A 
ATOM      3  C3  IND d   1      -1.237   0.649   0.607  0.00  0.00    -0.031 A 
ATOM      4  C4  IND d   1       0.426   2.614   0.578  0.00  0.00     0.051 A 
ATOM      5  C5  IND d   1       1.745   2.906   0.371  0.00  0.00    -0.031 A 
ATOM      6  C6  IND d   1       2.655   1.940  -0.008  0.00  0.00     0.015 A 
ATOM      7  C7  IND d   1       2.276   0.642  -0.205  0.00  0.00    -0.016 A 
ATOM      8  C8  IND d   1       0.938   0.341   0.012  0.00  0.00    -0.047 A 
ATOM      9  C9  IND d   1       0.019   1.308   0.437  0.00  0.00    -0.096 A 
ATOM     10  HN1 IND d   1       0.603  -1.609  -0.314  0.00  0.00     0.298 HD
ENDROOT
TORSDOF 0
ENDMDL
