MODEL 1
REMARK minimizedAffinity -1.33297873
REMARK minimizedRMSD -1
REMARK  0 active torsions:
REMARK  status: ('A' for Active; 'I' for Inactive)
ROOT
ATOM      1  N1  IND d   1       1.263  -0.538   1.344  0.00  0.00    -0.196 N 
ATOM      2  C2  IND d   1       2.069   0.528   1.057  0.00  0.00     0.054 A 
ATOM      3  C3  IND d   1       1.868   1.524   1.950  0.00  0.00    -0.031 A 
ATOM      4  C4  IND d   1       0.341   1.579   4.022  0.00  0.00     0.051 A 
ATOM      5  C5  IND d   1      -0.615   0.852   4.675  0.00  0.00    -0.031 A 
ATOM      6  C6  IND d   1      -0.999  -0.401   4.245  0.00  0.00     0.015 A 
ATOM      7  C7  IND d   1      -0.432  -0.982   3.146  0.00  0.00    -0.016 A 
ATOM      8  C8  IND d   1       0.534  -0.244   2.476  0.00  0.00    -0.047 A 
ATOM      9  C9  IND d   1       0.898   1.046   2.884  0.00  0.00    -0.096 A 
ATOM     10  HN1 IND d   1       1.218  -1.269   0.894  0.00  0.00     0.298 HD
ENDROOT
TORSDOF 0
ENDMDL
