MODEL 1
REMARK minimizedAffinity -1.69687021
REMARK minimizedRMSD -1
REMARK  0 active torsions:
REMARK  status: ('A' for Active; 'I' for Inactive)
ROOT
ATOM      1  N1  IND d   1       1.902  -0.596   2.263  0.00  0.00    -0.196 N 
ATOM      2  C2  IND d   1       2.648  -0.949   1.173  0.00  0.00     0.054 A 
ATOM      3  C3  IND d   1       1.901  -0.877   0.049  0.00  0.00    -0.031 A 
ATOM      4  C4  IND d   1      -0.537  -0.105  -0.248  0.00  0.00     0.051 A 
ATOM      5  C5  IND d   1      -1.639   0.280   0.462  0.00  0.00    -0.031 A 
ATOM      6  C6  IND d   1      -1.616   0.397   1.837  0.00  0.00     0.015 A 
ATOM      7  C7  IND d   1      -0.481   0.144   2.555  0.00  0.00    -0.016 A 
ATOM      8  C8  IND d   1       0.638  -0.253   1.837  0.00  0.00    -0.047 A 
ATOM      9  C9  IND d   1       0.608  -0.416   0.446  0.00  0.00    -0.096 A 
ATOM     10  HN1 IND d   1       2.177  -0.589   3.078  0.00  0.00     0.298 HD
ENDROOT
TORSDOF 0
ENDMDL
