MODEL 1
REMARK minimizedAffinity -2.46498418
REMARK minimizedRMSD -1
REMARK  0 active torsions:
REMARK  status: ('A' for Active; 'I' for Inactive)
ROOT
ATOM      1  N1  IND d   1       0.244  -0.817  -0.649  0.00  0.00    -0.196 N 
ATOM      2  C2  IND d   1      -1.020  -0.779  -1.167  0.00  0.00     0.054 A 
ATOM      3  C3  IND d   1      -1.895  -0.330  -0.239  0.00  0.00    -0.031 A 
ATOM      4  C4  IND d   1      -1.456   0.496   2.159  0.00  0.00     0.051 A 
ATOM      5  C5  IND d   1      -0.464   0.616   3.093  0.00  0.00    -0.031 A 
ATOM      6  C6  IND d   1       0.841   0.259   2.820  0.00  0.00     0.015 A 
ATOM      7  C7  IND d   1       1.207  -0.222   1.595  0.00  0.00    -0.016 A 
ATOM      8  C8  IND d   1       0.201  -0.351   0.647  0.00  0.00    -0.047 A 
ATOM      9  C9  IND d   1      -1.132  -0.032   0.931  0.00  0.00    -0.096 A 
ATOM     10  HN1 IND d   1       0.948  -1.087  -1.063  0.00  0.00     0.298 HD
ENDROOT
TORSDOF 0
ENDMDL
