MODEL 1
REMARK minimizedAffinity -1.89475298
REMARK minimizedRMSD -1
REMARK  0 active torsions:
REMARK  status: ('A' for Active; 'I' for Inactive)
ROOT
ATOM      1  N1  IND d   1       0.633   1.034   2.946  0.00  0.00    -0.196 N 
ATOM      2  C2  IND d   1      -0.601   1.522   3.274  0.00  0.00     0.054 A 
ATOM      3  C3  IND d   1      -1.526   1.103   2.381  0.00  0.00    -0.031 A 
ATOM      4  C4  IND d   1      -1.255  -0.472   0.363  0.00  0.00     0.051 A 
ATOM      5  C5  IND d   1      -0.309  -1.144  -0.359  0.00  0.00    -0.031 A 
ATOM      6  C6  IND d   1       1.025  -1.126  -0.009  0.00  0.00     0.015 A 
ATOM      7  C7  IND d   1       1.464  -0.442   1.089  0.00  0.00    -0.016 A 
ATOM      8  C8  IND d   1       0.508   0.247   1.822  0.00  0.00    -0.047 A 
ATOM      9  C9  IND d   1      -0.842   0.268   1.446  0.00  0.00    -0.096 A 
ATOM     10  HN1 IND d   1       1.364   1.191   3.370  0.00  0.00     0.298 HD
ENDROOT
TORSDOF 0
ENDMDL
