MODEL 1
REMARK minimizedAffinity -6.3287797
REMARK minimizedRMSD -1
REMARK  0 active torsions:
REMARK  status: ('A' for Active; 'I' for Inactive)
ROOT
ATOM      1  N1  IND d   1       2.830  -0.754   0.646  0.00  0.00    -0.196 N 
ATOM      2  C2  IND d   1       2.295  -0.878  -0.606  0.00  0.00     0.054 A 
ATOM      3  C3  IND d   1       1.043  -0.369  -0.636  0.00  0.00    -0.031 A 
ATOM      4  C4  IND d   1      -0.288   0.808   1.227  0.00  0.00     0.051 A 
ATOM      5  C5  IND d   1      -0.232   1.126   2.555  0.00  0.00    -0.031 A 
ATOM      6  C6  IND d   1       0.872   0.830   3.330  0.00  0.00     0.015 A 
ATOM      7  C7  IND d   1       1.969   0.213   2.800  0.00  0.00    -0.016 A 
ATOM      8  C8  IND d   1       1.912  -0.118   1.453  0.00  0.00    -0.047 A 
ATOM      9  C9  IND d   1       0.779   0.141   0.672  0.00  0.00    -0.096 A 
ATOM     10  HN1 IND d   1       3.608  -1.027   0.888  0.00  0.00     0.298 HD
ENDROOT
TORSDOF 0
ENDMDL
