MODEL 1
REMARK minimizedAffinity -5.91607332
REMARK minimizedRMSD -1
REMARK  0 active torsions:
REMARK  status: ('A' for Active; 'I' for Inactive)
ROOT
ATOM      1  N1  IND d   1       1.973  -0.002   0.566  0.00  0.00    -0.196 N 
ATOM      2  C2  IND d   1       2.112  -0.897  -0.458  0.00  0.00     0.054 A 
ATOM      3  C3  IND d   1       0.899  -1.286  -0.911  0.00  0.00    -0.031 A 
ATOM      4  C4  IND d   1      -1.445  -0.505  -0.186  0.00  0.00     0.051 A 
ATOM      5  C5  IND d   1      -2.083   0.275   0.737  0.00  0.00    -0.031 A 
ATOM      6  C6  IND d   1      -1.387   1.019   1.668  0.00  0.00     0.015 A 
ATOM      7  C7  IND d   1      -0.021   1.020   1.703  0.00  0.00    -0.016 A 
ATOM      8  C8  IND d   1       0.630   0.224   0.771  0.00  0.00    -0.047 A 
ATOM      9  C9  IND d   1      -0.072  -0.567  -0.148  0.00  0.00    -0.096 A 
ATOM     10  HN1 IND d   1       2.616   0.358   1.008  0.00  0.00     0.298 HD
ENDROOT
TORSDOF 0
ENDMDL
