MODEL 1
REMARK minimizedAffinity -4.13158894
REMARK minimizedRMSD -1
REMARK  0 active torsions:
REMARK  status: ('A' for Active; 'I' for Inactive)
ROOT
ATOM      1  N1  IND d   1       2.855   0.113  -3.188  0.00  0.00    -0.196 N 
ATOM      2  C2  IND d   1       2.223   1.023  -3.990  0.00  0.00     0.054 A 
ATOM      3  C3  IND d   1       1.052   1.406  -3.434  0.00  0.00    -0.031 A 
ATOM      4  C4  IND d   1       0.021   0.744  -1.170  0.00  0.00     0.051 A 
ATOM      5  C5  IND d   1       0.211  -0.088  -0.102  0.00  0.00    -0.031 A 
ATOM      6  C6  IND d   1       1.315  -0.910  -0.006  0.00  0.00     0.015 A 
ATOM      7  C7  IND d   1       2.281  -0.922  -0.972  0.00  0.00    -0.016 A 
ATOM      8  C8  IND d   1       2.088  -0.084  -2.061  0.00  0.00    -0.047 A 
ATOM      9  C9  IND d   1       0.948   0.721  -2.185  0.00  0.00    -0.096 A 
ATOM     10  HN1 IND d   1       3.604  -0.271  -3.360  0.00  0.00     0.298 HD
ENDROOT
TORSDOF 0
ENDMDL
