MODEL 1
REMARK minimizedAffinity -3.4241631
REMARK minimizedRMSD -1
REMARK  0 active torsions:
REMARK  status: ('A' for Active; 'I' for Inactive)
ROOT
ATOM      1  N1  IND d   1       1.862  -0.940   1.061  0.00  0.00    -0.196 N 
ATOM      2  C2  IND d   1       1.835  -1.085  -0.298  0.00  0.00     0.054 A 
ATOM      3  C3  IND d   1       0.621  -0.742  -0.783  0.00  0.00    -0.031 A 
ATOM      4  C4  IND d   1      -1.437   0.180   0.459  0.00  0.00     0.051 A 
ATOM      5  C5  IND d   1      -1.905   0.452   1.714  0.00  0.00    -0.031 A 
ATOM      6  C6  IND d   1      -1.124   0.272   2.838  0.00  0.00     0.015 A 
ATOM      7  C7  IND d   1       0.163  -0.177   2.747  0.00  0.00    -0.016 A 
ATOM      8  C8  IND d   1       0.639  -0.461   1.475  0.00  0.00    -0.047 A 
ATOM      9  C9  IND d   1      -0.162  -0.321   0.335  0.00  0.00    -0.096 A 
ATOM     10  HN1 IND d   1       2.531  -1.119   1.571  0.00  0.00     0.298 HD
ENDROOT
TORSDOF 0
ENDMDL
