MODEL 1
REMARK minimizedAffinity -3.18963599
REMARK minimizedRMSD -1
REMARK  0 active torsions:
REMARK  status: ('A' for Active; 'I' for Inactive)
ROOT
ATOM      1  N1  IND d   1       2.383  -0.753   1.899  0.00  0.00    -0.196 N 
ATOM      2  C2  IND d   1       2.143  -0.555   3.230  0.00  0.00     0.054 A 
ATOM      3  C3  IND d   1       0.864  -0.163   3.425  0.00  0.00    -0.031 A 
ATOM      4  C4  IND d   1      -1.038   0.121   1.714  0.00  0.00     0.051 A 
ATOM      5  C5  IND d   1      -1.293   0.090   0.371  0.00  0.00    -0.031 A 
ATOM      6  C6  IND d   1      -0.316  -0.233  -0.549  0.00  0.00     0.015 A 
ATOM      7  C7  IND d   1       0.954  -0.549  -0.158  0.00  0.00    -0.016 A 
ATOM      8  C8  IND d   1       1.218  -0.511   1.204  0.00  0.00    -0.047 A 
ATOM      9  C9  IND d   1       0.243  -0.143   2.139  0.00  0.00    -0.096 A 
ATOM     10  HN1 IND d   1       3.135  -0.988   1.554  0.00  0.00     0.298 HD
ENDROOT
TORSDOF 0
ENDMDL
