MODEL 1
REMARK minimizedAffinity 2.48464823
REMARK minimizedRMSD -1
REMARK  0 active torsions:
REMARK  status: ('A' for Active; 'I' for Inactive)
ROOT
ATOM      1  N1  IND d   1       1.374  -1.175   3.729  0.00  0.00    -0.196 N 
ATOM      2  C2  IND d   1       0.921  -1.307   5.013  0.00  0.00     0.054 A 
ATOM      3  C3  IND d   1      -0.375  -0.932   5.095  0.00  0.00    -0.031 A 
ATOM      4  C4  IND d   1      -1.977  -0.165   3.232  0.00  0.00     0.051 A 
ATOM      5  C5  IND d   1      -2.011   0.148   1.902  0.00  0.00    -0.031 A 
ATOM      6  C6  IND d   1      -0.897   0.031   1.096  0.00  0.00     0.015 A 
ATOM      7  C7  IND d   1       0.296  -0.416   1.591  0.00  0.00    -0.016 A 
ATOM      8  C8  IND d   1       0.336  -0.728   2.942  0.00  0.00    -0.047 A 
ATOM      9  C9  IND d   1      -0.780  -0.571   3.774  0.00  0.00    -0.096 A 
ATOM     10  HN1 IND d   1       2.173  -1.342   3.460  0.00  0.00     0.298 HD
ENDROOT
TORSDOF 0
ENDMDL
