MODEL 1
REMARK minimizedAffinity -4.03703117
REMARK minimizedRMSD -1
REMARK  0 active torsions:
REMARK  status: ('A' for Active; 'I' for Inactive)
ROOT
ATOM      1  C4' PXY d   1       1.802  -0.232  -3.765  0.00  0.00     0.077 C 
ATOM      2  C1' PXY d   1      -0.389  -0.065   1.581  0.00  0.00     0.077 C 
ATOM      3  C1  PXY d   1       0.189  -0.097   0.180  0.00  0.00    -0.082 A 
ATOM      4  C2  PXY d   1      -0.294  -0.950  -0.708  0.00  0.00     0.003 A 
ATOM      5  C3  PXY d   1       0.239  -1.014  -1.970  0.00  0.00     0.003 A 
ATOM      6  C4  PXY d   1       1.242  -0.159  -2.342  0.00  0.00    -0.082 A 
ATOM      7  C5  PXY d   1       1.733   0.722  -1.445  0.00  0.00     0.003 A 
ATOM      8  C6  PXY d   1       1.206   0.743  -0.157  0.00  0.00     0.003 A 
ENDROOT
TORSDOF 0
ENDMDL
