MODEL 1
REMARK minimizedAffinity -3.82379413
REMARK minimizedRMSD -1
REMARK  0 active torsions:
REMARK  status: ('A' for Active; 'I' for Inactive)
ROOT
ATOM      1  C4' PXY d   1       0.914   2.763  -1.101  0.00  0.00     0.077 C 
ATOM      2  C1' PXY d   1       1.945  -2.924  -1.190  0.00  0.00     0.077 C 
ATOM      3  C1  PXY d   1       1.663  -1.435  -1.161  0.00  0.00    -0.082 A 
ATOM      4  C2  PXY d   1       2.289  -0.634  -2.008  0.00  0.00     0.003 A 
ATOM      5  C3  PXY d   1       2.070   0.719  -1.974  0.00  0.00     0.003 A 
ATOM      6  C4  PXY d   1       1.160   1.252  -1.101  0.00  0.00    -0.082 A 
ATOM      7  C5  PXY d   1       0.509   0.440  -0.241  0.00  0.00     0.003 A 
ATOM      8  C6  PXY d   1       0.777  -0.925  -0.263  0.00  0.00     0.003 A 
ENDROOT
TORSDOF 0
ENDMDL
