MODEL 1
REMARK minimizedAffinity -4.33329535
REMARK minimizedRMSD -1
REMARK  0 active torsions:
REMARK  status: ('A' for Active; 'I' for Inactive)
ROOT
ATOM      1  C4' PXY d   1      -1.892   0.479   2.416  0.00  0.00     0.077 C 
ATOM      2  C1' PXY d   1       2.007   0.510  -1.851  0.00  0.00     0.077 C 
ATOM      3  C1  PXY d   1       0.980   0.491  -0.737  0.00  0.00    -0.082 A 
ATOM      4  C2  PXY d   1       0.655   1.619  -0.127  0.00  0.00     0.003 A 
ATOM      5  C3  PXY d   1      -0.248   1.615   0.904  0.00  0.00     0.003 A 
ATOM      6  C4  PXY d   1      -0.866   0.452   1.279  0.00  0.00    -0.082 A 
ATOM      7  C5  PXY d   1      -0.549  -0.701   0.654  0.00  0.00     0.003 A 
ATOM      8  C6  PXY d   1       0.401  -0.683  -0.362  0.00  0.00     0.003 A 
ENDROOT
TORSDOF 0
ENDMDL
