MODEL 1
REMARK minimizedAffinity -3.570925
REMARK minimizedRMSD -1
REMARK  0 active torsions:
REMARK  status: ('A' for Active; 'I' for Inactive)
ROOT
ATOM      1  C4' PXY d   1       0.958  -3.022  -1.777  0.00  0.00     0.077 C 
ATOM      2  C1' PXY d   1       0.835   2.670  -0.775  0.00  0.00     0.077 C 
ATOM      3  C1  PXY d   1       0.873   1.179  -1.050  0.00  0.00    -0.082 A 
ATOM      4  C2  PXY d   1       0.017   0.379  -0.435  0.00  0.00     0.003 A 
ATOM      5  C3  PXY d   1       0.058  -0.975  -0.647  0.00  0.00     0.003 A 
ATOM      6  C4  PXY d   1       0.950  -1.510  -1.538  0.00  0.00    -0.082 A 
ATOM      7  C5  PXY d   1       1.820  -0.699  -2.176  0.00  0.00     0.003 A 
ATOM      8  C6  PXY d   1       1.789   0.668  -1.916  0.00  0.00     0.003 A 
ENDROOT
TORSDOF 0
ENDMDL
