MODEL 1
REMARK minimizedAffinity -3.84539485
REMARK minimizedRMSD -1
REMARK  0 active torsions:
REMARK  status: ('A' for Active; 'I' for Inactive)
ROOT
ATOM      1  C4' PXY d   1       3.079   0.652  -1.618  0.00  0.00     0.077 C 
ATOM      2  C1' PXY d   1      -2.108  -0.119   0.813  0.00  0.00     0.077 C 
ATOM      3  C1  PXY d   1      -0.749   0.072   0.170  0.00  0.00    -0.082 A 
ATOM      4  C2  PXY d   1       0.139   0.870   0.740  0.00  0.00     0.003 A 
ATOM      5  C3  PXY d   1       1.361   1.079   0.155  0.00  0.00     0.003 A 
ATOM      6  C4  PXY d   1       1.698   0.423  -0.999  0.00  0.00    -0.082 A 
ATOM      7  C5  PXY d   1       0.802  -0.401  -1.582  0.00  0.00     0.003 A 
ATOM      8  C6  PXY d   1      -0.449  -0.568  -0.993  0.00  0.00     0.003 A 
ENDROOT
TORSDOF 0
ENDMDL
