MODEL 1
REMARK minimizedAffinity -3.42495513
REMARK minimizedRMSD -1
REMARK  0 active torsions:
REMARK  status: ('A' for Active; 'I' for Inactive)
ROOT
ATOM      1  C4' PXY d   1      -1.703   0.207   2.081  0.00  0.00     0.077 C 
ATOM      2  C1' PXY d   1       1.811   0.329  -2.507  0.00  0.00     0.077 C 
ATOM      3  C1  PXY d   1       0.888   0.284  -1.306  0.00  0.00    -0.082 A 
ATOM      4  C2  PXY d   1       0.252   1.381  -0.928  0.00  0.00     0.003 A 
ATOM      5  C3  PXY d   1      -0.561   1.366   0.176  0.00  0.00     0.003 A 
ATOM      6  C4  PXY d   1      -0.768   0.203   0.868  0.00  0.00    -0.082 A 
ATOM      7  C5  PXY d   1      -0.131  -0.923   0.483  0.00  0.00     0.003 A 
ATOM      8  C6  PXY d   1       0.723  -0.877  -0.615  0.00  0.00     0.003 A 
ENDROOT
TORSDOF 0
ENDMDL
