MODEL 1
REMARK minimizedAffinity -4.31857824
REMARK minimizedRMSD -1
REMARK  0 active torsions:
REMARK  status: ('A' for Active; 'I' for Inactive)
ROOT
ATOM      1  C4' PXY d   1      -1.442   0.296   1.678  0.00  0.00     0.077 C 
ATOM      2  C1' PXY d   1       2.320  -0.600  -2.619  0.00  0.00     0.077 C 
ATOM      3  C1  PXY d   1       1.343  -0.358  -1.486  0.00  0.00    -0.082 A 
ATOM      4  C2  PXY d   1       0.330  -1.191  -1.307  0.00  0.00     0.003 A 
ATOM      5  C3  PXY d   1      -0.582  -0.969  -0.307  0.00  0.00     0.003 A 
ATOM      6  C4  PXY d   1      -0.425   0.086   0.552  0.00  0.00    -0.082 A 
ATOM      7  C5  PXY d   1       0.612   0.933   0.383  0.00  0.00     0.003 A 
ATOM      8  C6  PXY d   1       1.503   0.714  -0.664  0.00  0.00     0.003 A 
ENDROOT
TORSDOF 0
ENDMDL
