MODEL 1
REMARK minimizedAffinity -2.71950722
REMARK minimizedRMSD -1
REMARK  0 active torsions:
REMARK  status: ('A' for Active; 'I' for Inactive)
ROOT
ATOM      1  C4' PXY d   1       0.069  -2.942  -1.836  0.00  0.00     0.077 C 
ATOM      2  C1' PXY d   1       1.405   2.018   0.815  0.00  0.00     0.077 C 
ATOM      3  C1  PXY d   1       1.059   0.722   0.109  0.00  0.00    -0.082 A 
ATOM      4  C2  PXY d   1       0.124  -0.067   0.612  0.00  0.00     0.003 A 
ATOM      5  C3  PXY d   1      -0.179  -1.258   0.003  0.00  0.00     0.003 A 
ATOM      6  C4  PXY d   1       0.444  -1.620  -1.161  0.00  0.00    -0.082 A 
ATOM      7  C5  PXY d   1       1.392  -0.814  -1.686  0.00  0.00     0.003 A 
ATOM      8  C6  PXY d   1       1.714   0.371  -1.031  0.00  0.00     0.003 A 
ENDROOT
TORSDOF 0
ENDMDL
