MODEL 1
REMARK minimizedAffinity -5.08311939
REMARK minimizedRMSD -1
REMARK  0 active torsions:
REMARK  status: ('A' for Active; 'I' for Inactive)
ROOT
ATOM      1  C4' PXY d   1      -0.733   0.304   1.946  0.00  0.00     0.077 C 
ATOM      2  C1' PXY d   1       1.909  -0.923  -3.047  0.00  0.00     0.077 C 
ATOM      3  C1  PXY d   1       1.210  -0.613  -1.738  0.00  0.00    -0.082 A 
ATOM      4  C2  PXY d   1       1.070   0.646  -1.354  0.00  0.00     0.003 A 
ATOM      5  C3  PXY d   1       0.468   0.942  -0.158  0.00  0.00     0.003 A 
ATOM      6  C4  PXY d   1      -0.042  -0.056   0.628  0.00  0.00    -0.082 A 
ATOM      7  C5  PXY d   1       0.088  -1.342   0.237  0.00  0.00     0.003 A 
ATOM      8  C6  PXY d   1       0.738  -1.624  -0.960  0.00  0.00     0.003 A 
ENDROOT
TORSDOF 0
ENDMDL
