MODEL 1
REMARK minimizedAffinity -3.00547719
REMARK minimizedRMSD -1
REMARK  0 active torsions:
REMARK  status: ('A' for Active; 'I' for Inactive)
ROOT
ATOM      1  C4' PXY d   1       1.790   0.023  -1.918  0.00  0.00     0.077 C 
ATOM      2  C1' PXY d   1      -2.537  -0.013   1.916  0.00  0.00     0.077 C 
ATOM      3  C1  PXY d   1      -1.394  -0.007   0.920  0.00  0.00    -0.082 A 
ATOM      4  C2  PXY d   1      -1.493   0.714  -0.185  0.00  0.00     0.003 A 
ATOM      5  C3  PXY d   1      -0.482   0.706  -1.111  0.00  0.00     0.003 A 
ATOM      6  C4  PXY d   1       0.664  -0.006  -0.880  0.00  0.00    -0.082 A 
ATOM      7  C5  PXY d   1       0.777  -0.736   0.250  0.00  0.00     0.003 A 
ATOM      8  C6  PXY d   1      -0.277  -0.747   1.158  0.00  0.00     0.003 A 
ENDROOT
TORSDOF 0
ENDMDL
