MODEL 1
REMARK minimizedAffinity -5.10930586
REMARK minimizedRMSD -1
REMARK  0 active torsions:
REMARK  status: ('A' for Active; 'I' for Inactive)
ROOT
ATOM      1  C4' PXY d   1      -0.961   0.345   1.560  0.00  0.00     0.077 C 
ATOM      2  C1' PXY d   1       2.162  -0.757  -3.178  0.00  0.00     0.077 C 
ATOM      3  C1  PXY d   1       1.352  -0.459  -1.931  0.00  0.00    -0.082 A 
ATOM      4  C2  PXY d   1       0.511  -1.368  -1.465  0.00  0.00     0.003 A 
ATOM      5  C3  PXY d   1      -0.253  -1.103  -0.357  0.00  0.00     0.003 A 
ATOM      6  C4  PXY d   1      -0.116   0.084   0.311  0.00  0.00    -0.082 A 
ATOM      7  C5  PXY d   1       0.748   1.012  -0.153  0.00  0.00     0.003 A 
ATOM      8  C6  PXY d   1       1.484   0.740  -1.302  0.00  0.00     0.003 A 
ENDROOT
TORSDOF 0
ENDMDL
