MODEL 1
REMARK minimizedAffinity -5.58422136
REMARK minimizedRMSD -1
REMARK  0 active torsions:
REMARK  status: ('A' for Active; 'I' for Inactive)
ROOT
ATOM      1  C4' PXY d   1      -2.289   0.765   1.993  0.00  0.00     0.077 C 
ATOM      2  C1' PXY d   1       1.923   0.373  -1.946  0.00  0.00     0.077 C 
ATOM      3  C1  PXY d   1       0.812   0.465  -0.918  0.00  0.00    -0.082 A 
ATOM      4  C2  PXY d   1       0.543   1.629  -0.349  0.00  0.00     0.003 A 
ATOM      5  C3  PXY d   1      -0.436   1.724   0.606  0.00  0.00     0.003 A 
ATOM      6  C4  PXY d   1      -1.183   0.627   0.943  0.00  0.00    -0.082 A 
ATOM      7  C5  PXY d   1      -0.922  -0.561   0.359  0.00  0.00     0.003 A 
ATOM      8  C6  PXY d   1       0.104  -0.645  -0.578  0.00  0.00     0.003 A 
ENDROOT
TORSDOF 0
ENDMDL
