MODEL 1
REMARK minimizedAffinity -5.35576248
REMARK minimizedRMSD -1
REMARK  0 active torsions:
REMARK  status: ('A' for Active; 'I' for Inactive)
ROOT
ATOM      1  C4' PXY d   1       1.649   0.278  -2.944  0.00  0.00     0.077 C 
ATOM      2  C1' PXY d   1      -1.067   0.130   2.157  0.00  0.00     0.077 C 
ATOM      3  C1  PXY d   1      -0.354   0.182   0.820  0.00  0.00    -0.082 A 
ATOM      4  C2  PXY d   1      -0.461  -0.837  -0.018  0.00  0.00     0.003 A 
ATOM      5  C3  PXY d   1       0.203  -0.820  -1.218  0.00  0.00     0.003 A 
ATOM      6  C4  PXY d   1       0.940   0.273  -1.587  0.00  0.00    -0.082 A 
ATOM      7  C5  PXY d   1       1.045   1.321  -0.742  0.00  0.00     0.003 A 
ATOM      8  C6  PXY d   1       0.397   1.267   0.488  0.00  0.00     0.003 A 
ENDROOT
TORSDOF 0
ENDMDL
