MODEL 1
REMARK minimizedAffinity -5.16197157
REMARK minimizedRMSD -1
REMARK  0 active torsions:
REMARK  status: ('A' for Active; 'I' for Inactive)
ROOT
ATOM      1  C4' PXY d   1      -0.526  -0.036   1.315  0.00  0.00     0.077 C 
ATOM      2  C1' PXY d   1       2.238  -0.510  -3.740  0.00  0.00     0.077 C 
ATOM      3  C1  PXY d   1       1.521  -0.376  -2.411  0.00  0.00    -0.082 A 
ATOM      4  C2  PXY d   1       0.879  -1.417  -1.906  0.00  0.00     0.003 A 
ATOM      5  C3  PXY d   1       0.198  -1.304  -0.721  0.00  0.00     0.003 A 
ATOM      6  C4  PXY d   1       0.220  -0.128  -0.019  0.00  0.00    -0.082 A 
ATOM      7  C5  PXY d   1       0.882   0.935  -0.522  0.00  0.00     0.003 A 
ATOM      8  C6  PXY d   1       1.532   0.812  -1.747  0.00  0.00     0.003 A 
ENDROOT
TORSDOF 0
ENDMDL
