MODEL 1
REMARK minimizedAffinity -2.21489215
REMARK minimizedRMSD -1
REMARK  0 active torsions:
REMARK  status: ('A' for Active; 'I' for Inactive)
ROOT
ATOM      1  C4' PXY d   1      -3.579  -0.579   2.198  0.00  0.00     0.077 C 
ATOM      2  C1' PXY d   1       1.643   1.402   0.709  0.00  0.00     0.077 C 
ATOM      3  C1  PXY d   1       0.273   0.891   1.109  0.00  0.00    -0.082 A 
ATOM      4  C2  PXY d   1      -0.062  -0.361   0.844  0.00  0.00     0.003 A 
ATOM      5  C3  PXY d   1      -1.308  -0.830   1.169  0.00  0.00     0.003 A 
ATOM      6  C4  PXY d   1      -2.203  -0.024   1.821  0.00  0.00    -0.082 A 
ATOM      7  C5  PXY d   1      -1.865   1.252   2.105  0.00  0.00     0.003 A 
ATOM      8  C6  PXY d   1      -0.610   1.721   1.729  0.00  0.00     0.003 A 
ENDROOT
TORSDOF 0
ENDMDL
