MODEL 1
REMARK minimizedAffinity -3.53359365
REMARK minimizedRMSD -1
REMARK  0 active torsions:
REMARK  status: ('A' for Active; 'I' for Inactive)
ROOT
ATOM      1  C4' PXY d   1      -3.367  -0.750   0.870  0.00  0.00     0.077 C 
ATOM      2  C1' PXY d   1      -3.027   4.168   3.889  0.00  0.00     0.077 C 
ATOM      3  C1  PXY d   1      -3.103   2.878   3.096  0.00  0.00    -0.082 A 
ATOM      4  C2  PXY d   1      -4.203   2.591   2.418  0.00  0.00     0.003 A 
ATOM      5  C3  PXY d   1      -4.300   1.413   1.722  0.00  0.00     0.003 A 
ATOM      6  C4  PXY d   1      -3.242   0.545   1.677  0.00  0.00    -0.082 A 
ATOM      7  C5  PXY d   1      -2.113   0.836   2.357  0.00  0.00     0.003 A 
ATOM      8  C6  PXY d   1      -2.049   2.017   3.091  0.00  0.00     0.003 A 
ENDROOT
TORSDOF 0
ENDMDL
