MODEL 1
REMARK minimizedAffinity -3.61059713
REMARK minimizedRMSD -1
REMARK  0 active torsions:
REMARK  status: ('A' for Active; 'I' for Inactive)
ROOT
ATOM      1  C4' PXY d   1      -1.098  -0.040   1.278  0.00  0.00     0.077 C 
ATOM      2  C1' PXY d   1       3.111  -0.785  -2.614  0.00  0.00     0.077 C 
ATOM      3  C1  PXY d   1       2.003  -0.602  -1.596  0.00  0.00    -0.082 A 
ATOM      4  C2  PXY d   1       1.615   0.619  -1.264  0.00  0.00     0.003 A 
ATOM      5  C3  PXY d   1       0.636   0.804  -0.322  0.00  0.00     0.003 A 
ATOM      6  C4  PXY d   1       0.011  -0.273   0.248  0.00  0.00    -0.082 A 
ATOM      7  C5  PXY d   1       0.393  -1.522  -0.094  0.00  0.00     0.003 A 
ATOM      8  C6  PXY d   1       1.417  -1.687  -1.022  0.00  0.00     0.003 A 
ENDROOT
TORSDOF 0
ENDMDL
