MODEL 1
REMARK minimizedAffinity -4.40739107
REMARK minimizedRMSD -1
REMARK  0 active torsions:
REMARK  status: ('A' for Active; 'I' for Inactive)
ROOT
ATOM      1  C4' PXY d   1       1.022  -3.352  -0.404  0.00  0.00     0.077 C 
ATOM      2  C1' PXY d   1       1.424   2.408  -0.673  0.00  0.00     0.077 C 
ATOM      3  C1  PXY d   1       1.322   0.897  -0.615  0.00  0.00    -0.082 A 
ATOM      4  C2  PXY d   1       0.522   0.329   0.273  0.00  0.00     0.003 A 
ATOM      5  C3  PXY d   1       0.443  -1.037   0.360  0.00  0.00     0.003 A 
ATOM      6  C4  PXY d   1       1.149  -1.829  -0.505  0.00  0.00    -0.082 A 
ATOM      7  C5  PXY d   1       1.959  -1.257  -1.421  0.00  0.00     0.003 A 
ATOM      8  C6  PXY d   1       2.057   0.131  -1.466  0.00  0.00     0.003 A 
ENDROOT
TORSDOF 0
ENDMDL
