MODEL 1
REMARK minimizedAffinity -1.42723572
REMARK minimizedRMSD -1
REMARK  0 active torsions:
REMARK  status: ('A' for Active; 'I' for Inactive)
ROOT
ATOM      1  C4' PXY d   1      -2.289   0.682   2.239  0.00  0.00     0.077 C 
ATOM      2  C1' PXY d   1       2.337   0.508  -1.224  0.00  0.00     0.077 C 
ATOM      3  C1  PXY d   1       1.120   0.542  -0.320  0.00  0.00    -0.082 A 
ATOM      4  C2  PXY d   1       0.669   1.703   0.127  0.00  0.00     0.003 A 
ATOM      5  C3  PXY d   1      -0.411   1.750   0.970  0.00  0.00     0.003 A 
ATOM      6  C4  PXY d   1      -1.069   0.600   1.317  0.00  0.00    -0.082 A 
ATOM      7  C5  PXY d   1      -0.622  -0.587   0.856  0.00  0.00     0.003 A 
ATOM      8  C6  PXY d   1       0.501  -0.616   0.034  0.00  0.00     0.003 A 
ENDROOT
TORSDOF 0
ENDMDL
