MODEL 1
REMARK minimizedAffinity -5.21615267
REMARK minimizedRMSD -1
REMARK  0 active torsions:
REMARK  status: ('A' for Active; 'I' for Inactive)
ROOT
ATOM      1  C4' PXY d   1       2.193  -1.478  -2.962  0.00  0.00     0.077 C 
ATOM      2  C1' PXY d   1      -1.277   0.475   1.229  0.00  0.00     0.077 C 
ATOM      3  C1  PXY d   1      -0.365  -0.048   0.136  0.00  0.00    -0.082 A 
ATOM      4  C2  PXY d   1       0.217   0.803  -0.693  0.00  0.00     0.003 A 
ATOM      5  C3  PXY d   1       1.020   0.345  -1.706  0.00  0.00     0.003 A 
ATOM      6  C4  PXY d   1       1.272  -0.994  -1.839  0.00  0.00    -0.082 A 
ATOM      7  C5  PXY d   1       0.690  -1.868  -0.990  0.00  0.00     0.003 A 
ATOM      8  C6  PXY d   1      -0.154  -1.386   0.006  0.00  0.00     0.003 A 
ENDROOT
TORSDOF 0
ENDMDL
