MODEL 1
REMARK minimizedAffinity 6.61987734
REMARK minimizedRMSD -1
REMARK  1 active torsions:
REMARK  status: ('A' for Active; 'I' for Inactive)
REMARK    1  A    between atoms: C3_4  and  O_7 
ROOT
ATOM      1  C   UNL d   1      -5.161   4.188  -4.112  0.00  0.00    -0.033 A 
ATOM      2  C1  UNL d   1      -4.539   2.994  -4.482  0.00  0.00     0.039 A 
ATOM      3  C2  UNL d   1      -4.644   1.867  -3.664  0.00  0.00    -0.080 A 
ATOM      4  C3  UNL d   1      -5.373   1.947  -2.481  0.00  0.00     0.150 A 
ATOM      5  C4  UNL d   1      -5.999   3.132  -2.108  0.00  0.00    -0.007 A 
ATOM      6  C5  UNL d   1      -5.892   4.257  -2.926  0.00  0.00     0.039 A 
ENDROOT
BRANCH   4   7
ATOM      7  O   UNL d   1      -5.500   0.876  -1.648  0.00  0.00    -0.526 OA
ATOM      8  H5  UNL d   1      -4.992   0.135  -2.019  0.00  0.00     0.418 HD
ENDBRANCH   4   7
TORSDOF 1
ENDMDL
