MODEL 1
REMARK minimizedAffinity 4.29636288
REMARK minimizedRMSD -1
REMARK  1 active torsions:
REMARK  status: ('A' for Active; 'I' for Inactive)
REMARK    1  A    between atoms: C3_4  and  O_7 
ROOT
ATOM      1  C   UNL d   1      -0.977  -5.774  -5.816  0.00  0.00    -0.033 A 
ATOM      2  C1  UNL d   1       0.131  -4.946  -5.631  0.00  0.00     0.039 A 
ATOM      3  C2  UNL d   1      -0.024  -3.558  -5.633  0.00  0.00    -0.080 A 
ATOM      4  C3  UNL d   1      -1.291  -3.013  -5.819  0.00  0.00     0.150 A 
ATOM      5  C4  UNL d   1      -2.401  -3.832  -6.000  0.00  0.00    -0.007 A 
ATOM      6  C5  UNL d   1      -2.243  -5.218  -5.999  0.00  0.00     0.039 A 
ENDROOT
BRANCH   4   7
ATOM      7  O   UNL d   1      -1.492  -1.664  -5.833  0.00  0.00    -0.526 OA
ATOM      8  H5  UNL d   1      -0.632  -1.224  -5.725  0.00  0.00     0.418 HD
ENDBRANCH   4   7
TORSDOF 1
ENDMDL
