MODEL 1
REMARK minimizedAffinity 2.16990495
REMARK minimizedRMSD -1
REMARK  1 active torsions:
REMARK  status: ('A' for Active; 'I' for Inactive)
REMARK    1  A    between atoms: C3_4  and  O_7 
ROOT
ATOM      1  C   UNL d   1      -0.554   3.447  -1.665  0.00  0.00    -0.033 A 
ATOM      2  C1  UNL d   1      -0.835   4.367  -0.653  0.00  0.00     0.039 A 
ATOM      3  C2  UNL d   1      -0.857   3.956   0.681  0.00  0.00    -0.080 A 
ATOM      4  C3  UNL d   1      -0.595   2.624   0.989  0.00  0.00     0.150 A 
ATOM      5  C4  UNL d   1      -0.310   1.702  -0.013  0.00  0.00    -0.007 A 
ATOM      6  C5  UNL d   1      -0.290   2.115  -1.345  0.00  0.00     0.039 A 
ENDROOT
BRANCH   4   7
ATOM      7  O   UNL d   1      -0.610   2.174   2.276  0.00  0.00    -0.526 OA
ATOM      8  H5  UNL d   1      -0.850   2.915   2.858  0.00  0.00     0.418 HD
ENDBRANCH   4   7
TORSDOF 1
ENDMDL
