MODEL 1
REMARK minimizedAffinity 7.90639305
REMARK minimizedRMSD -1
REMARK  1 active torsions:
REMARK  status: ('A' for Active; 'I' for Inactive)
REMARK    1  A    between atoms: C3_4  and  O_7 
ROOT
ATOM      1  C   UNL d   1      -0.299   1.689  -2.411  0.00  0.00    -0.033 A 
ATOM      2  C1  UNL d   1       0.032   0.445  -1.870  0.00  0.00     0.039 A 
ATOM      3  C2  UNL d   1      -0.969  -0.393  -1.376  0.00  0.00    -0.080 A 
ATOM      4  C3  UNL d   1      -2.296   0.024  -1.430  0.00  0.00     0.150 A 
ATOM      5  C4  UNL d   1      -2.635   1.260  -1.971  0.00  0.00    -0.007 A 
ATOM      6  C5  UNL d   1      -1.633   2.096  -2.463  0.00  0.00     0.039 A 
ENDROOT
BRANCH   4   7
ATOM      7  O   UNL d   1      -3.308  -0.758  -0.956  0.00  0.00    -0.526 OA
ATOM      8  H5  UNL d   1      -2.922  -1.569  -0.586  0.00  0.00     0.418 HD
ENDBRANCH   4   7
TORSDOF 1
ENDMDL
