MODEL 1
REMARK minimizedAffinity 0.188481525
REMARK minimizedRMSD -1
REMARK  1 active torsions:
REMARK  status: ('A' for Active; 'I' for Inactive)
REMARK    1  A    between atoms: C3_4  and  O_7 
ROOT
ATOM      1  C   UNL d   1      -0.177   1.974   1.146  0.00  0.00    -0.033 A 
ATOM      2  C1  UNL d   1      -0.191   3.339   0.849  0.00  0.00     0.039 A 
ATOM      3  C2  UNL d   1      -0.405   3.767  -0.463  0.00  0.00    -0.080 A 
ATOM      4  C3  UNL d   1      -0.604   2.823  -1.466  0.00  0.00     0.150 A 
ATOM      5  C4  UNL d   1      -0.595   1.462  -1.177  0.00  0.00    -0.007 A 
ATOM      6  C5  UNL d   1      -0.380   1.036   0.133  0.00  0.00     0.039 A 
ENDROOT
BRANCH   4   7
ATOM      7  O   UNL d   1      -0.811   3.193  -2.762  0.00  0.00    -0.526 OA
ATOM      8  H5  UNL d   1      -0.763   4.162  -2.817  0.00  0.00     0.418 HD
ENDBRANCH   4   7
TORSDOF 1
ENDMDL
