MODEL 1
REMARK minimizedAffinity 2.64544702
REMARK minimizedRMSD -1
REMARK  1 active torsions:
REMARK  status: ('A' for Active; 'I' for Inactive)
REMARK    1  A    between atoms: C3_4  and  O_7 
ROOT
ATOM      1  C   UNL d   1       4.600  -3.099  -1.777  0.00  0.00    -0.033 A 
ATOM      2  C1  UNL d   1       4.884  -1.733  -1.835  0.00  0.00     0.039 A 
ATOM      3  C2  UNL d   1       3.965  -0.806  -1.339  0.00  0.00    -0.080 A 
ATOM      4  C3  UNL d   1       2.769  -1.257  -0.787  0.00  0.00     0.150 A 
ATOM      5  C4  UNL d   1       2.482  -2.616  -0.723  0.00  0.00    -0.007 A 
ATOM      6  C5  UNL d   1       3.400  -3.541  -1.220  0.00  0.00     0.039 A 
ENDROOT
BRANCH   4   7
ATOM      7  O   UNL d   1       1.840  -0.389  -0.295  0.00  0.00    -0.526 OA
ATOM      8  H5  UNL d   1       2.161   0.517  -0.433  0.00  0.00     0.418 HD
ENDBRANCH   4   7
TORSDOF 1
ENDMDL
