MODEL 1
REMARK minimizedAffinity 4.79095364
REMARK minimizedRMSD -1
REMARK  0 active torsions:
REMARK  status: ('A' for Active; 'I' for Inactive)
ROOT
ATOM      1  C4' PXY d   1      -2.730  -5.510  -0.030  0.00  0.00     0.077 C 
ATOM      2  C1' PXY d   1       1.135  -1.528   1.587  0.00  0.00     0.077 C 
ATOM      3  C1  PXY d   1       0.131  -2.578   1.155  0.00  0.00    -0.082 A 
ATOM      4  C2  PXY d   1      -1.162  -2.296   1.181  0.00  0.00     0.003 A 
ATOM      5  C3  PXY d   1      -2.086  -3.245   0.825  0.00  0.00     0.003 A 
ATOM      6  C4  PXY d   1      -1.680  -4.477   0.387  0.00  0.00    -0.082 A 
ATOM      7  C5  PXY d   1      -0.362  -4.769   0.348  0.00  0.00     0.003 A 
ATOM      8  C6  PXY d   1       0.557  -3.806   0.753  0.00  0.00     0.003 A 
ENDROOT
TORSDOF 0
ENDMDL
