MODEL 1
REMARK minimizedAffinity 8.13317776
REMARK minimizedRMSD -1
REMARK  0 active torsions:
REMARK  status: ('A' for Active; 'I' for Inactive)
ROOT
ATOM      1  C4' PXY d   1      -4.957   5.895  -3.904  0.00  0.00     0.077 C 
ATOM      2  C1' PXY d   1      -3.001   0.679  -2.359  0.00  0.00     0.077 C 
ATOM      3  C1  PXY d   1      -3.505   2.048  -2.774  0.00  0.00    -0.082 A 
ATOM      4  C2  PXY d   1      -4.101   2.823  -1.883  0.00  0.00     0.003 A 
ATOM      5  C3  PXY d   1      -4.592   4.050  -2.249  0.00  0.00     0.003 A 
ATOM      6  C4  PXY d   1      -4.423   4.510  -3.527  0.00  0.00    -0.082 A 
ATOM      7  C5  PXY d   1      -3.807   3.729  -4.440  0.00  0.00     0.003 A 
ATOM      8  C6  PXY d   1      -3.353   2.470  -4.058  0.00  0.00     0.003 A 
ENDROOT
TORSDOF 0
ENDMDL
