MODEL 1
REMARK minimizedAffinity 4.12463284
REMARK minimizedRMSD -1
REMARK  0 active torsions:
REMARK  status: ('A' for Active; 'I' for Inactive)
ROOT
ATOM      1  C4' PXY d   1       2.443  -2.044   0.625  0.00  0.00     0.077 C 
ATOM      2  C1' PXY d   1       0.466  -2.831   6.000  0.00  0.00     0.077 C 
ATOM      3  C1  PXY d   1       0.975  -2.616   4.588  0.00  0.00    -0.082 A 
ATOM      4  C2  PXY d   1       1.702  -3.556   4.004  0.00  0.00     0.003 A 
ATOM      5  C3  PXY d   1       2.197  -3.364   2.740  0.00  0.00     0.003 A 
ATOM      6  C4  PXY d   1       1.900  -2.222   2.046  0.00  0.00    -0.082 A 
ATOM      7  C5  PXY d   1       1.151  -1.264   2.630  0.00  0.00     0.003 A 
ATOM      8  C6  PXY d   1       0.692  -1.460   3.929  0.00  0.00     0.003 A 
ENDROOT
TORSDOF 0
ENDMDL
