MODEL 1
REMARK minimizedAffinity 8.38383675
REMARK minimizedRMSD -1
REMARK  0 active torsions:
REMARK  status: ('A' for Active; 'I' for Inactive)
ROOT
ATOM      1  C4' PXY d   1      -2.909   0.715  -2.225  0.00  0.00     0.077 C 
ATOM      2  C1' PXY d   1      -4.541   5.977  -3.973  0.00  0.00     0.077 C 
ATOM      3  C1  PXY d   1      -4.113   4.593  -3.527  0.00  0.00    -0.082 A 
ATOM      4  C2  PXY d   1      -4.354   4.203  -2.286  0.00  0.00     0.003 A 
ATOM      5  C3  PXY d   1      -3.945   2.966  -1.857  0.00  0.00     0.003 A 
ATOM      6  C4  PXY d   1      -3.331   2.100  -2.722  0.00  0.00    -0.082 A 
ATOM      7  C5  PXY d   1      -3.092   2.487  -3.993  0.00  0.00     0.003 A 
ATOM      8  C6  PXY d   1      -3.478   3.762  -4.397  0.00  0.00     0.003 A 
ENDROOT
TORSDOF 0
ENDMDL
