MODEL 1
REMARK minimizedAffinity 8.55215168
REMARK minimizedRMSD -1
REMARK  0 active torsions:
REMARK  status: ('A' for Active; 'I' for Inactive)
ROOT
ATOM      1  C4' PXY d   1       0.380  -3.348   5.999  0.00  0.00     0.077 C 
ATOM      2  C1' PXY d   1       1.212   0.789   2.049  0.00  0.00     0.077 C 
ATOM      3  C1  PXY d   1       0.997  -0.288   3.094  0.00  0.00    -0.082 A 
ATOM      4  C2  PXY d   1       1.084  -1.562   2.748  0.00  0.00     0.003 A 
ATOM      5  C3  PXY d   1       0.861  -2.549   3.674  0.00  0.00     0.003 A 
ATOM      6  C4  PXY d   1       0.599  -2.228   4.979  0.00  0.00    -0.082 A 
ATOM      7  C5  PXY d   1       0.519  -0.930   5.342  0.00  0.00     0.003 A 
ATOM      8  C6  PXY d   1       0.708   0.057   4.378  0.00  0.00     0.003 A 
ENDROOT
TORSDOF 0
ENDMDL
