MODEL 1
REMARK minimizedAffinity 11.4044447
REMARK minimizedRMSD -1
REMARK  0 active torsions:
REMARK  status: ('A' for Active; 'I' for Inactive)
ROOT
ATOM      1  C4' PXY d   1       1.457  -3.377   6.000  0.00  0.00     0.077 C 
ATOM      2  C1' PXY d   1       1.265  -0.445   1.021  0.00  0.00     0.077 C 
ATOM      3  C1  PXY d   1       1.314  -1.225   2.320  0.00  0.00    -0.082 A 
ATOM      4  C2  PXY d   1       0.991  -0.627   3.455  0.00  0.00     0.003 A 
ATOM      5  C3  PXY d   1       1.061  -1.308   4.643  0.00  0.00     0.003 A 
ATOM      6  C4  PXY d   1       1.413  -2.631   4.663  0.00  0.00    -0.082 A 
ATOM      7  C5  PXY d   1       1.733  -3.252   3.508  0.00  0.00     0.003 A 
ATOM      8  C6  PXY d   1       1.696  -2.531   2.318  0.00  0.00     0.003 A 
ENDROOT
TORSDOF 0
ENDMDL
