MODEL 1
REMARK minimizedAffinity 9.92276001
REMARK minimizedRMSD -1
REMARK  0 active torsions:
REMARK  status: ('A' for Active; 'I' for Inactive)
ROOT
ATOM      1  C4' PXY d   1       1.269  -1.803   2.620  0.00  0.00     0.077 C 
ATOM      2  C1' PXY d   1      -2.330  -5.399  -0.124  0.00  0.00     0.077 C 
ATOM      3  C1  PXY d   1      -1.379  -4.466   0.600  0.00  0.00    -0.082 A 
ATOM      4  C2  PXY d   1      -1.803  -3.276   0.993  0.00  0.00     0.003 A 
ATOM      5  C3  PXY d   1      -0.948  -2.408   1.620  0.00  0.00     0.003 A 
ATOM      6  C4  PXY d   1       0.341  -2.781   1.894  0.00  0.00    -0.082 A 
ATOM      7  C5  PXY d   1       0.778  -3.998   1.505  0.00  0.00     0.003 A 
ATOM      8  C6  PXY d   1      -0.095  -4.849   0.834  0.00  0.00     0.003 A 
ENDROOT
TORSDOF 0
ENDMDL
