MODEL 1
REMARK minimizedAffinity 6.39118767
REMARK minimizedRMSD -1
REMARK  0 active torsions:
REMARK  status: ('A' for Active; 'I' for Inactive)
ROOT
ATOM      1  C4' PXY d   1       2.267  -1.748   0.476  0.00  0.00     0.077 C 
ATOM      2  C1' PXY d   1       1.216  -3.091   5.999  0.00  0.00     0.077 C 
ATOM      3  C1  PXY d   1       1.483  -2.730   4.551  0.00  0.00    -0.082 A 
ATOM      4  C2  PXY d   1       2.039  -3.621   3.747  0.00  0.00     0.003 A 
ATOM      5  C3  PXY d   1       2.316  -3.300   2.443  0.00  0.00     0.003 A 
ATOM      6  C4  PXY d   1       1.972  -2.072   1.943  0.00  0.00    -0.082 A 
ATOM      7  C5  PXY d   1       1.394  -1.162   2.755  0.00  0.00     0.003 A 
ATOM      8  C6  PXY d   1       1.159  -1.493   4.086  0.00  0.00     0.003 A 
ENDROOT
TORSDOF 0
ENDMDL
