MODEL 1
REMARK minimizedAffinity 8.18979454
REMARK minimizedRMSD -1
REMARK  0 active torsions:
REMARK  status: ('A' for Active; 'I' for Inactive)
ROOT
ATOM      1  C4' PXY d   1      -2.030  -4.992   0.265  0.00  0.00     0.077 C 
ATOM      2  C1' PXY d   1       2.940  -5.025  -2.687  0.00  0.00     0.077 C 
ATOM      3  C1  PXY d   1       1.641  -5.026  -1.905  0.00  0.00    -0.082 A 
ATOM      4  C2  PXY d   1       0.529  -4.601  -2.483  0.00  0.00     0.003 A 
ATOM      5  C3  PXY d   1      -0.648  -4.565  -1.780  0.00  0.00     0.003 A 
ATOM      6  C4  PXY d   1      -0.698  -5.018  -0.489  0.00  0.00    -0.082 A 
ATOM      7  C5  PXY d   1       0.430  -5.463   0.104  0.00  0.00     0.003 A 
ATOM      8  C6  PXY d   1       1.623  -5.453  -0.613  0.00  0.00     0.003 A 
ENDROOT
TORSDOF 0
ENDMDL
