MODEL 1
REMARK minimizedAffinity 8.61186218
REMARK minimizedRMSD -1
REMARK  0 active torsions:
REMARK  status: ('A' for Active; 'I' for Inactive)
ROOT
ATOM      1  C4' PXY d   1       1.451  -3.012   5.999  0.00  0.00     0.077 C 
ATOM      2  C1' PXY d   1       2.197  -1.959   0.365  0.00  0.00     0.077 C 
ATOM      3  C1  PXY d   1       1.999  -2.222   1.844  0.00  0.00    -0.082 A 
ATOM      4  C2  PXY d   1       2.557  -3.286   2.400  0.00  0.00     0.003 A 
ATOM      5  C3  PXY d   1       2.362  -3.556   3.730  0.00  0.00     0.003 A 
ATOM      6  C4  PXY d   1       1.632  -2.701   4.511  0.00  0.00    -0.082 A 
ATOM      7  C5  PXY d   1       1.068  -1.609   3.954  0.00  0.00     0.003 A 
ATOM      8  C6  PXY d   1       1.243  -1.374   2.593  0.00  0.00     0.003 A 
ENDROOT
TORSDOF 0
ENDMDL
