MODEL 1
REMARK minimizedAffinity 8.8987112
REMARK minimizedRMSD -1
REMARK  0 active torsions:
REMARK  status: ('A' for Active; 'I' for Inactive)
ROOT
ATOM      1  O1  BZF d   1      -3.843   0.820   1.826  0.00  0.00    -0.204 OA
ATOM      2  C2  BZF d   1      -2.787   1.199   2.632  0.00  0.00     0.174 A 
ATOM      3  C3  BZF d   1      -2.627   0.330   3.651  0.00  0.00    -0.012 A 
ATOM      4  C3A BZF d   1      -3.588  -0.704   3.418  0.00  0.00    -0.107 A 
ATOM      5  C4  BZF d   1      -3.904  -1.857   4.078  0.00  0.00     0.055 A 
ATOM      6  C5  BZF d   1      -4.944  -2.610   3.630  0.00  0.00    -0.016 A 
ATOM      7  C6  BZF d   1      -5.689  -2.238   2.531  0.00  0.00     0.022 A 
ATOM      8  C7  BZF d   1      -5.410  -1.105   1.841  0.00  0.00     0.029 A 
ATOM      9  C7A BZF d   1      -4.340  -0.359   2.271  0.00  0.00     0.058 A 
ENDROOT
TORSDOF 0
ENDMDL
