MODEL 1
REMARK minimizedAffinity 13.3301697
REMARK minimizedRMSD -1
REMARK  0 active torsions:
REMARK  status: ('A' for Active; 'I' for Inactive)
ROOT
ATOM      1  O1  BZF d   1      -3.004  -5.996  -3.714  0.00  0.00    -0.204 OA
ATOM      2  C2  BZF d   1      -2.085  -5.419  -2.859  0.00  0.00     0.174 A 
ATOM      3  C3  BZF d   1      -2.021  -4.086  -3.054  0.00  0.00    -0.012 A 
ATOM      4  C3A BZF d   1      -3.026  -3.801  -4.032  0.00  0.00    -0.107 A 
ATOM      5  C4  BZF d   1      -3.457  -2.649  -4.627  0.00  0.00     0.055 A 
ATOM      6  C5  BZF d   1      -4.407  -2.722  -5.596  0.00  0.00    -0.016 A 
ATOM      7  C6  BZF d   1      -4.943  -3.928  -5.997  0.00  0.00     0.022 A 
ATOM      8  C7  BZF d   1      -4.551  -5.096  -5.433  0.00  0.00     0.029 A 
ATOM      9  C7A BZF d   1      -3.615  -5.023  -4.430  0.00  0.00     0.058 A 
ENDROOT
TORSDOF 0
ENDMDL
