MODEL 1
REMARK minimizedAffinity 16.9750881
REMARK minimizedRMSD -1
REMARK  0 active torsions:
REMARK  status: ('A' for Active; 'I' for Inactive)
ROOT
ATOM      1  O1  BZF d   1       1.633   1.483   5.043  0.00  0.00    -0.204 OA
ATOM      2  C2  BZF d   1       1.197   2.379   6.000  0.00  0.00     0.174 A 
ATOM      3  C3  BZF d   1      -0.026   2.855   5.688  0.00  0.00    -0.012 A 
ATOM      4  C3A BZF d   1      -0.416   2.147   4.508  0.00  0.00    -0.107 A 
ATOM      5  C4  BZF d   1      -1.536   2.167   3.727  0.00  0.00     0.055 A 
ATOM      6  C5  BZF d   1      -1.572   1.406   2.602  0.00  0.00    -0.016 A 
ATOM      7  C6  BZF d   1      -0.505   0.617   2.226  0.00  0.00     0.022 A 
ATOM      8  C7  BZF d   1       0.626   0.559   2.971  0.00  0.00     0.029 A 
ATOM      9  C7A BZF d   1       0.652   1.302   4.126  0.00  0.00     0.058 A 
ENDROOT
TORSDOF 0
ENDMDL
