MODEL 1
REMARK minimizedAffinity 12.2413797
REMARK minimizedRMSD -1
REMARK  0 active torsions:
REMARK  status: ('A' for Active; 'I' for Inactive)
ROOT
ATOM      1  O1  BZF d   1      -2.698  -0.834  -3.542  0.00  0.00    -0.204 OA
ATOM      2  C2  BZF d   1      -1.609  -0.026  -3.279  0.00  0.00     0.174 A 
ATOM      3  C3  BZF d   1      -0.554  -0.762  -2.874  0.00  0.00    -0.012 A 
ATOM      4  C3A BZF d   1      -0.984  -2.123  -2.974  0.00  0.00    -0.107 A 
ATOM      5  C4  BZF d   1      -0.376  -3.320  -2.726  0.00  0.00     0.055 A 
ATOM      6  C5  BZF d   1      -1.096  -4.466  -2.853  0.00  0.00    -0.016 A 
ATOM      7  C6  BZF d   1      -2.425  -4.451  -3.221  0.00  0.00     0.022 A 
ATOM      8  C7  BZF d   1      -3.071  -3.288  -3.482  0.00  0.00     0.029 A 
ATOM      9  C7A BZF d   1      -2.337  -2.131  -3.386  0.00  0.00     0.058 A 
ENDROOT
TORSDOF 0
ENDMDL
