MODEL 1
REMARK minimizedAffinity 18.2297421
REMARK minimizedRMSD -1
REMARK  0 active torsions:
REMARK  status: ('A' for Active; 'I' for Inactive)
ROOT
ATOM      1  O1  BZF d   1       2.724   1.163  -3.712  0.00  0.00    -0.204 OA
ATOM      2  C2  BZF d   1       2.002   0.091  -4.200  0.00  0.00     0.174 A 
ATOM      3  C3  BZF d   1       2.003  -0.928  -3.317  0.00  0.00    -0.012 A 
ATOM      4  C3A BZF d   1       2.697  -0.430  -2.169  0.00  0.00    -0.107 A 
ATOM      5  C4  BZF d   1       3.010  -0.969  -0.954  0.00  0.00     0.055 A 
ATOM      6  C5  BZF d   1       3.761  -0.244  -0.083  0.00  0.00    -0.016 A 
ATOM      7  C6  BZF d   1       4.219   1.019  -0.396  0.00  0.00     0.022 A 
ATOM      8  C7  BZF d   1       3.930   1.598  -1.587  0.00  0.00     0.029 A 
ATOM      9  C7A BZF d   1       3.144   0.881  -2.456  0.00  0.00     0.058 A 
ENDROOT
TORSDOF 0
ENDMDL
