MODEL 1
REMARK minimizedAffinity 10.814167
REMARK minimizedRMSD -1
REMARK  0 active torsions:
REMARK  status: ('A' for Active; 'I' for Inactive)
ROOT
ATOM      1  O1  BZF d   1      -3.154  -2.754  -4.374  0.00  0.00    -0.204 OA
ATOM      2  C2  BZF d   1      -2.258  -3.505  -3.638  0.00  0.00     0.174 A 
ATOM      3  C3  BZF d   1      -2.636  -4.800  -3.603  0.00  0.00    -0.012 A 
ATOM      4  C3A BZF d   1      -3.793  -4.877  -4.441  0.00  0.00    -0.107 A 
ATOM      5  C4  BZF d   1      -4.613  -5.902  -4.818  0.00  0.00     0.055 A 
ATOM      6  C5  BZF d   1      -5.699  -5.631  -5.588  0.00  0.00    -0.016 A 
ATOM      7  C6  BZF d   1      -5.998  -4.347  -5.994  0.00  0.00     0.022 A 
ATOM      8  C7  BZF d   1      -5.212  -3.298  -5.650  0.00  0.00     0.029 A 
ATOM      9  C7A BZF d   1      -4.095  -3.574  -4.900  0.00  0.00     0.058 A 
ENDROOT
TORSDOF 0
ENDMDL
