MODEL 1
REMARK minimizedAffinity 14.7173014
REMARK minimizedRMSD -1
REMARK  0 active torsions:
REMARK  status: ('A' for Active; 'I' for Inactive)
ROOT
ATOM      1  O1  BZF d   1       2.454   1.886  -3.825  0.00  0.00    -0.204 OA
ATOM      2  C2  BZF d   1       1.985   0.717  -4.392  0.00  0.00     0.174 A 
ATOM      3  C3  BZF d   1       2.250  -0.340  -3.597  0.00  0.00    -0.012 A 
ATOM      4  C3A BZF d   1       2.846   0.214  -2.420  0.00  0.00    -0.107 A 
ATOM      5  C4  BZF d   1       3.313  -0.331  -1.259  0.00  0.00     0.055 A 
ATOM      6  C5  BZF d   1       3.902   0.478  -0.339  0.00  0.00    -0.016 A 
ATOM      7  C6  BZF d   1       4.045   1.833  -0.551  0.00  0.00     0.022 A 
ATOM      8  C7  BZF d   1       3.593   2.421  -1.685  0.00  0.00     0.029 A 
ATOM      9  C7A BZF d   1       2.968   1.611  -2.602  0.00  0.00     0.058 A 
ENDROOT
TORSDOF 0
ENDMDL
