MODEL 1
REMARK minimizedAffinity 19.3050785
REMARK minimizedRMSD -1
REMARK  0 active torsions:
REMARK  status: ('A' for Active; 'I' for Inactive)
ROOT
ATOM      1  O1  BZF d   1       1.320  -1.868  -5.992  0.00  0.00    -0.204 OA
ATOM      2  C2  BZF d   1       2.419  -1.030  -5.999  0.00  0.00     0.174 A 
ATOM      3  C3  BZF d   1       2.545  -0.396  -4.816  0.00  0.00    -0.012 A 
ATOM      4  C3A BZF d   1       1.511  -0.935  -3.988  0.00  0.00    -0.107 A 
ATOM      5  C4  BZF d   1       1.133  -0.714  -2.694  0.00  0.00     0.055 A 
ATOM      6  C5  BZF d   1       0.035  -1.350  -2.209  0.00  0.00    -0.016 A 
ATOM      7  C6  BZF d   1      -0.711  -2.209  -2.990  0.00  0.00     0.022 A 
ATOM      8  C7  BZF d   1      -0.373  -2.464  -4.277  0.00  0.00     0.029 A 
ATOM      9  C7A BZF d   1       0.756  -1.848  -4.760  0.00  0.00     0.058 A 
ENDROOT
TORSDOF 0
ENDMDL
