MODEL 1
REMARK minimizedAffinity 12.5113697
REMARK minimizedRMSD -1
REMARK  0 active torsions:
REMARK  status: ('A' for Active; 'I' for Inactive)
ROOT
ATOM      1  O1  BZF d   1      -4.573   3.823  -5.907  0.00  0.00    -0.204 OA
ATOM      2  C2  BZF d   1      -4.921   5.157  -5.999  0.00  0.00     0.174 A 
ATOM      3  C3  BZF d   1      -3.822   5.939  -5.996  0.00  0.00    -0.012 A 
ATOM      4  C3A BZF d   1      -2.715   5.033  -5.990  0.00  0.00    -0.107 A 
ATOM      5  C4  BZF d   1      -1.360   5.206  -6.000  0.00  0.00     0.055 A 
ATOM      6  C5  BZF d   1      -0.555   4.115  -5.915  0.00  0.00    -0.016 A 
ATOM      7  C6  BZF d   1      -1.069   2.839  -5.813  0.00  0.00     0.022 A 
ATOM      8  C7  BZF d   1      -2.406   2.617  -5.805  0.00  0.00     0.029 A 
ATOM      9  C7A BZF d   1      -3.222   3.715  -5.924  0.00  0.00     0.058 A 
ENDROOT
TORSDOF 0
ENDMDL
