MODEL 1
REMARK minimizedAffinity 6.0636754
REMARK minimizedRMSD -1
REMARK  0 active torsions:
REMARK  status: ('A' for Active; 'I' for Inactive)
ROOT
ATOM      1  O1  BZF d   1       1.312  -1.076   0.113  0.00  0.00    -0.204 OA
ATOM      2  C2  BZF d   1       1.551  -1.980  -0.904  0.00  0.00     0.174 A 
ATOM      3  C3  BZF d   1       2.024  -1.354  -2.000  0.00  0.00    -0.012 A 
ATOM      4  C3A BZF d   1       2.171   0.017  -1.617  0.00  0.00    -0.107 A 
ATOM      5  C4  BZF d   1       2.613   1.132  -2.269  0.00  0.00     0.055 A 
ATOM      6  C5  BZF d   1       2.561   2.332  -1.634  0.00  0.00    -0.016 A 
ATOM      7  C6  BZF d   1       2.069   2.455  -0.351  0.00  0.00     0.022 A 
ATOM      8  C7  BZF d   1       1.624   1.376   0.338  0.00  0.00     0.029 A 
ATOM      9  C7A BZF d   1       1.706   0.157  -0.289  0.00  0.00     0.058 A 
ENDROOT
TORSDOF 0
ENDMDL
