MODEL 1
REMARK minimizedAffinity 5.7753768
REMARK minimizedRMSD -1
REMARK  0 active torsions:
REMARK  status: ('A' for Active; 'I' for Inactive)
ROOT
ATOM      1  O1  BZF d   1      -2.943  -3.371  -4.076  0.00  0.00    -0.204 OA
ATOM      2  C2  BZF d   1      -2.240  -4.464  -3.609  0.00  0.00     0.174 A 
ATOM      3  C3  BZF d   1      -2.870  -5.612  -3.932  0.00  0.00    -0.012 A 
ATOM      4  C3A BZF d   1      -3.993  -5.214  -4.724  0.00  0.00    -0.107 A 
ATOM      5  C4  BZF d   1      -4.990  -5.905  -5.352  0.00  0.00     0.055 A 
ATOM      6  C5  BZF d   1      -5.977  -5.213  -5.982  0.00  0.00    -0.016 A 
ATOM      7  C6  BZF d   1      -6.000  -3.834  -5.999  0.00  0.00     0.022 A 
ATOM      8  C7  BZF d   1      -5.030  -3.106  -5.394  0.00  0.00     0.029 A 
ATOM      9  C7A BZF d   1      -4.014  -3.802  -4.785  0.00  0.00     0.058 A 
ENDROOT
TORSDOF 0
ENDMDL
