MODEL 1
REMARK minimizedAffinity 14.3273954
REMARK minimizedRMSD -1
REMARK  0 active torsions:
REMARK  status: ('A' for Active; 'I' for Inactive)
ROOT
ATOM      1  O1  BZF d   1      -2.638  -1.346   3.399  0.00  0.00    -0.204 OA
ATOM      2  C2  BZF d   1      -3.884  -0.806   3.145  0.00  0.00     0.174 A 
ATOM      3  C3  BZF d   1      -3.779   0.490   2.787  0.00  0.00    -0.012 A 
ATOM      4  C3A BZF d   1      -2.373   0.753   2.730  0.00  0.00    -0.107 A 
ATOM      5  C4  BZF d   1      -1.637   1.859   2.417  0.00  0.00     0.055 A 
ATOM      6  C5  BZF d   1      -0.283   1.805   2.529  0.00  0.00    -0.016 A 
ATOM      7  C6  BZF d   1       0.365   0.665   2.956  0.00  0.00     0.022 A 
ATOM      8  C7  BZF d   1      -0.323  -0.459   3.274  0.00  0.00     0.029 A 
ATOM      9  C7A BZF d   1      -1.688  -0.418   3.129  0.00  0.00     0.058 A 
ENDROOT
TORSDOF 0
ENDMDL
