MODEL 1
REMARK minimizedAffinity 21.8563023
REMARK minimizedRMSD -1
REMARK  0 active torsions:
REMARK  status: ('A' for Active; 'I' for Inactive)
ROOT
ATOM      1  O1  BZF d   1      -4.290  -4.233  -3.794  0.00  0.00    -0.204 OA
ATOM      2  C2  BZF d   1      -4.257  -3.358  -4.862  0.00  0.00     0.174 A 
ATOM      3  C3  BZF d   1      -3.030  -2.814  -4.998  0.00  0.00    -0.012 A 
ATOM      4  C3A BZF d   1      -2.223  -3.454  -4.005  0.00  0.00    -0.107 A 
ATOM      5  C4  BZF d   1      -0.908  -3.349  -3.654  0.00  0.00     0.055 A 
ATOM      6  C5  BZF d   1      -0.449  -4.061  -2.591  0.00  0.00    -0.016 A 
ATOM      7  C6  BZF d   1      -1.278  -4.882  -1.855  0.00  0.00     0.022 A 
ATOM      8  C7  BZF d   1      -2.589  -5.023  -2.168  0.00  0.00     0.029 A 
ATOM      9  C7A BZF d   1      -3.048  -4.330  -3.262  0.00  0.00     0.058 A 
ENDROOT
TORSDOF 0
ENDMDL
