MODEL 1
REMARK minimizedAffinity 15.6023712
REMARK minimizedRMSD -1
REMARK  0 active torsions:
REMARK  status: ('A' for Active; 'I' for Inactive)
ROOT
ATOM      1  O1  BZF d   1      -0.574  -0.180   5.803  0.00  0.00    -0.204 OA
ATOM      2  C2  BZF d   1       0.658   0.444   5.796  0.00  0.00     0.174 A 
ATOM      3  C3  BZF d   1       0.514   1.785   5.803  0.00  0.00    -0.012 A 
ATOM      4  C3A BZF d   1      -0.895   2.012   5.908  0.00  0.00    -0.107 A 
ATOM      5  C4  BZF d   1      -1.661   3.141   5.977  0.00  0.00     0.055 A 
ATOM      6  C5  BZF d   1      -3.015   3.019   5.998  0.00  0.00    -0.016 A 
ATOM      7  C6  BZF d   1      -3.634   1.788   5.947  0.00  0.00     0.022 A 
ATOM      8  C7  BZF d   1      -2.916   0.640   5.884  0.00  0.00     0.029 A 
ATOM      9  C7A BZF d   1      -1.547   0.758   5.895  0.00  0.00     0.058 A 
ENDROOT
TORSDOF 0
ENDMDL
