MODEL 1
REMARK minimizedAffinity 15.2545881
REMARK minimizedRMSD -1
REMARK  0 active torsions:
REMARK  status: ('A' for Active; 'I' for Inactive)
ROOT
ATOM      1  O1  BZF d   1      -3.380   1.249   3.024  0.00  0.00    -0.204 OA
ATOM      2  C2  BZF d   1      -3.984   0.189   2.376  0.00  0.00     0.174 A 
ATOM      3  C3  BZF d   1      -3.058  -0.644   1.857  0.00  0.00    -0.012 A 
ATOM      4  C3A BZF d   1      -1.798  -0.117   2.282  0.00  0.00    -0.107 A 
ATOM      5  C4  BZF d   1      -0.504  -0.514   2.097  0.00  0.00     0.055 A 
ATOM      6  C5  BZF d   1       0.500   0.262   2.582  0.00  0.00    -0.016 A 
ATOM      7  C6  BZF d   1       0.248   1.442   3.251  0.00  0.00     0.022 A 
ATOM      8  C7  BZF d   1      -1.019   1.875   3.463  0.00  0.00     0.029 A 
ATOM      9  C7A BZF d   1      -2.037   1.076   3.003  0.00  0.00     0.058 A 
ENDROOT
TORSDOF 0
ENDMDL
