MODEL 1
REMARK minimizedAffinity 2.20447278
REMARK minimizedRMSD -1
REMARK  0 active torsions:
REMARK  status: ('A' for Active; 'I' for Inactive)
ROOT
ATOM      1  O1  BZF d   1      -3.462  -5.993  -2.953  0.00  0.00    -0.204 OA
ATOM      2  C2  BZF d   1      -2.219  -5.993  -2.350  0.00  0.00     0.174 A 
ATOM      3  C3  BZF d   1      -1.353  -5.222  -3.038  0.00  0.00    -0.012 A 
ATOM      4  C3A BZF d   1      -2.126  -4.634  -4.089  0.00  0.00    -0.107 A 
ATOM      5  C4  BZF d   1      -1.830  -3.761  -5.096  0.00  0.00     0.055 A 
ATOM      6  C5  BZF d   1      -2.795  -3.443  -6.000  0.00  0.00    -0.016 A 
ATOM      7  C6  BZF d   1      -4.062  -3.984  -5.929  0.00  0.00     0.022 A 
ATOM      8  C7  BZF d   1      -4.404  -4.851  -4.945  0.00  0.00     0.029 A 
ATOM      9  C7A BZF d   1      -3.441  -5.148  -4.012  0.00  0.00     0.058 A 
ENDROOT
TORSDOF 0
ENDMDL
