MODEL 1
REMARK minimizedAffinity 7.97708178
REMARK minimizedRMSD -1
REMARK  0 active torsions:
REMARK  status: ('A' for Active; 'I' for Inactive)
ROOT
ATOM      1  O1  BZF d   1      -3.529   0.367   5.600  0.00  0.00    -0.204 OA
ATOM      2  C2  BZF d   1      -2.249   0.701   5.999  0.00  0.00     0.174 A 
ATOM      3  C3  BZF d   1      -1.656   1.498   5.087  0.00  0.00    -0.012 A 
ATOM      4  C3A BZF d   1      -2.658   1.747   4.097  0.00  0.00    -0.107 A 
ATOM      5  C4  BZF d   1      -2.679   2.482   2.946  0.00  0.00     0.055 A 
ATOM      6  C5  BZF d   1      -3.792   2.458   2.167  0.00  0.00    -0.016 A 
ATOM      7  C6  BZF d   1      -4.899   1.707   2.505  0.00  0.00     0.022 A 
ATOM      8  C7  BZF d   1      -4.927   0.966   3.639  0.00  0.00     0.029 A 
ATOM      9  C7A BZF d   1      -3.816   1.014   4.445  0.00  0.00     0.058 A 
ENDROOT
TORSDOF 0
ENDMDL
