MODEL 1
REMARK minimizedAffinity 5.28799534
REMARK minimizedRMSD -1
REMARK  0 active torsions:
REMARK  status: ('A' for Active; 'I' for Inactive)
ROOT
ATOM      1  O1  BZF d   1       1.395   3.795  -2.957  0.00  0.00    -0.204 OA
ATOM      2  C2  BZF d   1       1.141   2.449  -3.134  0.00  0.00     0.174 A 
ATOM      3  C3  BZF d   1       1.021   1.824  -1.945  0.00  0.00    -0.012 A 
ATOM      4  C3A BZF d   1       1.122   2.861  -0.963  0.00  0.00    -0.107 A 
ATOM      5  C4  BZF d   1       1.063   2.871   0.401  0.00  0.00     0.055 A 
ATOM      6  C5  BZF d   1       1.271   4.039   1.063  0.00  0.00    -0.016 A 
ATOM      7  C6  BZF d   1       1.545   5.214   0.393  0.00  0.00     0.022 A 
ATOM      8  C7  BZF d   1       1.608   5.255  -0.960  0.00  0.00     0.029 A 
ATOM      9  C7A BZF d   1       1.366   4.082  -1.633  0.00  0.00     0.058 A 
ENDROOT
TORSDOF 0
ENDMDL
