MODEL 1
REMARK minimizedAffinity 8.70026112
REMARK minimizedRMSD -1
REMARK  2 active torsions:
REMARK  status: ('A' for Active; 'I' for Inactive)
REMARK    1  A    between atoms: C2'_3  and  C1'_4 
REMARK    2  A    between atoms: C1'_4  and  C1_5 
ROOT
ATOM      1  C1  I4B d   1      -4.237   3.866  -4.791  0.00  0.00    -0.075 A 
ATOM      2  C2  I4B d   1      -3.897   2.708  -4.136  0.00  0.00     0.003 A 
ATOM      3  C3  I4B d   1      -4.584   1.502  -4.418  0.00  0.00     0.002 A 
ATOM      4  C4  I4B d   1      -5.630   1.510  -5.319  0.00  0.00    -0.004 A 
ATOM      5  C5  I4B d   1      -5.957   2.680  -5.998  0.00  0.00     0.002 A 
ATOM      6  C6  I4B d   1      -5.248   3.863  -5.743  0.00  0.00     0.003 A 
ENDROOT
BRANCH   1   7
ATOM      7  C1' I4B d   1      -3.513   5.128  -4.445  0.00  0.00     0.060 C 
BRANCH   7   8
ATOM      8  C2' I4B d   1      -2.068   4.774  -4.155  0.00  0.00    -0.013 C 
ATOM      9  C4' I4B d   1      -1.274   5.994  -3.769  0.00  0.00     0.013 C 
ATOM     10  C3' I4B d   1      -2.054   3.749  -3.060  0.00  0.00     0.013 C 
ENDBRANCH   7   8
ENDBRANCH   1   7
TORSDOF 2
ENDMDL
