MODEL 1
REMARK minimizedAffinity 0.136863276
REMARK minimizedRMSD -1
REMARK  2 active torsions:
REMARK  status: ('A' for Active; 'I' for Inactive)
REMARK    1  A    between atoms: C2'_3  and  C1'_4 
REMARK    2  A    between atoms: C1'_4  and  C1_5 
ROOT
ATOM      1  C1  I4B d   1      -4.068   3.730  -5.496  0.00  0.00    -0.075 A 
ATOM      2  C2  I4B d   1      -5.038   4.132  -4.612  0.00  0.00     0.003 A 
ATOM      3  C3  I4B d   1      -6.000   3.206  -4.139  0.00  0.00     0.002 A 
ATOM      4  C4  I4B d   1      -5.985   1.910  -4.612  0.00  0.00    -0.004 A 
ATOM      5  C5  I4B d   1      -4.986   1.498  -5.490  0.00  0.00     0.002 A 
ATOM      6  C6  I4B d   1      -4.014   2.410  -5.926  0.00  0.00     0.003 A 
ENDROOT
BRANCH   1   7
ATOM      7  C1' I4B d   1      -3.088   4.741  -6.000  0.00  0.00     0.060 C 
BRANCH   7   8
ATOM      8  C2' I4B d   1      -2.012   4.915  -4.947  0.00  0.00    -0.013 C 
ATOM      9  C4' I4B d   1      -1.479   3.583  -4.489  0.00  0.00     0.013 C 
ATOM     10  C3' I4B d   1      -0.923   5.762  -5.533  0.00  0.00     0.013 C 
ENDBRANCH   7   8
ENDBRANCH   1   7
TORSDOF 2
ENDMDL
