MODEL 1
REMARK minimizedAffinity 4.20126629
REMARK minimizedRMSD -1
REMARK  2 active torsions:
REMARK  status: ('A' for Active; 'I' for Inactive)
REMARK    1  A    between atoms: C2'_3  and  C1'_4 
REMARK    2  A    between atoms: C1'_4  and  C1_5 
ROOT
ATOM      1  C1  I4B d   1       0.921   2.561   1.843  0.00  0.00    -0.075 A 
ATOM      2  C2  I4B d   1       1.000   3.923   1.994  0.00  0.00     0.003 A 
ATOM      3  C3  I4B d   1       1.534   4.479   3.182  0.00  0.00     0.002 A 
ATOM      4  C4  I4B d   1       1.928   3.642   4.206  0.00  0.00    -0.004 A 
ATOM      5  C5  I4B d   1       1.868   2.262   4.042  0.00  0.00     0.002 A 
ATOM      6  C6  I4B d   1       1.373   1.717   2.849  0.00  0.00     0.003 A 
ENDROOT
BRANCH   1   7
ATOM      7  C1' I4B d   1       0.321   2.009   0.589  0.00  0.00     0.060 C 
BRANCH   7   8
ATOM      8  C2' I4B d   1       0.962   0.663   0.318  0.00  0.00    -0.013 C 
ATOM      9  C4' I4B d   1      -0.001  -0.464   0.585  0.00  0.00     0.013 C 
ATOM     10  C3' I4B d   1       1.429   0.651  -1.107  0.00  0.00     0.013 C 
ENDBRANCH   7   8
ENDBRANCH   1   7
TORSDOF 2
ENDMDL
