MODEL 1
REMARK minimizedAffinity 1.57659054
REMARK minimizedRMSD -1
REMARK  2 active torsions:
REMARK  status: ('A' for Active; 'I' for Inactive)
REMARK    1  A    between atoms: C2'_3  and  C1'_4 
REMARK    2  A    between atoms: C1'_4  and  C1_5 
ROOT
ATOM      1  C1  I4B d   1       0.171   0.455   1.988  0.00  0.00    -0.075 A 
ATOM      2  C2  I4B d   1       0.398   0.608   0.642  0.00  0.00     0.003 A 
ATOM      3  C3  I4B d   1       0.508   1.903   0.081  0.00  0.00     0.002 A 
ATOM      4  C4  I4B d   1       0.336   3.010   0.886  0.00  0.00    -0.004 A 
ATOM      5  C5  I4B d   1       0.128   2.853   2.254  0.00  0.00     0.002 A 
ATOM      6  C6  I4B d   1       0.057   1.568   2.810  0.00  0.00     0.003 A 
ENDROOT
BRANCH   1   7
ATOM      7  C1' I4B d   1       0.027  -0.927   2.542  0.00  0.00     0.060 C 
BRANCH   7   8
ATOM      8  C2' I4B d   1       0.758  -0.976   3.868  0.00  0.00    -0.013 C 
ATOM      9  C4' I4B d   1       0.069  -1.901   4.836  0.00  0.00     0.013 C 
ATOM     10  C3' I4B d   1       2.166  -1.420   3.603  0.00  0.00     0.013 C 
ENDBRANCH   7   8
ENDBRANCH   1   7
TORSDOF 2
ENDMDL
