MODEL 1
REMARK minimizedAffinity 4.11799335
REMARK minimizedRMSD -1
REMARK  2 active torsions:
REMARK  status: ('A' for Active; 'I' for Inactive)
REMARK    1  A    between atoms: C2'_3  and  C1'_4 
REMARK    2  A    between atoms: C1'_4  and  C1_5 
ROOT
ATOM      1  C1  I4B d   1       0.334   0.210   1.668  0.00  0.00    -0.075 A 
ATOM      2  C2  I4B d   1       0.589   1.225   2.556  0.00  0.00     0.003 A 
ATOM      3  C3  I4B d   1       0.444   2.575   2.154  0.00  0.00     0.002 A 
ATOM      4  C4  I4B d   1       0.093   2.863   0.851  0.00  0.00    -0.004 A 
ATOM      5  C5  I4B d   1      -0.187   1.832  -0.041  0.00  0.00     0.002 A 
ATOM      6  C6  I4B d   1      -0.078   0.496   0.374  0.00  0.00     0.003 A 
ENDROOT
BRANCH   1   7
ATOM      7  C1' I4B d   1       0.530  -1.204   2.116  0.00  0.00     0.060 C 
BRANCH   7   8
ATOM      8  C2' I4B d   1       0.827  -1.187   3.602  0.00  0.00    -0.013 C 
ATOM      9  C4' I4B d   1      -0.308  -1.781   4.392  0.00  0.00     0.013 C 
ATOM     10  C3' I4B d   1       2.101  -1.946   3.828  0.00  0.00     0.013 C 
ENDBRANCH   7   8
ENDBRANCH   1   7
TORSDOF 2
ENDMDL
