MODEL 1
REMARK minimizedAffinity 3.96063519
REMARK minimizedRMSD -1
REMARK  2 active torsions:
REMARK  status: ('A' for Active; 'I' for Inactive)
REMARK    1  A    between atoms: C2'_3  and  C1'_4 
REMARK    2  A    between atoms: C1'_4  and  C1_5 
ROOT
ATOM      1  C1  I4B d   1       0.660   1.764   1.079  0.00  0.00    -0.075 A 
ATOM      2  C2  I4B d   1       1.306   1.279  -0.032  0.00  0.00     0.003 A 
ATOM      3  C3  I4B d   1       1.778  -0.055  -0.056  0.00  0.00     0.002 A 
ATOM      4  C4  I4B d   1       1.629  -0.849   1.063  0.00  0.00    -0.004 A 
ATOM      5  C5  I4B d   1       0.954  -0.364   2.179  0.00  0.00     0.002 A 
ATOM      6  C6  I4B d   1       0.456   0.947   2.183  0.00  0.00     0.003 A 
ENDROOT
BRANCH   1   7
ATOM      7  C1' I4B d   1       0.204   3.188   1.083  0.00  0.00     0.060 C 
BRANCH   7   8
ATOM      8  C2' I4B d   1       1.402   4.062   1.392  0.00  0.00    -0.013 C 
ATOM      9  C4' I4B d   1       1.459   5.254   0.474  0.00  0.00     0.013 C 
ATOM     10  C3' I4B d   1       1.307   4.487   2.827  0.00  0.00     0.013 C 
ENDBRANCH   7   8
ENDBRANCH   1   7
TORSDOF 2
ENDMDL
