MODEL 1
REMARK minimizedAffinity 5.0979476
REMARK minimizedRMSD -1
REMARK  2 active torsions:
REMARK  status: ('A' for Active; 'I' for Inactive)
REMARK    1  A    between atoms: C2'_3  and  C1'_4 
REMARK    2  A    between atoms: C1'_4  and  C1_5 
ROOT
ATOM      1  C1  I4B d   1      -3.596   3.442  -5.205  0.00  0.00    -0.075 A 
ATOM      2  C2  I4B d   1      -4.778   3.772  -5.821  0.00  0.00     0.003 A 
ATOM      3  C3  I4B d   1      -5.999   3.694  -5.108  0.00  0.00     0.002 A 
ATOM      4  C4  I4B d   1      -5.998   3.235  -3.807  0.00  0.00    -0.004 A 
ATOM      5  C5  I4B d   1      -4.797   2.922  -3.177  0.00  0.00     0.002 A 
ATOM      6  C6  I4B d   1      -3.587   3.038  -3.877  0.00  0.00     0.003 A 
ENDROOT
BRANCH   1   7
ATOM      7  C1' I4B d   1      -2.329   3.504  -5.998  0.00  0.00     0.060 C 
BRANCH   7   8
ATOM      8  C2' I4B d   1      -1.384   4.456  -5.292  0.00  0.00    -0.013 C 
ATOM      9  C4' I4B d   1      -1.645   5.883  -5.697  0.00  0.00     0.013 C 
ATOM     10  C3' I4B d   1      -1.560   4.272  -3.814  0.00  0.00     0.013 C 
ENDBRANCH   7   8
ENDBRANCH   1   7
TORSDOF 2
ENDMDL
