MODEL 1
REMARK minimizedAffinity 11.0671682
REMARK minimizedRMSD -1
REMARK  2 active torsions:
REMARK  status: ('A' for Active; 'I' for Inactive)
REMARK    1  A    between atoms: C2'_3  and  C1'_4 
REMARK    2  A    between atoms: C1'_4  and  C1_5 
ROOT
ATOM      1  C1  I4B d   1       0.549   1.833   1.224  0.00  0.00    -0.075 A 
ATOM      2  C2  I4B d   1       0.541   2.790   0.241  0.00  0.00     0.003 A 
ATOM      3  C3  I4B d   1       0.846   4.137   0.555  0.00  0.00     0.002 A 
ATOM      4  C4  I4B d   1       1.101   4.488   1.864  0.00  0.00    -0.004 A 
ATOM      5  C5  I4B d   1       1.131   3.512   2.856  0.00  0.00     0.002 A 
ATOM      6  C6  I4B d   1       0.865   2.174   2.533  0.00  0.00     0.003 A 
ENDROOT
BRANCH   1   7
ATOM      7  C1' I4B d   1       0.190   0.426   0.863  0.00  0.00     0.060 C 
BRANCH   7   8
ATOM      8  C2' I4B d   1       1.010  -0.503   1.735  0.00  0.00    -0.013 C 
ATOM      9  C4' I4B d   1       0.153  -1.169   2.780  0.00  0.00     0.013 C 
ATOM     10  C3' I4B d   1       1.663  -1.517   0.844  0.00  0.00     0.013 C 
ENDBRANCH   7   8
ENDBRANCH   1   7
TORSDOF 2
ENDMDL
