MODEL 1
REMARK minimizedAffinity 3.21989059
REMARK minimizedRMSD -1
REMARK  2 active torsions:
REMARK  status: ('A' for Active; 'I' for Inactive)
REMARK    1  A    between atoms: C2'_3  and  C1'_4 
REMARK    2  A    between atoms: C1'_4  and  C1_5 
ROOT
ATOM      1  C1  I4B d   1       0.448   0.497   1.949  0.00  0.00    -0.075 A 
ATOM      2  C2  I4B d   1       0.421   0.798   0.610  0.00  0.00     0.003 A 
ATOM      3  C3  I4B d   1       0.369   2.147   0.184  0.00  0.00     0.002 A 
ATOM      4  C4  I4B d   1       0.295   3.155   1.125  0.00  0.00    -0.004 A 
ATOM      5  C5  I4B d   1       0.346   2.848   2.481  0.00  0.00     0.002 A 
ATOM      6  C6  I4B d   1       0.435   1.512   2.897  0.00  0.00     0.003 A 
ENDROOT
BRANCH   1   7
ATOM      7  C1' I4B d   1       0.469  -0.940   2.364  0.00  0.00     0.060 C 
BRANCH   7   8
ATOM      8  C2' I4B d   1       0.850  -0.997   3.829  0.00  0.00    -0.013 C 
ATOM      9  C4' I4B d   1      -0.216  -1.683   4.643  0.00  0.00     0.013 C 
ATOM     10  C3' I4B d   1       2.162  -1.716   3.939  0.00  0.00     0.013 C 
ENDBRANCH   7   8
ENDBRANCH   1   7
TORSDOF 2
ENDMDL
