MODEL 1
REMARK minimizedAffinity 3.01362491
REMARK minimizedRMSD -1
REMARK  2 active torsions:
REMARK  status: ('A' for Active; 'I' for Inactive)
REMARK    1  A    between atoms: C2'_3  and  C1'_4 
REMARK    2  A    between atoms: C1'_4  and  C1_5 
ROOT
ATOM      1  C1  I4B d   1      -4.318   3.876  -5.004  0.00  0.00    -0.075 A 
ATOM      2  C2  I4B d   1      -3.769   4.647  -5.998  0.00  0.00     0.003 A 
ATOM      3  C3  I4B d   1      -2.383   4.939  -5.991  0.00  0.00     0.002 A 
ATOM      4  C4  I4B d   1      -1.598   4.485  -4.950  0.00  0.00    -0.004 A 
ATOM      5  C5  I4B d   1      -2.152   3.684  -3.956  0.00  0.00     0.002 A 
ATOM      6  C6  I4B d   1      -3.518   3.367  -3.989  0.00  0.00     0.003 A 
ENDROOT
BRANCH   1   7
ATOM      7  C1' I4B d   1      -5.790   3.614  -5.025  0.00  0.00     0.060 C 
BRANCH   7   8
ATOM      8  C2' I4B d   1      -5.997   2.117  -5.124  0.00  0.00    -0.013 C 
ATOM      9  C4' I4B d   1      -4.950   1.478  -5.997  0.00  0.00     0.013 C 
ATOM     10  C3' I4B d   1      -5.961   1.552  -3.735  0.00  0.00     0.013 C 
ENDBRANCH   7   8
ENDBRANCH   1   7
TORSDOF 2
ENDMDL
