MODEL 1
REMARK minimizedAffinity 1.85799646
REMARK minimizedRMSD -1
REMARK  2 active torsions:
REMARK  status: ('A' for Active; 'I' for Inactive)
REMARK    1  A    between atoms: C2'_3  and  C1'_4 
REMARK    2  A    between atoms: C1'_4  and  C1_5 
ROOT
ATOM      1  C1  I4B d   1      -4.949   2.745  -4.906  0.00  0.00    -0.075 A 
ATOM      2  C2  I4B d   1      -5.039   1.919  -5.999  0.00  0.00     0.003 A 
ATOM      3  C3  I4B d   1      -5.593   0.623  -5.869  0.00  0.00     0.002 A 
ATOM      4  C4  I4B d   1      -5.996   0.177  -4.627  0.00  0.00    -0.004 A 
ATOM      5  C5  I4B d   1      -5.926   1.024  -3.525  0.00  0.00     0.002 A 
ATOM      6  C6  I4B d   1      -5.410   2.321  -3.667  0.00  0.00     0.003 A 
ENDROOT
BRANCH   1   7
ATOM      7  C1' I4B d   1      -4.328   4.096  -5.072  0.00  0.00     0.060 C 
BRANCH   7   8
ATOM      8  C2' I4B d   1      -2.850   3.900  -5.339  0.00  0.00    -0.013 C 
ATOM      9  C4' I4B d   1      -2.229   5.148  -5.910  0.00  0.00     0.013 C 
ATOM     10  C3' I4B d   1      -2.194   3.511  -4.048  0.00  0.00     0.013 C 
ENDBRANCH   7   8
ENDBRANCH   1   7
TORSDOF 2
ENDMDL
