MODEL 1
REMARK minimizedAffinity 1.32715034
REMARK minimizedRMSD -1
REMARK  2 active torsions:
REMARK  status: ('A' for Active; 'I' for Inactive)
REMARK    1  A    between atoms: C2'_3  and  C1'_4 
REMARK    2  A    between atoms: C1'_4  and  C1_5 
ROOT
ATOM      1  C1  I4B d   1      -4.562   3.367  -4.692  0.00  0.00    -0.075 A 
ATOM      2  C2  I4B d   1      -4.330   4.207  -5.753  0.00  0.00     0.003 A 
ATOM      3  C3  I4B d   1      -3.040   4.752  -5.961  0.00  0.00     0.002 A 
ATOM      4  C4  I4B d   1      -2.031   4.473  -5.062  0.00  0.00    -0.004 A 
ATOM      5  C5  I4B d   1      -2.262   3.603  -4.000  0.00  0.00     0.002 A 
ATOM      6  C6  I4B d   1      -3.533   3.037  -3.821  0.00  0.00     0.003 A 
ENDROOT
BRANCH   1   7
ATOM      7  C1' I4B d   1      -5.945   2.836  -4.483  0.00  0.00     0.060 C 
BRANCH   7   8
ATOM      8  C2' I4B d   1      -6.000   1.437  -5.062  0.00  0.00    -0.013 C 
ATOM      9  C4' I4B d   1      -4.847   1.189  -5.999  0.00  0.00     0.013 C 
ATOM     10  C3' I4B d   1      -5.990   0.463  -3.922  0.00  0.00     0.013 C 
ENDBRANCH   7   8
ENDBRANCH   1   7
TORSDOF 2
ENDMDL
