MODEL 1
REMARK minimizedAffinity 3.81700444
REMARK minimizedRMSD -1
REMARK  2 active torsions:
REMARK  status: ('A' for Active; 'I' for Inactive)
REMARK    1  A    between atoms: C2'_3  and  C1'_4 
REMARK    2  A    between atoms: C1'_4  and  C1_5 
ROOT
ATOM      1  C1  I4B d   1      -4.070   3.570  -5.112  0.00  0.00    -0.075 A 
ATOM      2  C2  I4B d   1      -5.084   3.310  -6.000  0.00  0.00     0.003 A 
ATOM      3  C3  I4B d   1      -5.773   2.074  -5.952  0.00  0.00     0.002 A 
ATOM      4  C4  I4B d   1      -5.384   1.114  -5.040  0.00  0.00    -0.004 A 
ATOM      5  C5  I4B d   1      -4.372   1.389  -4.126  0.00  0.00     0.002 A 
ATOM      6  C6  I4B d   1      -3.718   2.629  -4.153  0.00  0.00     0.003 A 
ENDROOT
BRANCH   1   7
ATOM      7  C1' I4B d   1      -3.341   4.873  -5.211  0.00  0.00     0.060 C 
BRANCH   7   8
ATOM      8  C2' I4B d   1      -1.857   4.587  -5.111  0.00  0.00    -0.013 C 
ATOM      9  C4' I4B d   1      -1.041   5.786  -5.515  0.00  0.00     0.013 C 
ATOM     10  C3' I4B d   1      -1.558   4.180  -3.699  0.00  0.00     0.013 C 
ENDBRANCH   7   8
ENDBRANCH   1   7
TORSDOF 2
ENDMDL
