MODEL 1
REMARK minimizedAffinity -3.86306643
REMARK minimizedRMSD -1
REMARK  0 active torsions:
REMARK  status: ('A' for Active; 'I' for Inactive)
ROOT
ATOM      1  C1  BNZ d   1      -1.224   0.302   1.283  0.00  0.00     0.000 A 
ATOM      2  C2  BNZ d   1      -0.028   0.264   1.948  0.00  0.00     0.000 A 
ATOM      3  C3  BNZ d   1       1.103  -0.189   1.329  0.00  0.00     0.000 A 
ATOM      4  C4  BNZ d   1       1.029  -0.640   0.060  0.00  0.00     0.000 A 
ATOM      5  C5  BNZ d   1      -0.172  -0.617  -0.621  0.00  0.00     0.000 A 
ATOM      6  C6  BNZ d   1      -1.300  -0.124  -0.007  0.00  0.00     0.000 A 
ENDROOT
TORSDOF 0
ENDMDL
