MODEL 1
REMARK minimizedAffinity -4.21983576
REMARK minimizedRMSD -1
REMARK  0 active torsions:
REMARK  status: ('A' for Active; 'I' for Inactive)
ROOT
ATOM      1  C1  BNZ d   1       0.204   0.125   1.220  0.00  0.00     0.000 A 
ATOM      2  C2  BNZ d   1      -1.023   0.588   1.615  0.00  0.00     0.000 A 
ATOM      3  C3  BNZ d   1      -1.406   0.526   2.925  0.00  0.00     0.000 A 
ATOM      4  C4  BNZ d   1      -0.580  -0.035   3.832  0.00  0.00     0.000 A 
ATOM      5  C5  BNZ d   1       0.656  -0.516   3.448  0.00  0.00     0.000 A 
ATOM      6  C6  BNZ d   1       1.054  -0.416   2.135  0.00  0.00     0.000 A 
ENDROOT
TORSDOF 0
ENDMDL
