MODEL 1
REMARK minimizedAffinity -3.6752274
REMARK minimizedRMSD -1
REMARK  0 active torsions:
REMARK  status: ('A' for Active; 'I' for Inactive)
ROOT
ATOM      1  C1  BNZ d   1      -0.712  -0.176   2.973  0.00  0.00     0.000 A 
ATOM      2  C2  BNZ d   1      -0.136   0.848   3.677  0.00  0.00     0.000 A 
ATOM      3  C3  BNZ d   1       0.449   1.901   3.030  0.00  0.00     0.000 A 
ATOM      4  C4  BNZ d   1       0.493   1.908   1.682  0.00  0.00     0.000 A 
ATOM      5  C5  BNZ d   1      -0.075   0.879   0.958  0.00  0.00     0.000 A 
ATOM      6  C6  BNZ d   1      -0.697  -0.160   1.612  0.00  0.00     0.000 A 
ENDROOT
TORSDOF 0
ENDMDL
