MODEL 1
REMARK minimizedAffinity 0.997578263
REMARK minimizedRMSD -1
REMARK  0 active torsions:
REMARK  status: ('A' for Active; 'I' for Inactive)
ROOT
ATOM      1  C1  BNZ d   1      -1.072  -0.004   3.006  0.00  0.00     0.000 A 
ATOM      2  C2  BNZ d   1      -2.135   0.286   2.194  0.00  0.00     0.000 A 
ATOM      3  C3  BNZ d   1      -2.075   0.046   0.849  0.00  0.00     0.000 A 
ATOM      4  C4  BNZ d   1      -0.939  -0.447   0.314  0.00  0.00     0.000 A 
ATOM      5  C5  BNZ d   1       0.144  -0.736   1.119  0.00  0.00     0.000 A 
ATOM      6  C6  BNZ d   1       0.066  -0.529   2.477  0.00  0.00     0.000 A 
ENDROOT
TORSDOF 0
ENDMDL
