MODEL 1
REMARK minimizedAffinity -2.88329124
REMARK minimizedRMSD -1
REMARK  0 active torsions:
REMARK  status: ('A' for Active; 'I' for Inactive)
ROOT
ATOM      1  C1  BNZ d   1      -1.895  -0.011   0.863  0.00  0.00     0.000 A 
ATOM      2  C2  BNZ d   1      -2.169   0.178   2.191  0.00  0.00     0.000 A 
ATOM      3  C3  BNZ d   1      -1.159   0.248   3.110  0.00  0.00     0.000 A 
ATOM      4  C4  BNZ d   1       0.118   0.090   2.706  0.00  0.00     0.000 A 
ATOM      5  C5  BNZ d   1       0.409  -0.111   1.372  0.00  0.00     0.000 A 
ATOM      6  C6  BNZ d   1      -0.607  -0.142   0.444  0.00  0.00     0.000 A 
ENDROOT
TORSDOF 0
ENDMDL
