MODEL 1
REMARK minimizedAffinity -1.24579012
REMARK minimizedRMSD -1
REMARK  0 active torsions:
REMARK  status: ('A' for Active; 'I' for Inactive)
ROOT
ATOM      1  C1  BNZ d   1      -0.319  -0.167   1.188  0.00  0.00     0.000 A 
ATOM      2  C2  BNZ d   1      -0.016  -0.741   2.394  0.00  0.00     0.000 A 
ATOM      3  C3  BNZ d   1      -0.904  -0.697   3.433  0.00  0.00     0.000 A 
ATOM      4  C4  BNZ d   1      -2.074  -0.044   3.278  0.00  0.00     0.000 A 
ATOM      5  C5  BNZ d   1      -2.389   0.548   2.071  0.00  0.00     0.000 A 
ATOM      6  C6  BNZ d   1      -1.510   0.468   1.016  0.00  0.00     0.000 A 
ENDROOT
TORSDOF 0
ENDMDL
