MODEL 1
REMARK minimizedAffinity -1.22248983
REMARK minimizedRMSD -1
REMARK  0 active torsions:
REMARK  status: ('A' for Active; 'I' for Inactive)
ROOT
ATOM      1  C1  BNZ d   1       1.606   1.495  -3.503  0.00  0.00     0.000 A 
ATOM      2  C2  BNZ d   1       1.486   0.620  -2.457  0.00  0.00     0.000 A 
ATOM      3  C3  BNZ d   1       2.580   0.244  -1.729  0.00  0.00     0.000 A 
ATOM      4  C4  BNZ d   1       3.797   0.712  -2.073  0.00  0.00     0.000 A 
ATOM      5  C5  BNZ d   1       3.936   1.588  -3.131  0.00  0.00     0.000 A 
ATOM      6  C6  BNZ d   1       2.827   1.994  -3.837  0.00  0.00     0.000 A 
ENDROOT
TORSDOF 0
ENDMDL
