MODEL 1
REMARK minimizedAffinity -3.38080883
REMARK minimizedRMSD -1
REMARK  0 active torsions:
REMARK  status: ('A' for Active; 'I' for Inactive)
ROOT
ATOM      1  C1  BNZ d   1       4.104   2.345  -0.909  0.00  0.00     0.000 A 
ATOM      2  C2  BNZ d   1       4.151   1.106  -0.327  0.00  0.00     0.000 A 
ATOM      3  C3  BNZ d   1       4.129  -0.028  -1.090  0.00  0.00     0.000 A 
ATOM      4  C4  BNZ d   1       4.020   0.077  -2.430  0.00  0.00     0.000 A 
ATOM      5  C5  BNZ d   1       3.963   1.318  -3.032  0.00  0.00     0.000 A 
ATOM      6  C6  BNZ d   1       4.024   2.458  -2.263  0.00  0.00     0.000 A 
ENDROOT
TORSDOF 0
ENDMDL
