MODEL 1
REMARK minimizedAffinity -2.50217342
REMARK minimizedRMSD -1
REMARK  0 active torsions:
REMARK  status: ('A' for Active; 'I' for Inactive)
ROOT
ATOM      1  C1  BNZ d   1      -2.813   0.416   1.314  0.00  0.00     0.000 A 
ATOM      2  C2  BNZ d   1      -2.365   0.221   0.034  0.00  0.00     0.000 A 
ATOM      3  C3  BNZ d   1      -1.069  -0.139  -0.206  0.00  0.00     0.000 A 
ATOM      4  C4  BNZ d   1      -0.212  -0.264   0.828  0.00  0.00     0.000 A 
ATOM      5  C5  BNZ d   1      -0.646  -0.062   2.123  0.00  0.00     0.000 A 
ATOM      6  C6  BNZ d   1      -1.961   0.262   2.364  0.00  0.00     0.000 A 
ENDROOT
TORSDOF 0
ENDMDL
