MODEL 1
REMARK minimizedAffinity -2.53066516
REMARK minimizedRMSD -1
REMARK  0 active torsions:
REMARK  status: ('A' for Active; 'I' for Inactive)
ROOT
ATOM      1  C1  BNZ d   1      -0.844   0.058   1.268  0.00  0.00     0.000 A 
ATOM      2  C2  BNZ d   1       0.476  -0.306   1.296  0.00  0.00     0.000 A 
ATOM      3  C3  BNZ d   1       1.007  -1.088   0.309  0.00  0.00     0.000 A 
ATOM      4  C4  BNZ d   1       0.210  -1.538  -0.682  0.00  0.00     0.000 A 
ATOM      5  C5  BNZ d   1      -1.125  -1.187  -0.719  0.00  0.00     0.000 A 
ATOM      6  C6  BNZ d   1      -1.647  -0.368   0.255  0.00  0.00     0.000 A 
ENDROOT
TORSDOF 0
ENDMDL
