MODEL 1
REMARK minimizedAffinity -3.1321497
REMARK minimizedRMSD -1
REMARK  1 active torsions:
REMARK  status: ('A' for Active; 'I' for Inactive)
REMARK    1  A    between atoms: C3_4  and  O_7 
ROOT
ATOM      1  C   UNL d   1      -1.885   0.891  -0.541  0.00  0.00    -0.033 A 
ATOM      2  C1  UNL d   1      -0.540   0.541  -0.680  0.00  0.00     0.039 A 
ATOM      3  C2  UNL d   1       0.369   0.836   0.338  0.00  0.00    -0.080 A 
ATOM      4  C3  UNL d   1      -0.079   1.479   1.488  0.00  0.00     0.150 A 
ATOM      5  C4  UNL d   1      -1.417   1.826   1.636  0.00  0.00    -0.007 A 
ATOM      6  C5  UNL d   1      -2.324   1.532   0.618  0.00  0.00     0.039 A 
ENDROOT
BRANCH   4   7
ATOM      7  O   UNL d   1       0.772   1.791   2.507  0.00  0.00    -0.526 OA
ATOM      8  H5  UNL d   1       1.669   1.517   2.253  0.00  0.00     0.418 HD
ENDBRANCH   4   7
TORSDOF 1
ENDMDL
