MODEL 1
REMARK minimizedAffinity -1.20610821
REMARK minimizedRMSD -1
REMARK  1 active torsions:
REMARK  status: ('A' for Active; 'I' for Inactive)
REMARK    1  A    between atoms: C3_4  and  O_7 
ROOT
ATOM      1  C   UNL d   1       0.732  -0.299   2.475  0.00  0.00    -0.033 A 
ATOM      2  C1  UNL d   1       0.963  -0.976   1.276  0.00  0.00     0.039 A 
ATOM      3  C2  UNL d   1       0.715  -0.343   0.056  0.00  0.00    -0.080 A 
ATOM      4  C3  UNL d   1       0.238   0.965   0.050  0.00  0.00     0.150 A 
ATOM      5  C4  UNL d   1       0.010   1.646   1.241  0.00  0.00    -0.007 A 
ATOM      6  C5  UNL d   1       0.257   1.012   2.457  0.00  0.00     0.039 A 
ENDROOT
BRANCH   4   7
ATOM      7  O   UNL d   1      -0.023   1.622  -1.116  0.00  0.00    -0.526 OA
ATOM      8  H5  UNL d   1       0.153   1.018  -1.856  0.00  0.00     0.418 HD
ENDBRANCH   4   7
TORSDOF 1
ENDMDL
