MODEL 1
REMARK minimizedAffinity 7.02607155
REMARK minimizedRMSD -1
REMARK  1 active torsions:
REMARK  status: ('A' for Active; 'I' for Inactive)
REMARK    1  A    between atoms: C3_4  and  O_7 
ROOT
ATOM      1  C   UNL d   1      -6.000   5.619  -5.146  0.00  0.00    -0.033 A 
ATOM      2  C1  UNL d   1      -5.684   6.000  -3.840  0.00  0.00     0.039 A 
ATOM      3  C2  UNL d   1      -4.916   5.160  -3.032  0.00  0.00    -0.080 A 
ATOM      4  C3  UNL d   1      -4.469   3.943  -3.541  0.00  0.00     0.150 A 
ATOM      5  C4  UNL d   1      -4.776   3.559  -4.842  0.00  0.00    -0.007 A 
ATOM      6  C5  UNL d   1      -5.544   4.399  -5.647  0.00  0.00     0.039 A 
ENDROOT
BRANCH   4   7
ATOM      7  O   UNL d   1      -3.721   3.088  -2.788  0.00  0.00    -0.526 OA
ATOM      8  H5  UNL d   1      -3.612   3.472  -1.902  0.00  0.00     0.418 HD
ENDBRANCH   4   7
TORSDOF 1
ENDMDL
