MODEL 1
REMARK minimizedAffinity 2.02663517
REMARK minimizedRMSD -1
REMARK  1 active torsions:
REMARK  status: ('A' for Active; 'I' for Inactive)
REMARK    1  A    between atoms: C3_4  and  O_7 
ROOT
ATOM      1  C   UNL d   1      -5.999   4.719  -5.997  0.00  0.00    -0.033 A 
ATOM      2  C1  UNL d   1      -5.818   3.556  -5.247  0.00  0.00     0.039 A 
ATOM      3  C2  UNL d   1      -5.160   3.612  -4.017  0.00  0.00    -0.080 A 
ATOM      4  C3  UNL d   1      -4.690   4.836  -3.548  0.00  0.00     0.150 A 
ATOM      5  C4  UNL d   1      -4.871   6.000  -4.289  0.00  0.00    -0.007 A 
ATOM      6  C5  UNL d   1      -5.527   5.942  -5.518  0.00  0.00     0.039 A 
ENDROOT
BRANCH   4   7
ATOM      7  O   UNL d   1      -4.038   4.940  -2.356  0.00  0.00    -0.526 OA
ATOM      8  H5  UNL d   1      -3.961   4.052  -1.969  0.00  0.00     0.418 HD
ENDBRANCH   4   7
TORSDOF 1
ENDMDL
