MODEL 1
REMARK minimizedAffinity 1.81980288
REMARK minimizedRMSD -1
REMARK  1 active torsions:
REMARK  status: ('A' for Active; 'I' for Inactive)
REMARK    1  A    between atoms: C3_4  and  O_7 
ROOT
ATOM      1  C   UNL d   1      -1.486   2.943   1.449  0.00  0.00    -0.033 A 
ATOM      2  C1  UNL d   1      -0.221   2.356   1.499  0.00  0.00     0.039 A 
ATOM      3  C2  UNL d   1       0.319   1.758   0.358  0.00  0.00    -0.080 A 
ATOM      4  C3  UNL d   1      -0.415   1.756  -0.825  0.00  0.00     0.150 A 
ATOM      5  C4  UNL d   1      -1.675   2.343  -0.883  0.00  0.00    -0.007 A 
ATOM      6  C5  UNL d   1      -2.213   2.938   0.258  0.00  0.00     0.039 A 
ENDROOT
BRANCH   4   7
ATOM      7  O   UNL d   1       0.068   1.181  -1.962  0.00  0.00    -0.526 OA
ATOM      8  H5  UNL d   1       0.935   0.790  -1.765  0.00  0.00     0.418 HD
ENDBRANCH   4   7
TORSDOF 1
ENDMDL
