MODEL 1
REMARK minimizedAffinity 0.759061694
REMARK minimizedRMSD -1
REMARK  1 active torsions:
REMARK  status: ('A' for Active; 'I' for Inactive)
REMARK    1  A    between atoms: C3_4  and  O_7 
ROOT
ATOM      1  C   UNL d   1      -1.378   2.801   1.958  0.00  0.00    -0.033 A 
ATOM      2  C1  UNL d   1      -0.040   2.451   1.765  0.00  0.00     0.039 A 
ATOM      3  C2  UNL d   1       0.419   2.120   0.488  0.00  0.00    -0.080 A 
ATOM      4  C3  UNL d   1      -0.468   2.144  -0.585  0.00  0.00     0.150 A 
ATOM      5  C4  UNL d   1      -1.801   2.495  -0.400  0.00  0.00    -0.007 A 
ATOM      6  C5  UNL d   1      -2.258   2.825   0.875  0.00  0.00     0.039 A 
ENDROOT
BRANCH   4   7
ATOM      7  O   UNL d   1      -0.067   1.823  -1.848  0.00  0.00    -0.526 OA
ATOM      8  H5  UNL d   1       0.872   1.574  -1.818  0.00  0.00     0.418 HD
ENDBRANCH   4   7
TORSDOF 1
ENDMDL
