MODEL 1
REMARK minimizedAffinity 10.2225475
REMARK minimizedRMSD -1
REMARK  1 active torsions:
REMARK  status: ('A' for Active; 'I' for Inactive)
REMARK    1  A    between atoms: C3_4  and  O_7 
ROOT
ATOM      1  C   UNL d   1      -0.021   1.556  -0.928  0.00  0.00    -0.033 A 
ATOM      2  C1  UNL d   1       0.458   1.973   0.316  0.00  0.00     0.039 A 
ATOM      3  C2  UNL d   1      -0.428   2.453   1.282  0.00  0.00    -0.080 A 
ATOM      4  C3  UNL d   1      -1.789   2.510   0.993  0.00  0.00     0.150 A 
ATOM      5  C4  UNL d   1      -2.274   2.093  -0.242  0.00  0.00    -0.007 A 
ATOM      6  C5  UNL d   1      -1.387   1.615  -1.206  0.00  0.00     0.039 A 
ENDROOT
BRANCH   4   7
ATOM      7  O   UNL d   1      -2.692   2.975   1.903  0.00  0.00    -0.526 OA
ATOM      8  H5  UNL d   1      -2.210   3.254   2.699  0.00  0.00     0.418 HD
ENDBRANCH   4   7
TORSDOF 1
ENDMDL
