MODEL 1
REMARK minimizedAffinity 5.35138988
REMARK minimizedRMSD -1
REMARK  1 active torsions:
REMARK  status: ('A' for Active; 'I' for Inactive)
REMARK    1  A    between atoms: C3_4  and  O_7 
ROOT
ATOM      1  C   UNL d   1      -0.336   1.124  -1.490  0.00  0.00    -0.033 A 
ATOM      2  C1  UNL d   1      -0.204  -0.265  -1.430  0.00  0.00     0.039 A 
ATOM      3  C2  UNL d   1      -1.340  -1.074  -1.369  0.00  0.00    -0.080 A 
ATOM      4  C3  UNL d   1      -2.600  -0.484  -1.369  0.00  0.00     0.150 A 
ATOM      5  C4  UNL d   1      -2.740   0.899  -1.432  0.00  0.00    -0.007 A 
ATOM      6  C5  UNL d   1      -1.604   1.706  -1.492  0.00  0.00     0.039 A 
ENDROOT
BRANCH   4   7
ATOM      7  O   UNL d   1      -3.738  -1.232  -1.305  0.00  0.00    -0.526 OA
ATOM      8  H5  UNL d   1      -3.487  -2.168  -1.237  0.00  0.00     0.418 HD
ENDBRANCH   4   7
TORSDOF 1
ENDMDL
