MODEL 1
REMARK minimizedAffinity -4.59035969
REMARK minimizedRMSD -1
REMARK  1 active torsions:
REMARK  status: ('A' for Active; 'I' for Inactive)
REMARK    1  A    between atoms: C3_4  and  O_7 
ROOT
ATOM      1  C   UNL d   1      -0.096   3.711   0.644  0.00  0.00    -0.033 A 
ATOM      2  C1  UNL d   1      -0.295   3.256  -0.661  0.00  0.00     0.039 A 
ATOM      3  C2  UNL d   1      -0.221   1.891  -0.945  0.00  0.00    -0.080 A 
ATOM      4  C3  UNL d   1       0.050   0.993   0.084  0.00  0.00     0.150 A 
ATOM      5  C4  UNL d   1       0.246   1.439   1.387  0.00  0.00    -0.007 A 
ATOM      6  C5  UNL d   1       0.173   2.803   1.668  0.00  0.00     0.039 A 
ENDROOT
BRANCH   4   7
ATOM      7  O   UNL d   1       0.137  -0.348  -0.146  0.00  0.00    -0.526 OA
ATOM      8  H5  UNL d   1       0.008  -0.507  -1.096  0.00  0.00     0.418 HD
ENDBRANCH   4   7
TORSDOF 1
ENDMDL
