MODEL 1
REMARK minimizedAffinity 12.604579
REMARK minimizedRMSD -1
REMARK  0 active torsions:
REMARK  status: ('A' for Active; 'I' for Inactive)
ROOT
ATOM      1  O1  BZF d   1       1.107  -5.260   0.519  0.00  0.00    -0.204 OA
ATOM      2  C2  BZF d   1       2.248  -5.999   0.272  0.00  0.00     0.174 A 
ATOM      3  C3  BZF d   1       3.336  -5.204   0.237  0.00  0.00    -0.012 A 
ATOM      4  C3A BZF d   1       2.857  -3.897   0.570  0.00  0.00    -0.107 A 
ATOM      5  C4  BZF d   1       3.465  -2.683   0.713  0.00  0.00     0.055 A 
ATOM      6  C5  BZF d   1       2.702  -1.588   0.972  0.00  0.00    -0.016 A 
ATOM      7  C6  BZF d   1       1.330  -1.671   1.088  0.00  0.00     0.022 A 
ATOM      8  C7  BZF d   1       0.682  -2.854   0.958  0.00  0.00     0.029 A 
ATOM      9  C7A BZF d   1       1.454  -3.967   0.730  0.00  0.00     0.058 A 
ENDROOT
TORSDOF 0
ENDMDL
