MODEL 1
REMARK minimizedAffinity 10.7854395
REMARK minimizedRMSD -1
REMARK  0 active torsions:
REMARK  status: ('A' for Active; 'I' for Inactive)
ROOT
ATOM      1  O1  BZF d   1       5.947   4.323  -1.053  0.00  0.00    -0.204 OA
ATOM      2  C2  BZF d   1       6.000   5.090   0.095  0.00  0.00     0.174 A 
ATOM      3  C3  BZF d   1       5.974   4.310   1.194  0.00  0.00    -0.012 A 
ATOM      4  C3A BZF d   1       5.995   2.966   0.703  0.00  0.00    -0.107 A 
ATOM      5  C4  BZF d   1       6.000   1.744   1.311  0.00  0.00     0.055 A 
ATOM      6  C5  BZF d   1       5.947   0.624   0.544  0.00  0.00    -0.016 A 
ATOM      7  C6  BZF d   1       5.883   0.689  -0.833  0.00  0.00     0.022 A 
ATOM      8  C7  BZF d   1       5.880   1.879  -1.482  0.00  0.00     0.029 A 
ATOM      9  C7A BZF d   1       5.967   3.012  -0.710  0.00  0.00     0.058 A 
ENDROOT
TORSDOF 0
ENDMDL
