MODEL 1
REMARK minimizedAffinity 6.28521347
REMARK minimizedRMSD -1
REMARK  0 active torsions:
REMARK  status: ('A' for Active; 'I' for Inactive)
ROOT
ATOM      1  O1  BZF d   1      -1.152  -3.764   1.110  0.00  0.00    -0.204 OA
ATOM      2  C2  BZF d   1      -1.920  -2.823   1.768  0.00  0.00     0.174 A 
ATOM      3  C3  BZF d   1      -1.160  -1.787   2.178  0.00  0.00    -0.012 A 
ATOM      4  C3A BZF d   1       0.149  -2.057   1.669  0.00  0.00    -0.107 A 
ATOM      5  C4  BZF d   1       1.337  -1.386   1.731  0.00  0.00     0.055 A 
ATOM      6  C5  BZF d   1       2.447  -1.956   1.192  0.00  0.00    -0.016 A 
ATOM      7  C6  BZF d   1       2.406  -3.196   0.588  0.00  0.00     0.022 A 
ATOM      8  C7  BZF d   1       1.249  -3.897   0.498  0.00  0.00     0.029 A 
ATOM      9  C7A BZF d   1       0.120  -3.309   1.013  0.00  0.00     0.058 A 
ENDROOT
TORSDOF 0
ENDMDL
