MODEL 1
REMARK minimizedAffinity 10.377739
REMARK minimizedRMSD -1
REMARK  0 active torsions:
REMARK  status: ('A' for Active; 'I' for Inactive)
ROOT
ATOM      1  O1  BZF d   1       0.803  -4.802   0.601  0.00  0.00    -0.204 OA
ATOM      2  C2  BZF d   1       1.984  -5.471   0.345  0.00  0.00     0.174 A 
ATOM      3  C3  BZF d   1       3.040  -4.643   0.470  0.00  0.00    -0.012 A 
ATOM      4  C3A BZF d   1       2.492  -3.399   0.917  0.00  0.00    -0.107 A 
ATOM      5  C4  BZF d   1       3.043  -2.190   1.235  0.00  0.00     0.055 A 
ATOM      6  C5  BZF d   1       2.224  -1.158   1.566  0.00  0.00    -0.016 A 
ATOM      7  C6  BZF d   1       0.852  -1.297   1.585  0.00  0.00     0.022 A 
ATOM      8  C7  BZF d   1       0.259  -2.478   1.282  0.00  0.00     0.029 A 
ATOM      9  C7A BZF d   1       1.086  -3.532   0.978  0.00  0.00     0.058 A 
ENDROOT
TORSDOF 0
ENDMDL
