MODEL 1
REMARK minimizedAffinity 14.6156054
REMARK minimizedRMSD -1
REMARK  0 active torsions:
REMARK  status: ('A' for Active; 'I' for Inactive)
ROOT
ATOM      1  O1  BZF d   1       2.544  -1.318   4.474  0.00  0.00    -0.204 OA
ATOM      2  C2  BZF d   1       3.746  -1.953   4.719  0.00  0.00     0.174 A 
ATOM      3  C3  BZF d   1       4.170  -2.614   3.622  0.00  0.00    -0.012 A 
ATOM      4  C3A BZF d   1       3.217  -2.300   2.602  0.00  0.00    -0.107 A 
ATOM      5  C4  BZF d   1       3.103  -2.646   1.286  0.00  0.00     0.055 A 
ATOM      6  C5  BZF d   1       2.014  -2.231   0.586  0.00  0.00    -0.016 A 
ATOM      7  C6  BZF d   1       1.019  -1.476   1.172  0.00  0.00     0.022 A 
ATOM      8  C7  BZF d   1       1.091  -1.105   2.473  0.00  0.00     0.029 A 
ATOM      9  C7A BZF d   1       2.206  -1.494   3.174  0.00  0.00     0.058 A 
ENDROOT
TORSDOF 0
ENDMDL
