MODEL 1
REMARK minimizedAffinity 21.8741646
REMARK minimizedRMSD -1
REMARK  0 active torsions:
REMARK  status: ('A' for Active; 'I' for Inactive)
ROOT
ATOM      1  O1  BZF d   1      -5.128   4.575  -5.237  0.00  0.00    -0.204 OA
ATOM      2  C2  BZF d   1      -6.000   3.737  -5.904  0.00  0.00     0.174 A 
ATOM      3  C3  BZF d   1      -5.735   2.445  -5.617  0.00  0.00    -0.012 A 
ATOM      4  C3A BZF d   1      -4.687   2.483  -4.644  0.00  0.00    -0.107 A 
ATOM      5  C4  BZF d   1      -4.006   1.517  -3.960  0.00  0.00     0.055 A 
ATOM      6  C5  BZF d   1      -2.991   1.884  -3.134  0.00  0.00    -0.016 A 
ATOM      7  C6  BZF d   1      -2.627   3.205  -2.973  0.00  0.00     0.022 A 
ATOM      8  C7  BZF d   1      -3.276   4.199  -3.627  0.00  0.00     0.029 A 
ATOM      9  C7A BZF d   1      -4.324   3.834  -4.436  0.00  0.00     0.058 A 
ENDROOT
TORSDOF 0
ENDMDL
