MODEL 1
REMARK minimizedAffinity 4.97212648
REMARK minimizedRMSD -1
REMARK  0 active torsions:
REMARK  status: ('A' for Active; 'I' for Inactive)
ROOT
ATOM      1  O1  BZF d   1       4.500   3.807  -4.592  0.00  0.00    -0.204 OA
ATOM      2  C2  BZF d   1       5.370   4.617  -5.298  0.00  0.00     0.174 A 
ATOM      3  C3  BZF d   1       4.694   5.548  -6.000  0.00  0.00    -0.012 A 
ATOM      4  C3A BZF d   1       3.320   5.365  -5.643  0.00  0.00    -0.107 A 
ATOM      5  C4  BZF d   1       2.165   5.999  -6.000  0.00  0.00     0.055 A 
ATOM      6  C5  BZF d   1       0.980   5.528  -5.529  0.00  0.00    -0.016 A 
ATOM      7  C6  BZF d   1       0.914   4.424  -4.705  0.00  0.00     0.022 A 
ATOM      8  C7  BZF d   1       2.034   3.765  -4.319  0.00  0.00     0.029 A 
ATOM      9  C7A BZF d   1       3.235   4.258  -4.767  0.00  0.00     0.058 A 
ENDROOT
TORSDOF 0
ENDMDL
