MODEL 1
REMARK minimizedAffinity 3.35390806
REMARK minimizedRMSD -1
REMARK  0 active torsions:
REMARK  status: ('A' for Active; 'I' for Inactive)
ROOT
ATOM      1  C4' PXY d   1       2.634   1.139  -6.000  0.00  0.00     0.077 C 
ATOM      2  C1' PXY d   1       5.998   3.490  -1.929  0.00  0.00     0.077 C 
ATOM      3  C1  PXY d   1       5.126   2.873  -3.005  0.00  0.00    -0.082 A 
ATOM      4  C2  PXY d   1       3.825   3.112  -3.009  0.00  0.00     0.003 A 
ATOM      5  C3  PXY d   1       3.017   2.536  -3.956  0.00  0.00     0.003 A 
ATOM      6  C4  PXY d   1       3.554   1.749  -4.939  0.00  0.00    -0.082 A 
ATOM      7  C5  PXY d   1       4.883   1.508  -4.947  0.00  0.00     0.003 A 
ATOM      8  C6  PXY d   1       5.680   2.069  -3.953  0.00  0.00     0.003 A 
ENDROOT
TORSDOF 0
ENDMDL
