MODEL 1
REMARK minimizedAffinity -0.142288581
REMARK minimizedRMSD -1
REMARK  0 active torsions:
REMARK  status: ('A' for Active; 'I' for Inactive)
ROOT
ATOM      1  C4' PXY d   1      -3.285   5.968  -5.996  0.00  0.00     0.077 C 
ATOM      2  C1' PXY d   1       0.941   2.025  -5.950  0.00  0.00     0.077 C 
ATOM      3  C1  PXY d   1      -0.175   3.050  -5.967  0.00  0.00    -0.082 A 
ATOM      4  C2  PXY d   1       0.121   4.339  -5.994  0.00  0.00     0.003 A 
ATOM      5  C3  PXY d   1      -0.876   5.281  -5.977  0.00  0.00     0.003 A 
ATOM      6  C4  PXY d   1      -2.191   4.898  -5.987  0.00  0.00    -0.082 A 
ATOM      7  C5  PXY d   1      -2.501   3.584  -5.971  0.00  0.00     0.003 A 
ATOM      8  C6  PXY d   1      -1.474   2.645  -5.946  0.00  0.00     0.003 A 
ENDROOT
TORSDOF 0
ENDMDL
