MODEL 1
REMARK minimizedAffinity -3.62969685
REMARK minimizedRMSD -1
REMARK  0 active torsions:
REMARK  status: ('A' for Active; 'I' for Inactive)
ROOT
ATOM      1  C4' PXY d   1      -3.028   3.119  -5.986  0.00  0.00     0.077 C 
ATOM      2  C1' PXY d   1       2.505   4.794  -5.990  0.00  0.00     0.077 C 
ATOM      3  C1  PXY d   1       1.057   4.344  -5.994  0.00  0.00    -0.082 A 
ATOM      4  C2  PXY d   1       0.091   5.247  -6.000  0.00  0.00     0.003 A 
ATOM      5  C3  PXY d   1      -1.223   4.857  -5.971  0.00  0.00     0.003 A 
ATOM      6  C4  PXY d   1      -1.552   3.529  -5.991  0.00  0.00    -0.082 A 
ATOM      7  C5  PXY d   1      -0.572   2.600  -5.995  0.00  0.00     0.003 A 
ATOM      8  C6  PXY d   1       0.756   3.017  -5.983  0.00  0.00     0.003 A 
ENDROOT
TORSDOF 0
ENDMDL
