MODEL 1
REMARK minimizedAffinity -1.99590373
REMARK minimizedRMSD -1
REMARK  0 active torsions:
REMARK  status: ('A' for Active; 'I' for Inactive)
ROOT
ATOM      1  C4' PXY d   1       2.491   4.236  -6.000  0.00  0.00     0.077 C 
ATOM      2  C1' PXY d   1      -3.155   2.996  -5.979  0.00  0.00     0.077 C 
ATOM      3  C1  PXY d   1      -1.672   3.310  -5.979  0.00  0.00    -0.082 A 
ATOM      4  C2  PXY d   1      -1.269   4.570  -5.967  0.00  0.00     0.003 A 
ATOM      5  C3  PXY d   1       0.068   4.872  -6.000  0.00  0.00     0.003 A 
ATOM      6  C4  PXY d   1       1.004   3.873  -5.990  0.00  0.00    -0.082 A 
ATOM      7  C5  PXY d   1       0.602   2.584  -5.991  0.00  0.00     0.003 A 
ATOM      8  C6  PXY d   1      -0.761   2.299  -6.000  0.00  0.00     0.003 A 
ENDROOT
TORSDOF 0
ENDMDL
