MODEL 1
REMARK minimizedAffinity -1.950279
REMARK minimizedRMSD -1
REMARK  0 active torsions:
REMARK  status: ('A' for Active; 'I' for Inactive)
ROOT
ATOM      1  C4' PXY d   1       0.768   4.845  -5.984  0.00  0.00     0.077 C 
ATOM      2  C1' PXY d   1      -4.989   4.319  -5.992  0.00  0.00     0.077 C 
ATOM      3  C1  PXY d   1      -3.478   4.445  -5.985  0.00  0.00    -0.082 A 
ATOM      4  C2  PXY d   1      -2.922   5.646  -5.974  0.00  0.00     0.003 A 
ATOM      5  C3  PXY d   1      -1.557   5.778  -6.000  0.00  0.00     0.003 A 
ATOM      6  C4  PXY d   1      -0.753   4.670  -5.982  0.00  0.00    -0.082 A 
ATOM      7  C5  PXY d   1      -1.313   3.442  -5.982  0.00  0.00     0.003 A 
ATOM      8  C6  PXY d   1      -2.700   3.329  -5.998  0.00  0.00     0.003 A 
ENDROOT
TORSDOF 0
ENDMDL
