MODEL 1
REMARK minimizedAffinity -2.52949023
REMARK minimizedRMSD -1
REMARK  0 active torsions:
REMARK  status: ('A' for Active; 'I' for Inactive)
ROOT
ATOM      1  C4' PXY d   1      -3.578   5.931  -5.999  0.00  0.00     0.077 C 
ATOM      2  C1' PXY d   1       1.135   2.585  -5.955  0.00  0.00     0.077 C 
ATOM      3  C1  PXY d   1      -0.094   3.472  -5.962  0.00  0.00    -0.082 A 
ATOM      4  C2  PXY d   1      -1.298   2.923  -5.940  0.00  0.00     0.003 A 
ATOM      5  C3  PXY d   1      -2.420   3.710  -5.977  0.00  0.00     0.003 A 
ATOM      6  C4  PXY d   1      -2.309   5.075  -5.984  0.00  0.00    -0.082 A 
ATOM      7  C5  PXY d   1      -1.085   5.643  -5.996  0.00  0.00     0.003 A 
ATOM      8  C6  PXY d   1       0.042   4.826  -5.999  0.00  0.00     0.003 A 
ENDROOT
TORSDOF 0
ENDMDL
