MODEL 1
REMARK minimizedAffinity -3.3466177
REMARK minimizedRMSD -1
REMARK  0 active torsions:
REMARK  status: ('A' for Active; 'I' for Inactive)
ROOT
ATOM      1  C4' PXY d   1       1.789   4.035  -5.977  0.00  0.00     0.077 C 
ATOM      2  C1' PXY d   1      -3.991   3.953  -5.995  0.00  0.00     0.077 C 
ATOM      3  C1  PXY d   1      -2.475   3.986  -5.996  0.00  0.00    -0.082 A 
ATOM      4  C2  PXY d   1      -1.796   2.851  -5.995  0.00  0.00     0.003 A 
ATOM      5  C3  PXY d   1      -0.425   2.863  -5.963  0.00  0.00     0.003 A 
ATOM      6  C4  PXY d   1       0.258   4.049  -5.986  0.00  0.00    -0.082 A 
ATOM      7  C5  PXY d   1      -0.428   5.212  -5.998  0.00  0.00     0.003 A 
ATOM      8  C6  PXY d   1      -1.819   5.178  -5.988  0.00  0.00     0.003 A 
ENDROOT
TORSDOF 0
ENDMDL
