MODEL 1
REMARK minimizedAffinity -2.39053392
REMARK minimizedRMSD -1
REMARK  0 active torsions:
REMARK  status: ('A' for Active; 'I' for Inactive)
ROOT
ATOM      1  C4' PXY d   1       0.177   3.314  -5.983  0.00  0.00     0.077 C 
ATOM      2  C1' PXY d   1      -4.995   5.896  -5.960  0.00  0.00     0.077 C 
ATOM      3  C1  PXY d   1      -3.634   5.230  -5.971  0.00  0.00    -0.082 A 
ATOM      4  C2  PXY d   1      -3.552   3.909  -5.993  0.00  0.00     0.003 A 
ATOM      5  C3  PXY d   1      -2.329   3.290  -5.971  0.00  0.00     0.003 A 
ATOM      6  C4  PXY d   1      -1.177   4.030  -5.981  0.00  0.00    -0.082 A 
ATOM      7  C5  PXY d   1      -1.252   5.378  -5.969  0.00  0.00     0.003 A 
ATOM      8  C6  PXY d   1      -2.503   5.987  -5.950  0.00  0.00     0.003 A 
ENDROOT
TORSDOF 0
ENDMDL
