MODEL 1
REMARK minimizedAffinity 0.765014708
REMARK minimizedRMSD -1
REMARK  0 active torsions:
REMARK  status: ('A' for Active; 'I' for Inactive)
ROOT
ATOM      1  C4' PXY d   1      -4.379   3.284  -5.974  0.00  0.00     0.077 C 
ATOM      2  C1' PXY d   1       1.323   4.236  -5.997  0.00  0.00     0.077 C 
ATOM      3  C1  PXY d   1      -0.170   3.975  -5.996  0.00  0.00    -0.082 A 
ATOM      4  C2  PXY d   1      -1.013   4.995  -5.993  0.00  0.00     0.003 A 
ATOM      5  C3  PXY d   1      -2.366   4.776  -5.960  0.00  0.00     0.003 A 
ATOM      6  C4  PXY d   1      -2.863   3.501  -5.984  0.00  0.00    -0.082 A 
ATOM      7  C5  PXY d   1      -2.010   2.455  -5.998  0.00  0.00     0.003 A 
ATOM      8  C6  PXY d   1      -0.639   2.697  -5.990  0.00  0.00     0.003 A 
ENDROOT
TORSDOF 0
ENDMDL
