MODEL 1
REMARK minimizedAffinity -0.763549387
REMARK minimizedRMSD -1
REMARK  0 active torsions:
REMARK  status: ('A' for Active; 'I' for Inactive)
ROOT
ATOM      1  C4' PXY d   1       1.245   1.943  -5.989  0.00  0.00     0.077 C 
ATOM      2  C1' PXY d   1      -2.902   5.970  -5.985  0.00  0.00     0.077 C 
ATOM      3  C1  PXY d   1      -1.823   4.905  -5.981  0.00  0.00    -0.082 A 
ATOM      4  C2  PXY d   1      -0.550   5.265  -5.968  0.00  0.00     0.003 A 
ATOM      5  C3  PXY d   1       0.439   4.316  -5.997  0.00  0.00     0.003 A 
ATOM      6  C4  PXY d   1       0.122   2.984  -5.985  0.00  0.00    -0.082 A 
ATOM      7  C5  PXY d   1      -1.175   2.609  -5.987  0.00  0.00     0.003 A 
ATOM      8  C6  PXY d   1      -2.164   3.588  -6.000  0.00  0.00     0.003 A 
ENDROOT
TORSDOF 0
ENDMDL
