MODEL 1
REMARK minimizedAffinity -1.84628534
REMARK minimizedRMSD -1
REMARK  0 active torsions:
REMARK  status: ('A' for Active; 'I' for Inactive)
ROOT
ATOM      1  C4' PXY d   1       1.008   1.796  -5.977  0.00  0.00     0.077 C 
ATOM      2  C1' PXY d   1      -2.960   6.000  -5.993  0.00  0.00     0.077 C 
ATOM      3  C1  PXY d   1      -1.928   4.889  -5.983  0.00  0.00    -0.082 A 
ATOM      4  C2  PXY d   1      -0.640   5.193  -5.974  0.00  0.00     0.003 A 
ATOM      5  C3  PXY d   1       0.306   4.201  -5.998  0.00  0.00     0.003 A 
ATOM      6  C4  PXY d   1      -0.069   2.884  -5.977  0.00  0.00    -0.082 A 
ATOM      7  C5  PXY d   1      -1.381   2.566  -5.976  0.00  0.00     0.003 A 
ATOM      8  C6  PXY d   1      -2.326   3.588  -5.993  0.00  0.00     0.003 A 
ENDROOT
TORSDOF 0
ENDMDL
