MODEL 1
REMARK minimizedAffinity -1.29680181
REMARK minimizedRMSD -1
REMARK  0 active torsions:
REMARK  status: ('A' for Active; 'I' for Inactive)
ROOT
ATOM      1  C4' PXY d   1       0.283   4.518  -5.940  0.00  0.00     0.077 C 
ATOM      2  C1' PXY d   1      -5.382   3.368  -5.999  0.00  0.00     0.077 C 
ATOM      3  C1  PXY d   1      -3.899   3.681  -5.989  0.00  0.00    -0.082 A 
ATOM      4  C2  PXY d   1      -3.021   2.691  -5.993  0.00  0.00     0.003 A 
ATOM      5  C3  PXY d   1      -1.676   2.956  -5.952  0.00  0.00     0.003 A 
ATOM      6  C4  PXY d   1      -1.224   4.248  -5.960  0.00  0.00    -0.082 A 
ATOM      7  C5  PXY d   1      -2.113   5.264  -5.966  0.00  0.00     0.003 A 
ATOM      8  C6  PXY d   1      -3.475   4.974  -5.966  0.00  0.00     0.003 A 
ENDROOT
TORSDOF 0
ENDMDL
