MODEL 1
REMARK minimizedAffinity 3.1571188
REMARK minimizedRMSD -1
REMARK  0 active torsions:
REMARK  status: ('A' for Active; 'I' for Inactive)
ROOT
ATOM      1  C4' PXY d   1      -3.377   5.791  -5.978  0.00  0.00     0.077 C 
ATOM      2  C1' PXY d   1       1.165   2.215  -5.997  0.00  0.00     0.077 C 
ATOM      3  C1  PXY d   1      -0.034   3.144  -5.997  0.00  0.00    -0.082 A 
ATOM      4  C2  PXY d   1       0.153   4.453  -5.998  0.00  0.00     0.003 A 
ATOM      5  C3  PXY d   1      -0.919   5.307  -5.966  0.00  0.00     0.003 A 
ATOM      6  C4  PXY d   1      -2.197   4.816  -5.987  0.00  0.00    -0.082 A 
ATOM      7  C5  PXY d   1      -2.396   3.481  -5.997  0.00  0.00     0.003 A 
ATOM      8  C6  PXY d   1      -1.294   2.631  -5.988  0.00  0.00     0.003 A 
ENDROOT
TORSDOF 0
ENDMDL
