MODEL 1
REMARK minimizedAffinity -3.49344993
REMARK minimizedRMSD -1
REMARK  0 active torsions:
REMARK  status: ('A' for Active; 'I' for Inactive)
ROOT
ATOM      1  C4' PXY d   1      -4.117   5.668  -5.977  0.00  0.00     0.077 C 
ATOM      2  C1' PXY d   1       0.545   2.249  -5.996  0.00  0.00     0.077 C 
ATOM      3  C1  PXY d   1      -0.671   3.155  -5.986  0.00  0.00    -0.082 A 
ATOM      4  C2  PXY d   1      -1.882   2.624  -5.973  0.00  0.00     0.003 A 
ATOM      5  C3  PXY d   1      -2.993   3.429  -5.996  0.00  0.00     0.003 A 
ATOM      6  C4  PXY d   1      -2.861   4.792  -5.978  0.00  0.00    -0.082 A 
ATOM      7  C5  PXY d   1      -1.628   5.341  -5.981  0.00  0.00     0.003 A 
ATOM      8  C6  PXY d   1      -0.514   4.507  -5.999  0.00  0.00     0.003 A 
ENDROOT
TORSDOF 0
ENDMDL
