MODEL 1
REMARK minimizedAffinity -2.61487579
REMARK minimizedRMSD -1
REMARK  0 active torsions:
REMARK  status: ('A' for Active; 'I' for Inactive)
ROOT
ATOM      1  C4' PXY d   1      -4.207   5.995  -5.987  0.00  0.00     0.077 C 
ATOM      2  C1' PXY d   1       0.461   2.585  -5.990  0.00  0.00     0.077 C 
ATOM      3  C1  PXY d   1      -0.756   3.489  -5.984  0.00  0.00    -0.082 A 
ATOM      4  C2  PXY d   1      -1.967   2.955  -5.973  0.00  0.00     0.003 A 
ATOM      5  C3  PXY d   1      -3.079   3.758  -6.000  0.00  0.00     0.003 A 
ATOM      6  C4  PXY d   1      -2.950   5.121  -5.984  0.00  0.00    -0.082 A 
ATOM      7  C5  PXY d   1      -1.718   5.673  -5.985  0.00  0.00     0.003 A 
ATOM      8  C6  PXY d   1      -0.602   4.841  -5.999  0.00  0.00     0.003 A 
ENDROOT
TORSDOF 0
ENDMDL
