MODEL 1
REMARK minimizedAffinity -2.36906409
REMARK minimizedRMSD -1
REMARK  0 active torsions:
REMARK  status: ('A' for Active; 'I' for Inactive)
ROOT
ATOM      1  C4' PXY d   1       1.464   4.804  -5.973  0.00  0.00     0.077 C 
ATOM      2  C1' PXY d   1      -4.277   4.125  -5.998  0.00  0.00     0.077 C 
ATOM      3  C1  PXY d   1      -2.770   4.291  -5.986  0.00  0.00    -0.082 A 
ATOM      4  C2  PXY d   1      -2.246   5.506  -5.974  0.00  0.00     0.003 A 
ATOM      5  C3  PXY d   1      -0.885   5.675  -5.996  0.00  0.00     0.003 A 
ATOM      6  C4  PXY d   1      -0.052   4.589  -5.976  0.00  0.00    -0.082 A 
ATOM      7  C5  PXY d   1      -0.579   3.346  -5.977  0.00  0.00     0.003 A 
ATOM      8  C6  PXY d   1      -1.963   3.196  -5.997  0.00  0.00     0.003 A 
ENDROOT
TORSDOF 0
ENDMDL
