MODEL 1
REMARK minimizedAffinity 1.60611844
REMARK minimizedRMSD -1
REMARK  0 active torsions:
REMARK  status: ('A' for Active; 'I' for Inactive)
ROOT
ATOM      1  C4' PXY d   1      -3.418   6.000  -5.991  0.00  0.00     0.077 C 
ATOM      2  C1' PXY d   1       1.332   2.705  -5.980  0.00  0.00     0.077 C 
ATOM      3  C1  PXY d   1       0.079   3.559  -5.988  0.00  0.00    -0.082 A 
ATOM      4  C2  PXY d   1       0.187   4.878  -5.999  0.00  0.00     0.003 A 
ATOM      5  C3  PXY d   1      -0.935   5.666  -5.974  0.00  0.00     0.003 A 
ATOM      6  C4  PXY d   1      -2.181   5.098  -5.992  0.00  0.00    -0.082 A 
ATOM      7  C5  PXY d   1      -2.299   3.753  -5.991  0.00  0.00     0.003 A 
ATOM      8  C6  PXY d   1      -1.147   2.971  -5.975  0.00  0.00     0.003 A 
ENDROOT
TORSDOF 0
ENDMDL
