MODEL 1
REMARK minimizedAffinity -2.3733418
REMARK minimizedRMSD -1
REMARK  0 active torsions:
REMARK  status: ('A' for Active; 'I' for Inactive)
ROOT
ATOM      1  C4' PXY d   1       0.370   4.728  -5.979  0.00  0.00     0.077 C 
ATOM      2  C1' PXY d   1      -5.342   3.840  -5.999  0.00  0.00     0.077 C 
ATOM      3  C1  PXY d   1      -3.845   4.085  -5.999  0.00  0.00    -0.082 A 
ATOM      4  C2  PXY d   1      -3.014   3.055  -6.000  0.00  0.00     0.003 A 
ATOM      5  C3  PXY d   1      -1.659   3.258  -5.968  0.00  0.00     0.003 A 
ATOM      6  C4  PXY d   1      -1.148   4.528  -5.989  0.00  0.00    -0.082 A 
ATOM      7  C5  PXY d   1      -1.989   5.584  -5.999  0.00  0.00     0.003 A 
ATOM      8  C6  PXY d   1      -3.362   5.357  -5.990  0.00  0.00     0.003 A 
ENDROOT
TORSDOF 0
ENDMDL
