MODEL 1
REMARK minimizedAffinity -2.80124927
REMARK minimizedRMSD -1
REMARK  0 active torsions:
REMARK  status: ('A' for Active; 'I' for Inactive)
ROOT
ATOM      1  C4' PXY d   1      -3.001   3.019  -5.973  0.00  0.00     0.077 C 
ATOM      2  C1' PXY d   1       2.485   4.840  -5.999  0.00  0.00     0.077 C 
ATOM      3  C1  PXY d   1       1.043   4.374  -5.987  0.00  0.00    -0.082 A 
ATOM      4  C2  PXY d   1       0.774   3.079  -5.974  0.00  0.00     0.003 A 
ATOM      5  C3  PXY d   1      -0.525   2.639  -5.995  0.00  0.00     0.003 A 
ATOM      6  C4  PXY d   1      -1.560   3.536  -5.976  0.00  0.00    -0.082 A 
ATOM      7  C5  PXY d   1      -1.294   4.859  -5.979  0.00  0.00     0.003 A 
ATOM      8  C6  PXY d   1       0.031   5.284  -5.999  0.00  0.00     0.003 A 
ENDROOT
TORSDOF 0
ENDMDL
