MODEL 1
REMARK minimizedAffinity -1.38191152
REMARK minimizedRMSD -1
REMARK  0 active torsions:
REMARK  status: ('A' for Active; 'I' for Inactive)
ROOT
ATOM      1  C4' PXY d   1       0.131   5.514  -6.000  0.00  0.00     0.077 C 
ATOM      2  C1' PXY d   1      -5.428   3.931  -5.948  0.00  0.00     0.077 C 
ATOM      3  C1  PXY d   1      -3.967   4.334  -5.956  0.00  0.00    -0.082 A 
ATOM      4  C2  PXY d   1      -3.642   5.617  -5.931  0.00  0.00     0.003 A 
ATOM      5  C3  PXY d   1      -2.326   6.000  -5.971  0.00  0.00     0.003 A 
ATOM      6  C4  PXY d   1      -1.331   5.060  -5.983  0.00  0.00    -0.082 A 
ATOM      7  C5  PXY d   1      -1.654   3.749  -5.998  0.00  0.00     0.003 A 
ATOM      8  C6  PXY d   1      -2.996   3.382  -5.999  0.00  0.00     0.003 A 
ENDROOT
TORSDOF 0
ENDMDL
