MODEL 1
REMARK minimizedAffinity -5.11282682
REMARK minimizedRMSD -1
REMARK  0 active torsions:
REMARK  status: ('A' for Active; 'I' for Inactive)
ROOT
ATOM      1  C   UNL d   1       0.531   1.413  -3.918  0.00  0.00     0.020 A 
ATOM      2  C1  UNL d   1       1.393   0.631  -3.151  0.00  0.00     0.020 A 
ATOM      3  C2  UNL d   1       1.141  -0.733  -2.990  0.00  0.00     0.034 A 
ATOM      4  C3  UNL d   1       0.023  -1.319  -3.597  0.00  0.00     0.017 A 
ATOM      5  C4  UNL d   1      -0.841  -0.532  -4.367  0.00  0.00     0.017 A 
ATOM      6  C5  UNL d   1      -0.583   0.833  -4.525  0.00  0.00     0.034 A 
ATOM      7 Cl   UNL d   1      -2.240  -1.183  -5.146  0.00  0.00    -0.070 Cl
ATOM      8 Cl1  UNL d   1      -0.227  -3.011  -3.356  0.00  0.00    -0.070 Cl
ENDROOT
TORSDOF 0
ENDMDL
