MODEL 1
REMARK minimizedAffinity -5.67459011
REMARK minimizedRMSD -1
REMARK  0 active torsions:
REMARK  status: ('A' for Active; 'I' for Inactive)
ROOT
ATOM      1  C   UNL d   1      -0.303   1.506   2.458  0.00  0.00     0.020 A 
ATOM      2  C1  UNL d   1       0.912   0.933   2.084  0.00  0.00     0.020 A 
ATOM      3  C2  UNL d   1       0.960   0.029   1.020  0.00  0.00     0.034 A 
ATOM      4  C3  UNL d   1      -0.210  -0.306   0.328  0.00  0.00     0.017 A 
ATOM      5  C4  UNL d   1      -1.429   0.269   0.705  0.00  0.00     0.017 A 
ATOM      6  C5  UNL d   1      -1.471   1.174   1.770  0.00  0.00     0.034 A 
ATOM      7 Cl   UNL d   1      -2.913  -0.095  -0.102  0.00  0.00    -0.070 Cl
ATOM      8 Cl1  UNL d   1      -0.077  -1.431  -0.976  0.00  0.00    -0.070 Cl
ENDROOT
TORSDOF 0
ENDMDL
