MODEL 1
REMARK minimizedAffinity -1.74117637
REMARK minimizedRMSD -1
REMARK  0 active torsions:
REMARK  status: ('A' for Active; 'I' for Inactive)
ROOT
ATOM      1  C   UNL d   1       0.504   1.064   2.099  0.00  0.00     0.020 A 
ATOM      2  C1  UNL d   1      -0.795   1.272   2.559  0.00  0.00     0.020 A 
ATOM      3  C2  UNL d   1      -1.883   0.981   1.733  0.00  0.00     0.034 A 
ATOM      4  C3  UNL d   1      -1.673   0.482   0.442  0.00  0.00     0.017 A 
ATOM      5  C4  UNL d   1      -0.368   0.274  -0.019  0.00  0.00     0.017 A 
ATOM      6  C5  UNL d   1       0.717   0.566   0.813  0.00  0.00     0.034 A 
ATOM      7 Cl   UNL d   1      -0.030  -0.340  -1.599  0.00  0.00    -0.070 Cl
ATOM      8 Cl1  UNL d   1      -3.065   0.144  -0.525  0.00  0.00    -0.070 Cl
ENDROOT
TORSDOF 0
ENDMDL
