MODEL 1
REMARK minimizedAffinity -4.31356764
REMARK minimizedRMSD -1
REMARK  0 active torsions:
REMARK  status: ('A' for Active; 'I' for Inactive)
ROOT
ATOM      1  C   UNL d   1       0.797   0.595   2.158  0.00  0.00     0.020 A 
ATOM      2  C1  UNL d   1      -0.503   0.795   2.623  0.00  0.00     0.020 A 
ATOM      3  C2  UNL d   1      -1.579   0.736   1.736  0.00  0.00     0.034 A 
ATOM      4  C3  UNL d   1      -1.358   0.477   0.378  0.00  0.00     0.017 A 
ATOM      5  C4  UNL d   1      -0.054   0.276  -0.088  0.00  0.00     0.017 A 
ATOM      6  C5  UNL d   1       1.020   0.335   0.806  0.00  0.00     0.034 A 
ATOM      7 Cl   UNL d   1       0.298  -0.050  -1.748  0.00  0.00    -0.070 Cl
ATOM      8 Cl1  UNL d   1      -2.736   0.418  -0.663  0.00  0.00    -0.070 Cl
ENDROOT
TORSDOF 0
ENDMDL
