MODEL 1
REMARK minimizedAffinity -0.888049364
REMARK minimizedRMSD -1
REMARK  0 active torsions:
REMARK  status: ('A' for Active; 'I' for Inactive)
ROOT
ATOM      1  C   UNL d   1       0.949   1.313   0.599  0.00  0.00     0.020 A 
ATOM      2  C1  UNL d   1       0.284   0.170   0.156  0.00  0.00     0.020 A 
ATOM      3  C2  UNL d   1      -0.614  -0.487   1.000  0.00  0.00     0.034 A 
ATOM      4  C3  UNL d   1      -0.849  -0.003   2.291  0.00  0.00     0.017 A 
ATOM      5  C4  UNL d   1      -0.182   1.145   2.736  0.00  0.00     0.017 A 
ATOM      6  C5  UNL d   1       0.716   1.799   1.886  0.00  0.00     0.034 A 
ATOM      7 Cl   UNL d   1      -0.421   1.803   4.316  0.00  0.00    -0.070 Cl
ATOM      8 Cl1  UNL d   1      -1.973  -0.865   3.281  0.00  0.00    -0.070 Cl
ENDROOT
TORSDOF 0
ENDMDL
