MODEL 1
REMARK minimizedAffinity -3.44354439
REMARK minimizedRMSD -1
REMARK  0 active torsions:
REMARK  status: ('A' for Active; 'I' for Inactive)
ROOT
ATOM      1  C   UNL d   1      -2.302   1.135   1.110  0.00  0.00     0.020 A 
ATOM      2  C1  UNL d   1      -1.649   1.644   2.232  0.00  0.00     0.020 A 
ATOM      3  C2  UNL d   1      -0.289   1.390   2.424  0.00  0.00     0.034 A 
ATOM      4  C3  UNL d   1       0.422   0.624   1.494  0.00  0.00     0.017 A 
ATOM      5  C4  UNL d   1      -0.234   0.113   0.368  0.00  0.00     0.017 A 
ATOM      6  C5  UNL d   1      -1.595   0.371   0.180  0.00  0.00     0.034 A 
ATOM      7 Cl   UNL d   1       0.577  -0.841  -0.824  0.00  0.00    -0.070 Cl
ATOM      8 Cl1  UNL d   1       2.101   0.349   1.795  0.00  0.00    -0.070 Cl
ENDROOT
TORSDOF 0
ENDMDL
