MODEL 1
REMARK minimizedAffinity -2.78354049
REMARK minimizedRMSD -1
REMARK  0 active torsions:
REMARK  status: ('A' for Active; 'I' for Inactive)
ROOT
ATOM      1  C   UNL d   1      -1.359   1.165   2.298  0.00  0.00     0.020 A 
ATOM      2  C1  UNL d   1      -2.019   0.702   1.160  0.00  0.00     0.020 A 
ATOM      3  C2  UNL d   1      -1.295   0.103   0.127  0.00  0.00     0.034 A 
ATOM      4  C3  UNL d   1       0.094  -0.035   0.230  0.00  0.00     0.017 A 
ATOM      5  C4  UNL d   1       0.756   0.430   1.373  0.00  0.00     0.017 A 
ATOM      6  C5  UNL d   1       0.026   1.029   2.404  0.00  0.00     0.034 A 
ATOM      7 Cl   UNL d   1       2.468   0.294   1.572  0.00  0.00    -0.070 Cl
ATOM      8 Cl1  UNL d   1       0.927  -0.786  -1.085  0.00  0.00    -0.070 Cl
ENDROOT
TORSDOF 0
ENDMDL
