MODEL 1
REMARK minimizedAffinity -5.61232901
REMARK minimizedRMSD -1
REMARK  0 active torsions:
REMARK  status: ('A' for Active; 'I' for Inactive)
ROOT
ATOM      1  C   UNL d   1       0.541   0.577   2.650  0.00  0.00     0.020 A 
ATOM      2  C1  UNL d   1      -0.731   1.011   3.021  0.00  0.00     0.020 A 
ATOM      3  C2  UNL d   1      -1.783   0.953   2.104  0.00  0.00     0.034 A 
ATOM      4  C3  UNL d   1      -1.565   0.461   0.812  0.00  0.00     0.017 A 
ATOM      5  C4  UNL d   1      -0.288   0.025   0.441  0.00  0.00     0.017 A 
ATOM      6  C5  UNL d   1       0.762   0.085   1.363  0.00  0.00     0.034 A 
ATOM      7 Cl   UNL d   1       0.059  -0.595  -1.134  0.00  0.00    -0.070 Cl
ATOM      8 Cl1  UNL d   1      -2.912   0.418  -0.269  0.00  0.00    -0.070 Cl
ENDROOT
TORSDOF 0
ENDMDL
