MODEL 1
REMARK minimizedAffinity -3.78119588
REMARK minimizedRMSD -1
REMARK  0 active torsions:
REMARK  status: ('A' for Active; 'I' for Inactive)
ROOT
ATOM      1  C   UNL d   1      -0.906   0.004   2.663  0.00  0.00     0.020 A 
ATOM      2  C1  UNL d   1      -1.732   0.508   1.659  0.00  0.00     0.020 A 
ATOM      3  C2  UNL d   1      -1.335   0.426   0.322  0.00  0.00     0.034 A 
ATOM      4  C3  UNL d   1      -0.109  -0.160  -0.014  0.00  0.00     0.017 A 
ATOM      5  C4  UNL d   1       0.719  -0.665   0.995  0.00  0.00     0.017 A 
ATOM      6  C5  UNL d   1       0.317  -0.581   2.332  0.00  0.00     0.034 A 
ATOM      7 Cl   UNL d   1       2.245  -1.403   0.659  0.00  0.00    -0.070 Cl
ATOM      8 Cl1  UNL d   1       0.318  -0.228  -1.687  0.00  0.00    -0.070 Cl
ENDROOT
TORSDOF 0
ENDMDL
