MODEL 1
REMARK minimizedAffinity -3.36105704
REMARK minimizedRMSD -1
REMARK  0 active torsions:
REMARK  status: ('A' for Active; 'I' for Inactive)
ROOT
ATOM      1  C   UNL d   1      -2.053   1.152   0.702  0.00  0.00     0.020 A 
ATOM      2  C1  UNL d   1      -1.526   1.386   1.971  0.00  0.00     0.020 A 
ATOM      3  C2  UNL d   1      -0.256   0.908   2.299  0.00  0.00     0.034 A 
ATOM      4  C3  UNL d   1       0.492   0.192   1.357  0.00  0.00     0.017 A 
ATOM      5  C4  UNL d   1      -0.038  -0.042   0.083  0.00  0.00     0.017 A 
ATOM      6  C5  UNL d   1      -1.310   0.439  -0.240  0.00  0.00     0.034 A 
ATOM      7 Cl   UNL d   1       0.826  -0.917  -1.133  0.00  0.00    -0.070 Cl
ATOM      8 Cl1  UNL d   1       2.056  -0.369   1.831  0.00  0.00    -0.070 Cl
ENDROOT
TORSDOF 0
ENDMDL
