MODEL 1
REMARK minimizedAffinity -2.03915954
REMARK minimizedRMSD -1
REMARK  0 active torsions:
REMARK  status: ('A' for Active; 'I' for Inactive)
ROOT
ATOM      1  C   UNL d   1      -0.214   2.545   1.582  0.00  0.00     0.020 A 
ATOM      2  C1  UNL d   1      -1.204   2.061   2.437  0.00  0.00     0.020 A 
ATOM      3  C2  UNL d   1      -1.729   0.782   2.244  0.00  0.00     0.034 A 
ATOM      4  C3  UNL d   1      -1.265  -0.019   1.195  0.00  0.00     0.017 A 
ATOM      5  C4  UNL d   1      -0.271   0.467   0.337  0.00  0.00     0.017 A 
ATOM      6  C5  UNL d   1       0.251   1.749   0.535  0.00  0.00     0.034 A 
ATOM      7 Cl   UNL d   1       0.353  -0.463  -0.980  0.00  0.00    -0.070 Cl
ATOM      8 Cl1  UNL d   1      -1.959  -1.591   1.016  0.00  0.00    -0.070 Cl
ENDROOT
TORSDOF 0
ENDMDL
