MODEL 1
REMARK minimizedAffinity 6.58394957
REMARK minimizedRMSD -1
REMARK  1 active torsions:
REMARK  status: ('A' for Active; 'I' for Inactive)
REMARK    1  A    between atoms: C1_2  and  C2_3 
ROOT
ATOM      1  C2  UNL d   1      -1.303  -2.501   2.721  0.00  0.00    -0.076 A 
ATOM      2  C3  UNL d   1      -0.420  -2.880   1.695  0.00  0.00     0.004 A 
ATOM      3  C4  UNL d   1       0.828  -2.275   1.563  0.00  0.00    -0.003 A 
ATOM      4  C5  UNL d   1       1.215  -1.281   2.456  0.00  0.00     0.000 A 
ATOM      5  C6  UNL d   1       0.359  -0.906   3.491  0.00  0.00     0.000 A 
ATOM      6  C7  UNL d   1      -0.896  -1.517   3.648  0.00  0.00    -0.073 A 
ATOM      7  C8  UNL d   1      -1.781  -1.069   4.778  0.00  0.00     0.078 C 
ENDROOT
BRANCH   1   8
ATOM      8  C1  UNL d   1      -2.655  -3.174   2.799  0.00  0.00     0.053 C 
ATOM      9  C   UNL d   1      -3.337  -3.268   1.443  0.00  0.00     0.018 C 
ENDBRANCH   1   8
TORSDOF 1
ENDMDL
