MODEL 1
REMARK minimizedAffinity 15.383564
REMARK minimizedRMSD -1
REMARK  1 active torsions:
REMARK  status: ('A' for Active; 'I' for Inactive)
REMARK    1  A    between atoms: C1_2  and  C2_3 
ROOT
ATOM      1  C2  UNL d   1       0.009  -2.993   1.888  0.00  0.00    -0.076 A 
ATOM      2  C3  UNL d   1      -1.313  -3.204   2.317  0.00  0.00     0.004 A 
ATOM      3  C4  UNL d   1      -2.117  -2.137   2.714  0.00  0.00    -0.003 A 
ATOM      4  C5  UNL d   1      -1.612  -0.841   2.688  0.00  0.00     0.000 A 
ATOM      5  C6  UNL d   1      -0.309  -0.612   2.248  0.00  0.00     0.000 A 
ATOM      6  C7  UNL d   1       0.510  -1.674   1.829  0.00  0.00    -0.073 A 
ATOM      7  C8  UNL d   1       1.909  -1.370   1.370  0.00  0.00     0.078 C 
ENDROOT
BRANCH   1   8
ATOM      8  C1  UNL d   1       0.843  -4.191   1.495  0.00  0.00     0.053 C 
ATOM      9  C   UNL d   1       0.666  -5.362   2.449  0.00  0.00     0.018 C 
ENDBRANCH   1   8
TORSDOF 1
ENDMDL
