MODEL 1
REMARK minimizedAffinity 11.3496208
REMARK minimizedRMSD -1
REMARK  1 active torsions:
REMARK  status: ('A' for Active; 'I' for Inactive)
REMARK    1  A    between atoms: C1_2  and  C2_3 
ROOT
ATOM      1  C2  UNL d   1      -4.038  -3.912   4.324  0.00  0.00    -0.076 A 
ATOM      2  C3  UNL d   1      -4.828  -3.309   5.318  0.00  0.00     0.004 A 
ATOM      3  C4  UNL d   1      -5.802  -4.037   6.000  0.00  0.00    -0.003 A 
ATOM      4  C5  UNL d   1      -6.000  -5.380   5.700  0.00  0.00     0.000 A 
ATOM      5  C6  UNL d   1      -5.213  -5.999   4.729  0.00  0.00     0.000 A 
ATOM      6  C7  UNL d   1      -4.216  -5.283   4.043  0.00  0.00    -0.073 A 
ATOM      7  C8  UNL d   1      -3.401  -5.999   3.002  0.00  0.00     0.078 C 
ENDROOT
BRANCH   1   8
ATOM      8  C1  UNL d   1      -3.016  -3.065   3.598  0.00  0.00     0.053 C 
ATOM      9  C   UNL d   1      -3.326  -2.920   2.116  0.00  0.00     0.018 C 
ENDBRANCH   1   8
TORSDOF 1
ENDMDL
