MODEL 1
REMARK minimizedAffinity 12.9647903
REMARK minimizedRMSD -1
REMARK  1 active torsions:
REMARK  status: ('A' for Active; 'I' for Inactive)
REMARK    1  A    between atoms: C1_2  and  C2_3 
ROOT
ATOM      1  C2  UNL d   1      -1.073  -1.716   2.470  0.00  0.00    -0.076 A 
ATOM      2  C3  UNL d   1      -0.794  -1.941   1.111  0.00  0.00     0.004 A 
ATOM      3  C4  UNL d   1       0.313  -1.355   0.499  0.00  0.00    -0.003 A 
ATOM      4  C5  UNL d   1       1.159  -0.534   1.237  0.00  0.00     0.000 A 
ATOM      5  C6  UNL d   1       0.907  -0.313   2.590  0.00  0.00     0.000 A 
ATOM      6  C7  UNL d   1      -0.195  -0.910   3.226  0.00  0.00    -0.073 A 
ATOM      7  C8  UNL d   1      -0.423  -0.633   4.687  0.00  0.00     0.078 C 
ENDROOT
BRANCH   1   8
ATOM      8  C1  UNL d   1      -2.303  -2.356   3.073  0.00  0.00     0.053 C 
ATOM      9  C   UNL d   1      -3.327  -2.754   2.021  0.00  0.00     0.018 C 
ENDBRANCH   1   8
TORSDOF 1
ENDMDL
