MODEL 1
REMARK minimizedAffinity 20.2391644
REMARK minimizedRMSD -1
REMARK  1 active torsions:
REMARK  status: ('A' for Active; 'I' for Inactive)
REMARK    1  A    between atoms: C1_2  and  C2_3 
ROOT
ATOM      1  C2  UNL d   1       1.426  -0.770   2.075  0.00  0.00    -0.076 A 
ATOM      2  C3  UNL d   1       0.556  -0.163   2.998  0.00  0.00     0.004 A 
ATOM      3  C4  UNL d   1      -0.709  -0.694   3.247  0.00  0.00    -0.003 A 
ATOM      4  C5  UNL d   1      -1.123  -1.840   2.579  0.00  0.00     0.000 A 
ATOM      5  C6  UNL d   1      -0.267  -2.465   1.673  0.00  0.00     0.000 A 
ATOM      6  C7  UNL d   1       1.018  -1.953   1.422  0.00  0.00    -0.073 A 
ATOM      7  C8  UNL d   1       1.898  -2.663   0.431  0.00  0.00     0.078 C 
ENDROOT
BRANCH   1   8
ATOM      8  C1  UNL d   1       2.775  -0.134   1.826  0.00  0.00     0.053 C 
ATOM      9  C   UNL d   1       2.677   1.129   0.984  0.00  0.00     0.018 C 
ENDBRANCH   1   8
TORSDOF 1
ENDMDL
