MODEL 1
REMARK minimizedAffinity 15.5648346
REMARK minimizedRMSD -1
REMARK  1 active torsions:
REMARK  status: ('A' for Active; 'I' for Inactive)
REMARK    1  A    between atoms: C1_2  and  C2_3 
ROOT
ATOM      1  C2  UNL d   1       0.769  -3.977   2.022  0.00  0.00    -0.076 A 
ATOM      2  C3  UNL d   1      -0.038  -3.507   3.072  0.00  0.00     0.004 A 
ATOM      3  C4  UNL d   1      -0.506  -2.194   3.085  0.00  0.00    -0.003 A 
ATOM      4  C5  UNL d   1      -0.175  -1.330   2.048  0.00  0.00     0.000 A 
ATOM      5  C6  UNL d   1       0.610  -1.784   0.989  0.00  0.00     0.000 A 
ATOM      6  C7  UNL d   1       1.077  -3.109   0.952  0.00  0.00    -0.073 A 
ATOM      7  C8  UNL d   1       1.925  -3.544  -0.211  0.00  0.00     0.078 C 
ENDROOT
BRANCH   1   8
ATOM      8  C1  UNL d   1       1.270  -5.403   2.076  0.00  0.00     0.053 C 
ATOM      9  C   UNL d   1       1.225  -5.984   3.480  0.00  0.00     0.018 C 
ENDBRANCH   1   8
TORSDOF 1
ENDMDL
