MODEL 1
REMARK minimizedAffinity 14.2880354
REMARK minimizedRMSD -1
REMARK  1 active torsions:
REMARK  status: ('A' for Active; 'I' for Inactive)
REMARK    1  A    between atoms: C1_2  and  C2_3 
ROOT
ATOM      1  C2  UNL d   1      -1.616  -2.389   1.827  0.00  0.00    -0.076 A 
ATOM      2  C3  UNL d   1      -1.231  -2.340   0.476  0.00  0.00     0.004 A 
ATOM      3  C4  UNL d   1      -2.062  -2.839  -0.525  0.00  0.00    -0.003 A 
ATOM      4  C5  UNL d   1      -3.293  -3.394  -0.192  0.00  0.00     0.000 A 
ATOM      5  C6  UNL d   1      -3.699  -3.435   1.141  0.00  0.00     0.000 A 
ATOM      6  C7  UNL d   1      -2.880  -2.922   2.162  0.00  0.00    -0.073 A 
ATOM      7  C8  UNL d   1      -3.365  -2.997   3.584  0.00  0.00     0.078 C 
ENDROOT
BRANCH   1   8
ATOM      8  C1  UNL d   1      -0.662  -1.857   2.872  0.00  0.00     0.053 C 
ATOM      9  C   UNL d   1       0.684  -1.463   2.285  0.00  0.00     0.018 C 
ENDBRANCH   1   8
TORSDOF 1
ENDMDL
