MODEL 1
REMARK minimizedAffinity 12.8668642
REMARK minimizedRMSD -1
REMARK  1 active torsions:
REMARK  status: ('A' for Active; 'I' for Inactive)
REMARK    1  A    between atoms: C1_2  and  C2_3 
ROOT
ATOM      1  C2  UNL d   1      -3.045   3.593  -3.425  0.00  0.00    -0.076 A 
ATOM      2  C3  UNL d   1      -2.439   3.687  -4.690  0.00  0.00     0.004 A 
ATOM      3  C4  UNL d   1      -1.864   4.881  -5.123  0.00  0.00    -0.003 A 
ATOM      4  C5  UNL d   1      -1.885   5.999  -4.297  0.00  0.00     0.000 A 
ATOM      5  C6  UNL d   1      -2.466   5.919  -3.032  0.00  0.00     0.000 A 
ATOM      6  C7  UNL d   1      -3.036   4.718  -2.574  0.00  0.00    -0.073 A 
ATOM      7  C8  UNL d   1      -3.655   4.690  -1.204  0.00  0.00     0.078 C 
ENDROOT
BRANCH   1   8
ATOM      8  C1  UNL d   1      -3.677   2.280  -3.021  0.00  0.00     0.053 C 
ATOM      9  C   UNL d   1      -5.141   2.189  -3.423  0.00  0.00     0.018 C 
ENDBRANCH   1   8
TORSDOF 1
ENDMDL
