MODEL 1
REMARK minimizedAffinity 17.8565865
REMARK minimizedRMSD -1
REMARK  1 active torsions:
REMARK  status: ('A' for Active; 'I' for Inactive)
REMARK    1  A    between atoms: C1_2  and  C2_3 
ROOT
ATOM      1  C2  UNL d   1      -1.664   3.812  -3.754  0.00  0.00    -0.076 A 
ATOM      2  C3  UNL d   1      -1.216   3.777  -5.086  0.00  0.00     0.004 A 
ATOM      3  C4  UNL d   1      -1.477   4.833  -5.958  0.00  0.00    -0.003 A 
ATOM      4  C5  UNL d   1      -2.190   5.940  -5.513  0.00  0.00     0.000 A 
ATOM      5  C6  UNL d   1      -2.626   6.000  -4.189  0.00  0.00     0.000 A 
ATOM      6  C7  UNL d   1      -2.357   4.952  -3.292  0.00  0.00    -0.073 A 
ATOM      7  C8  UNL d   1      -2.857   5.066  -1.878  0.00  0.00     0.078 C 
ENDROOT
BRANCH   1   8
ATOM      8  C1  UNL d   1      -1.374   2.627  -2.861  0.00  0.00     0.053 C 
ATOM      9  C   UNL d   1       0.007   2.696  -2.230  0.00  0.00     0.018 C 
ENDBRANCH   1   8
TORSDOF 1
ENDMDL
