MODEL 1
REMARK minimizedAffinity -5.32877493
REMARK minimizedRMSD -1
REMARK  1 active torsions:
REMARK  status: ('A' for Active; 'I' for Inactive)
REMARK    1  A    between atoms: C1_2  and  C2_3 
ROOT
ATOM      1  C2  UNL d   1       0.925  -0.957   1.051  0.00  0.00    -0.076 A 
ATOM      2  C3  UNL d   1      -0.135  -0.244   0.466  0.00  0.00     0.004 A 
ATOM      3  C4  UNL d   1       0.019   1.087   0.084  0.00  0.00    -0.003 A 
ATOM      4  C5  UNL d   1       1.238   1.728   0.281  0.00  0.00     0.000 A 
ATOM      5  C6  UNL d   1       2.306   1.031   0.844  0.00  0.00     0.000 A 
ATOM      6  C7  UNL d   1       2.172  -0.317   1.220  0.00  0.00    -0.073 A 
ATOM      7  C8  UNL d   1       3.355  -1.018   1.828  0.00  0.00     0.078 C 
ENDROOT
BRANCH   1   8
ATOM      8  C1  UNL d   1       0.691  -2.391   1.470  0.00  0.00     0.053 C 
ATOM      9  C   UNL d   1      -0.788  -2.732   1.576  0.00  0.00     0.018 C 
ENDBRANCH   1   8
TORSDOF 1
ENDMDL
