MODEL 1
REMARK minimizedAffinity 0.720428884
REMARK minimizedRMSD -1
REMARK  1 active torsions:
REMARK  status: ('A' for Active; 'I' for Inactive)
REMARK    1  A    between atoms: C1_2  and  C2_3 
ROOT
ATOM      1  C2  UNL d   1       1.722  -0.660   2.455  0.00  0.00    -0.076 A 
ATOM      2  C3  UNL d   1       2.597   0.312   2.970  0.00  0.00     0.004 A 
ATOM      3  C4  UNL d   1       2.833   1.501   2.283  0.00  0.00    -0.003 A 
ATOM      4  C5  UNL d   1       2.197   1.738   1.069  0.00  0.00     0.000 A 
ATOM      5  C6  UNL d   1       1.312   0.793   0.552  0.00  0.00     0.000 A 
ATOM      6  C7  UNL d   1       1.050  -0.404   1.241  0.00  0.00    -0.073 A 
ATOM      7  C8  UNL d   1       0.091  -1.392   0.634  0.00  0.00     0.078 C 
ENDROOT
BRANCH   1   8
ATOM      8  C1  UNL d   1       1.526  -1.943   3.232  0.00  0.00     0.053 C 
ATOM      9  C   UNL d   1       2.796  -2.397   3.935  0.00  0.00     0.018 C 
ENDBRANCH   1   8
TORSDOF 1
ENDMDL
