MODEL 1
REMARK minimizedAffinity 9.09681702
REMARK minimizedRMSD -1
REMARK  1 active torsions:
REMARK  status: ('A' for Active; 'I' for Inactive)
REMARK    1  A    between atoms: C1_2  and  C2_3 
ROOT
ATOM      1  C2  UNL d   1       2.001   0.939   1.831  0.00  0.00    -0.076 A 
ATOM      2  C3  UNL d   1       2.053   2.335   1.674  0.00  0.00     0.004 A 
ATOM      3  C4  UNL d   1       2.511   3.156   2.703  0.00  0.00    -0.003 A 
ATOM      4  C5  UNL d   1       2.926   2.595   3.905  0.00  0.00     0.000 A 
ATOM      5  C6  UNL d   1       2.898   1.211   4.072  0.00  0.00     0.000 A 
ATOM      6  C7  UNL d   1       2.454   0.367   3.040  0.00  0.00    -0.073 A 
ATOM      7  C8  UNL d   1       2.439  -1.118   3.277  0.00  0.00     0.078 C 
ENDROOT
BRANCH   1   8
ATOM      8  C1  UNL d   1       1.469   0.101   0.691  0.00  0.00     0.053 C 
ATOM      9  C   UNL d   1       0.322   0.777  -0.044  0.00  0.00     0.018 C 
ENDBRANCH   1   8
TORSDOF 1
ENDMDL
