MODEL 1
REMARK minimizedAffinity 6.5916748
REMARK minimizedRMSD -1
REMARK  1 active torsions:
REMARK  status: ('A' for Active; 'I' for Inactive)
REMARK    1  A    between atoms: C1_2  and  C2_3 
ROOT
ATOM      1  C2  UNL d   1       1.598   0.303   1.812  0.00  0.00    -0.076 A 
ATOM      2  C3  UNL d   1       2.457   1.414   1.766  0.00  0.00     0.004 A 
ATOM      3  C4  UNL d   1       2.264   2.433   0.835  0.00  0.00    -0.003 A 
ATOM      4  C5  UNL d   1       1.206   2.358  -0.065  0.00  0.00     0.000 A 
ATOM      5  C6  UNL d   1       0.333   1.271  -0.022  0.00  0.00     0.000 A 
ATOM      6  C7  UNL d   1       0.505   0.243   0.921  0.00  0.00    -0.073 A 
ATOM      7  C8  UNL d   1      -0.463  -0.908   0.918  0.00  0.00     0.078 C 
ENDROOT
BRANCH   1   8
ATOM      8  C1  UNL d   1       1.873  -0.785   2.825  0.00  0.00     0.053 C 
ATOM      9  C   UNL d   1       2.728  -0.298   3.985  0.00  0.00     0.018 C 
ENDBRANCH   1   8
TORSDOF 1
ENDMDL
