MODEL 1
REMARK minimizedAffinity 13.1818552
REMARK minimizedRMSD -1
REMARK  1 active torsions:
REMARK  status: ('A' for Active; 'I' for Inactive)
REMARK    1  A    between atoms: C1_2  and  C2_3 
ROOT
ATOM      1  C2  UNL d   1       0.424  -2.447   0.308  0.00  0.00    -0.076 A 
ATOM      2  C3  UNL d   1       1.256  -3.345  -0.383  0.00  0.00     0.004 A 
ATOM      3  C4  UNL d   1       0.948  -3.757  -1.679  0.00  0.00    -0.003 A 
ATOM      4  C5  UNL d   1      -0.197  -3.276  -2.305  0.00  0.00     0.000 A 
ATOM      5  C6  UNL d   1      -1.024  -2.371  -1.641  0.00  0.00     0.000 A 
ATOM      6  C7  UNL d   1      -0.720  -1.933  -0.341  0.00  0.00    -0.073 A 
ATOM      7  C8  UNL d   1      -1.651  -0.961   0.330  0.00  0.00     0.078 C 
ENDROOT
BRANCH   1   8
ATOM      8  C1  UNL d   1       0.794  -2.057   1.721  0.00  0.00     0.053 C 
ATOM      9  C   UNL d   1       1.524  -0.725   1.786  0.00  0.00     0.018 C 
ENDBRANCH   1   8
TORSDOF 1
ENDMDL
