MODEL 1
REMARK minimizedAffinity 10.7632036
REMARK minimizedRMSD -1
REMARK  1 active torsions:
REMARK  status: ('A' for Active; 'I' for Inactive)
REMARK    1  A    between atoms: C1_2  and  C2_3 
ROOT
ATOM      1  C2  UNL d   1      -3.986   3.299  -0.494  0.00  0.00    -0.076 A 
ATOM      2  C3  UNL d   1      -3.377   2.732   0.639  0.00  0.00     0.004 A 
ATOM      3  C4  UNL d   1      -4.018   2.738   1.877  0.00  0.00    -0.003 A 
ATOM      4  C5  UNL d   1      -5.278   3.311   2.002  0.00  0.00     0.000 A 
ATOM      5  C6  UNL d   1      -5.905   3.863   0.885  0.00  0.00     0.000 A 
ATOM      6  C7  UNL d   1      -5.280   3.851  -0.374  0.00  0.00    -0.073 A 
ATOM      7  C8  UNL d   1      -5.999   4.465  -1.543  0.00  0.00     0.078 C 
ENDROOT
BRANCH   1   8
ATOM      8  C1  UNL d   1      -3.232   3.287  -1.804  0.00  0.00     0.053 C 
ATOM      9  C   UNL d   1      -3.707   2.186  -2.740  0.00  0.00     0.018 C 
ENDBRANCH   1   8
TORSDOF 1
ENDMDL
