MODEL 1
REMARK minimizedAffinity 3.29941106
REMARK minimizedRMSD -1
REMARK  1 active torsions:
REMARK  status: ('A' for Active; 'I' for Inactive)
REMARK    1  A    between atoms: C1_2  and  C2_3 
ROOT
ATOM      1  C2  UNL d   1       1.142   0.567   0.888  0.00  0.00    -0.076 A 
ATOM      2  C3  UNL d   1       0.565  -0.705   1.046  0.00  0.00     0.004 A 
ATOM      3  C4  UNL d   1      -0.736  -0.961   0.614  0.00  0.00    -0.003 A 
ATOM      4  C5  UNL d   1      -1.479   0.050   0.016  0.00  0.00     0.000 A 
ATOM      5  C6  UNL d   1      -0.916   1.313  -0.165  0.00  0.00     0.000 A 
ATOM      6  C7  UNL d   1       0.399   1.583   0.250  0.00  0.00    -0.073 A 
ATOM      7  C8  UNL d   1       0.955   2.965   0.036  0.00  0.00     0.078 C 
ENDROOT
BRANCH   1   8
ATOM      8  C1  UNL d   1       2.547   0.793   1.400  0.00  0.00     0.053 C 
ATOM      9  C   UNL d   1       2.732   0.303   2.828  0.00  0.00     0.018 C 
ENDBRANCH   1   8
TORSDOF 1
ENDMDL
