MODEL 1
REMARK minimizedAffinity 12.2662096
REMARK minimizedRMSD -1
REMARK  1 active torsions:
REMARK  status: ('A' for Active; 'I' for Inactive)
REMARK    1  A    between atoms: C1_2  and  C2_3 
ROOT
ATOM      1  C2  UNL d   1      -1.718  -2.435  -1.507  0.00  0.00    -0.076 A 
ATOM      2  C3  UNL d   1      -1.393  -1.835  -0.278  0.00  0.00     0.004 A 
ATOM      3  C4  UNL d   1      -0.277  -2.247   0.448  0.00  0.00    -0.003 A 
ATOM      4  C5  UNL d   1       0.532  -3.266  -0.042  0.00  0.00     0.000 A 
ATOM      5  C6  UNL d   1       0.234  -3.861  -1.268  0.00  0.00     0.000 A 
ATOM      6  C7  UNL d   1      -0.878  -3.446  -2.021  0.00  0.00    -0.073 A 
ATOM      7  C8  UNL d   1      -1.156  -4.126  -3.334  0.00  0.00     0.078 C 
ENDROOT
BRANCH   1   8
ATOM      8  C1  UNL d   1      -2.956  -1.965  -2.237  0.00  0.00     0.053 C 
ATOM      9  C   UNL d   1      -2.635  -0.987  -3.357  0.00  0.00     0.018 C 
ENDBRANCH   1   8
TORSDOF 1
ENDMDL
