MODEL 1
REMARK minimizedAffinity 1.80084407
REMARK minimizedRMSD -1
REMARK  1 active torsions:
REMARK  status: ('A' for Active; 'I' for Inactive)
REMARK    1  A    between atoms: C1_2  and  C2_3 
ROOT
ATOM      1  C2  UNL d   1       1.092  -0.971   1.347  0.00  0.00    -0.076 A 
ATOM      2  C3  UNL d   1       1.465   0.232   0.721  0.00  0.00     0.004 A 
ATOM      3  C4  UNL d   1       2.449   1.052   1.271  0.00  0.00    -0.003 A 
ATOM      4  C5  UNL d   1       3.077   0.682   2.455  0.00  0.00     0.000 A 
ATOM      5  C6  UNL d   1       2.732  -0.516   3.080  0.00  0.00     0.000 A 
ATOM      6  C7  UNL d   1       1.754  -1.362   2.531  0.00  0.00    -0.073 A 
ATOM      7  C8  UNL d   1       1.417  -2.639   3.250  0.00  0.00     0.078 C 
ENDROOT
BRANCH   1   8
ATOM      8  C1  UNL d   1      -0.000  -1.805   0.719  0.00  0.00     0.053 C 
ATOM      9  C   UNL d   1       0.544  -2.848  -0.246  0.00  0.00     0.018 C 
ENDBRANCH   1   8
TORSDOF 1
ENDMDL
