MODEL 1
REMARK minimizedAffinity 7.8283062
REMARK minimizedRMSD -1
REMARK  0 active torsions:
REMARK  status: ('A' for Active; 'I' for Inactive)
ROOT
ATOM      1  N1  IND d   1      -0.391   0.911   1.092  0.00  0.00    -0.196 N 
ATOM      2  C2  IND d   1       0.232   0.345   0.015  0.00  0.00     0.054 A 
ATOM      3  C3  IND d   1      -0.681  -0.158  -0.846  0.00  0.00    -0.031 A 
ATOM      4  C4  IND d   1      -3.252  -0.072  -0.738  0.00  0.00     0.051 A 
ATOM      5  C5  IND d   1      -4.284   0.310   0.073  0.00  0.00    -0.031 A 
ATOM      6  C6  IND d   1      -4.066   0.926   1.288  0.00  0.00     0.015 A 
ATOM      7  C7  IND d   1      -2.804   1.195   1.735  0.00  0.00    -0.016 A 
ATOM      8  C8  IND d   1      -1.753   0.803   0.917  0.00  0.00    -0.047 A 
ATOM      9  C9  IND d   1      -1.966   0.139  -0.298  0.00  0.00    -0.096 A 
ATOM     10  HN1 IND d   1       0.002   1.273   1.766  0.00  0.00     0.298 HD
ENDROOT
TORSDOF 0
ENDMDL
