MODEL 1
REMARK minimizedAffinity 0.825202703
REMARK minimizedRMSD -1
REMARK  0 active torsions:
REMARK  status: ('A' for Active; 'I' for Inactive)
ROOT
ATOM      1  N1  IND d   1       3.348   1.569  -0.063  0.00  0.00    -0.196 N 
ATOM      2  C2  IND d   1       4.431   1.298  -0.852  0.00  0.00     0.054 A 
ATOM      3  C3  IND d   1       4.441  -0.007  -1.205  0.00  0.00    -0.031 A 
ATOM      4  C4  IND d   1       2.728  -1.856  -0.684  0.00  0.00     0.051 A 
ATOM      5  C5  IND d   1       1.590  -2.099   0.034  0.00  0.00    -0.031 A 
ATOM      6  C6  IND d   1       0.966  -1.112   0.768  0.00  0.00     0.015 A 
ATOM      7  C7  IND d   1       1.453   0.165   0.804  0.00  0.00    -0.016 A 
ATOM      8  C8  IND d   1       2.612   0.413   0.082  0.00  0.00    -0.047 A 
ATOM      9  C9  IND d   1       3.273  -0.595  -0.631  0.00  0.00    -0.096 A 
ATOM     10  HN1 IND d   1       3.159   2.332   0.285  0.00  0.00     0.298 HD
ENDROOT
TORSDOF 0
ENDMDL
