MODEL 1
REMARK minimizedAffinity -2.76398778
REMARK minimizedRMSD -1
REMARK  0 active torsions:
REMARK  status: ('A' for Active; 'I' for Inactive)
ROOT
ATOM      1  N1  IND d   1       0.848   1.559   0.107  0.00  0.00    -0.196 N 
ATOM      2  C2  IND d   1      -0.479   1.764  -0.154  0.00  0.00     0.054 A 
ATOM      3  C3  IND d   1      -1.058   0.616  -0.572  0.00  0.00    -0.031 A 
ATOM      4  C4  IND d   1      -0.044  -1.738  -0.804  0.00  0.00     0.051 A 
ATOM      5  C5  IND d   1       1.140  -2.415  -0.715  0.00  0.00    -0.031 A 
ATOM      6  C6  IND d   1       2.311  -1.789  -0.337  0.00  0.00     0.015 A 
ATOM      7  C7  IND d   1       2.338  -0.460  -0.022  0.00  0.00    -0.016 A 
ATOM      8  C8  IND d   1       1.139   0.232  -0.118  0.00  0.00    -0.047 A 
ATOM      9  C9  IND d   1      -0.043  -0.389  -0.541  0.00  0.00    -0.096 A 
ATOM     10  HN1 IND d   1       1.406   2.159   0.368  0.00  0.00     0.298 HD
ENDROOT
TORSDOF 0
ENDMDL
