MODEL 1
REMARK minimizedAffinity 9.7865963
REMARK minimizedRMSD -1
REMARK  0 active torsions:
REMARK  status: ('A' for Active; 'I' for Inactive)
ROOT
ATOM      1  N1  IND d   1       1.414  -1.296  -0.298  0.00  0.00    -0.196 N 
ATOM      2  C2  IND d   1       0.581  -2.380  -0.286  0.00  0.00     0.054 A 
ATOM      3  C3  IND d   1       1.036  -3.332  -1.132  0.00  0.00    -0.031 A 
ATOM      4  C4  IND d   1       3.178  -3.363  -2.559  0.00  0.00     0.051 A 
ATOM      5  C5  IND d   1       4.237  -2.583  -2.929  0.00  0.00    -0.031 A 
ATOM      6  C6  IND d   1       4.414  -1.309  -2.430  0.00  0.00     0.015 A 
ATOM      7  C7  IND d   1       3.541  -0.770  -1.528  0.00  0.00    -0.016 A 
ATOM      8  C8  IND d   1       2.461  -1.556  -1.155  0.00  0.00    -0.047 A 
ATOM      9  C9  IND d   1       2.253  -2.834  -1.691  0.00  0.00    -0.096 A 
ATOM     10  HN1 IND d   1       1.302  -0.572   0.153  0.00  0.00     0.298 HD
ENDROOT
TORSDOF 0
ENDMDL
