MODEL 1
REMARK minimizedAffinity 7.41764879
REMARK minimizedRMSD -1
REMARK  0 active torsions:
REMARK  status: ('A' for Active; 'I' for Inactive)
ROOT
ATOM      1  N1  IND d   1       3.079   1.161  -0.572  0.00  0.00    -0.196 N 
ATOM      2  C2  IND d   1       4.336   0.902  -1.041  0.00  0.00     0.054 A 
ATOM      3  C3  IND d   1       4.474  -0.415  -1.316  0.00  0.00    -0.031 A 
ATOM      4  C4  IND d   1       2.734  -2.307  -1.168  0.00  0.00     0.051 A 
ATOM      5  C5  IND d   1       1.456  -2.565  -0.758  0.00  0.00    -0.031 A 
ATOM      6  C6  IND d   1       0.636  -1.574  -0.257  0.00  0.00     0.015 A 
ATOM      7  C7  IND d   1       1.062  -0.280  -0.158  0.00  0.00    -0.016 A 
ATOM      8  C8  IND d   1       2.362  -0.015  -0.567  0.00  0.00    -0.047 A 
ATOM      9  C9  IND d   1       3.212  -1.025  -1.036  0.00  0.00    -0.096 A 
ATOM     10  HN1 IND d   1       2.785   1.929  -0.322  0.00  0.00     0.298 HD
ENDROOT
TORSDOF 0
ENDMDL
