MODEL 1
REMARK minimizedAffinity 12.5378494
REMARK minimizedRMSD -1
REMARK  0 active torsions:
REMARK  status: ('A' for Active; 'I' for Inactive)
ROOT
ATOM      1  N1  IND d   1       0.235  -2.701  -1.338  0.00  0.00    -0.196 N 
ATOM      2  C2  IND d   1       1.406  -2.936  -0.673  0.00  0.00     0.054 A 
ATOM      3  C3  IND d   1       1.802  -1.825  -0.013  0.00  0.00    -0.031 A 
ATOM      4  C4  IND d   1       0.631   0.458   0.200  0.00  0.00     0.051 A 
ATOM      5  C5  IND d   1      -0.446   1.163  -0.260  0.00  0.00    -0.031 A 
ATOM      6  C6  IND d   1      -1.371   0.603  -1.118  0.00  0.00     0.015 A 
ATOM      7  C7  IND d   1      -1.260  -0.691  -1.541  0.00  0.00    -0.016 A 
ATOM      8  C8  IND d   1      -0.163  -1.407  -1.081  0.00  0.00    -0.047 A 
ATOM      9  C9  IND d   1       0.802  -0.832  -0.245  0.00  0.00    -0.096 A 
ATOM     10  HN1 IND d   1      -0.183  -3.266  -1.834  0.00  0.00     0.298 HD
ENDROOT
TORSDOF 0
ENDMDL
