MODEL 1
REMARK minimizedAffinity 6.29573917
REMARK minimizedRMSD -1
REMARK  0 active torsions:
REMARK  status: ('A' for Active; 'I' for Inactive)
ROOT
ATOM      1  N1  IND d   1       3.552   0.347  -1.280  0.00  0.00    -0.196 N 
ATOM      2  C2  IND d   1       4.421  -0.480  -1.934  0.00  0.00     0.054 A 
ATOM      3  C3  IND d   1       3.913  -1.731  -2.011  0.00  0.00    -0.031 A 
ATOM      4  C4  IND d   1       1.628  -2.618  -1.224  0.00  0.00     0.051 A 
ATOM      5  C5  IND d   1       0.506  -2.246  -0.539  0.00  0.00    -0.031 A 
ATOM      6  C6  IND d   1       0.336  -0.963  -0.059  0.00  0.00     0.015 A 
ATOM      7  C7  IND d   1       1.283   0.002  -0.257  0.00  0.00    -0.016 A 
ATOM      8  C8  IND d   1       2.427  -0.375  -0.945  0.00  0.00    -0.047 A 
ATOM      9  C9  IND d   1       2.623  -1.686  -1.398  0.00  0.00    -0.096 A 
ATOM     10  HN1 IND d   1       3.685   1.179  -1.107  0.00  0.00     0.298 HD
ENDROOT
TORSDOF 0
ENDMDL
