MODEL 1
REMARK minimizedAffinity 14.9143486
REMARK minimizedRMSD -1
REMARK  0 active torsions:
REMARK  status: ('A' for Active; 'I' for Inactive)
ROOT
ATOM      1  N1  IND d   1       1.751  -2.375   2.694  0.00  0.00    -0.196 N 
ATOM      2  C2  IND d   1       1.539  -1.638   3.826  0.00  0.00     0.054 A 
ATOM      3  C3  IND d   1       1.459  -0.323   3.522  0.00  0.00    -0.031 A 
ATOM      4  C4  IND d   1       1.545   0.833   1.223  0.00  0.00     0.051 A 
ATOM      5  C5  IND d   1       1.760   0.580  -0.102  0.00  0.00    -0.031 A 
ATOM      6  C6  IND d   1       1.985  -0.698  -0.573  0.00  0.00     0.015 A 
ATOM      7  C7  IND d   1       1.992  -1.776   0.266  0.00  0.00    -0.016 A 
ATOM      8  C8  IND d   1       1.781  -1.521   1.614  0.00  0.00    -0.047 A 
ATOM      9  C9  IND d   1       1.594  -0.222   2.103  0.00  0.00    -0.096 A 
ATOM     10  HN1 IND d   1       1.849  -3.229   2.663  0.00  0.00     0.298 HD
ENDROOT
TORSDOF 0
ENDMDL
