MODEL 1
REMARK minimizedAffinity -5.01489019
REMARK minimizedRMSD -1
REMARK  1 active torsions:
REMARK  status: ('A' for Active; 'I' for Inactive)
REMARK    1  A    between atoms: N_2  and  C1_3 
ROOT
ATOM      1  C1  UNL d   1       1.161  -0.438   0.881  0.00  0.00     0.143 A 
ATOM      2  C2  UNL d   1       0.620  -1.330   1.813  0.00  0.00    -0.057 A 
ATOM      3  C3  UNL d   1       1.434  -2.223   2.520  0.00  0.00     0.033 A 
ATOM      4  C4  UNL d   1       2.804  -2.261   2.284  0.00  0.00    -0.042 A 
ATOM      5  C5  UNL d   1       3.361  -1.401   1.344  0.00  0.00     0.033 A 
ATOM      6  C6  UNL d   1       2.544  -0.506   0.646  0.00  0.00    -0.057 A 
ENDROOT
BRANCH   1   7
ATOM      7  N   UNL d   1       0.393   0.406   0.075  0.00  0.00    -0.732 N 
ATOM      8  C   UNL d   1      -0.664   1.211   0.648  0.00  0.00     0.284 C 
ATOM      9  H3  UNL d   1       0.952   0.890  -0.624  0.00  0.00     0.395 HD
ENDBRANCH   1   7
TORSDOF 1
ENDMDL
