MODEL 1
REMARK minimizedAffinity -1.25600708
REMARK minimizedRMSD -1
REMARK  1 active torsions:
REMARK  status: ('A' for Active; 'I' for Inactive)
REMARK    1  A    between atoms: N_2  and  C1_3 
ROOT
ATOM      1  C1  UNL d   1      -0.287   0.158   0.919  0.00  0.00     0.143 A 
ATOM      2  C2  UNL d   1      -1.135  -0.951   0.828  0.00  0.00    -0.057 A 
ATOM      3  C3  UNL d   1      -0.631  -2.231   0.565  0.00  0.00     0.033 A 
ATOM      4  C4  UNL d   1       0.731  -2.420   0.359  0.00  0.00    -0.042 A 
ATOM      5  C5  UNL d   1       1.590  -1.328   0.420  0.00  0.00     0.033 A 
ATOM      6  C6  UNL d   1       1.082  -0.054   0.689  0.00  0.00    -0.057 A 
ENDROOT
BRANCH   1   7
ATOM      7  N   UNL d   1      -0.738   1.470   1.080  0.00  0.00    -0.732 N 
ATOM      8  C   UNL d   1      -2.154   1.764   1.116  0.00  0.00     0.284 C 
ATOM      9  H3  UNL d   1      -0.188   1.988   1.762  0.00  0.00     0.395 HD
ENDBRANCH   1   7
TORSDOF 1
ENDMDL
