MODEL 1
REMARK minimizedAffinity -0.639970779
REMARK minimizedRMSD -1
REMARK  1 active torsions:
REMARK  status: ('A' for Active; 'I' for Inactive)
REMARK    1  A    between atoms: N_2  and  C1_3 
ROOT
ATOM      1  C1  UNL d   1      -1.257  -0.350  -1.479  0.00  0.00     0.143 A 
ATOM      2  C2  UNL d   1      -1.163   0.541  -2.554  0.00  0.00    -0.057 A 
ATOM      3  C3  UNL d   1      -1.946   0.377  -3.703  0.00  0.00     0.033 A 
ATOM      4  C4  UNL d   1      -2.818  -0.702  -3.810  0.00  0.00    -0.042 A 
ATOM      5  C5  UNL d   1      -2.909  -1.614  -2.765  0.00  0.00     0.033 A 
ATOM      6  C6  UNL d   1      -2.130  -1.441  -1.617  0.00  0.00    -0.057 A 
ENDROOT
BRANCH   1   7
ATOM      7  N   UNL d   1      -0.435  -0.297  -0.351  0.00  0.00    -0.732 N 
ATOM      8  C   UNL d   1      -0.250  -1.466   0.482  0.00  0.00     0.284 C 
ATOM      9  H3  UNL d   1       0.417   0.235  -0.515  0.00  0.00     0.395 HD
ENDBRANCH   1   7
TORSDOF 1
ENDMDL
