MODEL 1
REMARK minimizedAffinity -2.3851285
REMARK minimizedRMSD -1
REMARK  1 active torsions:
REMARK  status: ('A' for Active; 'I' for Inactive)
REMARK    1  A    between atoms: N_2  and  C1_3 
ROOT
ATOM      1  C1  UNL d   1      -1.543  -0.047  -1.147  0.00  0.00     0.143 A 
ATOM      2  C2  UNL d   1      -1.711  -0.656   0.101  0.00  0.00    -0.057 A 
ATOM      3  C3  UNL d   1      -0.616  -0.922   0.932  0.00  0.00     0.033 A 
ATOM      4  C4  UNL d   1       0.673  -0.609   0.516  0.00  0.00    -0.042 A 
ATOM      5  C5  UNL d   1       0.867  -0.026  -0.731  0.00  0.00     0.033 A 
ATOM      6  C6  UNL d   1      -0.231   0.243  -1.554  0.00  0.00    -0.057 A 
ENDROOT
BRANCH   1   7
ATOM      7  N   UNL d   1      -2.580   0.153  -2.061  0.00  0.00    -0.732 N 
ATOM      8  C   UNL d   1      -2.871  -0.837  -3.076  0.00  0.00     0.284 C 
ATOM      9  H3  UNL d   1      -3.407   0.559  -1.628  0.00  0.00     0.395 HD
ENDBRANCH   1   7
TORSDOF 1
ENDMDL
