MODEL 1
REMARK minimizedAffinity -2.9025898
REMARK minimizedRMSD -1
REMARK  1 active torsions:
REMARK  status: ('A' for Active; 'I' for Inactive)
REMARK    1  A    between atoms: N_2  and  C1_3 
ROOT
ATOM      1  C1  UNL d   1       1.873   0.208   1.390  0.00  0.00     0.143 A 
ATOM      2  C2  UNL d   1       1.302  -0.997   1.813  0.00  0.00    -0.057 A 
ATOM      3  C3  UNL d   1       0.078  -1.441   1.296  0.00  0.00     0.033 A 
ATOM      4  C4  UNL d   1      -0.612  -0.670   0.367  0.00  0.00    -0.042 A 
ATOM      5  C5  UNL d   1      -0.075   0.543  -0.049  0.00  0.00     0.033 A 
ATOM      6  C6  UNL d   1       1.151   0.978   0.465  0.00  0.00    -0.057 A 
ENDROOT
BRANCH   1   7
ATOM      7  N   UNL d   1       3.038   0.750   1.938  0.00  0.00    -0.732 N 
ATOM      8  C   UNL d   1       2.970   1.661   3.061  0.00  0.00     0.284 C 
ATOM      9  H3  UNL d   1       3.792   0.070   2.000  0.00  0.00     0.395 HD
ENDBRANCH   1   7
TORSDOF 1
ENDMDL
