MODEL 1
REMARK minimizedAffinity -4.78080654
REMARK minimizedRMSD -1
REMARK  1 active torsions:
REMARK  status: ('A' for Active; 'I' for Inactive)
REMARK    1  A    between atoms: N_2  and  C1_3 
ROOT
ATOM      1  C1  UNL d   1       0.704   1.791   0.739  0.00  0.00     0.143 A 
ATOM      2  C2  UNL d   1       1.989   1.627   1.268  0.00  0.00    -0.057 A 
ATOM      3  C3  UNL d   1       2.732   0.465   1.025  0.00  0.00     0.033 A 
ATOM      4  C4  UNL d   1       2.189  -0.569   0.269  0.00  0.00    -0.042 A 
ATOM      5  C5  UNL d   1       0.904  -0.439  -0.246  0.00  0.00     0.033 A 
ATOM      6  C6  UNL d   1       0.170   0.727  -0.005  0.00  0.00    -0.057 A 
ENDROOT
BRANCH   1   7
ATOM      7  N   UNL d   1      -0.122   2.880   1.027  0.00  0.00    -0.732 N 
ATOM      8  C   UNL d   1      -1.513   2.678   1.373  0.00  0.00     0.284 C 
ATOM      9  H3  UNL d   1       0.347   3.586   1.588  0.00  0.00     0.395 HD
ENDBRANCH   1   7
TORSDOF 1
ENDMDL
