MODEL 1
REMARK minimizedAffinity -5.74086809
REMARK minimizedRMSD -1
REMARK  0 active torsions:
REMARK  status: ('A' for Active; 'I' for Inactive)
ROOT
ATOM      1  C2' OXE d   1       1.642  -0.719  -0.903  0.00  0.00     0.078 C 
ATOM      2  C1' OXE d   1      -0.796   0.579  -0.402  0.00  0.00     0.078 C 
ATOM      3  C1  OXE d   1      -0.323  -0.442   0.602  0.00  0.00    -0.078 A 
ATOM      4  C2  OXE d   1       0.848  -1.106   0.326  0.00  0.00    -0.078 A 
ATOM      5  C3  OXE d   1       1.357  -2.017   1.246  0.00  0.00     0.003 A 
ATOM      6  C4  OXE d   1       0.611  -2.377   2.375  0.00  0.00    -0.002 A 
ATOM      7  C5  OXE d   1      -0.603  -1.741   2.655  0.00  0.00    -0.002 A 
ATOM      8  C6  OXE d   1      -1.063  -0.743   1.803  0.00  0.00     0.003 A 
ENDROOT
TORSDOF 0
ENDMDL
