MODEL 1
REMARK minimizedAffinity -3.88029671
REMARK minimizedRMSD -1
REMARK  0 active torsions:
REMARK  status: ('A' for Active; 'I' for Inactive)
ROOT
ATOM      1  C2' OXE d   1       1.865  -2.716   1.090  0.00  0.00     0.078 C 
ATOM      2  C1' OXE d   1       2.577  -0.569  -0.572  0.00  0.00     0.078 C 
ATOM      3  C1  OXE d   1       1.203  -0.551   0.050  0.00  0.00    -0.078 A 
ATOM      4  C2  OXE d   1       0.846  -1.628   0.824  0.00  0.00    -0.078 A 
ATOM      5  C3  OXE d   1      -0.389  -1.636   1.466  0.00  0.00     0.003 A 
ATOM      6  C4  OXE d   1      -1.329  -0.632   1.207  0.00  0.00    -0.002 A 
ATOM      7  C5  OXE d   1      -1.000   0.455   0.390  0.00  0.00    -0.002 A 
ATOM      8  C6  OXE d   1       0.274   0.532  -0.161  0.00  0.00     0.003 A 
ENDROOT
TORSDOF 0
ENDMDL
