MODEL 1
REMARK minimizedAffinity -5.38026857
REMARK minimizedRMSD -1
REMARK  0 active torsions:
REMARK  status: ('A' for Active; 'I' for Inactive)
ROOT
ATOM      1  C2' OXE d   1       2.006   0.479  -0.711  0.00  0.00     0.078 C 
ATOM      2  C1' OXE d   1      -0.608   0.783   0.266  0.00  0.00     0.078 C 
ATOM      3  C1  OXE d   1       0.108  -0.510   0.565  0.00  0.00    -0.078 A 
ATOM      4  C2  OXE d   1       1.369  -0.669   0.043  0.00  0.00    -0.078 A 
ATOM      5  C3  OXE d   1       2.096  -1.820   0.334  0.00  0.00     0.003 A 
ATOM      6  C4  OXE d   1       1.496  -2.881   1.024  0.00  0.00    -0.002 A 
ATOM      7  C5  OXE d   1       0.198  -2.756   1.530  0.00  0.00    -0.002 A 
ATOM      8  C6  OXE d   1      -0.492  -1.563   1.346  0.00  0.00     0.003 A 
ENDROOT
TORSDOF 0
ENDMDL
