MODEL 1
REMARK minimizedAffinity -6.44045067
REMARK minimizedRMSD -1
REMARK  0 active torsions:
REMARK  status: ('A' for Active; 'I' for Inactive)
ROOT
ATOM      1  C2' OXE d   1      -0.701   0.277   0.325  0.00  0.00     0.078 C 
ATOM      2  C1' OXE d   1       1.655  -1.087  -0.359  0.00  0.00     0.078 C 
ATOM      3  C1  OXE d   1       0.948  -1.497   0.908  0.00  0.00    -0.078 A 
ATOM      4  C2  OXE d   1      -0.179  -0.793   1.260  0.00  0.00    -0.078 A 
ATOM      5  C3  OXE d   1      -0.900  -1.166   2.390  0.00  0.00     0.003 A 
ATOM      6  C4  OXE d   1      -0.405  -2.150   3.254  0.00  0.00    -0.002 A 
ATOM      7  C5  OXE d   1       0.762  -2.852   2.936  0.00  0.00    -0.002 A 
ATOM      8  C6  OXE d   1       1.426  -2.568   1.748  0.00  0.00     0.003 A 
ENDROOT
TORSDOF 0
ENDMDL
