MODEL 1
REMARK minimizedAffinity -3.83791375
REMARK minimizedRMSD -1
REMARK  0 active torsions:
REMARK  status: ('A' for Active; 'I' for Inactive)
ROOT
ATOM      1  C2' OXE d   1      -0.585   1.288   0.575  0.00  0.00     0.078 C 
ATOM      2  C1' OXE d   1      -1.385  -0.656   2.435  0.00  0.00     0.078 C 
ATOM      3  C1  OXE d   1      -0.252  -1.000   1.501  0.00  0.00    -0.078 A 
ATOM      4  C2  OXE d   1       0.102  -0.060   0.563  0.00  0.00    -0.078 A 
ATOM      5  C3  OXE d   1       1.177  -0.305  -0.287  0.00  0.00     0.003 A 
ATOM      6  C4  OXE d   1       1.800  -1.558  -0.298  0.00  0.00    -0.002 A 
ATOM      7  C5  OXE d   1       1.429  -2.544   0.622  0.00  0.00    -0.002 A 
ATOM      8  C6  OXE d   1       0.435  -2.267   1.555  0.00  0.00     0.003 A 
ENDROOT
TORSDOF 0
ENDMDL
