MODEL 1
REMARK minimizedAffinity -3.76871872
REMARK minimizedRMSD -1
REMARK  0 active torsions:
REMARK  status: ('A' for Active; 'I' for Inactive)
ROOT
ATOM      1  C2' OXE d   1      -0.057   0.900  -0.518  0.00  0.00     0.078 C 
ATOM      2  C1' OXE d   1       2.468   0.112  -1.458  0.00  0.00     0.078 C 
ATOM      3  C1  OXE d   1       1.906  -0.613  -0.261  0.00  0.00    -0.078 A 
ATOM      4  C2  OXE d   1       0.690  -0.189   0.221  0.00  0.00    -0.078 A 
ATOM      5  C3  OXE d   1       0.101  -0.859   1.289  0.00  0.00     0.003 A 
ATOM      6  C4  OXE d   1       0.803  -1.859   1.973  0.00  0.00    -0.002 A 
ATOM      7  C5  OXE d   1       2.060  -2.279   1.523  0.00  0.00    -0.002 A 
ATOM      8  C6  OXE d   1       2.605  -1.696   0.385  0.00  0.00     0.003 A 
ENDROOT
TORSDOF 0
ENDMDL
