MODEL 1
REMARK minimizedAffinity -2.79751062
REMARK minimizedRMSD -1
REMARK  0 active torsions:
REMARK  status: ('A' for Active; 'I' for Inactive)
ROOT
ATOM      1  C2' OXE d   1      -1.500  -1.545   1.855  0.00  0.00     0.078 C 
ATOM      2  C1' OXE d   1       1.162  -2.323   1.421  0.00  0.00     0.078 C 
ATOM      3  C1  OXE d   1       0.665  -1.089   0.711  0.00  0.00    -0.078 A 
ATOM      4  C2  OXE d   1      -0.652  -0.742   0.892  0.00  0.00    -0.078 A 
ATOM      5  C3  OXE d   1      -1.147   0.418   0.303  0.00  0.00     0.003 A 
ATOM      6  C4  OXE d   1      -0.359   1.150  -0.594  0.00  0.00    -0.002 A 
ATOM      7  C5  OXE d   1       0.974   0.791  -0.824  0.00  0.00    -0.002 A 
ATOM      8  C6  OXE d   1       1.512  -0.298  -0.148  0.00  0.00     0.003 A 
ENDROOT
TORSDOF 0
ENDMDL
