MODEL 1
REMARK minimizedAffinity -4.91774082
REMARK minimizedRMSD -1
REMARK  0 active torsions:
REMARK  status: ('A' for Active; 'I' for Inactive)
ROOT
ATOM      1  C2' OXE d   1       1.761  -0.348  -0.817  0.00  0.00     0.078 C 
ATOM      2  C1' OXE d   1       1.590  -2.693   0.717  0.00  0.00     0.078 C 
ATOM      3  C1  OXE d   1       0.488  -1.674   0.865  0.00  0.00    -0.078 A 
ATOM      4  C2  OXE d   1       0.604  -0.509   0.146  0.00  0.00    -0.078 A 
ATOM      5  C3  OXE d   1      -0.412   0.441   0.204  0.00  0.00     0.003 A 
ATOM      6  C4  OXE d   1      -1.474   0.290   1.104  0.00  0.00    -0.002 A 
ATOM      7  C5  OXE d   1      -1.590  -0.872   1.875  0.00  0.00    -0.002 A 
ATOM      8  C6  OXE d   1      -0.642  -1.880   1.737  0.00  0.00     0.003 A 
ENDROOT
TORSDOF 0
ENDMDL
