MODEL 1
REMARK minimizedAffinity -1.66678071
REMARK minimizedRMSD -1
REMARK  0 active torsions:
REMARK  status: ('A' for Active; 'I' for Inactive)
ROOT
ATOM      1  C2' OXE d   1      -1.706  -1.772   2.204  0.00  0.00     0.078 C 
ATOM      2  C1' OXE d   1       0.379  -2.568   0.502  0.00  0.00     0.078 C 
ATOM      3  C1  OXE d   1       0.058  -1.096   0.581  0.00  0.00    -0.078 A 
ATOM      4  C2  OXE d   1      -0.995  -0.721   1.381  0.00  0.00    -0.078 A 
ATOM      5  C3  OXE d   1      -1.298   0.629   1.532  0.00  0.00     0.003 A 
ATOM      6  C4  OXE d   1      -0.641   1.594   0.759  0.00  0.00    -0.002 A 
ATOM      7  C5  OXE d   1       0.407   1.229  -0.092  0.00  0.00    -0.002 A 
ATOM      8  C6  OXE d   1       0.796  -0.104  -0.161  0.00  0.00     0.003 A 
ENDROOT
TORSDOF 0
ENDMDL
