MODEL 1
REMARK minimizedAffinity -4.2630291
REMARK minimizedRMSD -1
REMARK  0 active torsions:
REMARK  status: ('A' for Active; 'I' for Inactive)
ROOT
ATOM      1  C2' OXE d   1       2.045   0.348  -0.976  0.00  0.00     0.078 C 
ATOM      2  C1' OXE d   1       1.603  -1.883   0.669  0.00  0.00     0.078 C 
ATOM      3  C1  OXE d   1       0.527  -0.828   0.610  0.00  0.00    -0.078 A 
ATOM      4  C2  OXE d   1       0.772   0.283  -0.161  0.00  0.00    -0.078 A 
ATOM      5  C3  OXE d   1      -0.210   1.261  -0.293  0.00  0.00     0.003 A 
ATOM      6  C4  OXE d   1      -1.381   1.198   0.472  0.00  0.00    -0.002 A 
ATOM      7  C5  OXE d   1      -1.633   0.095   1.294  0.00  0.00    -0.002 A 
ATOM      8  C6  OXE d   1      -0.710  -0.945   1.342  0.00  0.00     0.003 A 
ENDROOT
TORSDOF 0
ENDMDL
