MODEL 1
REMARK minimizedAffinity -4.97249937
REMARK minimizedRMSD -1
REMARK  0 active torsions:
REMARK  status: ('A' for Active; 'I' for Inactive)
ROOT
ATOM      1  C2' OXE d   1      -0.921   0.594  -0.278  0.00  0.00     0.078 C 
ATOM      2  C1' OXE d   1       1.865   0.938  -0.269  0.00  0.00     0.078 C 
ATOM      3  C1  OXE d   1       1.324  -0.430   0.064  0.00  0.00    -0.078 A 
ATOM      4  C2  OXE d   1      -0.042  -0.577   0.102  0.00  0.00    -0.078 A 
ATOM      5  C3  OXE d   1      -0.593  -1.831   0.350  0.00  0.00     0.003 A 
ATOM      6  C4  OXE d   1       0.227  -2.907   0.711  0.00  0.00    -0.002 A 
ATOM      7  C5  OXE d   1       1.619  -2.768   0.717  0.00  0.00    -0.002 A 
ATOM      8  C6  OXE d   1       2.184  -1.550   0.355  0.00  0.00     0.003 A 
ENDROOT
TORSDOF 0
ENDMDL
