MODEL 1
REMARK minimizedAffinity -4.71999693
REMARK minimizedRMSD -1
REMARK  0 active torsions:
REMARK  status: ('A' for Active; 'I' for Inactive)
ROOT
ATOM      1  C2' OXE d   1       1.921   1.031  -0.573  0.00  0.00     0.078 C 
ATOM      2  C1' OXE d   1      -0.845   0.739  -0.189  0.00  0.00     0.078 C 
ATOM      3  C1  OXE d   1       0.061  -0.318   0.391  0.00  0.00    -0.078 A 
ATOM      4  C2  OXE d   1       1.410  -0.192   0.158  0.00  0.00    -0.078 A 
ATOM      5  C3  OXE d   1       2.295  -1.110   0.716  0.00  0.00     0.003 A 
ATOM      6  C4  OXE d   1       1.813  -2.244   1.382  0.00  0.00    -0.002 A 
ATOM      7  C5  OXE d   1       0.441  -2.412   1.596  0.00  0.00    -0.002 A 
ATOM      8  C6  OXE d   1      -0.443  -1.439   1.145  0.00  0.00     0.003 A 
ENDROOT
TORSDOF 0
ENDMDL
