MODEL 1
REMARK minimizedAffinity -4.49021626
REMARK minimizedRMSD -1
REMARK  0 active torsions:
REMARK  status: ('A' for Active; 'I' for Inactive)
ROOT
ATOM      1  C2' OXE d   1      -1.223  -1.431   1.721  0.00  0.00     0.078 C 
ATOM      2  C1' OXE d   1       1.296  -2.502   1.097  0.00  0.00     0.078 C 
ATOM      3  C1  OXE d   1       0.943  -1.154   0.521  0.00  0.00    -0.078 A 
ATOM      4  C2  OXE d   1      -0.310  -0.658   0.793  0.00  0.00    -0.078 A 
ATOM      5  C3  OXE d   1      -0.667   0.605   0.332  0.00  0.00     0.003 A 
ATOM      6  C4  OXE d   1       0.180   1.309  -0.534  0.00  0.00    -0.002 A 
ATOM      7  C5  OXE d   1       1.444   0.805  -0.856  0.00  0.00    -0.002 A 
ATOM      8  C6  OXE d   1       1.857  -0.403  -0.303  0.00  0.00     0.003 A 
ENDROOT
TORSDOF 0
ENDMDL
