MODEL 1
REMARK minimizedAffinity -2.35572147
REMARK minimizedRMSD -1
REMARK  0 active torsions:
REMARK  status: ('A' for Active; 'I' for Inactive)
ROOT
ATOM      1  C2' OXE d   1       1.703  -2.144   1.023  0.00  0.00     0.078 C 
ATOM      2  C1' OXE d   1       1.920  -0.161  -0.952  0.00  0.00     0.078 C 
ATOM      3  C1  OXE d   1       0.661  -0.193  -0.123  0.00  0.00    -0.078 A 
ATOM      4  C2  OXE d   1       0.543  -1.196   0.810  0.00  0.00    -0.078 A 
ATOM      5  C3  OXE d   1      -0.575  -1.238   1.638  0.00  0.00     0.003 A 
ATOM      6  C4  OXE d   1      -1.648  -0.364   1.427  0.00  0.00    -0.002 A 
ATOM      7  C5  OXE d   1      -1.565   0.640   0.456  0.00  0.00    -0.002 A 
ATOM      8  C6  OXE d   1      -0.402   0.765  -0.297  0.00  0.00     0.003 A 
ENDROOT
TORSDOF 0
ENDMDL
