MODEL 1
REMARK minimizedAffinity -4.57220173
REMARK minimizedRMSD -1
REMARK  0 active torsions:
REMARK  status: ('A' for Active; 'I' for Inactive)
ROOT
ATOM      1  C2' OXE d   1       2.072   0.050  -0.825  0.00  0.00     0.078 C 
ATOM      2  C1' OXE d   1       1.542  -2.210   0.753  0.00  0.00     0.078 C 
ATOM      3  C1  OXE d   1       0.503  -1.118   0.717  0.00  0.00    -0.078 A 
ATOM      4  C2  OXE d   1       0.791   0.005  -0.020  0.00  0.00    -0.078 A 
ATOM      5  C3  OXE d   1      -0.157   1.018  -0.131  0.00  0.00     0.003 A 
ATOM      6  C4  OXE d   1      -1.335   0.973   0.624  0.00  0.00    -0.002 A 
ATOM      7  C5  OXE d   1      -1.630  -0.144   1.413  0.00  0.00    -0.002 A 
ATOM      8  C6  OXE d   1      -0.743  -1.214   1.437  0.00  0.00     0.003 A 
ENDROOT
TORSDOF 0
ENDMDL
