MODEL 1
REMARK minimizedAffinity -3.35060048
REMARK minimizedRMSD -1
REMARK  3 active torsions:
REMARK  status: ('A' for Active; 'I' for Inactive)
REMARK    1  A    between atoms: C3'_2  and  C2'_3 
REMARK    2  A    between atoms: C2'_3  and  C1'_4 
REMARK    3  A    between atoms: C1'_4  and  C1_5 
ROOT
ATOM      1  C1  N4B d   1      -0.317   0.928   0.380  0.00  0.00    -0.075 A 
ATOM      2  C2  N4B d   1      -1.391   0.343   1.087  0.00  0.00     0.002 A 
ATOM      3  C3  N4B d   1      -2.252   1.135   1.806  0.00  0.00     0.002 A 
ATOM      4  C4  N4B d   1      -2.049   2.506   1.849  0.00  0.00    -0.004 A 
ATOM      5  C5  N4B d   1      -1.024   3.066   1.143  0.00  0.00     0.002 A 
ATOM      6  C6  N4B d   1      -0.154   2.282   0.412  0.00  0.00     0.002 A 
ENDROOT
BRANCH   1   7
ATOM      7  C1' N4B d   1       0.700   0.095  -0.350  0.00  0.00     0.057 C 
BRANCH   7   8
ATOM      8  C2' N4B d   1       0.124  -1.296  -0.597  0.00  0.00     0.009 C 
BRANCH   8   9
ATOM      9  C3' N4B d   1       1.032  -2.139  -1.476  0.00  0.00     0.004 C 
ATOM     10  C4' N4B d   1       0.433  -3.470  -1.823  0.00  0.00     0.003 C 
ENDBRANCH   8   9
ENDBRANCH   7   8
ENDBRANCH   1   7
TORSDOF 3
ENDMDL
