MODEL 1
REMARK minimizedAffinity -5.38734674
REMARK minimizedRMSD -1
REMARK  3 active torsions:
REMARK  status: ('A' for Active; 'I' for Inactive)
REMARK    1  A    between atoms: C3'_2  and  C2'_3 
REMARK    2  A    between atoms: C2'_3  and  C1'_4 
REMARK    3  A    between atoms: C1'_4  and  C1_5 
ROOT
ATOM      1  C1  N4B d   1       0.658  -0.118   0.020  0.00  0.00    -0.075 A 
ATOM      2  C2  N4B d   1      -0.065   1.065  -0.253  0.00  0.00     0.002 A 
ATOM      3  C3  N4B d   1      -0.966   1.546   0.665  0.00  0.00     0.002 A 
ATOM      4  C4  N4B d   1      -1.174   0.855   1.849  0.00  0.00    -0.004 A 
ATOM      5  C5  N4B d   1      -0.454  -0.272   2.117  0.00  0.00     0.002 A 
ATOM      6  C6  N4B d   1       0.458  -0.765   1.205  0.00  0.00     0.002 A 
ENDROOT
BRANCH   1   7
ATOM      7  C1' N4B d   1       1.590  -0.729  -0.989  0.00  0.00     0.057 C 
BRANCH   7   8
ATOM      8  C2' N4B d   1       1.647  -2.238  -0.768  0.00  0.00     0.009 C 
BRANCH   8   9
ATOM      9  C3' N4B d   1       1.231  -3.010  -2.008  0.00  0.00     0.004 C 
ATOM     10  C4' N4B d   1       0.602  -4.333  -1.685  0.00  0.00     0.003 C 
ENDBRANCH   8   9
ENDBRANCH   7   8
ENDBRANCH   1   7
TORSDOF 3
ENDMDL
