MODEL 1
REMARK minimizedAffinity -4.65111732
REMARK minimizedRMSD -1
REMARK  3 active torsions:
REMARK  status: ('A' for Active; 'I' for Inactive)
REMARK    1  A    between atoms: C3'_2  and  C2'_3 
REMARK    2  A    between atoms: C2'_3  and  C1'_4 
REMARK    3  A    between atoms: C1'_4  and  C1_5 
ROOT
ATOM      1  C1  N4B d   1      -0.151   0.336   0.549  0.00  0.00    -0.075 A 
ATOM      2  C2  N4B d   1      -0.871   0.715   1.703  0.00  0.00     0.002 A 
ATOM      3  C3  N4B d   1      -1.264   2.021   1.869  0.00  0.00     0.002 A 
ATOM      4  C4  N4B d   1      -0.934   2.964   0.908  0.00  0.00    -0.004 A 
ATOM      5  C5  N4B d   1      -0.261   2.585  -0.216  0.00  0.00     0.002 A 
ATOM      6  C6  N4B d   1       0.138   1.276  -0.398  0.00  0.00     0.002 A 
ENDROOT
BRANCH   1   7
ATOM      7  C1' N4B d   1       0.375  -1.061   0.364  0.00  0.00     0.057 C 
BRANCH   7   8
ATOM      8  C2' N4B d   1       1.148  -1.135  -0.950  0.00  0.00     0.009 C 
BRANCH   8   9
ATOM      9  C3' N4B d   1       1.206  -2.552  -1.495  0.00  0.00     0.004 C 
ATOM     10  C4' N4B d   1       0.749  -2.645  -2.920  0.00  0.00     0.003 C 
ENDBRANCH   8   9
ENDBRANCH   7   8
ENDBRANCH   1   7
TORSDOF 3
ENDMDL
