MODEL 1
REMARK minimizedAffinity -1.03797734
REMARK minimizedRMSD -1
REMARK  3 active torsions:
REMARK  status: ('A' for Active; 'I' for Inactive)
REMARK    1  A    between atoms: C3'_2  and  C2'_3 
REMARK    2  A    between atoms: C2'_3  and  C1'_4 
REMARK    3  A    between atoms: C1'_4  and  C1_5 
ROOT
ATOM      1  C1  N4B d   1       1.081  -1.613  -1.409  0.00  0.00    -0.075 A 
ATOM      2  C2  N4B d   1       1.302  -2.886  -0.838  0.00  0.00     0.002 A 
ATOM      3  C3  N4B d   1       1.187  -4.015  -1.611  0.00  0.00     0.002 A 
ATOM      4  C4  N4B d   1       0.834  -3.898  -2.947  0.00  0.00    -0.004 A 
ATOM      5  C5  N4B d   1       0.646  -2.664  -3.497  0.00  0.00     0.002 A 
ATOM      6  C6  N4B d   1       0.763  -1.520  -2.733  0.00  0.00     0.002 A 
ENDROOT
BRANCH   1   7
ATOM      7  C1' N4B d   1       1.111  -0.356  -0.583  0.00  0.00     0.057 C 
BRANCH   7   8
ATOM      8  C2' N4B d   1       0.631  -0.673   0.830  0.00  0.00     0.009 C 
BRANCH   8   9
ATOM      9  C3' N4B d   1      -0.789  -0.190   1.069  0.00  0.00     0.004 C 
ATOM     10  C4' N4B d   1      -1.821  -1.214   0.702  0.00  0.00     0.003 C 
ENDBRANCH   8   9
ENDBRANCH   7   8
ENDBRANCH   1   7
TORSDOF 3
ENDMDL
