MODEL 1
REMARK minimizedAffinity -6.13300323
REMARK minimizedRMSD -1
REMARK  3 active torsions:
REMARK  status: ('A' for Active; 'I' for Inactive)
REMARK    1  A    between atoms: C3'_2  and  C2'_3 
REMARK    2  A    between atoms: C2'_3  and  C1'_4 
REMARK    3  A    between atoms: C1'_4  and  C1_5 
ROOT
ATOM      1  C1  N4B d   1       0.053   0.454   0.015  0.00  0.00    -0.075 A 
ATOM      2  C2  N4B d   1      -0.120   0.007   1.343  0.00  0.00     0.002 A 
ATOM      3  C3  N4B d   1      -1.066   0.593   2.148  0.00  0.00     0.002 A 
ATOM      4  C4  N4B d   1      -1.835   1.636   1.654  0.00  0.00    -0.004 A 
ATOM      5  C5  N4B d   1      -1.680   2.045   0.361  0.00  0.00     0.002 A 
ATOM      6  C6  N4B d   1      -0.735   1.462  -0.460  0.00  0.00     0.002 A 
ENDROOT
BRANCH   1   7
ATOM      7  C1' N4B d   1       1.133  -0.098  -0.875  0.00  0.00     0.057 C 
BRANCH   7   8
ATOM      8  C2' N4B d   1       0.959  -1.610  -0.994  0.00  0.00     0.009 C 
BRANCH   8   9
ATOM      9  C3' N4B d   1       0.173  -1.996  -2.235  0.00  0.00     0.004 C 
ATOM     10  C4' N4B d   1       0.185  -3.473  -2.494  0.00  0.00     0.003 C 
ENDBRANCH   8   9
ENDBRANCH   7   8
ENDBRANCH   1   7
TORSDOF 3
ENDMDL
