MODEL 1
REMARK minimizedAffinity -2.48563647
REMARK minimizedRMSD -1
REMARK  3 active torsions:
REMARK  status: ('A' for Active; 'I' for Inactive)
REMARK    1  A    between atoms: C3'_2  and  C2'_3 
REMARK    2  A    between atoms: C2'_3  and  C1'_4 
REMARK    3  A    between atoms: C1'_4  and  C1_5 
ROOT
ATOM      1  C1  N4B d   1      -0.034   0.521  -0.214  0.00  0.00    -0.075 A 
ATOM      2  C2  N4B d   1      -0.378  -0.048   1.031  0.00  0.00     0.002 A 
ATOM      3  C3  N4B d   1      -1.359   0.526   1.801  0.00  0.00     0.002 A 
ATOM      4  C4  N4B d   1      -1.995   1.676   1.357  0.00  0.00    -0.004 A 
ATOM      5  C5  N4B d   1      -1.674   2.205   0.141  0.00  0.00     0.002 A 
ATOM      6  C6  N4B d   1      -0.693   1.636  -0.645  0.00  0.00     0.002 A 
ENDROOT
BRANCH   1   7
ATOM      7  C1' N4B d   1       1.092  -0.021  -1.052  0.00  0.00     0.057 C 
BRANCH   7   8
ATOM      8  C2' N4B d   1       1.071  -1.546  -0.991  0.00  0.00     0.009 C 
BRANCH   8   9
ATOM      9  C3' N4B d   1       0.405  -2.154  -2.214  0.00  0.00     0.004 C 
ATOM     10  C4' N4B d   1       0.544  -3.646  -2.269  0.00  0.00     0.003 C 
ENDBRANCH   8   9
ENDBRANCH   7   8
ENDBRANCH   1   7
TORSDOF 3
ENDMDL
