MODEL 1
REMARK minimizedAffinity -4.91447449
REMARK minimizedRMSD -1
REMARK  3 active torsions:
REMARK  status: ('A' for Active; 'I' for Inactive)
REMARK    1  A    between atoms: C3'_2  and  C2'_3 
REMARK    2  A    between atoms: C2'_3  and  C1'_4 
REMARK    3  A    between atoms: C1'_4  and  C1_5 
ROOT
ATOM      1  C1  N4B d   1      -0.121   0.064   0.012  0.00  0.00    -0.075 A 
ATOM      2  C2  N4B d   1      -0.520  -0.314   1.313  0.00  0.00     0.002 A 
ATOM      3  C3  N4B d   1      -1.425   0.455   2.004  0.00  0.00     0.002 A 
ATOM      4  C4  N4B d   1      -1.926   1.611   1.425  0.00  0.00    -0.004 A 
ATOM      5  C5  N4B d   1      -1.555   1.955   0.158  0.00  0.00     0.002 A 
ATOM      6  C6  N4B d   1      -0.650   1.190  -0.549  0.00  0.00     0.002 A 
ENDROOT
BRANCH   1   7
ATOM      7  C1' N4B d   1       0.930  -0.697  -0.748  0.00  0.00     0.057 C 
BRANCH   7   8
ATOM      8  C2' N4B d   1       0.250  -1.596  -1.777  0.00  0.00     0.009 C 
BRANCH   8   9
ATOM      9  C3' N4B d   1       0.843  -2.995  -1.789  0.00  0.00     0.004 C 
ATOM     10  C4' N4B d   1       0.079  -3.942  -2.664  0.00  0.00     0.003 C 
ENDBRANCH   8   9
ENDBRANCH   7   8
ENDBRANCH   1   7
TORSDOF 3
ENDMDL
