MODEL 1
REMARK minimizedAffinity -1.1308949
REMARK minimizedRMSD -1
REMARK  1 active torsions:
REMARK  status: ('A' for Active; 'I' for Inactive)
REMARK    1  A    between atoms: C1_2  and  C2_3 
ROOT
ATOM      1  C2  UNL d   1       3.491  -4.243  -2.406  0.00  0.00    -0.076 A 
ATOM      2  C3  UNL d   1       2.285  -4.957  -2.299  0.00  0.00     0.004 A 
ATOM      3  C4  UNL d   1       1.255  -4.507  -1.475  0.00  0.00    -0.003 A 
ATOM      4  C5  UNL d   1       1.414  -3.335  -0.745  0.00  0.00     0.000 A 
ATOM      5  C6  UNL d   1       2.596  -2.604  -0.852  0.00  0.00     0.000 A 
ATOM      6  C7  UNL d   1       3.638  -3.035  -1.691  0.00  0.00    -0.073 A 
ATOM      7  C8  UNL d   1       4.894  -2.211  -1.764  0.00  0.00     0.078 C 
ENDROOT
BRANCH   1   8
ATOM      8  C1  UNL d   1       4.583  -4.794  -3.295  0.00  0.00     0.053 C 
ATOM      9  C   UNL d   1       5.659  -5.526  -2.509  0.00  0.00     0.018 C 
ENDBRANCH   1   8
TORSDOF 1
ENDMDL
