MODEL 1
REMARK minimizedAffinity 20.5766888
REMARK minimizedRMSD -1
REMARK  1 active torsions:
REMARK  status: ('A' for Active; 'I' for Inactive)
REMARK    1  A    between atoms: C1_2  and  C2_3 
ROOT
ATOM      1  C2  UNL d   1      -4.110   2.222  -3.623  0.00  0.00    -0.076 A 
ATOM      2  C3  UNL d   1      -3.826   2.318  -2.250  0.00  0.00     0.004 A 
ATOM      3  C4  UNL d   1      -2.943   3.281  -1.766  0.00  0.00    -0.003 A 
ATOM      4  C5  UNL d   1      -2.329   4.165  -2.647  0.00  0.00     0.000 A 
ATOM      5  C6  UNL d   1      -2.613   4.095  -4.011  0.00  0.00     0.000 A 
ATOM      6  C7  UNL d   1      -3.514   3.141  -4.513  0.00  0.00    -0.073 A 
ATOM      7  C8  UNL d   1      -3.779   3.107  -5.994  0.00  0.00     0.078 C 
ENDROOT
BRANCH   1   8
ATOM      8  C1  UNL d   1      -5.056   1.140  -4.093  0.00  0.00     0.053 C 
ATOM      9  C   UNL d   1      -6.000   0.674  -2.996  0.00  0.00     0.018 C 
ENDBRANCH   1   8
TORSDOF 1
ENDMDL
