MODEL 1
REMARK minimizedAffinity 16.1408939
REMARK minimizedRMSD -1
REMARK  1 active torsions:
REMARK  status: ('A' for Active; 'I' for Inactive)
REMARK    1  A    between atoms: C1_2  and  C2_3 
ROOT
ATOM      1  C2  UNL d   1      -2.156   2.329  -0.613  0.00  0.00    -0.076 A 
ATOM      2  C3  UNL d   1      -2.384   3.354  -1.548  0.00  0.00     0.004 A 
ATOM      3  C4  UNL d   1      -3.520   3.351  -2.354  0.00  0.00    -0.003 A 
ATOM      4  C5  UNL d   1      -4.449   2.322  -2.239  0.00  0.00     0.000 A 
ATOM      5  C6  UNL d   1      -4.248   1.306  -1.305  0.00  0.00     0.000 A 
ATOM      6  C7  UNL d   1      -3.116   1.303  -0.473  0.00  0.00    -0.073 A 
ATOM      7  C8  UNL d   1      -2.947   0.179   0.513  0.00  0.00     0.078 C 
ENDROOT
BRANCH   1   8
ATOM      8  C1  UNL d   1      -0.892   2.371   0.215  0.00  0.00     0.053 C 
ATOM      9  C   UNL d   1       0.281   2.975  -0.542  0.00  0.00     0.018 C 
ENDBRANCH   1   8
TORSDOF 1
ENDMDL
