MODEL 1
REMARK minimizedAffinity 0.273792803
REMARK minimizedRMSD -1
REMARK  2 active torsions:
REMARK  status: ('A' for Active; 'I' for Inactive)
REMARK    1  A    between atoms: C2'_3  and  C1'_4 
REMARK    2  A    between atoms: C1'_4  and  C1_5 
ROOT
ATOM      1  C1  I4B d   1       0.601  -0.020   0.627  0.00  0.00    -0.075 A 
ATOM      2  C2  I4B d   1       0.891  -1.108   1.411  0.00  0.00     0.003 A 
ATOM      3  C3  I4B d   1      -0.152  -1.926   1.910  0.00  0.00     0.002 A 
ATOM      4  C4  I4B d   1      -1.464  -1.592   1.643  0.00  0.00    -0.004 A 
ATOM      5  C5  I4B d   1      -1.755  -0.502   0.828  0.00  0.00     0.002 A 
ATOM      6  C6  I4B d   1      -0.716   0.283   0.306  0.00  0.00     0.003 A 
ENDROOT
BRANCH   1   7
ATOM      7  C1' I4B d   1       1.725   0.841   0.144  0.00  0.00     0.060 C 
BRANCH   7   8
ATOM      8  C2' I4B d   1       1.730   2.110   0.973  0.00  0.00    -0.013 C 
ATOM      9  C4' I4B d   1       1.833   1.800   2.443  0.00  0.00     0.013 C 
ATOM     10  C3' I4B d   1       2.881   2.956   0.516  0.00  0.00     0.013 C 
ENDBRANCH   7   8
ENDBRANCH   1   7
TORSDOF 2
ENDMDL
