MODEL 1
REMARK minimizedAffinity -2.58250475
REMARK minimizedRMSD -1
REMARK  2 active torsions:
REMARK  status: ('A' for Active; 'I' for Inactive)
REMARK    1  A    between atoms: C2'_3  and  C1'_4 
REMARK    2  A    between atoms: C1'_4  and  C1_5 
ROOT
ATOM      1  C1  I4B d   1       2.737   2.268   1.236  0.00  0.00    -0.075 A 
ATOM      2  C2  I4B d   1       2.645   3.347   2.081  0.00  0.00     0.003 A 
ATOM      3  C3  I4B d   1       3.103   4.620   1.663  0.00  0.00     0.002 A 
ATOM      4  C4  I4B d   1       3.689   4.758   0.421  0.00  0.00    -0.004 A 
ATOM      5  C5  I4B d   1       3.760   3.669  -0.442  0.00  0.00     0.002 A 
ATOM      6  C6  I4B d   1       3.270   2.418  -0.037  0.00  0.00     0.003 A 
ENDROOT
BRANCH   1   7
ATOM      7  C1' I4B d   1       2.274   0.932   1.722  0.00  0.00     0.060 C 
BRANCH   7   8
ATOM      8  C2' I4B d   1       1.353   0.347   0.670  0.00  0.00    -0.013 C 
ATOM      9  C4' I4B d   1       1.132  -1.126   0.897  0.00  0.00     0.013 C 
ATOM     10  C3' I4B d   1       0.058   1.102   0.717  0.00  0.00     0.013 C 
ENDBRANCH   7   8
ENDBRANCH   1   7
TORSDOF 2
ENDMDL
