MODEL 1
REMARK minimizedAffinity -4.12067795
REMARK minimizedRMSD -1
REMARK  2 active torsions:
REMARK  status: ('A' for Active; 'I' for Inactive)
REMARK    1  A    between atoms: C2'_3  and  C1'_4 
REMARK    2  A    between atoms: C1'_4  and  C1_5 
ROOT
ATOM      1  C1  I4B d   1      -0.855  -0.759   0.485  0.00  0.00    -0.075 A 
ATOM      2  C2  I4B d   1      -1.512   0.016  -0.438  0.00  0.00     0.003 A 
ATOM      3  C3  I4B d   1      -2.845  -0.290  -0.806  0.00  0.00     0.002 A 
ATOM      4  C4  I4B d   1      -3.460  -1.402  -0.268  0.00  0.00    -0.004 A 
ATOM      5  C5  I4B d   1      -2.800  -2.173   0.685  0.00  0.00     0.002 A 
ATOM      6  C6  I4B d   1      -1.493  -1.842   1.073  0.00  0.00     0.003 A 
ENDROOT
BRANCH   1   7
ATOM      7  C1' I4B d   1       0.563  -0.426   0.825  0.00  0.00     0.060 C 
BRANCH   7   8
ATOM      8  C2' I4B d   1       1.042   0.631  -0.149  0.00  0.00    -0.013 C 
ATOM      9  C4' I4B d   1       1.985   1.599   0.516  0.00  0.00     0.013 C 
ATOM     10  C3' I4B d   1       1.704  -0.066  -1.300  0.00  0.00     0.013 C 
ENDBRANCH   7   8
ENDBRANCH   1   7
TORSDOF 2
ENDMDL
