MODEL 1
REMARK minimizedAffinity -6.27794313
REMARK minimizedRMSD -1
REMARK  2 active torsions:
REMARK  status: ('A' for Active; 'I' for Inactive)
REMARK    1  A    between atoms: C2'_3  and  C1'_4 
REMARK    2  A    between atoms: C1'_4  and  C1_5 
ROOT
ATOM      1  C1  I4B d   1      -1.231  -0.632  -0.036  0.00  0.00    -0.075 A 
ATOM      2  C2  I4B d   1      -2.521  -0.460  -0.473  0.00  0.00     0.003 A 
ATOM      3  C3  I4B d   1      -3.539  -1.354  -0.061  0.00  0.00     0.002 A 
ATOM      4  C4  I4B d   1      -3.215  -2.428   0.743  0.00  0.00    -0.004 A 
ATOM      5  C5  I4B d   1      -1.912  -2.587   1.204  0.00  0.00     0.002 A 
ATOM      6  C6  I4B d   1      -0.915  -1.677   0.822  0.00  0.00     0.003 A 
ENDROOT
BRANCH   1   7
ATOM      7  C1' I4B d   1      -0.175   0.311  -0.518  0.00  0.00     0.060 C 
BRANCH   7   8
ATOM      8  C2' I4B d   1       1.169  -0.220  -0.062  0.00  0.00    -0.013 C 
ATOM      9  C4' I4B d   1       2.043  -0.573  -1.236  0.00  0.00     0.013 C 
ATOM     10  C3' I4B d   1       1.812   0.827   0.798  0.00  0.00     0.013 C 
ENDBRANCH   7   8
ENDBRANCH   1   7
TORSDOF 2
ENDMDL
