MODEL 1
REMARK minimizedAffinity 0.143784121
REMARK minimizedRMSD -1
REMARK  2 active torsions:
REMARK  status: ('A' for Active; 'I' for Inactive)
REMARK    1  A    between atoms: C2'_3  and  C1'_4 
REMARK    2  A    between atoms: C1'_4  and  C1_5 
ROOT
ATOM      1  C1  I4B d   1       0.339  -0.289  -1.118  0.00  0.00    -0.075 A 
ATOM      2  C2  I4B d   1      -0.878  -0.061  -1.711  0.00  0.00     0.003 A 
ATOM      3  C3  I4B d   1      -2.072  -0.461  -1.064  0.00  0.00     0.002 A 
ATOM      4  C4  I4B d   1      -2.002  -1.126   0.143  0.00  0.00    -0.004 A 
ATOM      5  C5  I4B d   1      -0.768  -1.337   0.753  0.00  0.00     0.002 A 
ATOM      6  C6  I4B d   1       0.409  -0.904   0.125  0.00  0.00     0.003 A 
ENDROOT
BRANCH   1   7
ATOM      7  C1' I4B d   1       1.582   0.117  -1.844  0.00  0.00     0.060 C 
BRANCH   7   8
ATOM      8  C2' I4B d   1       1.823  -0.886  -2.954  0.00  0.00    -0.013 C 
ATOM      9  C4' I4B d   1       1.559  -0.277  -4.306  0.00  0.00     0.013 C 
ATOM     10  C3' I4B d   1       3.239  -1.367  -2.844  0.00  0.00     0.013 C 
ENDBRANCH   7   8
ENDBRANCH   1   7
TORSDOF 2
ENDMDL
