MODEL 1
REMARK minimizedAffinity -2.10922027
REMARK minimizedRMSD -1
REMARK  2 active torsions:
REMARK  status: ('A' for Active; 'I' for Inactive)
REMARK    1  A    between atoms: C2'_3  and  C1'_4 
REMARK    2  A    between atoms: C1'_4  and  C1_5 
ROOT
ATOM      1  C1  I4B d   1      -0.697  -0.053  -1.071  0.00  0.00    -0.075 A 
ATOM      2  C2  I4B d   1      -0.241  -0.163   0.219  0.00  0.00     0.003 A 
ATOM      3  C3  I4B d   1      -1.082  -0.691   1.229  0.00  0.00     0.002 A 
ATOM      4  C4  I4B d   1      -2.378  -1.047   0.917  0.00  0.00    -0.004 A 
ATOM      5  C5  I4B d   1      -2.830  -0.957  -0.396  0.00  0.00     0.002 A 
ATOM      6  C6  I4B d   1      -1.981  -0.468  -1.399  0.00  0.00     0.003 A 
ENDROOT
BRANCH   1   7
ATOM      7  C1' I4B d   1       0.206   0.540  -2.106  0.00  0.00     0.060 C 
BRANCH   7   8
ATOM      8  C2' I4B d   1       1.447  -0.324  -2.193  0.00  0.00    -0.013 C 
ATOM      9  C4' I4B d   1       1.697  -0.780  -3.606  0.00  0.00     0.013 C 
ATOM     10  C3' I4B d   1       2.604   0.473  -1.669  0.00  0.00     0.013 C 
ENDBRANCH   7   8
ENDBRANCH   1   7
TORSDOF 2
ENDMDL
