MODEL 1
REMARK minimizedAffinity -3.19124007
REMARK minimizedRMSD -1
REMARK  2 active torsions:
REMARK  status: ('A' for Active; 'I' for Inactive)
REMARK    1  A    between atoms: C2'_3  and  C1'_4 
REMARK    2  A    between atoms: C1'_4  and  C1_5 
ROOT
ATOM      1  C1  I4B d   1       0.690  -0.000  -0.292  0.00  0.00    -0.075 A 
ATOM      2  C2  I4B d   1      -0.521   0.337  -0.844  0.00  0.00     0.003 A 
ATOM      3  C3  I4B d   1      -1.726  -0.045  -0.206  0.00  0.00     0.002 A 
ATOM      4  C4  I4B d   1      -1.674  -0.802   0.947  0.00  0.00    -0.004 A 
ATOM      5  C5  I4B d   1      -0.446  -1.123   1.517  0.00  0.00     0.002 A 
ATOM      6  C6  I4B d   1       0.744  -0.710   0.900  0.00  0.00     0.003 A 
ENDROOT
BRANCH   1   7
ATOM      7  C1' I4B d   1       1.943   0.391  -1.010  0.00  0.00     0.060 C 
BRANCH   7   8
ATOM      8  C2' I4B d   1       2.316  -0.739  -1.947  0.00  0.00    -0.013 C 
ATOM      9  C4' I4B d   1       1.886  -0.441  -3.360  0.00  0.00     0.013 C 
ATOM     10  C3' I4B d   1       3.800  -0.939  -1.864  0.00  0.00     0.013 C 
ENDBRANCH   7   8
ENDBRANCH   1   7
TORSDOF 2
ENDMDL
