MODEL 1
REMARK minimizedAffinity -2.13174987
REMARK minimizedRMSD -1
REMARK  2 active torsions:
REMARK  status: ('A' for Active; 'I' for Inactive)
REMARK    1  A    between atoms: C2'_3  and  C1'_4 
REMARK    2  A    between atoms: C1'_4  and  C1_5 
ROOT
ATOM      1  C1  I4B d   1       0.342   0.233  -2.248  0.00  0.00    -0.075 A 
ATOM      2  C2  I4B d   1       0.272   0.149  -3.616  0.00  0.00     0.003 A 
ATOM      3  C3  I4B d   1       1.441  -0.103  -4.375  0.00  0.00     0.002 A 
ATOM      4  C4  I4B d   1       2.658  -0.212  -3.733  0.00  0.00    -0.004 A 
ATOM      5  C5  I4B d   1       2.723  -0.150  -2.344  0.00  0.00     0.002 A 
ATOM      6  C6  I4B d   1       1.556   0.062  -1.595  0.00  0.00     0.003 A 
ENDROOT
BRANCH   1   7
ATOM      7  C1' I4B d   1      -0.907   0.533  -1.480  0.00  0.00     0.060 C 
BRANCH   7   8
ATOM      8  C2' I4B d   1      -1.383  -0.757  -0.842  0.00  0.00    -0.013 C 
ATOM      9  C4' I4B d   1      -1.346  -0.666   0.661  0.00  0.00     0.013 C 
ATOM     10  C3' I4B d   1      -2.772  -1.032  -1.334  0.00  0.00     0.013 C 
ENDBRANCH   7   8
ENDBRANCH   1   7
TORSDOF 2
ENDMDL
