MODEL 1
REMARK minimizedAffinity 8.60354042
REMARK minimizedRMSD -1
REMARK  1 active torsions:
REMARK  status: ('A' for Active; 'I' for Inactive)
REMARK    1  A    between atoms: C1_2  and  C2_3 
ROOT
ATOM      1  C2  UNL d   1      -3.516   5.726   1.442  0.00  0.00    -0.077 A 
ATOM      2  C3  UNL d   1      -4.698   5.816   0.695  0.00  0.00     0.002 A 
ATOM      3  C4  UNL d   1      -5.932   5.938   1.337  0.00  0.00     0.002 A 
ATOM      4  C5  UNL d   1      -5.994   5.976   2.728  0.00  0.00    -0.004 A 
ATOM      5  C6  UNL d   1      -4.823   5.885   3.480  0.00  0.00     0.002 A 
ATOM      6  C7  UNL d   1      -3.590   5.762   2.840  0.00  0.00     0.002 A 
ENDROOT
BRANCH   1   7
ATOM      7  C1  UNL d   1      -2.180   5.643   0.750  0.00  0.00     0.055 C 
ATOM      8  C   UNL d   1      -1.042   5.980   1.702  0.00  0.00     0.019 C 
ENDBRANCH   1   7
TORSDOF 1
ENDMDL
