MODEL 1
REMARK minimizedAffinity 1.27535248
REMARK minimizedRMSD -1
REMARK  1 active torsions:
REMARK  status: ('A' for Active; 'I' for Inactive)
REMARK    1  A    between atoms: C1_2  and  C2_3 
ROOT
ATOM      1  C2  UNL d   1      -5.086   4.226   3.802  0.00  0.00    -0.077 A 
ATOM      2  C3  UNL d   1      -5.951   4.260   4.905  0.00  0.00     0.002 A 
ATOM      3  C4  UNL d   1      -5.668   5.080   5.999  0.00  0.00     0.002 A 
ATOM      4  C5  UNL d   1      -4.523   5.873   6.000  0.00  0.00    -0.004 A 
ATOM      5  C6  UNL d   1      -3.655   5.845   4.908  0.00  0.00     0.002 A 
ATOM      6  C7  UNL d   1      -3.936   5.026   3.814  0.00  0.00     0.002 A 
ENDROOT
BRANCH   1   7
ATOM      7  C1  UNL d   1      -5.415   3.380   2.600  0.00  0.00     0.055 C 
ATOM      8  C   UNL d   1      -4.746   2.016   2.682  0.00  0.00     0.019 C 
ENDBRANCH   1   7
TORSDOF 1
ENDMDL
