MODEL 1
REMARK minimizedAffinity 2.22567892
REMARK minimizedRMSD -1
REMARK  1 active torsions:
REMARK  status: ('A' for Active; 'I' for Inactive)
REMARK    1  A    between atoms: C1_2  and  C2_3 
ROOT
ATOM      1  C2  UNL d   1       1.630  -2.446  -0.305  0.00  0.00    -0.077 A 
ATOM      2  C3  UNL d   1       2.539  -3.499  -0.128  0.00  0.00     0.002 A 
ATOM      3  C4  UNL d   1       2.082  -4.813  -0.006  0.00  0.00     0.002 A 
ATOM      4  C5  UNL d   1       0.717  -5.086  -0.065  0.00  0.00    -0.004 A 
ATOM      5  C6  UNL d   1      -0.195  -4.046  -0.239  0.00  0.00     0.002 A 
ATOM      6  C7  UNL d   1       0.260  -2.732  -0.359  0.00  0.00     0.002 A 
ENDROOT
BRANCH   1   7
ATOM      7  C1  UNL d   1       2.124  -1.035  -0.485  0.00  0.00     0.055 C 
ATOM      8  C   UNL d   1       2.519  -0.767  -1.930  0.00  0.00     0.019 C 
ENDBRANCH   1   7
TORSDOF 1
ENDMDL
