MODEL 1
REMARK minimizedAffinity -1.57391953
REMARK minimizedRMSD -1
REMARK  1 active torsions:
REMARK  status: ('A' for Active; 'I' for Inactive)
REMARK    1  A    between atoms: C1_2  and  C2_3 
ROOT
ATOM      1  C2  UNL d   1      -4.311  -0.526  -0.361  0.00  0.00    -0.077 A 
ATOM      2  C3  UNL d   1      -3.044  -0.852  -0.865  0.00  0.00     0.002 A 
ATOM      3  C4  UNL d   1      -2.473  -0.091  -1.887  0.00  0.00     0.002 A 
ATOM      4  C5  UNL d   1      -3.160   1.002  -2.411  0.00  0.00    -0.004 A 
ATOM      5  C6  UNL d   1      -4.422   1.333  -1.918  0.00  0.00     0.002 A 
ATOM      6  C7  UNL d   1      -4.994   0.573  -0.897  0.00  0.00     0.002 A 
ENDROOT
BRANCH   1   7
ATOM      7  C1  UNL d   1      -4.907  -1.316   0.775  0.00  0.00     0.055 C 
ATOM      8  C   UNL d   1      -6.000  -0.528   1.483  0.00  0.00     0.019 C 
ENDBRANCH   1   7
TORSDOF 1
ENDMDL
