MODEL 1
REMARK minimizedAffinity -3.25091982
REMARK minimizedRMSD -1
REMARK  1 active torsions:
REMARK  status: ('A' for Active; 'I' for Inactive)
REMARK    1  A    between atoms: C1_2  and  C2_3 
ROOT
ATOM      1  C2  UNL d   1       4.837   4.661  -3.307  0.00  0.00    -0.073 A 
ATOM      2  C3  UNL d   1       4.341   5.507  -4.306  0.00  0.00    -0.002 A 
ATOM      3  C4  UNL d   1       4.350   5.103  -5.641  0.00  0.00     0.004 A 
ATOM      4  C5  UNL d   1       4.848   3.848  -5.991  0.00  0.00    -0.004 A 
ATOM      5  C6  UNL d   1       5.338   2.983  -5.006  0.00  0.00    -0.075 A 
ATOM      6  C7  UNL d   1       5.879   1.631  -5.366  0.00  0.00     0.076 C 
ATOM      7  C8  UNL d   1       5.328   3.398  -3.668  0.00  0.00     0.001 A 
ENDROOT
BRANCH   1   8
ATOM      8  C1  UNL d   1       4.823   5.092  -1.863  0.00  0.00     0.053 C 
ATOM      9  C   UNL d   1       6.000   5.994  -1.526  0.00  0.00     0.018 C 
ENDBRANCH   1   8
TORSDOF 1
ENDMDL
