MODEL 1
REMARK minimizedAffinity 7.1433816
REMARK minimizedRMSD -1
REMARK  1 active torsions:
REMARK  status: ('A' for Active; 'I' for Inactive)
REMARK    1  A    between atoms: C1_2  and  C2_3 
ROOT
ATOM      1  C2  UNL d   1       5.269   5.104  -3.447  0.00  0.00    -0.073 A 
ATOM      2  C3  UNL d   1       5.983   5.289  -4.637  0.00  0.00    -0.002 A 
ATOM      3  C4  UNL d   1       5.324   5.692  -5.799  0.00  0.00     0.004 A 
ATOM      4  C5  UNL d   1       3.948   5.923  -5.782  0.00  0.00    -0.004 A 
ATOM      5  C6  UNL d   1       3.219   5.755  -4.601  0.00  0.00    -0.075 A 
ATOM      6  C7  UNL d   1       1.739   5.997  -4.567  0.00  0.00     0.076 C 
ATOM      7  C8  UNL d   1       3.887   5.347  -3.438  0.00  0.00     0.001 A 
ENDROOT
BRANCH   1   8
ATOM      8  C1  UNL d   1       5.976   4.675  -2.188  0.00  0.00     0.053 C 
ATOM      9  C   UNL d   1       5.985   5.772  -1.136  0.00  0.00     0.018 C 
ENDBRANCH   1   8
TORSDOF 1
ENDMDL
