MODEL 1
REMARK minimizedAffinity -2.44565511
REMARK minimizedRMSD -1
REMARK  1 active torsions:
REMARK  status: ('A' for Active; 'I' for Inactive)
REMARK    1  A    between atoms: C1_2  and  C2_3 
ROOT
ATOM      1  C2  UNL d   1       5.117   4.321  -4.665  0.00  0.00    -0.073 A 
ATOM      2  C3  UNL d   1       6.000   5.323  -4.246  0.00  0.00    -0.002 A 
ATOM      3  C4  UNL d   1       5.828   5.940  -3.007  0.00  0.00     0.004 A 
ATOM      4  C5  UNL d   1       4.779   5.558  -2.171  0.00  0.00    -0.004 A 
ATOM      5  C6  UNL d   1       3.894   4.550  -2.566  0.00  0.00    -0.075 A 
ATOM      6  C7  UNL d   1       2.759   4.128  -1.680  0.00  0.00     0.076 C 
ATOM      7  C8  UNL d   1       4.071   3.936  -3.814  0.00  0.00     0.001 A 
ENDROOT
BRANCH   1   8
ATOM      8  C1  UNL d   1       5.302   3.647  -6.000  0.00  0.00     0.053 C 
ATOM      9  C   UNL d   1       5.624   2.168  -5.852  0.00  0.00     0.018 C 
ENDBRANCH   1   8
TORSDOF 1
ENDMDL
