MODEL 1
REMARK minimizedAffinity -2.70343471
REMARK minimizedRMSD -1
REMARK  1 active torsions:
REMARK  status: ('A' for Active; 'I' for Inactive)
REMARK    1  A    between atoms: C1_2  and  C2_3 
ROOT
ATOM      1  C2  UNL d   1       5.234   3.960  -4.650  0.00  0.00    -0.073 A 
ATOM      2  C3  UNL d   1       3.864   3.723  -4.489  0.00  0.00    -0.002 A 
ATOM      3  C4  UNL d   1       3.192   4.214  -3.369  0.00  0.00     0.004 A 
ATOM      4  C5  UNL d   1       3.879   4.951  -2.404  0.00  0.00    -0.004 A 
ATOM      5  C6  UNL d   1       5.245   5.208  -2.554  0.00  0.00    -0.075 A 
ATOM      6  C7  UNL d   1       6.000   5.997  -1.524  0.00  0.00     0.076 C 
ATOM      7  C8  UNL d   1       5.915   4.709  -3.680  0.00  0.00     0.001 A 
ENDROOT
BRANCH   1   8
ATOM      8  C1  UNL d   1       5.964   3.437  -5.861  0.00  0.00     0.053 C 
ATOM      9  C   UNL d   1       5.851   1.926  -5.986  0.00  0.00     0.018 C 
ENDBRANCH   1   8
TORSDOF 1
ENDMDL
