MODEL 1
REMARK minimizedAffinity -3.22679973
REMARK minimizedRMSD -1
REMARK  1 active torsions:
REMARK  status: ('A' for Active; 'I' for Inactive)
REMARK    1  A    between atoms: C1_2  and  C2_3 
ROOT
ATOM      1  C2  UNL d   1       5.303   4.037  -5.068  0.00  0.00    -0.073 A 
ATOM      2  C3  UNL d   1       4.155   4.742  -5.446  0.00  0.00    -0.002 A 
ATOM      3  C4  UNL d   1       3.602   5.697  -4.592  0.00  0.00     0.004 A 
ATOM      4  C5  UNL d   1       4.194   5.962  -3.358  0.00  0.00    -0.004 A 
ATOM      5  C6  UNL d   1       5.349   5.276  -2.968  0.00  0.00    -0.075 A 
ATOM      6  C7  UNL d   1       5.997   5.548  -1.642  0.00  0.00     0.076 C 
ATOM      7  C8  UNL d   1       5.897   4.316  -3.829  0.00  0.00     0.001 A 
ENDROOT
BRANCH   1   8
ATOM      8  C1  UNL d   1       5.908   3.008  -5.990  0.00  0.00     0.053 C 
ATOM      9  C   UNL d   1       6.000   1.640  -5.334  0.00  0.00     0.018 C 
ENDBRANCH   1   8
TORSDOF 1
ENDMDL
