MODEL 1
REMARK minimizedAffinity -3.20293903
REMARK minimizedRMSD -1
REMARK  1 active torsions:
REMARK  status: ('A' for Active; 'I' for Inactive)
REMARK    1  A    between atoms: C1_2  and  C2_3 
ROOT
ATOM      1  C2  UNL d   1       5.396   3.633  -5.123  0.00  0.00    -0.073 A 
ATOM      2  C3  UNL d   1       4.297   4.367  -5.583  0.00  0.00    -0.002 A 
ATOM      3  C4  UNL d   1       3.747   5.381  -4.797  0.00  0.00     0.004 A 
ATOM      4  C5  UNL d   1       4.294   5.676  -3.549  0.00  0.00    -0.004 A 
ATOM      5  C6  UNL d   1       5.401   4.962  -3.077  0.00  0.00    -0.075 A 
ATOM      6  C7  UNL d   1       6.000   5.266  -1.735  0.00  0.00     0.076 C 
ATOM      7  C8  UNL d   1       5.945   3.944  -3.870  0.00  0.00     0.001 A 
ENDROOT
BRANCH   1   8
ATOM      8  C1  UNL d   1       5.997   2.542  -5.971  0.00  0.00     0.053 C 
ATOM      9  C   UNL d   1       5.973   1.195  -5.267  0.00  0.00     0.018 C 
ENDBRANCH   1   8
TORSDOF 1
ENDMDL
