MODEL 1
REMARK minimizedAffinity 3.39473796
REMARK minimizedRMSD -1
REMARK  1 active torsions:
REMARK  status: ('A' for Active; 'I' for Inactive)
REMARK    1  A    between atoms: C1_2  and  C2_3 
ROOT
ATOM      1  C2  UNL d   1       4.954   5.270  -3.160  0.00  0.00    -0.073 A 
ATOM      2  C3  UNL d   1       5.163   5.370  -4.541  0.00  0.00    -0.002 A 
ATOM      3  C4  UNL d   1       4.189   4.924  -5.435  0.00  0.00     0.004 A 
ATOM      4  C5  UNL d   1       2.995   4.381  -4.960  0.00  0.00    -0.004 A 
ATOM      5  C6  UNL d   1       2.763   4.283  -3.585  0.00  0.00    -0.075 A 
ATOM      6  C7  UNL d   1       1.485   3.700  -3.057  0.00  0.00     0.076 C 
ATOM      7  C8  UNL d   1       3.747   4.731  -2.693  0.00  0.00     0.001 A 
ENDROOT
BRANCH   1   8
ATOM      8  C1  UNL d   1       6.000   5.756  -2.191  0.00  0.00     0.053 C 
ATOM      9  C   UNL d   1       5.998   4.951  -0.900  0.00  0.00     0.018 C 
ENDBRANCH   1   8
TORSDOF 1
ENDMDL
