MODEL 1
REMARK minimizedAffinity 1.57479322
REMARK minimizedRMSD -1
REMARK  1 active torsions:
REMARK  status: ('A' for Active; 'I' for Inactive)
REMARK    1  A    between atoms: C1_2  and  C2_3 
ROOT
ATOM      1  C2  UNL d   1       5.255   3.901  -4.835  0.00  0.00    -0.073 A 
ATOM      2  C3  UNL d   1       4.158   4.650  -5.277  0.00  0.00    -0.002 A 
ATOM      3  C4  UNL d   1       3.656   5.692  -4.496  0.00  0.00     0.004 A 
ATOM      4  C5  UNL d   1       4.248   6.000  -3.271  0.00  0.00    -0.004 A 
ATOM      5  C6  UNL d   1       5.352   5.270  -2.818  0.00  0.00    -0.075 A 
ATOM      6  C7  UNL d   1       6.000   5.587  -1.502  0.00  0.00     0.076 C 
ATOM      7  C8  UNL d   1       5.849   4.224  -3.607  0.00  0.00     0.001 A 
ENDROOT
BRANCH   1   8
ATOM      8  C1  UNL d   1       5.805   2.779  -5.678  0.00  0.00     0.053 C 
ATOM      9  C   UNL d   1       4.885   1.568  -5.686  0.00  0.00     0.018 C 
ENDBRANCH   1   8
TORSDOF 1
ENDMDL
