MODEL 1
REMARK minimizedAffinity 3.73048878
REMARK minimizedRMSD -1
REMARK  1 active torsions:
REMARK  status: ('A' for Active; 'I' for Inactive)
REMARK    1  A    between atoms: C1_2  and  C2_3 
ROOT
ATOM      1  C2  UNL d   1       4.935  -3.230  -2.214  0.00  0.00    -0.073 A 
ATOM      2  C3  UNL d   1       6.000  -3.779  -2.936  0.00  0.00    -0.002 A 
ATOM      3  C4  UNL d   1       5.849  -4.087  -4.289  0.00  0.00     0.004 A 
ATOM      4  C5  UNL d   1       4.636  -3.843  -4.934  0.00  0.00    -0.004 A 
ATOM      5  C6  UNL d   1       3.564  -3.283  -4.231  0.00  0.00    -0.075 A 
ATOM      6  C7  UNL d   1       2.253  -3.017  -4.910  0.00  0.00     0.076 C 
ATOM      7  C8  UNL d   1       3.723  -2.979  -2.873  0.00  0.00     0.001 A 
ENDROOT
BRANCH   1   8
ATOM      8  C1  UNL d   1       5.095  -2.889  -0.754  0.00  0.00     0.053 C 
ATOM      9  C   UNL d   1       6.000  -3.877  -0.035  0.00  0.00     0.018 C 
ENDBRANCH   1   8
TORSDOF 1
ENDMDL
