MODEL 1
REMARK minimizedAffinity -1.38669169
REMARK minimizedRMSD -1
REMARK  1 active torsions:
REMARK  status: ('A' for Active; 'I' for Inactive)
REMARK    1  A    between atoms: C1_2  and  C2_3 
ROOT
ATOM      1  C2  UNL d   1       3.614   4.771  -2.767  0.00  0.00    -0.073 A 
ATOM      2  C3  UNL d   1       4.464   5.365  -1.828  0.00  0.00    -0.002 A 
ATOM      3  C4  UNL d   1       5.653   5.971  -2.238  0.00  0.00     0.004 A 
ATOM      4  C5  UNL d   1       6.000   5.994  -3.588  0.00  0.00    -0.004 A 
ATOM      5  C6  UNL d   1       5.157   5.416  -4.543  0.00  0.00    -0.075 A 
ATOM      6  C7  UNL d   1       5.517   5.431  -6.000  0.00  0.00     0.076 C 
ATOM      7  C8  UNL d   1       3.967   4.807  -4.124  0.00  0.00     0.001 A 
ENDROOT
BRANCH   1   8
ATOM      8  C1  UNL d   1       2.326   4.122  -2.331  0.00  0.00     0.053 C 
ATOM      9  C   UNL d   1       1.990   4.439  -0.882  0.00  0.00     0.018 C 
ENDBRANCH   1   8
TORSDOF 1
ENDMDL
