MODEL 1
REMARK minimizedAffinity 2.69111228
REMARK minimizedRMSD -1
REMARK  1 active torsions:
REMARK  status: ('A' for Active; 'I' for Inactive)
REMARK    1  A    between atoms: C1_2  and  C2_3 
ROOT
ATOM      1  C2  UNL d   1       3.571   4.263  -2.611  0.00  0.00    -0.073 A 
ATOM      2  C3  UNL d   1       4.696   4.424  -1.795  0.00  0.00    -0.002 A 
ATOM      3  C4  UNL d   1       5.905   4.859  -2.339  0.00  0.00     0.004 A 
ATOM      4  C5  UNL d   1       6.000   5.143  -3.702  0.00  0.00    -0.004 A 
ATOM      5  C6  UNL d   1       4.883   4.999  -4.532  0.00  0.00    -0.075 A 
ATOM      6  C7  UNL d   1       4.969   5.298  -5.999  0.00  0.00     0.076 C 
ATOM      7  C8  UNL d   1       3.673   4.560  -3.978  0.00  0.00     0.001 A 
ENDROOT
BRANCH   1   8
ATOM      8  C1  UNL d   1       2.261   3.800  -2.027  0.00  0.00     0.053 C 
ATOM      9  C   UNL d   1       2.166   4.095  -0.538  0.00  0.00     0.018 C 
ENDBRANCH   1   8
TORSDOF 1
ENDMDL
