MODEL 1
REMARK minimizedAffinity 4.81562328
REMARK minimizedRMSD -1
REMARK  1 active torsions:
REMARK  status: ('A' for Active; 'I' for Inactive)
REMARK    1  A    between atoms: C1_2  and  C2_3 
ROOT
ATOM      1  C2  UNL d   1       5.006   4.712  -4.684  0.00  0.00    -0.073 A 
ATOM      2  C3  UNL d   1       6.000   5.076  -3.768  0.00  0.00    -0.002 A 
ATOM      3  C4  UNL d   1       5.660   5.716  -2.576  0.00  0.00     0.004 A 
ATOM      4  C5  UNL d   1       4.324   5.991  -2.283  0.00  0.00    -0.004 A 
ATOM      5  C6  UNL d   1       3.315   5.625  -3.179  0.00  0.00    -0.075 A 
ATOM      6  C7  UNL d   1       1.874   5.916  -2.880  0.00  0.00     0.076 C 
ATOM      7  C8  UNL d   1       3.665   4.986  -4.376  0.00  0.00     0.001 A 
ENDROOT
BRANCH   1   8
ATOM      8  C1  UNL d   1       5.367   4.016  -5.970  0.00  0.00     0.053 C 
ATOM      9  C   UNL d   1       4.874   2.578  -5.998  0.00  0.00     0.018 C 
ENDBRANCH   1   8
TORSDOF 1
ENDMDL
