MODEL 1
REMARK minimizedAffinity 14.9027205
REMARK minimizedRMSD -1
REMARK  0 active torsions:
REMARK  status: ('A' for Active; 'I' for Inactive)
ROOT
ATOM      1  C   UNL d   1      -2.622   2.698   3.013  0.00  0.00     0.023 A 
ATOM      2  C1  UNL d   1      -3.931   2.996   2.633  0.00  0.00     0.003 A 
ATOM      3  C2  UNL d   1      -4.901   1.993   2.619  0.00  0.00     0.048 A 
ATOM      4  C3  UNL d   1      -4.556   0.692   2.985  0.00  0.00     0.023 A 
ATOM      5  C4  UNL d   1      -3.248   0.389   3.367  0.00  0.00     0.048 A 
ATOM      6  C5  UNL d   1      -2.281   1.395   3.379  0.00  0.00     0.003 A 
ATOM      7  I   UNL d   1      -5.999  -0.804   2.964  0.00  0.00    -0.146 I 
ENDROOT
TORSDOF 0
ENDMDL
