MODEL 1
REMARK minimizedAffinity 3.11855173
REMARK minimizedRMSD -1
REMARK  0 active torsions:
REMARK  status: ('A' for Active; 'I' for Inactive)
ROOT
ATOM      1  C   UNL d   1       1.135  -0.969  -1.749  0.00  0.00     0.023 A 
ATOM      2  C1  UNL d   1       0.237  -0.070  -2.326  0.00  0.00     0.003 A 
ATOM      3  C2  UNL d   1       0.591   1.272  -2.479  0.00  0.00     0.048 A 
ATOM      4  C3  UNL d   1       1.845   1.708  -2.054  0.00  0.00     0.023 A 
ATOM      5  C4  UNL d   1       2.747   0.813  -1.477  0.00  0.00     0.048 A 
ATOM      6  C5  UNL d   1       2.388  -0.527  -1.325  0.00  0.00     0.003 A 
ATOM      7  I   UNL d   1       2.375   3.705  -2.281  0.00  0.00    -0.146 I 
ENDROOT
TORSDOF 0
ENDMDL
