MODEL 1
REMARK minimizedAffinity 13.0433788
REMARK minimizedRMSD -1
REMARK  0 active torsions:
REMARK  status: ('A' for Active; 'I' for Inactive)
ROOT
ATOM      1  C   UNL d   1      -3.410   6.000   5.886  0.00  0.00     0.023 A 
ATOM      2  C1  UNL d   1      -2.387   5.985   4.938  0.00  0.00     0.003 A 
ATOM      3  C2  UNL d   1      -2.227   4.881   4.098  0.00  0.00     0.048 A 
ATOM      4  C3  UNL d   1      -3.095   3.795   4.212  0.00  0.00     0.023 A 
ATOM      5  C4  UNL d   1      -4.120   3.805   5.159  0.00  0.00     0.048 A 
ATOM      6  C5  UNL d   1      -4.276   4.911   5.996  0.00  0.00     0.003 A 
ATOM      7  I   UNL d   1      -2.859   2.150   2.963  0.00  0.00    -0.146 I 
ENDROOT
TORSDOF 0
ENDMDL
