MODEL 1
REMARK minimizedAffinity 12.0579805
REMARK minimizedRMSD -1
REMARK  0 active torsions:
REMARK  status: ('A' for Active; 'I' for Inactive)
ROOT
ATOM      1  C   UNL d   1       4.881  -0.722  -1.264  0.00  0.00     0.023 A 
ATOM      2  C1  UNL d   1       3.709  -1.127  -0.625  0.00  0.00     0.003 A 
ATOM      3  C2  UNL d   1       2.473  -0.641  -1.056  0.00  0.00     0.048 A 
ATOM      4  C3  UNL d   1       2.416   0.250  -2.128  0.00  0.00     0.023 A 
ATOM      5  C4  UNL d   1       3.586   0.657  -2.771  0.00  0.00     0.048 A 
ATOM      6  C5  UNL d   1       4.820   0.169  -2.335  0.00  0.00     0.003 A 
ATOM      7  I   UNL d   1       0.578   0.975  -2.772  0.00  0.00    -0.146 I 
ENDROOT
TORSDOF 0
ENDMDL
