MODEL 1
REMARK minimizedAffinity 17.9160748
REMARK minimizedRMSD -1
REMARK  0 active torsions:
REMARK  status: ('A' for Active; 'I' for Inactive)
ROOT
ATOM      1  C   UNL d   1       1.509  -2.238  -1.721  0.00  0.00     0.023 A 
ATOM      2  C1  UNL d   1       1.880  -0.934  -2.047  0.00  0.00     0.003 A 
ATOM      3  C2  UNL d   1       1.499  -0.383  -3.272  0.00  0.00     0.048 A 
ATOM      4  C3  UNL d   1       0.747  -1.142  -4.167  0.00  0.00     0.023 A 
ATOM      5  C4  UNL d   1       0.372  -2.448  -3.846  0.00  0.00     0.048 A 
ATOM      6  C5  UNL d   1       0.756  -2.995  -2.620  0.00  0.00     0.003 A 
ATOM      7  I   UNL d   1       0.179  -0.325  -5.992  0.00  0.00    -0.146 I 
ENDROOT
TORSDOF 0
ENDMDL
