MODEL 1
REMARK minimizedAffinity 8.40910912
REMARK minimizedRMSD -1
REMARK  0 active torsions:
REMARK  status: ('A' for Active; 'I' for Inactive)
ROOT
ATOM      1  C   UNL d   1       0.716  -0.077  -3.184  0.00  0.00     0.023 A 
ATOM      2  C1  UNL d   1       1.701   0.155  -2.224  0.00  0.00     0.003 A 
ATOM      3  C2  UNL d   1       2.383   1.373  -2.201  0.00  0.00     0.048 A 
ATOM      4  C3  UNL d   1       2.074   2.356  -3.140  0.00  0.00     0.023 A 
ATOM      5  C4  UNL d   1       1.089   2.129  -4.103  0.00  0.00     0.048 A 
ATOM      6  C5  UNL d   1       0.410   0.909  -4.122  0.00  0.00     0.003 A 
ATOM      7  I   UNL d   1       3.087   4.170  -3.108  0.00  0.00    -0.146 I 
ENDROOT
TORSDOF 0
ENDMDL
