MODEL 1
REMARK minimizedAffinity 13.1914034
REMARK minimizedRMSD -1
REMARK  0 active torsions:
REMARK  status: ('A' for Active; 'I' for Inactive)
ROOT
ATOM      1  C   UNL d   1      -2.429   5.656   5.978  0.00  0.00     0.023 A 
ATOM      2  C1  UNL d   1      -3.782   5.998   5.999  0.00  0.00     0.003 A 
ATOM      3  C2  UNL d   1      -4.629   5.562   4.978  0.00  0.00     0.048 A 
ATOM      4  C3  UNL d   1      -4.117   4.785   3.939  0.00  0.00     0.023 A 
ATOM      5  C4  UNL d   1      -2.765   4.440   3.915  0.00  0.00     0.048 A 
ATOM      6  C5  UNL d   1      -1.922   4.878   4.937  0.00  0.00     0.003 A 
ATOM      7  I   UNL d   1      -5.377   4.135   2.419  0.00  0.00    -0.146 I 
ENDROOT
TORSDOF 0
ENDMDL
