MODEL 1
REMARK minimizedAffinity 15.2258873
REMARK minimizedRMSD -1
REMARK  0 active torsions:
REMARK  status: ('A' for Active; 'I' for Inactive)
ROOT
ATOM      1  C   UNL d   1       1.392   1.450  -2.865  0.00  0.00     0.023 A 
ATOM      2  C1  UNL d   1       0.169   2.120  -2.891  0.00  0.00     0.003 A 
ATOM      3  C2  UNL d   1      -0.881   1.690  -2.077  0.00  0.00     0.048 A 
ATOM      4  C3  UNL d   1      -0.701   0.590  -1.239  0.00  0.00     0.023 A 
ATOM      5  C4  UNL d   1       0.521  -0.083  -1.209  0.00  0.00     0.048 A 
ATOM      6  C5  UNL d   1       1.568   0.350  -2.025  0.00  0.00     0.003 A 
ATOM      7  I   UNL d   1      -2.263  -0.051  -0.027  0.00  0.00    -0.146 I 
ENDROOT
TORSDOF 0
ENDMDL
