MODEL 1
REMARK minimizedAffinity 3.65659094
REMARK minimizedRMSD -1
REMARK  0 active torsions:
REMARK  status: ('A' for Active; 'I' for Inactive)
ROOT
ATOM      1  C   UNL d   1       4.898  -5.716   5.811  0.00  0.00     0.023 A 
ATOM      2  C1  UNL d   1       6.000  -4.882   5.999  0.00  0.00     0.003 A 
ATOM      3  C2  UNL d   1       5.985  -3.579   5.499  0.00  0.00     0.048 A 
ATOM      4  C3  UNL d   1       4.864  -3.115   4.811  0.00  0.00     0.023 A 
ATOM      5  C4  UNL d   1       3.758  -3.946   4.621  0.00  0.00     0.048 A 
ATOM      6  C5  UNL d   1       3.778  -5.248   5.122  0.00  0.00     0.003 A 
ATOM      7  I   UNL d   1       4.839  -1.175   4.065  0.00  0.00    -0.146 I 
ENDROOT
TORSDOF 0
ENDMDL
