MODEL 1
REMARK minimizedAffinity 4.33421564
REMARK minimizedRMSD -1
REMARK  0 active torsions:
REMARK  status: ('A' for Active; 'I' for Inactive)
ROOT
ATOM      1  C   UNL d   1       3.409   3.571  -5.574  0.00  0.00     0.023 A 
ATOM      2  C1  UNL d   1       2.831   4.244  -4.498  0.00  0.00     0.003 A 
ATOM      3  C2  UNL d   1       2.049   3.548  -3.575  0.00  0.00     0.048 A 
ATOM      4  C3  UNL d   1       1.849   2.177  -3.733  0.00  0.00     0.023 A 
ATOM      5  C4  UNL d   1       2.426   1.498  -4.808  0.00  0.00     0.048 A 
ATOM      6  C5  UNL d   1       3.206   2.199  -5.729  0.00  0.00     0.003 A 
ATOM      7  I   UNL d   1       0.685   1.137  -2.360  0.00  0.00    -0.146 I 
ENDROOT
TORSDOF 0
ENDMDL
