MODEL 1
REMARK minimizedAffinity 9.25511742
REMARK minimizedRMSD -1
REMARK  0 active torsions:
REMARK  status: ('A' for Active; 'I' for Inactive)
ROOT
ATOM      1  C   UNL d   1       0.149   0.183  -2.280  0.00  0.00     0.023 A 
ATOM      2  C1  UNL d   1       0.688  -0.106  -3.534  0.00  0.00     0.003 A 
ATOM      3  C2  UNL d   1       1.481   0.838  -4.189  0.00  0.00     0.048 A 
ATOM      4  C3  UNL d   1       1.733   2.069  -3.583  0.00  0.00     0.023 A 
ATOM      5  C4  UNL d   1       1.197   2.362  -2.328  0.00  0.00     0.048 A 
ATOM      6  C5  UNL d   1       0.404   1.415  -1.678  0.00  0.00     0.003 A 
ATOM      7  I   UNL d   1       2.914   3.476  -4.555  0.00  0.00    -0.146 I 
ENDROOT
TORSDOF 0
ENDMDL
