MODEL 1
REMARK minimizedAffinity 2.73198462
REMARK minimizedRMSD -1
REMARK  0 active torsions:
REMARK  status: ('A' for Active; 'I' for Inactive)
ROOT
ATOM      1  C   UNL d   1       0.125   1.460  -0.614  0.00  0.00     0.023 A 
ATOM      2  C1  UNL d   1       0.802   2.653  -0.867  0.00  0.00     0.003 A 
ATOM      3  C2  UNL d   1       1.410   2.863  -2.107  0.00  0.00     0.048 A 
ATOM      4  C3  UNL d   1       1.335   1.877  -3.089  0.00  0.00     0.023 A 
ATOM      5  C4  UNL d   1       0.658   0.682  -2.841  0.00  0.00     0.048 A 
ATOM      6  C5  UNL d   1       0.053   0.476  -1.599  0.00  0.00     0.003 A 
ATOM      7  I   UNL d   1       2.238   2.187  -4.935  0.00  0.00    -0.146 I 
ENDROOT
TORSDOF 0
ENDMDL
