MODEL 1
REMARK minimizedAffinity 7.84177256
REMARK minimizedRMSD -1
REMARK  0 active torsions:
REMARK  status: ('A' for Active; 'I' for Inactive)
ROOT
ATOM      1  C   UNL d   1       0.904   1.105  -3.823  0.00  0.00     0.023 A 
ATOM      2  C1  UNL d   1       1.712   2.238  -3.926  0.00  0.00     0.003 A 
ATOM      3  C2  UNL d   1       1.966   3.021  -2.798  0.00  0.00     0.048 A 
ATOM      4  C3  UNL d   1       1.411   2.665  -1.570  0.00  0.00     0.023 A 
ATOM      5  C4  UNL d   1       0.602   1.533  -1.461  0.00  0.00     0.048 A 
ATOM      6  C5  UNL d   1       0.350   0.753  -2.592  0.00  0.00     0.003 A 
ATOM      7  I   UNL d   1       1.788   3.829   0.110  0.00  0.00    -0.146 I 
ENDROOT
TORSDOF 0
ENDMDL
