MODEL 1
REMARK minimizedAffinity 2.6327188
REMARK minimizedRMSD -1
REMARK  0 active torsions:
REMARK  status: ('A' for Active; 'I' for Inactive)
ROOT
ATOM      1  C   UNL d   1       1.486   2.234  -3.681  0.00  0.00     0.023 A 
ATOM      2  C1  UNL d   1       0.487   1.872  -2.777  0.00  0.00     0.003 A 
ATOM      3  C2  UNL d   1       0.665   0.766  -1.944  0.00  0.00     0.048 A 
ATOM      4  C3  UNL d   1       1.844   0.026  -2.020  0.00  0.00     0.023 A 
ATOM      5  C4  UNL d   1       2.847   0.384  -2.922  0.00  0.00     0.048 A 
ATOM      6  C5  UNL d   1       2.664   1.491  -3.754  0.00  0.00     0.003 A 
ATOM      7  I   UNL d   1       2.111  -1.622  -0.781  0.00  0.00    -0.146 I 
ENDROOT
TORSDOF 0
ENDMDL
