MODEL 1
REMARK minimizedAffinity 7.04394436
REMARK minimizedRMSD -1
REMARK  0 active torsions:
REMARK  status: ('A' for Active; 'I' for Inactive)
ROOT
ATOM      1  C   UNL d   1       0.604   0.112  -1.665  0.00  0.00     0.023 A 
ATOM      2  C1  UNL d   1       0.568   1.429  -1.205  0.00  0.00     0.003 A 
ATOM      3  C2  UNL d   1       1.181   2.444  -1.942  0.00  0.00     0.048 A 
ATOM      4  C3  UNL d   1       1.828   2.135  -3.139  0.00  0.00     0.023 A 
ATOM      5  C4  UNL d   1       1.866   0.820  -3.603  0.00  0.00     0.048 A 
ATOM      6  C5  UNL d   1       1.253  -0.192  -2.862  0.00  0.00     0.003 A 
ATOM      7  I   UNL d   1       2.742   3.645  -4.237  0.00  0.00    -0.146 I 
ENDROOT
TORSDOF 0
ENDMDL
