MODEL 1
REMARK minimizedAffinity 5.31926107
REMARK minimizedRMSD -1
REMARK  0 active torsions:
REMARK  status: ('A' for Active; 'I' for Inactive)
ROOT
ATOM      1  C   UNL d   1       3.863   4.444  -3.235  0.00  0.00     0.023 A 
ATOM      2  C1  UNL d   1       3.906   3.372  -4.126  0.00  0.00     0.003 A 
ATOM      3  C2  UNL d   1       3.036   2.292  -3.963  0.00  0.00     0.048 A 
ATOM      4  C3  UNL d   1       2.124   2.291  -2.908  0.00  0.00     0.023 A 
ATOM      5  C4  UNL d   1       2.077   3.363  -2.014  0.00  0.00     0.048 A 
ATOM      6  C5  UNL d   1       2.949   4.440  -2.180  0.00  0.00     0.003 A 
ATOM      7  I   UNL d   1       0.828   0.685  -2.664  0.00  0.00    -0.146 I 
ENDROOT
TORSDOF 0
ENDMDL
