MODEL 1
REMARK minimizedAffinity 11.8923674
REMARK minimizedRMSD -1
REMARK  0 active torsions:
REMARK  status: ('A' for Active; 'I' for Inactive)
ROOT
ATOM      1  C   UNL d   1       1.241   2.188  -2.927  0.00  0.00     0.023 A 
ATOM      2  C1  UNL d   1       1.924   1.316  -3.775  0.00  0.00     0.003 A 
ATOM      3  C2  UNL d   1       1.607  -0.044  -3.783  0.00  0.00     0.048 A 
ATOM      4  C3  UNL d   1       0.605  -0.525  -2.940  0.00  0.00     0.023 A 
ATOM      5  C4  UNL d   1      -0.081   0.344  -2.090  0.00  0.00     0.048 A 
ATOM      6  C5  UNL d   1       0.240   1.703  -2.085  0.00  0.00     0.003 A 
ATOM      7  I   UNL d   1       0.131  -2.548  -2.950  0.00  0.00    -0.146 I 
ENDROOT
TORSDOF 0
ENDMDL
