MODEL 1
REMARK minimizedAffinity 5.41984129
REMARK minimizedRMSD -1
REMARK  0 active torsions:
REMARK  status: ('A' for Active; 'I' for Inactive)
ROOT
ATOM      1  C   UNL d   1      -3.916  -2.103   2.992  0.00  0.00     0.077 C 
ATOM      2  C1  UNL d   1      -2.612  -1.362   3.023  0.00  0.00    -0.074 A 
ATOM      3  C2  UNL d   1      -2.520  -0.049   2.551  0.00  0.00    -0.005 A 
ATOM      4  C3  UNL d   1      -1.303   0.631   2.595  0.00  0.00     0.006 A 
ATOM      5  C4  UNL d   1      -0.167   0.005   3.110  0.00  0.00    -0.005 A 
ATOM      6  C5  UNL d   1      -0.240  -1.307   3.587  0.00  0.00    -0.074 A 
ATOM      7  C6  UNL d   1       0.969  -1.991   4.153  0.00  0.00     0.077 C 
ATOM      8  C7  UNL d   1      -1.468  -1.981   3.546  0.00  0.00    -0.001 A 
ENDROOT
TORSDOF 0
ENDMDL
