MODEL 1
REMARK minimizedAffinity 14.9099836
REMARK minimizedRMSD -1
REMARK  0 active torsions:
REMARK  status: ('A' for Active; 'I' for Inactive)
ROOT
ATOM      1  C   UNL d   1       4.932   5.999   2.740  0.00  0.00     0.077 C 
ATOM      2  C1  UNL d   1       4.547   4.579   2.449  0.00  0.00    -0.074 A 
ATOM      3  C2  UNL d   1       4.130   4.195   1.171  0.00  0.00    -0.005 A 
ATOM      4  C3  UNL d   1       3.785   2.869   0.912  0.00  0.00     0.006 A 
ATOM      5  C4  UNL d   1       3.853   1.914   1.928  0.00  0.00    -0.005 A 
ATOM      6  C5  UNL d   1       4.270   2.279   3.212  0.00  0.00    -0.074 A 
ATOM      7  C6  UNL d   1       4.359   1.264   4.313  0.00  0.00     0.077 C 
ATOM      8  C7  UNL d   1       4.621   3.613   3.462  0.00  0.00    -0.001 A 
ENDROOT
TORSDOF 0
ENDMDL
