MODEL 1
REMARK minimizedAffinity 17.6013508
REMARK minimizedRMSD -1
REMARK  0 active torsions:
REMARK  status: ('A' for Active; 'I' for Inactive)
ROOT
ATOM      1  C   UNL d   1       4.313   1.680   3.777  0.00  0.00     0.077 C 
ATOM      2  C1  UNL d   1       3.174   1.416   2.838  0.00  0.00    -0.074 A 
ATOM      3  C2  UNL d   1       3.170   1.951   1.545  0.00  0.00    -0.005 A 
ATOM      4  C3  UNL d   1       2.108   1.689   0.679  0.00  0.00     0.006 A 
ATOM      5  C4  UNL d   1       1.042   0.891   1.096  0.00  0.00    -0.005 A 
ATOM      6  C5  UNL d   1       1.029   0.347   2.384  0.00  0.00    -0.074 A 
ATOM      7  C6  UNL d   1      -0.104  -0.521   2.844  0.00  0.00     0.077 C 
ATOM      8  C7  UNL d   1       2.103   0.609   3.246  0.00  0.00    -0.001 A 
ENDROOT
TORSDOF 0
ENDMDL
