MODEL 1
REMARK minimizedAffinity 7.47992277
REMARK minimizedRMSD -1
REMARK  0 active torsions:
REMARK  status: ('A' for Active; 'I' for Inactive)
ROOT
ATOM      1  C   UNL d   1       3.921   6.000   2.315  0.00  0.00     0.077 C 
ATOM      2  C1  UNL d   1       3.926   4.501   2.271  0.00  0.00    -0.074 A 
ATOM      3  C2  UNL d   1       3.713   3.816   1.070  0.00  0.00    -0.005 A 
ATOM      4  C3  UNL d   1       3.730   2.421   1.044  0.00  0.00     0.006 A 
ATOM      5  C4  UNL d   1       3.959   1.699   2.215  0.00  0.00    -0.005 A 
ATOM      6  C5  UNL d   1       4.175   2.366   3.425  0.00  0.00    -0.074 A 
ATOM      7  C6  UNL d   1       4.432   1.605   4.691  0.00  0.00     0.077 C 
ATOM      8  C7  UNL d   1       4.163   3.768   3.442  0.00  0.00    -0.001 A 
ENDROOT
TORSDOF 0
ENDMDL
