MODEL 1
REMARK minimizedAffinity 17.2488689
REMARK minimizedRMSD -1
REMARK  0 active torsions:
REMARK  status: ('A' for Active; 'I' for Inactive)
ROOT
ATOM      1  C   UNL d   1       4.041  -0.323  -5.655  0.00  0.00     0.077 C 
ATOM      2  C1  UNL d   1       2.661  -0.707  -5.209  0.00  0.00    -0.074 A 
ATOM      3  C2  UNL d   1       1.983   0.042  -4.242  0.00  0.00    -0.005 A 
ATOM      4  C3  UNL d   1       0.697  -0.322  -3.844  0.00  0.00     0.006 A 
ATOM      5  C4  UNL d   1       0.077  -1.438  -4.408  0.00  0.00    -0.005 A 
ATOM      6  C5  UNL d   1       0.739  -2.199  -5.376  0.00  0.00    -0.074 A 
ATOM      7  C6  UNL d   1       0.083  -3.395  -5.999  0.00  0.00     0.077 C 
ATOM      8  C7  UNL d   1       2.028  -1.822  -5.776  0.00  0.00    -0.001 A 
ENDROOT
TORSDOF 0
ENDMDL
