MODEL 1
REMARK minimizedAffinity 4.82232809
REMARK minimizedRMSD -1
REMARK  0 active torsions:
REMARK  status: ('A' for Active; 'I' for Inactive)
ROOT
ATOM      1  C   UNL d   1       1.717  -2.287   4.660  0.00  0.00     0.077 C 
ATOM      2  C1  UNL d   1       1.132  -0.970   4.245  0.00  0.00    -0.074 A 
ATOM      3  C2  UNL d   1       0.554  -0.805   2.982  0.00  0.00    -0.005 A 
ATOM      4  C3  UNL d   1       0.005   0.423   2.614  0.00  0.00     0.006 A 
ATOM      5  C4  UNL d   1       0.028   1.498   3.504  0.00  0.00    -0.005 A 
ATOM      6  C5  UNL d   1       0.601   1.352   4.772  0.00  0.00    -0.074 A 
ATOM      7  C6  UNL d   1       0.625   2.494   5.744  0.00  0.00     0.077 C 
ATOM      8  C7  UNL d   1       1.144   0.112   5.137  0.00  0.00    -0.001 A 
ENDROOT
TORSDOF 0
ENDMDL
