MODEL 1
REMARK minimizedAffinity 6.02115011
REMARK minimizedRMSD -1
REMARK  0 active torsions:
REMARK  status: ('A' for Active; 'I' for Inactive)
ROOT
ATOM      1  C   UNL d   1       6.000   5.605   4.895  0.00  0.00     0.077 C 
ATOM      2  C1  UNL d   1       5.227   5.108   3.709  0.00  0.00    -0.074 A 
ATOM      3  C2  UNL d   1       4.698   6.000   2.771  0.00  0.00    -0.005 A 
ATOM      4  C3  UNL d   1       3.989   5.522   1.669  0.00  0.00     0.006 A 
ATOM      5  C4  UNL d   1       3.803   4.150   1.493  0.00  0.00    -0.005 A 
ATOM      6  C5  UNL d   1       4.326   3.244   2.421  0.00  0.00    -0.074 A 
ATOM      7  C6  UNL d   1       4.144   1.766   2.242  0.00  0.00     0.077 C 
ATOM      8  C7  UNL d   1       5.043   3.731   3.522  0.00  0.00    -0.001 A 
ENDROOT
TORSDOF 0
ENDMDL
