MODEL 1
REMARK minimizedAffinity 6.77046394
REMARK minimizedRMSD -1
REMARK  0 active torsions:
REMARK  status: ('A' for Active; 'I' for Inactive)
ROOT
ATOM      1  C   UNL d   1       5.826   6.000   2.804  0.00  0.00     0.077 C 
ATOM      2  C1  UNL d   1       5.122   5.232   3.882  0.00  0.00    -0.074 A 
ATOM      3  C2  UNL d   1       4.210   5.862   4.736  0.00  0.00    -0.005 A 
ATOM      4  C3  UNL d   1       3.556   5.133   5.728  0.00  0.00     0.006 A 
ATOM      5  C4  UNL d   1       3.805   3.768   5.877  0.00  0.00    -0.005 A 
ATOM      6  C5  UNL d   1       4.712   3.120   5.032  0.00  0.00    -0.074 A 
ATOM      7  C6  UNL d   1       4.984   1.652   5.172  0.00  0.00     0.077 C 
ATOM      8  C7  UNL d   1       5.361   3.859   4.033  0.00  0.00    -0.001 A 
ENDROOT
TORSDOF 0
ENDMDL
