MODEL 1
REMARK minimizedAffinity 15.413518
REMARK minimizedRMSD -1
REMARK  0 active torsions:
REMARK  status: ('A' for Active; 'I' for Inactive)
ROOT
ATOM      1  C   UNL d   1      -1.516  -3.910  -6.000  0.00  0.00     0.077 C 
ATOM      2  C1  UNL d   1      -1.132  -2.926  -4.935  0.00  0.00    -0.074 A 
ATOM      3  C2  UNL d   1      -1.705  -2.986  -3.661  0.00  0.00    -0.005 A 
ATOM      4  C3  UNL d   1      -1.331  -2.070  -2.678  0.00  0.00     0.006 A 
ATOM      5  C4  UNL d   1      -0.382  -1.086  -2.959  0.00  0.00    -0.005 A 
ATOM      6  C5  UNL d   1       0.202  -1.012  -4.227  0.00  0.00    -0.074 A 
ATOM      7  C6  UNL d   1       1.231   0.033  -4.542  0.00  0.00     0.077 C 
ATOM      8  C7  UNL d   1      -0.174  -1.940  -5.207  0.00  0.00    -0.001 A 
ENDROOT
TORSDOF 0
ENDMDL
