MODEL 1
REMARK minimizedAffinity 5.13448
REMARK minimizedRMSD -1
REMARK  0 active torsions:
REMARK  status: ('A' for Active; 'I' for Inactive)
ROOT
ATOM      1  C   UNL d   1      -2.177  -1.052   2.321  0.00  0.00     0.077 C 
ATOM      2  C1  UNL d   1      -0.777  -0.907   2.838  0.00  0.00    -0.074 A 
ATOM      3  C2  UNL d   1      -0.066   0.285   2.663  0.00  0.00    -0.005 A 
ATOM      4  C3  UNL d   1       1.232   0.409   3.158  0.00  0.00     0.006 A 
ATOM      5  C4  UNL d   1       1.831  -0.656   3.832  0.00  0.00    -0.005 A 
ATOM      6  C5  UNL d   1       1.136  -1.855   4.018  0.00  0.00    -0.074 A 
ATOM      7  C6  UNL d   1       1.762  -3.005   4.748  0.00  0.00     0.077 C 
ATOM      8  C7  UNL d   1      -0.171  -1.969   3.523  0.00  0.00    -0.001 A 
ENDROOT
TORSDOF 0
ENDMDL
