MODEL 1
REMARK minimizedAffinity -3.51734185
REMARK minimizedRMSD -1
REMARK  0 active torsions:
REMARK  status: ('A' for Active; 'I' for Inactive)
ROOT
ATOM      1  C   UNL d   1      -5.746   2.397   5.272  0.00  0.00     0.078 C 
ATOM      2  C1  UNL d   1      -5.487   3.623   4.448  0.00  0.00    -0.077 A 
ATOM      3  C2  UNL d   1      -6.000   4.869   4.828  0.00  0.00    -0.001 A 
ATOM      4  C3  UNL d   1      -5.759   6.000   4.046  0.00  0.00     0.003 A 
ATOM      5  C4  UNL d   1      -5.007   5.895   2.877  0.00  0.00    -0.005 A 
ATOM      6  C5  UNL d   1      -4.495   4.659   2.490  0.00  0.00     0.003 A 
ATOM      7  C6  UNL d   1      -4.734   3.527   3.271  0.00  0.00    -0.001 A 
ENDROOT
TORSDOF 0
ENDMDL
