MODEL 1
REMARK minimizedAffinity -3.32377243
REMARK minimizedRMSD -1
REMARK  0 active torsions:
REMARK  status: ('A' for Active; 'I' for Inactive)
ROOT
ATOM      1  C   UNL d   1      -4.849   5.833   1.632  0.00  0.00     0.078 C 
ATOM      2  C1  UNL d   1      -4.870   5.124   2.953  0.00  0.00    -0.077 A 
ATOM      3  C2  UNL d   1      -5.997   5.180   3.783  0.00  0.00    -0.001 A 
ATOM      4  C3  UNL d   1      -5.999   4.523   5.015  0.00  0.00     0.003 A 
ATOM      5  C4  UNL d   1      -4.878   3.807   5.428  0.00  0.00    -0.005 A 
ATOM      6  C5  UNL d   1      -3.751   3.747   4.610  0.00  0.00     0.003 A 
ATOM      7  C6  UNL d   1      -3.747   4.404   3.378  0.00  0.00    -0.001 A 
ENDROOT
TORSDOF 0
ENDMDL
