MODEL 1
REMARK minimizedAffinity -3.65515471
REMARK minimizedRMSD -1
REMARK  0 active torsions:
REMARK  status: ('A' for Active; 'I' for Inactive)
ROOT
ATOM      1  C   UNL d   1      -5.214   5.885   0.891  0.00  0.00     0.078 C 
ATOM      2  C1  UNL d   1      -5.013   5.017   2.097  0.00  0.00    -0.077 A 
ATOM      3  C2  UNL d   1      -5.182   3.629   2.022  0.00  0.00    -0.001 A 
ATOM      4  C3  UNL d   1      -5.001   2.833   3.155  0.00  0.00     0.003 A 
ATOM      5  C4  UNL d   1      -4.653   3.417   4.371  0.00  0.00    -0.005 A 
ATOM      6  C5  UNL d   1      -4.485   4.798   4.456  0.00  0.00     0.003 A 
ATOM      7  C6  UNL d   1      -4.665   5.595   3.324  0.00  0.00    -0.001 A 
ENDROOT
TORSDOF 0
ENDMDL
