MODEL 1
REMARK minimizedAffinity -2.66849113
REMARK minimizedRMSD -1
REMARK  0 active torsions:
REMARK  status: ('A' for Active; 'I' for Inactive)
ROOT
ATOM      1  C   UNL d   1      -5.461   5.976   1.134  0.00  0.00     0.078 C 
ATOM      2  C1  UNL d   1      -5.170   5.052   2.278  0.00  0.00    -0.077 A 
ATOM      3  C2  UNL d   1      -4.742   5.548   3.515  0.00  0.00    -0.001 A 
ATOM      4  C3  UNL d   1      -4.465   4.675   4.568  0.00  0.00     0.003 A 
ATOM      5  C4  UNL d   1      -4.613   3.300   4.395  0.00  0.00    -0.005 A 
ATOM      6  C5  UNL d   1      -5.037   2.797   3.167  0.00  0.00     0.003 A 
ATOM      7  C6  UNL d   1      -5.314   3.669   2.112  0.00  0.00    -0.001 A 
ENDROOT
TORSDOF 0
ENDMDL
