MODEL 1
REMARK minimizedAffinity -2.78830886
REMARK minimizedRMSD -1
REMARK  0 active torsions:
REMARK  status: ('A' for Active; 'I' for Inactive)
ROOT
ATOM      1  C   UNL d   1      -5.627   5.110   2.303  0.00  0.00     0.078 C 
ATOM      2  C1  UNL d   1      -5.636   4.348   3.594  0.00  0.00    -0.077 A 
ATOM      3  C2  UNL d   1      -5.999   4.970   4.795  0.00  0.00    -0.001 A 
ATOM      4  C3  UNL d   1      -5.994   4.252   5.992  0.00  0.00     0.003 A 
ATOM      5  C4  UNL d   1      -5.626   2.908   6.000  0.00  0.00    -0.005 A 
ATOM      6  C5  UNL d   1      -5.261   2.281   4.810  0.00  0.00     0.003 A 
ATOM      7  C6  UNL d   1      -5.265   2.998   3.612  0.00  0.00    -0.001 A 
ENDROOT
TORSDOF 0
ENDMDL
