MODEL 1
REMARK minimizedAffinity -3.62112355
REMARK minimizedRMSD -1
REMARK  0 active torsions:
REMARK  status: ('A' for Active; 'I' for Inactive)
ROOT
ATOM      1  C   UNL d   1      -4.499   5.251   0.899  0.00  0.00     0.078 C 
ATOM      2  C1  UNL d   1      -4.642   4.991   2.369  0.00  0.00    -0.077 A 
ATOM      3  C2  UNL d   1      -5.880   4.646   2.924  0.00  0.00    -0.001 A 
ATOM      4  C3  UNL d   1      -6.000   4.417   4.296  0.00  0.00     0.003 A 
ATOM      5  C4  UNL d   1      -4.885   4.532   5.124  0.00  0.00    -0.005 A 
ATOM      6  C5  UNL d   1      -3.649   4.877   4.581  0.00  0.00     0.003 A 
ATOM      7  C6  UNL d   1      -3.528   5.107   3.210  0.00  0.00    -0.001 A 
ENDROOT
TORSDOF 0
ENDMDL
