MODEL 1
REMARK minimizedAffinity -3.82971621
REMARK minimizedRMSD -1
REMARK  0 active torsions:
REMARK  status: ('A' for Active; 'I' for Inactive)
ROOT
ATOM      1  C   UNL d   1      -4.083   1.879   3.613  0.00  0.00     0.078 C 
ATOM      2  C1  UNL d   1      -4.494   3.314   3.749  0.00  0.00    -0.077 A 
ATOM      3  C2  UNL d   1      -4.494   4.173   2.643  0.00  0.00    -0.001 A 
ATOM      4  C3  UNL d   1      -4.870   5.509   2.787  0.00  0.00     0.003 A 
ATOM      5  C4  UNL d   1      -5.248   6.000   4.035  0.00  0.00    -0.005 A 
ATOM      6  C5  UNL d   1      -5.249   5.154   5.142  0.00  0.00     0.003 A 
ATOM      7  C6  UNL d   1      -4.874   3.817   5.001  0.00  0.00    -0.001 A 
ENDROOT
TORSDOF 0
ENDMDL
