MODEL 1
REMARK minimizedAffinity -3.3891921
REMARK minimizedRMSD -1
REMARK  0 active torsions:
REMARK  status: ('A' for Active; 'I' for Inactive)
ROOT
ATOM      1  C   UNL d   1      -4.856   5.990   1.392  0.00  0.00     0.078 C 
ATOM      2  C1  UNL d   1      -4.914   5.398   2.769  0.00  0.00    -0.077 A 
ATOM      3  C2  UNL d   1      -5.793   4.350   3.067  0.00  0.00    -0.001 A 
ATOM      4  C3  UNL d   1      -5.843   3.815   4.355  0.00  0.00     0.003 A 
ATOM      5  C4  UNL d   1      -5.017   4.323   5.356  0.00  0.00    -0.005 A 
ATOM      6  C5  UNL d   1      -4.140   5.367   5.069  0.00  0.00     0.003 A 
ATOM      7  C6  UNL d   1      -4.088   5.903   3.781  0.00  0.00    -0.001 A 
ENDROOT
TORSDOF 0
ENDMDL
