MODEL 1
REMARK minimizedAffinity -3.02766585
REMARK minimizedRMSD -1
REMARK  0 active torsions:
REMARK  status: ('A' for Active; 'I' for Inactive)
ROOT
ATOM      1  C   UNL d   1      -4.872   2.730   5.435  0.00  0.00     0.078 C 
ATOM      2  C1  UNL d   1      -5.006   3.850   4.447  0.00  0.00    -0.077 A 
ATOM      3  C2  UNL d   1      -4.282   3.845   3.249  0.00  0.00    -0.001 A 
ATOM      4  C3  UNL d   1      -4.409   4.899   2.342  0.00  0.00     0.003 A 
ATOM      5  C4  UNL d   1      -5.259   5.966   2.626  0.00  0.00    -0.005 A 
ATOM      6  C5  UNL d   1      -5.982   5.981   3.817  0.00  0.00     0.003 A 
ATOM      7  C6  UNL d   1      -5.855   4.928   4.724  0.00  0.00    -0.001 A 
ENDROOT
TORSDOF 0
ENDMDL
