MODEL 1
REMARK minimizedAffinity -3.43681002
REMARK minimizedRMSD -1
REMARK  0 active torsions:
REMARK  status: ('A' for Active; 'I' for Inactive)
ROOT
ATOM      1  C   UNL d   1      -4.875   5.818   2.014  0.00  0.00     0.078 C 
ATOM      2  C1  UNL d   1      -4.996   5.225   3.385  0.00  0.00    -0.077 A 
ATOM      3  C2  UNL d   1      -4.625   3.897   3.632  0.00  0.00    -0.001 A 
ATOM      4  C3  UNL d   1      -4.752   3.355   4.912  0.00  0.00     0.003 A 
ATOM      5  C4  UNL d   1      -5.251   4.133   5.955  0.00  0.00    -0.005 A 
ATOM      6  C5  UNL d   1      -5.625   5.455   5.719  0.00  0.00     0.003 A 
ATOM      7  C6  UNL d   1      -5.499   5.998   4.439  0.00  0.00    -0.001 A 
ENDROOT
TORSDOF 0
ENDMDL
