MODEL 1
REMARK minimizedAffinity -3.66834998
REMARK minimizedRMSD -1
REMARK  0 active torsions:
REMARK  status: ('A' for Active; 'I' for Inactive)
ROOT
ATOM      1  C   UNL d   1      -5.938   2.583   5.367  0.00  0.00     0.078 C 
ATOM      2  C1  UNL d   1      -5.569   3.671   4.403  0.00  0.00    -0.077 A 
ATOM      3  C2  UNL d   1      -6.000   4.989   4.603  0.00  0.00    -0.001 A 
ATOM      4  C3  UNL d   1      -5.657   5.989   3.692  0.00  0.00     0.003 A 
ATOM      5  C4  UNL d   1      -4.883   5.683   2.575  0.00  0.00    -0.005 A 
ATOM      6  C5  UNL d   1      -4.452   4.374   2.366  0.00  0.00     0.003 A 
ATOM      7  C6  UNL d   1      -4.794   3.372   3.276  0.00  0.00    -0.001 A 
ENDROOT
TORSDOF 0
ENDMDL
