MODEL 1
REMARK minimizedAffinity -3.6762445
REMARK minimizedRMSD -1
REMARK  0 active torsions:
REMARK  status: ('A' for Active; 'I' for Inactive)
ROOT
ATOM      1  C   UNL d   1      -4.844   6.000   1.441  0.00  0.00     0.078 C 
ATOM      2  C1  UNL d   1      -4.753   5.383   2.805  0.00  0.00    -0.077 A 
ATOM      3  C2  UNL d   1      -3.951   5.953   3.802  0.00  0.00    -0.001 A 
ATOM      4  C3  UNL d   1      -3.868   5.363   5.064  0.00  0.00     0.003 A 
ATOM      5  C4  UNL d   1      -4.583   4.200   5.341  0.00  0.00    -0.005 A 
ATOM      6  C5  UNL d   1      -5.382   3.624   4.354  0.00  0.00     0.003 A 
ATOM      7  C6  UNL d   1      -5.466   4.213   3.092  0.00  0.00    -0.001 A 
ENDROOT
TORSDOF 0
ENDMDL
