MODEL 1
REMARK minimizedAffinity -2.86313152
REMARK minimizedRMSD -1
REMARK  0 active torsions:
REMARK  status: ('A' for Active; 'I' for Inactive)
ROOT
ATOM      1  C   UNL d   1      -5.803   4.855   2.217  0.00  0.00     0.078 C 
ATOM      2  C1  UNL d   1      -5.794   4.116   3.522  0.00  0.00    -0.077 A 
ATOM      3  C2  UNL d   1      -5.600   2.730   3.564  0.00  0.00    -0.001 A 
ATOM      4  C3  UNL d   1      -5.604   2.053   4.785  0.00  0.00     0.003 A 
ATOM      5  C4  UNL d   1      -5.803   2.754   5.973  0.00  0.00    -0.005 A 
ATOM      6  C5  UNL d   1      -6.000   4.133   5.940  0.00  0.00     0.003 A 
ATOM      7  C6  UNL d   1      -5.996   4.811   4.720  0.00  0.00    -0.001 A 
ENDROOT
TORSDOF 0
ENDMDL
