MODEL 1
REMARK minimizedAffinity -1.92272198
REMARK minimizedRMSD -1
REMARK  0 active torsions:
REMARK  status: ('A' for Active; 'I' for Inactive)
ROOT
ATOM      1  C   UNL d   1      -4.891   5.184   2.274  0.00  0.00     0.078 C 
ATOM      2  C1  UNL d   1      -4.882   4.442   3.577  0.00  0.00    -0.077 A 
ATOM      3  C2  UNL d   1      -3.762   4.474   4.417  0.00  0.00    -0.001 A 
ATOM      4  C3  UNL d   1      -3.764   3.770   5.623  0.00  0.00     0.003 A 
ATOM      5  C4  UNL d   1      -4.881   3.028   5.998  0.00  0.00    -0.005 A 
ATOM      6  C5  UNL d   1      -5.999   2.988   5.168  0.00  0.00     0.003 A 
ATOM      7  C6  UNL d   1      -6.000   3.691   3.962  0.00  0.00    -0.001 A 
ENDROOT
TORSDOF 0
ENDMDL
