MODEL 1
REMARK minimizedAffinity -3.9112215
REMARK minimizedRMSD -1
REMARK  0 active torsions:
REMARK  status: ('A' for Active; 'I' for Inactive)
ROOT
ATOM      1  C   UNL d   1      -5.078   6.000   1.502  0.00  0.00     0.078 C 
ATOM      2  C1  UNL d   1      -4.891   5.121   2.703  0.00  0.00    -0.077 A 
ATOM      3  C2  UNL d   1      -4.048   5.505   3.753  0.00  0.00    -0.001 A 
ATOM      4  C3  UNL d   1      -3.877   4.672   4.860  0.00  0.00     0.003 A 
ATOM      5  C4  UNL d   1      -4.543   3.450   4.927  0.00  0.00    -0.005 A 
ATOM      6  C5  UNL d   1      -5.381   3.059   3.885  0.00  0.00     0.003 A 
ATOM      7  C6  UNL d   1      -5.555   3.890   2.777  0.00  0.00    -0.001 A 
ENDROOT
TORSDOF 0
ENDMDL
