MODEL 1
REMARK minimizedAffinity -3.56210351
REMARK minimizedRMSD -1
REMARK  0 active torsions:
REMARK  status: ('A' for Active; 'I' for Inactive)
ROOT
ATOM      1  C   UNL d   1      -5.998   2.300   5.012  0.00  0.00     0.078 C 
ATOM      2  C1  UNL d   1      -5.413   3.413   4.195  0.00  0.00    -0.077 A 
ATOM      3  C2  UNL d   1      -4.293   4.125   4.642  0.00  0.00    -0.001 A 
ATOM      4  C3  UNL d   1      -3.765   5.165   3.876  0.00  0.00     0.003 A 
ATOM      5  C4  UNL d   1      -4.351   5.503   2.658  0.00  0.00    -0.005 A 
ATOM      6  C5  UNL d   1      -5.466   4.802   2.205  0.00  0.00     0.003 A 
ATOM      7  C6  UNL d   1      -5.996   3.762   2.970  0.00  0.00    -0.001 A 
ENDROOT
TORSDOF 0
ENDMDL
