MODEL 1
REMARK minimizedAffinity 8.04912281
REMARK minimizedRMSD -1
REMARK  1 active torsions:
REMARK  status: ('A' for Active; 'I' for Inactive)
REMARK    1  A    between atoms: C3_4  and  O_7 
ROOT
ATOM      1  C   UNL d   1      -5.637   2.821   2.647  0.00  0.00    -0.033 A 
ATOM      2  C1  UNL d   1      -5.281   2.526   3.964  0.00  0.00     0.039 A 
ATOM      3  C2  UNL d   1      -5.281   3.532   4.932  0.00  0.00    -0.080 A 
ATOM      4  C3  UNL d   1      -5.640   4.828   4.570  0.00  0.00     0.150 A 
ATOM      5  C4  UNL d   1      -5.999   5.128   3.260  0.00  0.00    -0.007 A 
ATOM      6  C5  UNL d   1      -5.998   4.122   2.295  0.00  0.00     0.039 A 
ENDROOT
BRANCH   4   7
ATOM      7  O   UNL d   1      -5.650   5.844   5.478  0.00  0.00    -0.526 OA
ATOM      8  H5  UNL d   1      -5.352   5.495   6.335  0.00  0.00     0.418 HD
ENDBRANCH   4   7
TORSDOF 1
ENDMDL
