MODEL 1
REMARK minimizedAffinity 12.4905634
REMARK minimizedRMSD -1
REMARK  1 active torsions:
REMARK  status: ('A' for Active; 'I' for Inactive)
REMARK    1  A    between atoms: C3_4  and  O_7 
ROOT
ATOM      1  C   UNL d   1      -2.300   0.636   0.625  0.00  0.00    -0.033 A 
ATOM      2  C1  UNL d   1      -3.475   1.339   0.356  0.00  0.00     0.039 A 
ATOM      3  C2  UNL d   1      -3.697   2.585   0.947  0.00  0.00    -0.080 A 
ATOM      4  C3  UNL d   1      -2.736   3.115   1.803  0.00  0.00     0.150 A 
ATOM      5  C4  UNL d   1      -1.561   2.421   2.073  0.00  0.00    -0.007 A 
ATOM      6  C5  UNL d   1      -1.342   1.177   1.483  0.00  0.00     0.039 A 
ENDROOT
BRANCH   4   7
ATOM      7  O   UNL d   1      -2.909   4.325   2.407  0.00  0.00    -0.526 OA
ATOM      8  H5  UNL d   1      -3.779   4.675   2.151  0.00  0.00     0.418 HD
ENDBRANCH   4   7
TORSDOF 1
ENDMDL
