MODEL 1
REMARK minimizedAffinity 0.747803807
REMARK minimizedRMSD -1
REMARK  1 active torsions:
REMARK  status: ('A' for Active; 'I' for Inactive)
REMARK    1  A    between atoms: C3_4  and  O_7 
ROOT
ATOM      1  C   UNL d   1       5.495  -5.989   5.380  0.00  0.00    -0.033 A 
ATOM      2  C1  UNL d   1       4.127  -5.999   5.659  0.00  0.00     0.039 A 
ATOM      3  C2  UNL d   1       3.200  -6.000   4.615  0.00  0.00    -0.080 A 
ATOM      4  C3  UNL d   1       3.653  -5.992   3.298  0.00  0.00     0.150 A 
ATOM      5  C4  UNL d   1       5.015  -5.987   3.013  0.00  0.00    -0.007 A 
ATOM      6  C5  UNL d   1       5.939  -5.985   4.057  0.00  0.00     0.039 A 
ENDROOT
BRANCH   4   7
ATOM      7  O   UNL d   1       2.786  -5.988   2.246  0.00  0.00    -0.526 OA
ATOM      8  H5  UNL d   1       1.880  -5.963   2.595  0.00  0.00     0.418 HD
ENDBRANCH   4   7
TORSDOF 1
ENDMDL
