MODEL 1
REMARK minimizedAffinity 11.7290382
REMARK minimizedRMSD -1
REMARK  1 active torsions:
REMARK  status: ('A' for Active; 'I' for Inactive)
REMARK    1  A    between atoms: C3_4  and  O_7 
ROOT
ATOM      1  C   UNL d   1       2.996  -0.632  -5.029  0.00  0.00    -0.033 A 
ATOM      2  C1  UNL d   1       2.155   0.435  -4.705  0.00  0.00     0.039 A 
ATOM      3  C2  UNL d   1       2.527   1.742  -5.025  0.00  0.00    -0.080 A 
ATOM      4  C3  UNL d   1       3.740   1.968  -5.670  0.00  0.00     0.150 A 
ATOM      5  C4  UNL d   1       4.581   0.910  -5.999  0.00  0.00    -0.007 A 
ATOM      6  C5  UNL d   1       4.208  -0.394  -5.677  0.00  0.00     0.039 A 
ENDROOT
BRANCH   4   7
ATOM      7  O   UNL d   1       4.148   3.227  -5.998  0.00  0.00    -0.526 OA
ATOM      8  H5  UNL d   1       3.480   3.859  -5.684  0.00  0.00     0.418 HD
ENDBRANCH   4   7
TORSDOF 1
ENDMDL
