MODEL 1
REMARK minimizedAffinity 9.13790798
REMARK minimizedRMSD -1
REMARK  1 active torsions:
REMARK  status: ('A' for Active; 'I' for Inactive)
REMARK    1  A    between atoms: C3_4  and  O_7 
ROOT
ATOM      1  C   UNL d   1      -0.586  -0.128   2.523  0.00  0.00    -0.033 A 
ATOM      2  C1  UNL d   1      -1.924  -0.451   2.753  0.00  0.00     0.039 A 
ATOM      3  C2  UNL d   1      -2.935   0.418   2.339  0.00  0.00    -0.080 A 
ATOM      4  C3  UNL d   1      -2.595   1.605   1.695  0.00  0.00     0.150 A 
ATOM      5  C4  UNL d   1      -1.264   1.931   1.459  0.00  0.00    -0.007 A 
ATOM      6  C5  UNL d   1      -0.255   1.063   1.874  0.00  0.00     0.039 A 
ENDROOT
BRANCH   4   7
ATOM      7  O   UNL d   1      -3.546   2.487   1.277  0.00  0.00    -0.526 OA
ATOM      8  H5  UNL d   1      -4.419   2.143   1.533  0.00  0.00     0.418 HD
ENDBRANCH   4   7
TORSDOF 1
ENDMDL
