MODEL 1
REMARK minimizedAffinity 9.17379284
REMARK minimizedRMSD -1
REMARK  1 active torsions:
REMARK  status: ('A' for Active; 'I' for Inactive)
REMARK    1  A    between atoms: C3_4  and  O_7 
ROOT
ATOM      1  C   UNL d   1      -1.709  -0.284   1.651  0.00  0.00    -0.033 A 
ATOM      2  C1  UNL d   1      -3.046  -0.412   1.272  0.00  0.00     0.039 A 
ATOM      3  C2  UNL d   1      -3.953   0.613   1.548  0.00  0.00    -0.080 A 
ATOM      4  C3  UNL d   1      -3.510   1.760   2.201  0.00  0.00     0.150 A 
ATOM      5  C4  UNL d   1      -2.178   1.896   2.578  0.00  0.00    -0.007 A 
ATOM      6  C5  UNL d   1      -1.274   0.871   2.303  0.00  0.00     0.039 A 
ENDROOT
BRANCH   4   7
ATOM      7  O   UNL d   1      -4.359   2.785   2.496  0.00  0.00    -0.526 OA
ATOM      8  H5  UNL d   1      -5.252   2.539   2.202  0.00  0.00     0.418 HD
ENDBRANCH   4   7
TORSDOF 1
ENDMDL
