MODEL 1
REMARK minimizedAffinity 1.64230549
REMARK minimizedRMSD -1
REMARK  1 active torsions:
REMARK  status: ('A' for Active; 'I' for Inactive)
REMARK    1  A    between atoms: C3_4  and  O_7 
ROOT
ATOM      1  C   UNL d   1       3.947   0.857   0.413  0.00  0.00    -0.033 A 
ATOM      2  C1  UNL d   1       2.833   1.624   0.064  0.00  0.00     0.039 A 
ATOM      3  C2  UNL d   1       1.714   1.654   0.898  0.00  0.00    -0.080 A 
ATOM      4  C3  UNL d   1       1.721   0.914   2.077  0.00  0.00     0.150 A 
ATOM      5  C4  UNL d   1       2.828   0.151   2.433  0.00  0.00    -0.007 A 
ATOM      6  C5  UNL d   1       3.944   0.121   1.599  0.00  0.00     0.039 A 
ENDROOT
BRANCH   4   7
ATOM      7  O   UNL d   1       0.650   0.908   2.921  0.00  0.00    -0.526 OA
ATOM      8  H5  UNL d   1      -0.051   1.456   2.532  0.00  0.00     0.418 HD
ENDBRANCH   4   7
TORSDOF 1
ENDMDL
