MODEL 1
REMARK minimizedAffinity 4.12190962
REMARK minimizedRMSD -1
REMARK  1 active torsions:
REMARK  status: ('A' for Active; 'I' for Inactive)
REMARK    1  A    between atoms: C3_4  and  O_7 
ROOT
ATOM      1  C   UNL d   1      -1.250  -2.165  -5.426  0.00  0.00    -0.033 A 
ATOM      2  C1  UNL d   1      -2.231  -1.355  -4.852  0.00  0.00     0.039 A 
ATOM      3  C2  UNL d   1      -3.566  -1.765  -4.852  0.00  0.00    -0.080 A 
ATOM      4  C3  UNL d   1      -3.905  -2.986  -5.429  0.00  0.00     0.150 A 
ATOM      5  C4  UNL d   1      -2.932  -3.800  -6.000  0.00  0.00    -0.007 A 
ATOM      6  C5  UNL d   1      -1.600  -3.388  -5.999  0.00  0.00     0.039 A 
ENDROOT
BRANCH   4   7
ATOM      7  O   UNL d   1      -5.195  -3.426  -5.458  0.00  0.00    -0.526 OA
ATOM      8  H5  UNL d   1      -5.761  -2.748  -5.053  0.00  0.00     0.418 HD
ENDBRANCH   4   7
TORSDOF 1
ENDMDL
