MODEL 1
REMARK minimizedAffinity 8.02169323
REMARK minimizedRMSD -1
REMARK  1 active torsions:
REMARK  status: ('A' for Active; 'I' for Inactive)
REMARK    1  A    between atoms: C3_4  and  O_7 
ROOT
ATOM      1  C   UNL d   1       1.910   4.875  -5.250  0.00  0.00    -0.033 A 
ATOM      2  C1  UNL d   1       2.169   3.725  -5.998  0.00  0.00     0.039 A 
ATOM      3  C2  UNL d   1       3.447   3.161  -5.994  0.00  0.00    -0.080 A 
ATOM      4  C3  UNL d   1       4.454   3.754  -5.239  0.00  0.00     0.150 A 
ATOM      5  C4  UNL d   1       4.202   4.898  -4.488  0.00  0.00    -0.007 A 
ATOM      6  C5  UNL d   1       2.926   5.461  -4.494  0.00  0.00     0.039 A 
ENDROOT
BRANCH   4   7
ATOM      7  O   UNL d   1       5.717   3.242  -5.207  0.00  0.00    -0.526 OA
ATOM      8  H5  UNL d   1       5.750   2.470  -5.795  0.00  0.00     0.418 HD
ENDBRANCH   4   7
TORSDOF 1
ENDMDL
