MODEL 1
REMARK minimizedAffinity 2.61571193
REMARK minimizedRMSD -1
REMARK  1 active torsions:
REMARK  status: ('A' for Active; 'I' for Inactive)
REMARK    1  A    between atoms: C3_4  and  O_7 
ROOT
ATOM      1  C   UNL d   1      -1.198   2.061   1.915  0.00  0.00    -0.033 A 
ATOM      2  C1  UNL d   1       0.099   1.713   2.298  0.00  0.00     0.039 A 
ATOM      3  C2  UNL d   1       0.328   0.525   2.996  0.00  0.00    -0.080 A 
ATOM      4  C3  UNL d   1      -0.747  -0.304   3.303  0.00  0.00     0.150 A 
ATOM      5  C4  UNL d   1      -2.041   0.035   2.922  0.00  0.00    -0.007 A 
ATOM      6  C5  UNL d   1      -2.268   1.221   2.226  0.00  0.00     0.039 A 
ENDROOT
BRANCH   4   7
ATOM      7  O   UNL d   1      -0.574  -1.471   3.987  0.00  0.00    -0.526 OA
ATOM      8  H5  UNL d   1       0.368  -1.560   4.210  0.00  0.00     0.418 HD
ENDBRANCH   4   7
TORSDOF 1
ENDMDL
