MODEL 1
REMARK minimizedAffinity -2.8546195
REMARK minimizedRMSD -1
REMARK  1 active torsions:
REMARK  status: ('A' for Active; 'I' for Inactive)
REMARK    1  A    between atoms: C3_4  and  O_7 
ROOT
ATOM      1  C   UNL d   1       5.989  -3.954   4.960  0.00  0.00    -0.033 A 
ATOM      2  C1  UNL d   1       5.627  -5.300   5.042  0.00  0.00     0.039 A 
ATOM      3  C2  UNL d   1       5.269  -6.000   3.888  0.00  0.00    -0.080 A 
ATOM      4  C3  UNL d   1       5.280  -5.344   2.660  0.00  0.00     0.150 A 
ATOM      5  C4  UNL d   1       5.644  -4.004   2.571  0.00  0.00    -0.007 A 
ATOM      6  C5  UNL d   1       5.999  -3.307   3.724  0.00  0.00     0.039 A 
ENDROOT
BRANCH   4   7
ATOM      7  O   UNL d   1       4.934  -5.984   1.507  0.00  0.00    -0.526 OA
ATOM      8  H5  UNL d   1       4.679  -6.896   1.726  0.00  0.00     0.418 HD
ENDBRANCH   4   7
TORSDOF 1
ENDMDL
