MODEL 1
REMARK minimizedAffinity 5.66640472
REMARK minimizedRMSD -1
REMARK  1 active torsions:
REMARK  status: ('A' for Active; 'I' for Inactive)
REMARK    1  A    between atoms: C3_4  and  O_7 
ROOT
ATOM      1  C   UNL d   1      -1.683   1.351   2.040  0.00  0.00    -0.033 A 
ATOM      2  C1  UNL d   1      -2.909   1.897   1.654  0.00  0.00     0.039 A 
ATOM      3  C2  UNL d   1      -3.988   1.059   1.364  0.00  0.00    -0.080 A 
ATOM      4  C3  UNL d   1      -3.828  -0.320   1.465  0.00  0.00     0.150 A 
ATOM      5  C4  UNL d   1      -2.611  -0.870   1.853  0.00  0.00    -0.007 A 
ATOM      6  C5  UNL d   1      -1.535  -0.032   2.142  0.00  0.00     0.039 A 
ENDROOT
BRANCH   4   7
ATOM      7  O   UNL d   1      -4.851  -1.178   1.188  0.00  0.00    -0.526 OA
ATOM      8  H5  UNL d   1      -5.621  -0.657   0.905  0.00  0.00     0.418 HD
ENDBRANCH   4   7
TORSDOF 1
ENDMDL
