MODEL 1
REMARK minimizedAffinity 3.22715926
REMARK minimizedRMSD -1
REMARK  1 active torsions:
REMARK  status: ('A' for Active; 'I' for Inactive)
REMARK    1  A    between atoms: C3_4  and  O_7 
ROOT
ATOM      1  C   UNL d   1      -1.601  -0.407   2.214  0.00  0.00    -0.033 A 
ATOM      2  C1  UNL d   1      -2.994  -0.504   2.212  0.00  0.00     0.039 A 
ATOM      3  C2  UNL d   1      -3.772   0.603   1.867  0.00  0.00    -0.080 A 
ATOM      4  C3  UNL d   1      -3.146   1.799   1.525  0.00  0.00     0.150 A 
ATOM      5  C4  UNL d   1      -1.759   1.901   1.521  0.00  0.00    -0.007 A 
ATOM      6  C5  UNL d   1      -0.984   0.796   1.867  0.00  0.00     0.039 A 
ENDROOT
BRANCH   4   7
ATOM      7  O   UNL d   1      -3.864   2.907   1.186  0.00  0.00    -0.526 OA
ATOM      8  H5  UNL d   1      -4.810   2.696   1.260  0.00  0.00     0.418 HD
ENDBRANCH   4   7
TORSDOF 1
ENDMDL
