MODEL 1
REMARK minimizedAffinity 11.6204376
REMARK minimizedRMSD -1
REMARK  1 active torsions:
REMARK  status: ('A' for Active; 'I' for Inactive)
REMARK    1  A    between atoms: C3_4  and  O_7 
ROOT
ATOM      1  C   UNL d   1       4.848   4.866  -4.991  0.00  0.00    -0.033 A 
ATOM      2  C1  UNL d   1       3.957   4.494  -5.999  0.00  0.00     0.039 A 
ATOM      3  C2  UNL d   1       2.608   4.843  -5.906  0.00  0.00    -0.080 A 
ATOM      4  C3  UNL d   1       2.164   5.563  -4.801  0.00  0.00     0.150 A 
ATOM      5  C4  UNL d   1       3.047   5.941  -3.794  0.00  0.00    -0.007 A 
ATOM      6  C5  UNL d   1       4.393   5.591  -3.889  0.00  0.00     0.039 A 
ENDROOT
BRANCH   4   7
ATOM      7  O   UNL d   1       0.856   5.923  -4.663  0.00  0.00    -0.526 OA
ATOM      8  H5  UNL d   1       0.359   5.569  -5.419  0.00  0.00     0.418 HD
ENDBRANCH   4   7
TORSDOF 1
ENDMDL
