MODEL 1
REMARK minimizedAffinity 11.5952549
REMARK minimizedRMSD -1
REMARK  1 active torsions:
REMARK  status: ('A' for Active; 'I' for Inactive)
REMARK    1  A    between atoms: C3_4  and  O_7 
ROOT
ATOM      1  C   UNL d   1       1.008  -5.060   3.912  0.00  0.00    -0.033 A 
ATOM      2  C1  UNL d   1       0.749  -4.124   2.910  0.00  0.00     0.039 A 
ATOM      3  C2  UNL d   1       1.511  -4.122   1.740  0.00  0.00    -0.080 A 
ATOM      4  C3  UNL d   1       2.527  -5.062   1.584  0.00  0.00     0.150 A 
ATOM      5  C4  UNL d   1       2.788  -6.000   2.578  0.00  0.00    -0.007 A 
ATOM      6  C5  UNL d   1       2.026  -5.999   3.746  0.00  0.00     0.039 A 
ENDROOT
BRANCH   4   7
ATOM      7  O   UNL d   1       3.300  -5.096   0.462  0.00  0.00    -0.526 OA
ATOM      8  H5  UNL d   1       3.024  -4.372  -0.124  0.00  0.00     0.418 HD
ENDBRANCH   4   7
TORSDOF 1
ENDMDL
