MODEL 1
REMARK minimizedAffinity 4.46993637
REMARK minimizedRMSD -1
REMARK  1 active torsions:
REMARK  status: ('A' for Active; 'I' for Inactive)
REMARK    1  A    between atoms: C3_4  and  O_7 
ROOT
ATOM      1  C   UNL d   1       5.988  -1.782   3.803  0.00  0.00    -0.033 A 
ATOM      2  C1  UNL d   1       5.994  -1.721   5.198  0.00  0.00     0.039 A 
ATOM      3  C2  UNL d   1       5.998  -2.897   5.950  0.00  0.00    -0.080 A 
ATOM      4  C3  UNL d   1       5.998  -4.126   5.297  0.00  0.00     0.150 A 
ATOM      5  C4  UNL d   1       5.997  -4.195   3.908  0.00  0.00    -0.007 A 
ATOM      6  C5  UNL d   1       5.991  -3.019   3.158  0.00  0.00     0.039 A 
ENDROOT
BRANCH   4   7
ATOM      7  O   UNL d   1       5.998  -5.301   5.988  0.00  0.00    -0.526 OA
ATOM      8  H5  UNL d   1       5.970  -5.099   6.938  0.00  0.00     0.418 HD
ENDBRANCH   4   7
TORSDOF 1
ENDMDL
