MODEL 1
REMARK minimizedAffinity 11.0813427
REMARK minimizedRMSD -1
REMARK  0 active torsions:
REMARK  status: ('A' for Active; 'I' for Inactive)
ROOT
ATOM      1  C   UNL d   1       0.812   4.040   2.376  0.00  0.00    -0.002 A 
ATOM      2  C1  UNL d   1      -0.208   4.093   3.315  0.00  0.00     0.010 A 
ATOM      3  C2  UNL d   1      -1.314   3.247   3.211  0.00  0.00     0.041 A 
ATOM      4  C3  UNL d   1      -1.377   2.336   2.138  0.00  0.00    -0.075 A 
ATOM      5  S   UNL d   1      -2.634   1.203   1.809  0.00  0.00     0.015 SA
ATOM      6  C4  UNL d   1      -1.845   0.621   0.414  0.00  0.00     0.022 A 
ATOM      7  C5  UNL d   1      -0.651   1.264   0.191  0.00  0.00     0.026 A 
ATOM      8  C6  UNL d   1      -0.361   2.263   1.180  0.00  0.00    -0.082 A 
ATOM      9  C7  UNL d   1       0.747   3.135   1.313  0.00  0.00     0.045 A 
ENDROOT
TORSDOF 0
ENDMDL
