MODEL 1
REMARK minimizedAffinity 3.29329395
REMARK minimizedRMSD -1
REMARK  0 active torsions:
REMARK  status: ('A' for Active; 'I' for Inactive)
ROOT
ATOM      1  C   UNL d   1      -2.302   3.357  -5.615  0.00  0.00    -0.002 A 
ATOM      2  C1  UNL d   1      -1.334   4.287  -5.969  0.00  0.00     0.010 A 
ATOM      3  C2  UNL d   1       0.015   3.931  -5.999  0.00  0.00     0.041 A 
ATOM      4  C3  UNL d   1       0.380   2.611  -5.667  0.00  0.00    -0.075 A 
ATOM      5  S   UNL d   1       1.971   1.948  -5.636  0.00  0.00     0.015 SA
ATOM      6  C4  UNL d   1       1.404   0.415  -5.155  0.00  0.00     0.022 A 
ATOM      7  C5  UNL d   1       0.037   0.391  -5.015  0.00  0.00     0.026 A 
ATOM      8  C6  UNL d   1      -0.576   1.656  -5.309  0.00  0.00    -0.082 A 
ATOM      9  C7  UNL d   1      -1.936   2.048  -5.287  0.00  0.00     0.045 A 
ENDROOT
TORSDOF 0
ENDMDL
