MODEL 1
REMARK minimizedAffinity 11.575758
REMARK minimizedRMSD -1
REMARK  0 active torsions:
REMARK  status: ('A' for Active; 'I' for Inactive)
ROOT
ATOM      1  C   UNL d   1      -2.416  -0.068  -0.017  0.00  0.00    -0.002 A 
ATOM      2  C1  UNL d   1      -1.286  -0.843  -0.237  0.00  0.00     0.010 A 
ATOM      3  C2  UNL d   1      -0.012  -0.331   0.020  0.00  0.00     0.041 A 
ATOM      4  C3  UNL d   1       0.108   0.985   0.509  0.00  0.00    -0.075 A 
ATOM      5  S   UNL d   1       1.565   1.821   0.895  0.00  0.00     0.015 SA
ATOM      6  C4  UNL d   1       0.722   3.227   1.363  0.00  0.00     0.022 A 
ATOM      7  C5  UNL d   1      -0.639   3.079   1.233  0.00  0.00     0.026 A 
ATOM      8  C6  UNL d   1      -1.015   1.784   0.739  0.00  0.00    -0.082 A 
ATOM      9  C7  UNL d   1      -2.292   1.237   0.468  0.00  0.00     0.045 A 
ENDROOT
TORSDOF 0
ENDMDL
