MODEL 1
REMARK minimizedAffinity 9.2942934
REMARK minimizedRMSD -1
REMARK  0 active torsions:
REMARK  status: ('A' for Active; 'I' for Inactive)
ROOT
ATOM      1  C   UNL d   1       0.939   2.468   3.113  0.00  0.00    -0.002 A 
ATOM      2  C1  UNL d   1       1.943   2.258   2.179  0.00  0.00     0.010 A 
ATOM      3  C2  UNL d   1       1.650   2.229   0.815  0.00  0.00     0.041 A 
ATOM      4  C3  UNL d   1       0.316   2.419   0.400  0.00  0.00    -0.075 A 
ATOM      5  S   UNL d   1      -0.278   2.425  -1.218  0.00  0.00     0.015 SA
ATOM      6  C4  UNL d   1      -1.880   2.708  -0.708  0.00  0.00     0.022 A 
ATOM      7  C5  UNL d   1      -1.976   2.798   0.661  0.00  0.00     0.026 A 
ATOM      8  C6  UNL d   1      -0.712   2.633   1.322  0.00  0.00    -0.082 A 
ATOM      9  C7  UNL d   1      -0.382   2.656   2.698  0.00  0.00     0.045 A 
ENDROOT
TORSDOF 0
ENDMDL
