MODEL 1
REMARK minimizedAffinity 7.52513742
REMARK minimizedRMSD -1
REMARK  0 active torsions:
REMARK  status: ('A' for Active; 'I' for Inactive)
ROOT
ATOM      1  C   UNL d   1       5.044   4.105  -5.522  0.00  0.00    -0.002 A 
ATOM      2  C1  UNL d   1       5.419   3.471  -4.346  0.00  0.00     0.010 A 
ATOM      3  C2  UNL d   1       4.482   2.759  -3.593  0.00  0.00     0.041 A 
ATOM      4  C3  UNL d   1       3.150   2.693  -4.048  0.00  0.00    -0.075 A 
ATOM      5  S   UNL d   1       1.833   1.878  -3.292  0.00  0.00     0.015 SA
ATOM      6  C4  UNL d   1       0.742   2.352  -4.512  0.00  0.00     0.022 A 
ATOM      7  C5  UNL d   1       1.351   3.114  -5.481  0.00  0.00     0.026 A 
ATOM      8  C6  UNL d   1       2.749   3.323  -5.230  0.00  0.00    -0.082 A 
ATOM      9  C7  UNL d   1       3.722   4.038  -5.970  0.00  0.00     0.045 A 
ENDROOT
TORSDOF 0
ENDMDL
