MODEL 1
REMARK minimizedAffinity 4.36263895
REMARK minimizedRMSD -1
REMARK  0 active torsions:
REMARK  status: ('A' for Active; 'I' for Inactive)
ROOT
ATOM      1  C   UNL d   1       0.522  -6.000  -2.934  0.00  0.00    -0.002 A 
ATOM      2  C1  UNL d   1      -0.367  -4.936  -3.005  0.00  0.00     0.010 A 
ATOM      3  C2  UNL d   1       0.101  -3.628  -3.147  0.00  0.00     0.041 A 
ATOM      4  C3  UNL d   1       1.490  -3.405  -3.220  0.00  0.00    -0.075 A 
ATOM      5  S   UNL d   1       2.291  -1.889  -3.396  0.00  0.00     0.015 SA
ATOM      6  C4  UNL d   1       3.832  -2.617  -3.383  0.00  0.00     0.022 A 
ATOM      7  C5  UNL d   1       3.756  -3.983  -3.248  0.00  0.00     0.026 A 
ATOM      8  C6  UNL d   1       2.405  -4.460  -3.153  0.00  0.00    -0.082 A 
ATOM      9  C7  UNL d   1       1.899  -5.774  -3.007  0.00  0.00     0.045 A 
ENDROOT
TORSDOF 0
ENDMDL
