MODEL 1
REMARK minimizedAffinity 3.55067086
REMARK minimizedRMSD -1
REMARK  0 active torsions:
REMARK  status: ('A' for Active; 'I' for Inactive)
ROOT
ATOM      1  C   UNL d   1      -2.758   0.757   0.580  0.00  0.00    -0.002 A 
ATOM      2  C1  UNL d   1      -2.371   2.012   1.027  0.00  0.00     0.010 A 
ATOM      3  C2  UNL d   1      -1.021   2.314   1.218  0.00  0.00     0.041 A 
ATOM      4  C3  UNL d   1      -0.057   1.323   0.948  0.00  0.00    -0.075 A 
ATOM      5  S   UNL d   1       1.654   1.466   1.109  0.00  0.00     0.015 SA
ATOM      6  C4  UNL d   1       1.911  -0.136   0.586  0.00  0.00     0.022 A 
ATOM      7  C5  UNL d   1       0.732  -0.779   0.293  0.00  0.00     0.026 A 
ATOM      8  C6  UNL d   1      -0.422   0.051   0.495  0.00  0.00    -0.082 A 
ATOM      9  C7  UNL d   1      -1.798  -0.223   0.312  0.00  0.00     0.045 A 
ENDROOT
TORSDOF 0
ENDMDL
