MODEL 1
REMARK minimizedAffinity 6.00165653
REMARK minimizedRMSD -1
REMARK  0 active torsions:
REMARK  status: ('A' for Active; 'I' for Inactive)
ROOT
ATOM      1  C   UNL d   1       2.284   2.209   2.368  0.00  0.00    -0.002 A 
ATOM      2  C1  UNL d   1       2.394   1.076   1.574  0.00  0.00     0.010 A 
ATOM      3  C2  UNL d   1       1.275   0.557   0.919  0.00  0.00     0.041 A 
ATOM      4  C3  UNL d   1       0.033   1.204   1.075  0.00  0.00    -0.075 A 
ATOM      5  S   UNL d   1      -1.472   0.748   0.369  0.00  0.00     0.015 SA
ATOM      6  C4  UNL d   1      -2.295   2.047   1.103  0.00  0.00     0.022 A 
ATOM      7  C5  UNL d   1      -1.458   2.820   1.872  0.00  0.00     0.026 A 
ATOM      8  C6  UNL d   1      -0.102   2.347   1.869  0.00  0.00    -0.082 A 
ATOM      9  C7  UNL d   1       1.051   2.848   2.520  0.00  0.00     0.045 A 
ENDROOT
TORSDOF 0
ENDMDL
