MODEL 1
REMARK minimizedAffinity 5.94110012
REMARK minimizedRMSD -1
REMARK  0 active torsions:
REMARK  status: ('A' for Active; 'I' for Inactive)
ROOT
ATOM      1  C   UNL d   1      -1.495  -3.305  -1.628  0.00  0.00    -0.002 A 
ATOM      2  C1  UNL d   1      -1.854  -2.741  -0.412  0.00  0.00     0.010 A 
ATOM      3  C2  UNL d   1      -1.077  -1.731   0.159  0.00  0.00     0.041 A 
ATOM      4  C3  UNL d   1       0.077  -1.293  -0.519  0.00  0.00    -0.075 A 
ATOM      5  S   UNL d   1       1.180  -0.069  -0.011  0.00  0.00     0.015 SA
ATOM      6  C4  UNL d   1       2.153  -0.265  -1.397  0.00  0.00     0.022 A 
ATOM      7  C5  UNL d   1       1.663  -1.236  -2.237  0.00  0.00     0.026 A 
ATOM      8  C6  UNL d   1       0.459  -1.844  -1.746  0.00  0.00    -0.082 A 
ATOM      9  C7  UNL d   1      -0.350  -2.867  -2.299  0.00  0.00     0.045 A 
ENDROOT
TORSDOF 0
ENDMDL
