MODEL 1
REMARK minimizedAffinity -3.45757794
REMARK minimizedRMSD -1
REMARK  1 active torsions:
REMARK  status: ('A' for Active; 'I' for Inactive)
REMARK    1  A    between atoms: C3_4  and  O_7 
ROOT
ATOM      1  C   UNL d   1      -0.422   0.465   0.409  0.00  0.00    -0.033 A 
ATOM      2  C1  UNL d   1       0.799   0.516  -0.267  0.00  0.00     0.039 A 
ATOM      3  C2  UNL d   1       1.757  -0.478  -0.057  0.00  0.00    -0.080 A 
ATOM      4  C3  UNL d   1       1.483  -1.515   0.830  0.00  0.00     0.150 A 
ATOM      5  C4  UNL d   1       0.268  -1.574   1.504  0.00  0.00    -0.007 A 
ATOM      6  C5  UNL d   1      -0.687  -0.581   1.294  0.00  0.00     0.039 A 
ENDROOT
BRANCH   4   7
ATOM      7  O   UNL d   1       2.390  -2.505   1.071  0.00  0.00    -0.526 OA
ATOM      8  H5  UNL d   1       3.193  -2.318   0.557  0.00  0.00     0.418 HD
ENDBRANCH   4   7
TORSDOF 1
ENDMDL
