MODEL 1
REMARK minimizedAffinity -3.23654318
REMARK minimizedRMSD -1
REMARK  1 active torsions:
REMARK  status: ('A' for Active; 'I' for Inactive)
REMARK    1  A    between atoms: C3_4  and  O_7 
ROOT
ATOM      1  C   UNL d   1       1.756  -0.776  -0.198  0.00  0.00    -0.033 A 
ATOM      2  C1  UNL d   1       2.160  -1.572   0.876  0.00  0.00     0.039 A 
ATOM      3  C2  UNL d   1       1.256  -1.888   1.892  0.00  0.00    -0.080 A 
ATOM      4  C3  UNL d   1      -0.048  -1.404   1.822  0.00  0.00     0.150 A 
ATOM      5  C4  UNL d   1      -0.458  -0.614   0.753  0.00  0.00    -0.007 A 
ATOM      6  C5  UNL d   1       0.446  -0.299  -0.261  0.00  0.00     0.039 A 
ENDROOT
BRANCH   4   7
ATOM      7  O   UNL d   1      -0.964  -1.682   2.792  0.00  0.00    -0.526 OA
ATOM      8  H5  UNL d   1      -0.531  -2.212   3.481  0.00  0.00     0.418 HD
ENDBRANCH   4   7
TORSDOF 1
ENDMDL
