MODEL 1
REMARK minimizedAffinity -3.01726127
REMARK minimizedRMSD -1
REMARK  1 active torsions:
REMARK  status: ('A' for Active; 'I' for Inactive)
REMARK    1  A    between atoms: C3_4  and  O_7 
ROOT
ATOM      1  C   UNL d   1       1.553  -2.497   2.082  0.00  0.00    -0.033 A 
ATOM      2  C1  UNL d   1       2.127  -2.006   0.908  0.00  0.00     0.039 A 
ATOM      3  C2  UNL d   1       1.471  -1.019   0.168  0.00  0.00    -0.080 A 
ATOM      4  C3  UNL d   1       0.246  -0.533   0.614  0.00  0.00     0.150 A 
ATOM      5  C4  UNL d   1      -0.330  -1.015   1.785  0.00  0.00    -0.007 A 
ATOM      6  C5  UNL d   1       0.326  -2.001   2.521  0.00  0.00     0.039 A 
ENDROOT
BRANCH   4   7
ATOM      7  O   UNL d   1      -0.434   0.426  -0.077  0.00  0.00    -0.526 OA
ATOM      8  H5  UNL d   1       0.070   0.643  -0.879  0.00  0.00     0.418 HD
ENDBRANCH   4   7
TORSDOF 1
ENDMDL
