MODEL 1
REMARK minimizedAffinity -5.96324778
REMARK minimizedRMSD -1
REMARK  1 active torsions:
REMARK  status: ('A' for Active; 'I' for Inactive)
REMARK    1  A    between atoms: C3_4  and  O_7 
ROOT
ATOM      1  C   UNL d   1       1.241  -2.569   1.006  0.00  0.00    -0.033 A 
ATOM      2  C1  UNL d   1       0.650  -2.651   2.269  0.00  0.00     0.039 A 
ATOM      3  C2  UNL d   1      -0.382  -1.777   2.616  0.00  0.00    -0.080 A 
ATOM      4  C3  UNL d   1      -0.815  -0.829   1.693  0.00  0.00     0.150 A 
ATOM      5  C4  UNL d   1      -0.233  -0.745   0.432  0.00  0.00    -0.007 A 
ATOM      6  C5  UNL d   1       0.798  -1.617   0.088  0.00  0.00     0.039 A 
ENDROOT
BRANCH   4   7
ATOM      7  O   UNL d   1      -1.816   0.048   1.988  0.00  0.00    -0.526 OA
ATOM      8  H5  UNL d   1      -2.102  -0.108   2.903  0.00  0.00     0.418 HD
ENDBRANCH   4   7
TORSDOF 1
ENDMDL
