MODEL 1
REMARK minimizedAffinity -4.37740421
REMARK minimizedRMSD -1
REMARK  1 active torsions:
REMARK  status: ('A' for Active; 'I' for Inactive)
REMARK    1  A    between atoms: C3_4  and  O_7 
ROOT
ATOM      1  C   UNL d   1       0.811  -2.599   2.339  0.00  0.00    -0.033 A 
ATOM      2  C1  UNL d   1      -0.297  -1.843   2.726  0.00  0.00     0.039 A 
ATOM      3  C2  UNL d   1      -0.772  -0.822   1.900  0.00  0.00    -0.080 A 
ATOM      4  C3  UNL d   1      -0.130  -0.568   0.691  0.00  0.00     0.150 A 
ATOM      5  C4  UNL d   1       0.972  -1.319   0.297  0.00  0.00    -0.007 A 
ATOM      6  C5  UNL d   1       1.445  -2.338   1.124  0.00  0.00     0.039 A 
ENDROOT
BRANCH   4   7
ATOM      7  O   UNL d   1      -0.554   0.421  -0.146  0.00  0.00    -0.526 OA
ATOM      8  H5  UNL d   1      -1.306   0.875   0.270  0.00  0.00     0.418 HD
ENDBRANCH   4   7
TORSDOF 1
ENDMDL
