MODEL 1
REMARK minimizedAffinity -2.51723814
REMARK minimizedRMSD -1
REMARK  1 active torsions:
REMARK  status: ('A' for Active; 'I' for Inactive)
REMARK    1  A    between atoms: C3_4  and  O_7 
ROOT
ATOM      1  C   UNL d   1       1.431  -0.370  -0.094  0.00  0.00    -0.033 A 
ATOM      2  C1  UNL d   1       1.734  -1.275   0.925  0.00  0.00     0.039 A 
ATOM      3  C2  UNL d   1       0.806  -1.526   1.937  0.00  0.00    -0.080 A 
ATOM      4  C3  UNL d   1      -0.420  -0.867   1.918  0.00  0.00     0.150 A 
ATOM      5  C4  UNL d   1      -0.731   0.033   0.904  0.00  0.00    -0.007 A 
ATOM      6  C5  UNL d   1       0.198   0.283  -0.105  0.00  0.00     0.039 A 
ENDROOT
BRANCH   4   7
ATOM      7  O   UNL d   1      -1.356  -1.076   2.887  0.00  0.00    -0.526 OA
ATOM      8  H5  UNL d   1      -0.993  -1.700   3.537  0.00  0.00     0.418 HD
ENDBRANCH   4   7
TORSDOF 1
ENDMDL
