MODEL 1
REMARK minimizedAffinity -3.67757821
REMARK minimizedRMSD -1
REMARK  1 active torsions:
REMARK  status: ('A' for Active; 'I' for Inactive)
REMARK    1  A    between atoms: C3_4  and  O_7 
ROOT
ATOM      1  C   UNL d   1       1.933  -1.088   0.010  0.00  0.00    -0.033 A 
ATOM      2  C1  UNL d   1       0.820  -0.274  -0.212  0.00  0.00     0.039 A 
ATOM      3  C2  UNL d   1      -0.217  -0.236   0.722  0.00  0.00    -0.080 A 
ATOM      4  C3  UNL d   1      -0.130  -1.016   1.872  0.00  0.00     0.150 A 
ATOM      5  C4  UNL d   1       0.977  -1.826   2.101  0.00  0.00    -0.007 A 
ATOM      6  C5  UNL d   1       2.011  -1.863   1.168  0.00  0.00     0.039 A 
ENDROOT
BRANCH   4   7
ATOM      7  O   UNL d   1      -1.120  -1.016   2.809  0.00  0.00    -0.526 OA
ATOM      8  H5  UNL d   1      -1.834  -0.431   2.503  0.00  0.00     0.418 HD
ENDBRANCH   4   7
TORSDOF 1
ENDMDL
