MODEL 1
REMARK minimizedAffinity -4.31491232
REMARK minimizedRMSD -1
REMARK  1 active torsions:
REMARK  status: ('A' for Active; 'I' for Inactive)
REMARK    1  A    between atoms: C3_4  and  O_7 
ROOT
ATOM      1  C   UNL d   1       1.173  -3.078   1.939  0.00  0.00    -0.033 A 
ATOM      2  C1  UNL d   1       1.878  -2.708   0.792  0.00  0.00     0.039 A 
ATOM      3  C2  UNL d   1       1.479  -1.590   0.056  0.00  0.00    -0.080 A 
ATOM      4  C3  UNL d   1       0.376  -0.852   0.478  0.00  0.00     0.150 A 
ATOM      5  C4  UNL d   1      -0.328  -1.213   1.622  0.00  0.00    -0.007 A 
ATOM      6  C5  UNL d   1       0.071  -2.330   2.355  0.00  0.00     0.039 A 
ENDROOT
BRANCH   4   7
ATOM      7  O   UNL d   1      -0.053   0.244  -0.210  0.00  0.00    -0.526 OA
ATOM      8  H5  UNL d   1       0.511   0.356  -0.993  0.00  0.00     0.418 HD
ENDBRANCH   4   7
TORSDOF 1
ENDMDL
