MODEL 1
REMARK minimizedAffinity -4.48952866
REMARK minimizedRMSD -1
REMARK  1 active torsions:
REMARK  status: ('A' for Active; 'I' for Inactive)
REMARK    1  A    between atoms: C3_4  and  O_7 
ROOT
ATOM      1  C   UNL d   1       1.377  -0.454  -0.742  0.00  0.00    -0.033 A 
ATOM      2  C1  UNL d   1       0.072   0.007  -0.557  0.00  0.00     0.039 A 
ATOM      3  C2  UNL d   1      -0.661  -0.397   0.560  0.00  0.00    -0.080 A 
ATOM      4  C3  UNL d   1      -0.079  -1.260   1.485  0.00  0.00     0.150 A 
ATOM      5  C4  UNL d   1       1.222  -1.720   1.309  0.00  0.00    -0.007 A 
ATOM      6  C5  UNL d   1       1.952  -1.316   0.192  0.00  0.00     0.039 A 
ENDROOT
BRANCH   4   7
ATOM      7  O   UNL d   1      -0.757  -1.685   2.588  0.00  0.00    -0.526 OA
ATOM      8  H5  UNL d   1      -1.653  -1.309   2.563  0.00  0.00     0.418 HD
ENDBRANCH   4   7
TORSDOF 1
ENDMDL
