MODEL 1
REMARK minimizedAffinity -3.27090192
REMARK minimizedRMSD -1
REMARK  1 active torsions:
REMARK  status: ('A' for Active; 'I' for Inactive)
REMARK    1  A    between atoms: C3_4  and  O_7 
ROOT
ATOM      1  C   UNL d   1      -0.254   0.052  -0.369  0.00  0.00    -0.033 A 
ATOM      2  C1  UNL d   1      -0.913  -1.073   0.130  0.00  0.00     0.039 A 
ATOM      3  C2  UNL d   1      -0.179  -2.181   0.558  0.00  0.00    -0.080 A 
ATOM      4  C3  UNL d   1       1.211  -2.151   0.482  0.00  0.00     0.150 A 
ATOM      5  C4  UNL d   1       1.874  -1.031  -0.011  0.00  0.00    -0.007 A 
ATOM      6  C5  UNL d   1       1.139   0.073  -0.439  0.00  0.00     0.039 A 
ENDROOT
BRANCH   4   7
ATOM      7  O   UNL d   1       1.970  -3.210   0.884  0.00  0.00    -0.526 OA
ATOM      8  H5  UNL d   1       1.376  -3.922   1.174  0.00  0.00     0.418 HD
ENDBRANCH   4   7
TORSDOF 1
ENDMDL
