MODEL 1
REMARK minimizedAffinity -0.247016206
REMARK minimizedRMSD -1
REMARK  1 active torsions:
REMARK  status: ('A' for Active; 'I' for Inactive)
REMARK    1  A    between atoms: C3_4  and  O_7 
ROOT
ATOM      1  C   UNL d   1      -3.788   2.591  -3.109  0.00  0.00    -0.033 A 
ATOM      2  C1  UNL d   1      -2.519   3.171  -3.069  0.00  0.00     0.039 A 
ATOM      3  C2  UNL d   1      -1.571   2.719  -2.149  0.00  0.00    -0.080 A 
ATOM      4  C3  UNL d   1      -1.904   1.686  -1.277  0.00  0.00     0.150 A 
ATOM      5  C4  UNL d   1      -3.165   1.100  -1.314  0.00  0.00    -0.007 A 
ATOM      6  C5  UNL d   1      -4.111   1.554  -2.233  0.00  0.00     0.039 A 
ENDROOT
BRANCH   4   7
ATOM      7  O   UNL d   1      -1.014   1.214  -0.358  0.00  0.00    -0.526 OA
ATOM      8  H5  UNL d   1      -0.195   1.732  -0.429  0.00  0.00     0.418 HD
ENDBRANCH   4   7
TORSDOF 1
ENDMDL
