MODEL 1
REMARK minimizedAffinity -4.52613926
REMARK minimizedRMSD -1
REMARK  1 active torsions:
REMARK  status: ('A' for Active; 'I' for Inactive)
REMARK    1  A    between atoms: C3_4  and  O_7 
ROOT
ATOM      1  C   UNL d   1      -0.367   0.226   0.209  0.00  0.00    -0.033 A 
ATOM      2  C1  UNL d   1       0.964   0.136  -0.204  0.00  0.00     0.039 A 
ATOM      3  C2  UNL d   1       1.729  -0.981   0.137  0.00  0.00    -0.080 A 
ATOM      4  C3  UNL d   1       1.152  -2.001   0.889  0.00  0.00     0.150 A 
ATOM      5  C4  UNL d   1      -0.175  -1.920   1.300  0.00  0.00    -0.007 A 
ATOM      6  C5  UNL d   1      -0.936  -0.803   0.960  0.00  0.00     0.039 A 
ENDROOT
BRANCH   4   7
ATOM      7  O   UNL d   1       1.860  -3.108   1.250  0.00  0.00    -0.526 OA
ATOM      8  H5  UNL d   1       2.769  -3.013   0.920  0.00  0.00     0.418 HD
ENDBRANCH   4   7
TORSDOF 1
ENDMDL
