MODEL 1
REMARK minimizedAffinity -3.07450056
REMARK minimizedRMSD -1
REMARK  1 active torsions:
REMARK  status: ('A' for Active; 'I' for Inactive)
REMARK    1  A    between atoms: C3_4  and  O_7 
ROOT
ATOM      1  C   UNL d   1       2.307  -1.951  -0.531  0.00  0.00    -0.033 A 
ATOM      2  C1  UNL d   1       2.143  -1.387   0.735  0.00  0.00     0.039 A 
ATOM      3  C2  UNL d   1       1.185  -0.392   0.940  0.00  0.00    -0.080 A 
ATOM      4  C3  UNL d   1       0.397   0.028  -0.129  0.00  0.00     0.150 A 
ATOM      5  C4  UNL d   1       0.552  -0.533  -1.392  0.00  0.00    -0.007 A 
ATOM      6  C5  UNL d   1       1.511  -1.525  -1.595  0.00  0.00     0.039 A 
ENDROOT
BRANCH   4   7
ATOM      7  O   UNL d   1      -0.548   0.999   0.021  0.00  0.00    -0.526 OA
ATOM      8  H5  UNL d   1      -0.522   1.314   0.940  0.00  0.00     0.418 HD
ENDBRANCH   4   7
TORSDOF 1
ENDMDL
