MODEL 1
REMARK minimizedAffinity -0.682254612
REMARK minimizedRMSD -1
REMARK  0 active torsions:
REMARK  status: ('A' for Active; 'I' for Inactive)
ROOT
ATOM      1  O1  BZF d   1      -0.984  -0.398  -0.567  0.00  0.00    -0.204 OA
ATOM      2  C2  BZF d   1      -1.352   0.482   0.432  0.00  0.00     0.174 A 
ATOM      3  C3  BZF d   1      -0.373   0.597   1.353  0.00  0.00    -0.012 A 
ATOM      4  C3A BZF d   1       0.709  -0.195   0.852  0.00  0.00    -0.107 A 
ATOM      5  C4  BZF d   1       1.965  -0.466   1.313  0.00  0.00     0.055 A 
ATOM      6  C5  BZF d   1       2.748  -1.337   0.624  0.00  0.00    -0.016 A 
ATOM      7  C6  BZF d   1       2.305  -1.958  -0.526  0.00  0.00     0.022 A 
ATOM      8  C7  BZF d   1       1.068  -1.717  -1.024  0.00  0.00     0.029 A 
ATOM      9  C7A BZF d   1       0.287  -0.812  -0.348  0.00  0.00     0.058 A 
ENDROOT
TORSDOF 0
ENDMDL
