MODEL 1
REMARK minimizedAffinity -5.55490875
REMARK minimizedRMSD -1
REMARK  0 active torsions:
REMARK  status: ('A' for Active; 'I' for Inactive)
ROOT
ATOM      1  O1  BZF d   1      -0.023   1.360  -0.377  0.00  0.00    -0.204 OA
ATOM      2  C2  BZF d   1      -0.927   0.357  -0.668  0.00  0.00     0.174 A 
ATOM      3  C3  BZF d   1      -0.316  -0.845  -0.696  0.00  0.00    -0.012 A 
ATOM      4  C3A BZF d   1       1.038  -0.587  -0.313  0.00  0.00    -0.107 A 
ATOM      5  C4  BZF d   1       2.133  -1.385  -0.141  0.00  0.00     0.055 A 
ATOM      6  C5  BZF d   1       3.326  -0.812   0.167  0.00  0.00    -0.016 A 
ATOM      7  C6  BZF d   1       3.462   0.554   0.305  0.00  0.00     0.022 A 
ATOM      8  C7  BZF d   1       2.403   1.386   0.148  0.00  0.00     0.029 A 
ATOM      9  C7A BZF d   1       1.189   0.807  -0.130  0.00  0.00     0.058 A 
ENDROOT
TORSDOF 0
ENDMDL
