MODEL 1
REMARK minimizedAffinity -4.67141056
REMARK minimizedRMSD -1
REMARK  0 active torsions:
REMARK  status: ('A' for Active; 'I' for Inactive)
ROOT
ATOM      1  O1  BZF d   1      -0.665   1.065   0.296  0.00  0.00    -0.204 OA
ATOM      2  C2  BZF d   1      -1.510   0.695  -0.733  0.00  0.00     0.174 A 
ATOM      3  C3  BZF d   1      -1.055  -0.415  -1.349  0.00  0.00    -0.012 A 
ATOM      4  C3A BZF d   1       0.100  -0.814  -0.605  0.00  0.00    -0.107 A 
ATOM      5  C4  BZF d   1       0.977  -1.854  -0.718  0.00  0.00     0.055 A 
ATOM      6  C5  BZF d   1       2.041  -1.915   0.125  0.00  0.00    -0.016 A 
ATOM      7  C6  BZF d   1       2.261  -0.952   1.088  0.00  0.00     0.022 A 
ATOM      8  C7  BZF d   1       1.415   0.096   1.242  0.00  0.00     0.029 A 
ATOM      9  C7A BZF d   1       0.321   0.143   0.413  0.00  0.00     0.058 A 
ENDROOT
TORSDOF 0
ENDMDL
