MODEL 1
REMARK minimizedAffinity -3.93013358
REMARK minimizedRMSD -1
REMARK  0 active torsions:
REMARK  status: ('A' for Active; 'I' for Inactive)
ROOT
ATOM      1  O1  BZF d   1      -0.062   1.398  -0.395  0.00  0.00    -0.204 OA
ATOM      2  C2  BZF d   1      -0.828   0.323  -0.805  0.00  0.00     0.174 A 
ATOM      3  C3  BZF d   1      -0.095  -0.809  -0.817  0.00  0.00    -0.012 A 
ATOM      4  C3A BZF d   1       1.185  -0.434  -0.299  0.00  0.00    -0.107 A 
ATOM      5  C4  BZF d   1       2.337  -1.126  -0.052  0.00  0.00     0.055 A 
ATOM      6  C5  BZF d   1       3.431  -0.450   0.386  0.00  0.00    -0.016 A 
ATOM      7  C6  BZF d   1       3.411   0.915   0.584  0.00  0.00     0.022 A 
ATOM      8  C7  BZF d   1       2.290   1.643   0.357  0.00  0.00     0.029 A 
ATOM      9  C7A BZF d   1       1.173   0.958  -0.054  0.00  0.00     0.058 A 
ENDROOT
TORSDOF 0
ENDMDL
