MODEL 1
REMARK minimizedAffinity -4.75491619
REMARK minimizedRMSD -1
REMARK  0 active torsions:
REMARK  status: ('A' for Active; 'I' for Inactive)
ROOT
ATOM      1  O1  BZF d   1       2.152  -2.097   0.330  0.00  0.00    -0.204 OA
ATOM      2  C2  BZF d   1       2.805  -1.257   1.211  0.00  0.00     0.174 A 
ATOM      3  C3  BZF d   1       2.244  -0.030   1.207  0.00  0.00    -0.012 A 
ATOM      4  C3A BZF d   1       1.115  -0.135   0.334  0.00  0.00    -0.107 A 
ATOM      5  C4  BZF d   1       0.152   0.747  -0.066  0.00  0.00     0.055 A 
ATOM      6  C5  BZF d   1      -0.766   0.349  -0.985  0.00  0.00    -0.016 A 
ATOM      7  C6  BZF d   1      -0.748  -0.918  -1.529  0.00  0.00     0.022 A 
ATOM      8  C7  BZF d   1       0.185  -1.829  -1.160  0.00  0.00     0.029 A 
ATOM      9  C7A BZF d   1       1.094  -1.442  -0.207  0.00  0.00     0.058 A 
ENDROOT
TORSDOF 0
ENDMDL
