MODEL 1
REMARK minimizedAffinity -3.19929075
REMARK minimizedRMSD -1
REMARK  0 active torsions:
REMARK  status: ('A' for Active; 'I' for Inactive)
ROOT
ATOM      1  O1  BZF d   1       2.238  -2.375   0.791  0.00  0.00    -0.204 OA
ATOM      2  C2  BZF d   1       3.205  -1.557   1.343  0.00  0.00     0.174 A 
ATOM      3  C3  BZF d   1       2.883  -0.257   1.178  0.00  0.00    -0.012 A 
ATOM      4  C3A BZF d   1       1.592  -0.265   0.561  0.00  0.00    -0.107 A 
ATOM      5  C4  BZF d   1       0.737   0.722   0.160  0.00  0.00     0.055 A 
ATOM      6  C5  BZF d   1      -0.414   0.380  -0.476  0.00  0.00    -0.016 A 
ATOM      7  C6  BZF d   1      -0.740  -0.936  -0.732  0.00  0.00     0.022 A 
ATOM      8  C7  BZF d   1       0.075  -1.950  -0.349  0.00  0.00     0.029 A 
ATOM      9  C7A BZF d   1       1.223  -1.609   0.323  0.00  0.00     0.058 A 
ENDROOT
TORSDOF 0
ENDMDL
