MODEL 1
REMARK minimizedAffinity -1.17169762
REMARK minimizedRMSD -1
REMARK  0 active torsions:
REMARK  status: ('A' for Active; 'I' for Inactive)
ROOT
ATOM      1  O1  BZF d   1      -0.180  -0.462  -1.720  0.00  0.00    -0.204 OA
ATOM      2  C2  BZF d   1      -1.071   0.489  -1.260  0.00  0.00     0.174 A 
ATOM      3  C3  BZF d   1      -0.744   0.887  -0.014  0.00  0.00    -0.012 A 
ATOM      4  C3A BZF d   1       0.477   0.206   0.291  0.00  0.00    -0.107 A 
ATOM      5  C4  BZF d   1       1.304   0.203   1.378  0.00  0.00     0.055 A 
ATOM      6  C5  BZF d   1       2.378  -0.629   1.388  0.00  0.00    -0.016 A 
ATOM      7  C6  BZF d   1       2.652  -1.473   0.332  0.00  0.00     0.022 A 
ATOM      8  C7  BZF d   1       1.864  -1.502  -0.770  0.00  0.00     0.029 A 
ATOM      9  C7A BZF d   1       0.796  -0.639  -0.797  0.00  0.00     0.058 A 
ENDROOT
TORSDOF 0
ENDMDL
