MODEL 1
REMARK minimizedAffinity -5.09998083
REMARK minimizedRMSD -1
REMARK  0 active torsions:
REMARK  status: ('A' for Active; 'I' for Inactive)
ROOT
ATOM      1  O1  BZF d   1       1.272   1.560   0.057  0.00  0.00    -0.204 OA
ATOM      2  C2  BZF d   1      -0.062   1.495  -0.295  0.00  0.00     0.174 A 
ATOM      3  C3  BZF d   1      -0.445   0.216  -0.487  0.00  0.00    -0.012 A 
ATOM      4  C3A BZF d   1       0.699  -0.574  -0.148  0.00  0.00    -0.107 A 
ATOM      5  C4  BZF d   1       0.937  -1.918  -0.122  0.00  0.00     0.055 A 
ATOM      6  C5  BZF d   1       2.184  -2.362   0.185  0.00  0.00    -0.016 A 
ATOM      7  C6  BZF d   1       3.216  -1.491   0.465  0.00  0.00     0.022 A 
ATOM      8  C7  BZF d   1       3.027  -0.149   0.456  0.00  0.00     0.029 A 
ATOM      9  C7A BZF d   1       1.760   0.302   0.179  0.00  0.00     0.058 A 
ENDROOT
TORSDOF 0
ENDMDL
