MODEL 1
REMARK minimizedAffinity -3.40525889
REMARK minimizedRMSD -1
REMARK  0 active torsions:
REMARK  status: ('A' for Active; 'I' for Inactive)
ROOT
ATOM      1  O1  BZF d   1       0.875   2.098  -0.622  0.00  0.00    -0.204 OA
ATOM      2  C2  BZF d   1      -0.115   1.242  -1.065  0.00  0.00     0.174 A 
ATOM      3  C3  BZF d   1       0.298  -0.040  -1.001  0.00  0.00    -0.012 A 
ATOM      4  C3A BZF d   1       1.595   0.011  -0.399  0.00  0.00    -0.107 A 
ATOM      5  C4  BZF d   1       2.509  -0.944  -0.055  0.00  0.00     0.055 A 
ATOM      6  C5  BZF d   1       3.710  -0.557   0.448  0.00  0.00    -0.016 A 
ATOM      7  C6  BZF d   1       4.033   0.774   0.616  0.00  0.00     0.022 A 
ATOM      8  C7  BZF d   1       3.157   1.757   0.294  0.00  0.00     0.029 A 
ATOM      9  C7A BZF d   1       1.929   1.368  -0.184  0.00  0.00     0.058 A 
ENDROOT
TORSDOF 0
ENDMDL
