MODEL 1
REMARK minimizedAffinity 13.50422
REMARK minimizedRMSD -1
REMARK  3 active torsions:
REMARK  status: ('A' for Active; 'I' for Inactive)
REMARK    1  A    between atoms: C3'_2  and  C2'_3 
REMARK    2  A    between atoms: C2'_3  and  C1'_4 
REMARK    3  A    between atoms: C1'_4  and  C1_5 
ROOT
ATOM      1  C1  N4B d   1       2.404  -2.513   3.804  0.00  0.00    -0.075 A 
ATOM      2  C2  N4B d   1       3.522  -2.238   4.621  0.00  0.00     0.002 A 
ATOM      3  C3  N4B d   1       4.352  -3.259   5.015  0.00  0.00     0.002 A 
ATOM      4  C4  N4B d   1       4.075  -4.559   4.621  0.00  0.00    -0.004 A 
ATOM      5  C5  N4B d   1       3.007  -4.813   3.810  0.00  0.00     0.002 A 
ATOM      6  C6  N4B d   1       2.167  -3.797   3.404  0.00  0.00     0.002 A 
ENDROOT
BRANCH   1   7
ATOM      7  C1' N4B d   1       1.419  -1.443   3.419  0.00  0.00     0.057 C 
BRANCH   7   8
ATOM      8  C2' N4B d   1       1.955  -0.681   2.211  0.00  0.00     0.009 C 
BRANCH   8   9
ATOM      9  C3' N4B d   1       1.608   0.797   2.272  0.00  0.00     0.004 C 
ATOM     10  C4' N4B d   1       2.657   1.666   1.646  0.00  0.00     0.003 C 
ENDBRANCH   8   9
ENDBRANCH   7   8
ENDBRANCH   1   7
TORSDOF 3
ENDMDL
