MODEL 1
REMARK minimizedAffinity 3.44283009
REMARK minimizedRMSD -1
REMARK  3 active torsions:
REMARK  status: ('A' for Active; 'I' for Inactive)
REMARK    1  A    between atoms: C3'_2  and  C2'_3 
REMARK    2  A    between atoms: C2'_3  and  C1'_4 
REMARK    3  A    between atoms: C1'_4  and  C1_5 
ROOT
ATOM      1  C1  N4B d   1       2.081  -1.295   3.939  0.00  0.00    -0.075 A 
ATOM      2  C2  N4B d   1       1.987  -0.200   4.827  0.00  0.00     0.002 A 
ATOM      3  C3  N4B d   1       2.173   1.078   4.362  0.00  0.00     0.002 A 
ATOM      4  C4  N4B d   1       2.473   1.285   3.024  0.00  0.00    -0.004 A 
ATOM      5  C5  N4B d   1       2.537   0.225   2.168  0.00  0.00     0.002 A 
ATOM      6  C6  N4B d   1       2.348  -1.066   2.621  0.00  0.00     0.002 A 
ENDROOT
BRANCH   1   7
ATOM      7  C1' N4B d   1       1.970  -2.717   4.417  0.00  0.00     0.057 C 
BRANCH   7   8
ATOM      8  C2' N4B d   1       3.336  -3.388   4.315  0.00  0.00     0.009 C 
BRANCH   8   9
ATOM      9  C3' N4B d   1       4.280  -2.927   5.412  0.00  0.00     0.004 C 
ATOM     10  C4' N4B d   1       5.722  -3.014   5.012  0.00  0.00     0.003 C 
ENDBRANCH   8   9
ENDBRANCH   7   8
ENDBRANCH   1   7
TORSDOF 3
ENDMDL
