MODEL 1
REMARK minimizedAffinity 1.21927607
REMARK minimizedRMSD -1
REMARK  0 active torsions:
REMARK  status: ('A' for Active; 'I' for Inactive)
ROOT
ATOM      1  C   UNL d   1      -0.836   1.535  -0.561  0.00  0.00     0.077 C 
ATOM      2  C1  UNL d   1      -2.155   1.467   0.150  0.00  0.00    -0.074 A 
ATOM      3  C2  UNL d   1      -2.356   2.144   1.357  0.00  0.00    -0.005 A 
ATOM      4  C3  UNL d   1      -3.591   2.079   2.002  0.00  0.00     0.006 A 
ATOM      5  C4  UNL d   1      -4.635   1.337   1.448  0.00  0.00    -0.005 A 
ATOM      6  C5  UNL d   1      -4.453   0.654   0.242  0.00  0.00    -0.074 A 
ATOM      7  C6  UNL d   1      -5.567  -0.139  -0.372  0.00  0.00     0.077 C 
ATOM      8  C7  UNL d   1      -3.211   0.730  -0.404  0.00  0.00    -0.001 A 
ENDROOT
TORSDOF 0
ENDMDL
