MODEL 1
REMARK minimizedAffinity 4.27679586
REMARK minimizedRMSD -1
REMARK  0 active torsions:
REMARK  status: ('A' for Active; 'I' for Inactive)
ROOT
ATOM      1  C   UNL d   1      -2.823   3.146  -5.514  0.00  0.00     0.077 C 
ATOM      2  C1  UNL d   1      -3.928   3.293  -4.511  0.00  0.00    -0.074 A 
ATOM      3  C2  UNL d   1      -4.769   4.410  -4.526  0.00  0.00    -0.005 A 
ATOM      4  C3  UNL d   1      -5.799   4.528  -3.593  0.00  0.00     0.006 A 
ATOM      5  C4  UNL d   1      -5.999   3.532  -2.637  0.00  0.00    -0.005 A 
ATOM      6  C5  UNL d   1      -5.168   2.407  -2.607  0.00  0.00    -0.074 A 
ATOM      7  C6  UNL d   1      -5.375   1.322  -1.592  0.00  0.00     0.077 C 
ATOM      8  C7  UNL d   1      -4.140   2.292  -3.552  0.00  0.00    -0.001 A 
ENDROOT
TORSDOF 0
ENDMDL
