MODEL 1
REMARK minimizedAffinity 5.265975
REMARK minimizedRMSD -1
REMARK  0 active torsions:
REMARK  status: ('A' for Active; 'I' for Inactive)
ROOT
ATOM      1  C   UNL d   1      -0.284  -2.550  -1.270  0.00  0.00     0.077 C 
ATOM      2  C1  UNL d   1       0.888  -1.856  -0.641  0.00  0.00    -0.074 A 
ATOM      3  C2  UNL d   1       2.006  -2.579  -0.213  0.00  0.00    -0.005 A 
ATOM      4  C3  UNL d   1       3.092  -1.918   0.361  0.00  0.00     0.006 A 
ATOM      5  C4  UNL d   1       3.071  -0.531   0.514  0.00  0.00    -0.005 A 
ATOM      6  C5  UNL d   1       1.961   0.208   0.092  0.00  0.00    -0.074 A 
ATOM      7  C6  UNL d   1       1.926   1.700   0.239  0.00  0.00     0.077 C 
ATOM      8  C7  UNL d   1       0.877  -0.462  -0.491  0.00  0.00    -0.001 A 
ENDROOT
TORSDOF 0
ENDMDL
