MODEL 1
REMARK minimizedAffinity -3.15074539
REMARK minimizedRMSD -1
REMARK  0 active torsions:
REMARK  status: ('A' for Active; 'I' for Inactive)
ROOT
ATOM      1  C   UNL d   1      -4.149   1.126   0.379  0.00  0.00     0.077 C 
ATOM      2  C1  UNL d   1      -2.827   1.383   1.041  0.00  0.00    -0.074 A 
ATOM      3  C2  UNL d   1      -2.723   1.460   2.433  0.00  0.00    -0.005 A 
ATOM      4  C3  UNL d   1      -1.486   1.690   3.035  0.00  0.00     0.006 A 
ATOM      5  C4  UNL d   1      -0.342   1.845   2.251  0.00  0.00    -0.005 A 
ATOM      6  C5  UNL d   1      -0.426   1.771   0.857  0.00  0.00    -0.074 A 
ATOM      7  C6  UNL d   1       0.795   1.926   0.000  0.00  0.00     0.077 C 
ATOM      8  C7  UNL d   1      -1.672   1.533   0.260  0.00  0.00    -0.001 A 
ENDROOT
TORSDOF 0
ENDMDL
