MODEL 1
REMARK minimizedAffinity 1.56100821
REMARK minimizedRMSD -1
REMARK  0 active torsions:
REMARK  status: ('A' for Active; 'I' for Inactive)
ROOT
ATOM      1  C   UNL d   1      -0.531   1.223   0.358  0.00  0.00     0.077 C 
ATOM      2  C1  UNL d   1      -1.965   1.316   0.787  0.00  0.00    -0.074 A 
ATOM      3  C2  UNL d   1      -2.342   2.128   1.861  0.00  0.00    -0.005 A 
ATOM      4  C3  UNL d   1      -3.681   2.212   2.243  0.00  0.00     0.006 A 
ATOM      5  C4  UNL d   1      -4.655   1.486   1.556  0.00  0.00    -0.005 A 
ATOM      6  C5  UNL d   1      -4.296   0.669   0.479  0.00  0.00    -0.074 A 
ATOM      7  C6  UNL d   1      -5.331  -0.110  -0.276  0.00  0.00     0.077 C 
ATOM      8  C7  UNL d   1      -2.950   0.595   0.097  0.00  0.00    -0.001 A 
ENDROOT
TORSDOF 0
ENDMDL
