MODEL 1
REMARK minimizedAffinity 4.35304689
REMARK minimizedRMSD -1
REMARK  0 active torsions:
REMARK  status: ('A' for Active; 'I' for Inactive)
ROOT
ATOM      1  C   UNL d   1       1.283   2.065   0.027  0.00  0.00     0.077 C 
ATOM      2  C1  UNL d   1       1.961   0.728   0.029  0.00  0.00    -0.074 A 
ATOM      3  C2  UNL d   1       1.538  -0.294  -0.827  0.00  0.00    -0.005 A 
ATOM      4  C3  UNL d   1       2.185  -1.530  -0.822  0.00  0.00     0.006 A 
ATOM      5  C4  UNL d   1       3.261  -1.755   0.039  0.00  0.00    -0.005 A 
ATOM      6  C5  UNL d   1       3.699  -0.745   0.901  0.00  0.00    -0.074 A 
ATOM      7  C6  UNL d   1       4.859  -0.968   1.825  0.00  0.00     0.077 C 
ATOM      8  C7  UNL d   1       3.047   0.496   0.884  0.00  0.00    -0.001 A 
ENDROOT
TORSDOF 0
ENDMDL
