MODEL 1
REMARK minimizedAffinity 6.60096455
REMARK minimizedRMSD -1
REMARK  0 active torsions:
REMARK  status: ('A' for Active; 'I' for Inactive)
ROOT
ATOM      1  C   UNL d   1      -5.217  -0.969  -5.234  0.00  0.00     0.077 C 
ATOM      2  C1  UNL d   1      -5.014   0.433  -4.743  0.00  0.00    -0.074 A 
ATOM      3  C2  UNL d   1      -4.372   1.388  -5.539  0.00  0.00    -0.005 A 
ATOM      4  C3  UNL d   1      -4.200   2.691  -5.072  0.00  0.00     0.006 A 
ATOM      5  C4  UNL d   1      -4.667   3.052  -3.808  0.00  0.00    -0.005 A 
ATOM      6  C5  UNL d   1      -5.313   2.112  -2.999  0.00  0.00    -0.074 A 
ATOM      7  C6  UNL d   1      -5.830   2.486  -1.642  0.00  0.00     0.077 C 
ATOM      8  C7  UNL d   1      -5.488   0.806  -3.478  0.00  0.00    -0.001 A 
ENDROOT
TORSDOF 0
ENDMDL
