MODEL 1
REMARK minimizedAffinity 0.797789633
REMARK minimizedRMSD -1
REMARK  0 active torsions:
REMARK  status: ('A' for Active; 'I' for Inactive)
ROOT
ATOM      1  C   UNL d   1      -6.000   2.998  -4.501  0.00  0.00     0.077 C 
ATOM      2  C1  UNL d   1      -5.509   1.771  -3.791  0.00  0.00    -0.074 A 
ATOM      3  C2  UNL d   1      -4.860   0.748  -4.490  0.00  0.00    -0.005 A 
ATOM      4  C3  UNL d   1      -4.401  -0.383  -3.814  0.00  0.00     0.006 A 
ATOM      5  C4  UNL d   1      -4.585  -0.501  -2.436  0.00  0.00    -0.005 A 
ATOM      6  C5  UNL d   1      -5.230   0.513  -1.721  0.00  0.00    -0.074 A 
ATOM      7  C6  UNL d   1      -5.427   0.406  -0.238  0.00  0.00     0.077 C 
ATOM      8  C7  UNL d   1      -5.682   1.649  -2.406  0.00  0.00    -0.001 A 
ENDROOT
TORSDOF 0
ENDMDL
