MODEL 1
REMARK minimizedAffinity 1.75225484
REMARK minimizedRMSD -1
REMARK  0 active torsions:
REMARK  status: ('A' for Active; 'I' for Inactive)
ROOT
ATOM      1  C   UNL d   1       3.064  -1.980   0.809  0.00  0.00     0.077 C 
ATOM      2  C1  UNL d   1       1.859  -2.292  -0.027  0.00  0.00    -0.074 A 
ATOM      3  C2  UNL d   1       0.974  -3.311   0.340  0.00  0.00    -0.005 A 
ATOM      4  C3  UNL d   1      -0.148  -3.584  -0.442  0.00  0.00     0.006 A 
ATOM      5  C4  UNL d   1      -0.396  -2.843  -1.598  0.00  0.00    -0.005 A 
ATOM      6  C5  UNL d   1       0.477  -1.820  -1.981  0.00  0.00    -0.074 A 
ATOM      7  C6  UNL d   1       0.220  -1.007  -3.215  0.00  0.00     0.077 C 
ATOM      8  C7  UNL d   1       1.599  -1.547  -1.186  0.00  0.00    -0.001 A 
ENDROOT
TORSDOF 0
ENDMDL
