MODEL 1
REMARK minimizedAffinity 14.5097828
REMARK minimizedRMSD -1
REMARK  0 active torsions:
REMARK  status: ('A' for Active; 'I' for Inactive)
ROOT
ATOM      1  C   UNL d   1      -3.542   2.304   2.248  0.00  0.00     0.077 C 
ATOM      2  C1  UNL d   1      -2.065   2.070   2.361  0.00  0.00    -0.074 A 
ATOM      3  C2  UNL d   1      -1.535   1.318   3.414  0.00  0.00    -0.005 A 
ATOM      4  C3  UNL d   1      -0.160   1.100   3.501  0.00  0.00     0.006 A 
ATOM      5  C4  UNL d   1       0.698   1.632   2.537  0.00  0.00    -0.005 A 
ATOM      6  C5  UNL d   1       0.185   2.386   1.476  0.00  0.00    -0.074 A 
ATOM      7  C6  UNL d   1       1.092   2.957   0.427  0.00  0.00     0.077 C 
ATOM      8  C7  UNL d   1      -1.198   2.594   1.392  0.00  0.00    -0.001 A 
ENDROOT
TORSDOF 0
ENDMDL
