MODEL 1
REMARK minimizedAffinity 3.35986972
REMARK minimizedRMSD -1
REMARK  0 active torsions:
REMARK  status: ('A' for Active; 'I' for Inactive)
ROOT
ATOM      1  C   UNL d   1       3.062   0.771  -0.559  0.00  0.00     0.077 C 
ATOM      2  C1  UNL d   1       2.592  -0.583  -0.116  0.00  0.00    -0.074 A 
ATOM      3  C2  UNL d   1       3.197  -1.236   0.963  0.00  0.00    -0.005 A 
ATOM      4  C3  UNL d   1       2.743  -2.490   1.370  0.00  0.00     0.006 A 
ATOM      5  C4  UNL d   1       1.682  -3.104   0.703  0.00  0.00    -0.005 A 
ATOM      6  C5  UNL d   1       1.064  -2.466  -0.377  0.00  0.00    -0.074 A 
ATOM      7  C6  UNL d   1      -0.084  -3.106  -1.099  0.00  0.00     0.077 C 
ATOM      8  C7  UNL d   1       1.522  -1.202  -0.776  0.00  0.00    -0.001 A 
ENDROOT
TORSDOF 0
ENDMDL
