MODEL 1
REMARK minimizedAffinity 18.983633
REMARK minimizedRMSD -1
REMARK  0 active torsions:
REMARK  status: ('A' for Active; 'I' for Inactive)
ROOT
ATOM      1  N1  IND d   1      -4.295   0.409   2.619  0.00  0.00    -0.196 N 
ATOM      2  C2  IND d   1      -3.438  -0.577   3.021  0.00  0.00     0.054 A 
ATOM      3  C3  IND d   1      -3.019  -0.349   4.286  0.00  0.00    -0.031 A 
ATOM      4  C4  IND d   1      -3.689   1.526   5.918  0.00  0.00     0.051 A 
ATOM      5  C5  IND d   1      -4.416   2.680   5.992  0.00  0.00    -0.031 A 
ATOM      6  C6  IND d   1      -5.157   3.145   4.925  0.00  0.00     0.015 A 
ATOM      7  C7  IND d   1      -5.208   2.463   3.742  0.00  0.00    -0.016 A 
ATOM      8  C8  IND d   1      -4.466   1.294   3.661  0.00  0.00    -0.047 A 
ATOM      9  C9  IND d   1      -3.678   0.840   4.726  0.00  0.00    -0.096 A 
ATOM     10  HN1 IND d   1      -4.666   0.467   1.845  0.00  0.00     0.298 HD
ENDROOT
TORSDOF 0
ENDMDL
