MODEL 1
REMARK minimizedAffinity 8.97083664
REMARK minimizedRMSD -1
REMARK  0 active torsions:
REMARK  status: ('A' for Active; 'I' for Inactive)
ROOT
ATOM      1  N1  IND d   1      -3.250  -0.049   4.647  0.00  0.00    -0.196 N 
ATOM      2  C2  IND d   1      -3.644  -0.533   3.431  0.00  0.00     0.054 A 
ATOM      3  C3  IND d   1      -4.592   0.267   2.892  0.00  0.00    -0.031 A 
ATOM      4  C4  IND d   1      -5.570   2.475   3.784  0.00  0.00     0.051 A 
ATOM      5  C5  IND d   1      -5.547   3.301   4.873  0.00  0.00    -0.031 A 
ATOM      6  C6  IND d   1      -4.739   3.049   5.963  0.00  0.00     0.015 A 
ATOM      7  C7  IND d   1      -3.911   1.962   6.000  0.00  0.00    -0.016 A 
ATOM      8  C8  IND d   1      -3.937   1.117   4.899  0.00  0.00    -0.047 A 
ATOM      9  C9  IND d   1      -4.786   1.345   3.809  0.00  0.00    -0.096 A 
ATOM     10  HN1 IND d   1      -2.670  -0.413   5.167  0.00  0.00     0.298 HD
ENDROOT
TORSDOF 0
ENDMDL
