MODEL 1
REMARK minimizedAffinity 16.4313412
REMARK minimizedRMSD -1
REMARK  0 active torsions:
REMARK  status: ('A' for Active; 'I' for Inactive)
ROOT
ATOM      1  N1  IND d   1      -4.945  -1.725   2.352  0.00  0.00    -0.196 N 
ATOM      2  C2  IND d   1      -3.852  -1.580   3.160  0.00  0.00     0.054 A 
ATOM      3  C3  IND d   1      -3.066  -2.678   3.090  0.00  0.00    -0.031 A 
ATOM      4  C4  IND d   1      -3.327  -4.786   1.635  0.00  0.00     0.051 A 
ATOM      5  C5  IND d   1      -4.186  -5.392   0.762  0.00  0.00    -0.031 A 
ATOM      6  C6  IND d   1      -5.363  -4.794   0.363  0.00  0.00     0.015 A 
ATOM      7  C7  IND d   1      -5.723  -3.556   0.817  0.00  0.00    -0.016 A 
ATOM      8  C8  IND d   1      -4.857  -2.941   1.710  0.00  0.00    -0.047 A 
ATOM      9  C9  IND d   1      -3.681  -3.561   2.151  0.00  0.00    -0.096 A 
ATOM     10  HN1 IND d   1      -5.580  -1.153   2.260  0.00  0.00     0.298 HD
ENDROOT
TORSDOF 0
ENDMDL
