MODEL 1
REMARK minimizedAffinity 7.71243238
REMARK minimizedRMSD -1
REMARK  0 active torsions:
REMARK  status: ('A' for Active; 'I' for Inactive)
ROOT
ATOM      1  N1  IND d   1      -4.187   3.556  -5.330  0.00  0.00    -0.196 N 
ATOM      2  C2  IND d   1      -3.919   4.751  -5.937  0.00  0.00     0.054 A 
ATOM      3  C3  IND d   1      -2.585   4.961  -5.994  0.00  0.00    -0.031 A 
ATOM      4  C4  IND d   1      -0.655   3.431  -5.244  0.00  0.00     0.051 A 
ATOM      5  C5  IND d   1      -0.402   2.252  -4.600  0.00  0.00    -0.031 A 
ATOM      6  C6  IND d   1      -1.419   1.430  -4.160  0.00  0.00     0.015 A 
ATOM      7  C7  IND d   1      -2.732   1.751  -4.359  0.00  0.00    -0.016 A 
ATOM      8  C8  IND d   1      -2.992   2.951  -5.006  0.00  0.00    -0.047 A 
ATOM      9  C9  IND d   1      -1.965   3.810  -5.417  0.00  0.00    -0.096 A 
ATOM     10  HN1 IND d   1      -4.970   3.236  -5.176  0.00  0.00     0.298 HD
ENDROOT
TORSDOF 0
ENDMDL
