MODEL 1
REMARK minimizedAffinity 12.5278959
REMARK minimizedRMSD -1
REMARK  0 active torsions:
REMARK  status: ('A' for Active; 'I' for Inactive)
ROOT
ATOM      1  N1  IND d   1      -0.904   1.789   2.947  0.00  0.00    -0.196 N 
ATOM      2  C2  IND d   1       0.121   0.986   2.530  0.00  0.00     0.054 A 
ATOM      3  C3  IND d   1      -0.326  -0.270   2.307  0.00  0.00    -0.031 A 
ATOM      4  C4  IND d   1      -2.719  -1.206   2.465  0.00  0.00     0.051 A 
ATOM      5  C5  IND d   1      -3.987  -0.863   2.840  0.00  0.00    -0.031 A 
ATOM      6  C6  IND d   1      -4.300   0.408   3.277  0.00  0.00     0.015 A 
ATOM      7  C7  IND d   1      -3.353   1.391   3.343  0.00  0.00    -0.016 A 
ATOM      8  C8  IND d   1      -2.063   1.044   2.970  0.00  0.00    -0.047 A 
ATOM      9  C9  IND d   1      -1.731  -0.256   2.566  0.00  0.00    -0.096 A 
ATOM     10  HN1 IND d   1      -0.836   2.619   3.159  0.00  0.00     0.298 HD
ENDROOT
TORSDOF 0
ENDMDL
