MODEL 1
REMARK minimizedAffinity 9.88944626
REMARK minimizedRMSD -1
REMARK  0 active torsions:
REMARK  status: ('A' for Active; 'I' for Inactive)
ROOT
ATOM      1  N1  IND d   1      -2.662   3.905  -3.810  0.00  0.00    -0.196 N 
ATOM      2  C2  IND d   1      -3.061   4.506  -4.971  0.00  0.00     0.054 A 
ATOM      3  C3  IND d   1      -2.996   3.631  -6.000  0.00  0.00    -0.031 A 
ATOM      4  C4  IND d   1      -2.360   1.137  -5.987  0.00  0.00     0.051 A 
ATOM      5  C5  IND d   1      -1.888   0.149  -5.169  0.00  0.00    -0.031 A 
ATOM      6  C6  IND d   1      -1.647   0.367  -3.828  0.00  0.00     0.015 A 
ATOM      7  C7  IND d   1      -1.882   1.583  -3.250  0.00  0.00    -0.016 A 
ATOM      8  C8  IND d   1      -2.355   2.590  -4.080  0.00  0.00    -0.047 A 
ATOM      9  C9  IND d   1      -2.560   2.386  -5.451  0.00  0.00    -0.096 A 
ATOM     10  HN1 IND d   1      -2.611   4.285  -3.040  0.00  0.00     0.298 HD
ENDROOT
TORSDOF 0
ENDMDL
