MODEL 1
REMARK minimizedAffinity 24.1542377
REMARK minimizedRMSD -1
REMARK  0 active torsions:
REMARK  status: ('A' for Active; 'I' for Inactive)
ROOT
ATOM      1  N1  IND d   1       2.242  -1.855  -0.091  0.00  0.00    -0.196 N 
ATOM      2  C2  IND d   1       1.396  -2.241  -1.093  0.00  0.00     0.054 A 
ATOM      3  C3  IND d   1       1.284  -1.260  -2.017  0.00  0.00    -0.031 A 
ATOM      4  C4  IND d   1       2.476   1.019  -2.137  0.00  0.00     0.051 A 
ATOM      5  C5  IND d   1       3.315   1.834  -1.430  0.00  0.00    -0.031 A 
ATOM      6  C6  IND d   1       3.853   1.452  -0.218  0.00  0.00     0.015 A 
ATOM      7  C7  IND d   1       3.579   0.231   0.330  0.00  0.00    -0.016 A 
ATOM      8  C8  IND d   1       2.721  -0.597  -0.382  0.00  0.00    -0.047 A 
ATOM      9  C9  IND d   1       2.139  -0.198  -1.592  0.00  0.00    -0.096 A 
ATOM     10  HN1 IND d   1       2.442  -2.321   0.604  0.00  0.00     0.298 HD
ENDROOT
TORSDOF 0
ENDMDL
