MODEL 1
REMARK minimizedAffinity 17.9766712
REMARK minimizedRMSD -1
REMARK  0 active torsions:
REMARK  status: ('A' for Active; 'I' for Inactive)
ROOT
ATOM      1  N1  IND d   1      -4.058  -2.042  -5.998  0.00  0.00    -0.196 N 
ATOM      2  C2  IND d   1      -2.956  -1.697  -5.268  0.00  0.00     0.054 A 
ATOM      3  C3  IND d   1      -2.670  -2.659  -4.362  0.00  0.00    -0.031 A 
ATOM      4  C4  IND d   1      -3.817  -4.931  -3.974  0.00  0.00     0.051 A 
ATOM      5  C5  IND d   1      -4.890  -5.678  -4.372  0.00  0.00    -0.031 A 
ATOM      6  C6  IND d   1      -5.756  -5.244  -5.354  0.00  0.00     0.015 A 
ATOM      7  C7  IND d   1      -5.575  -4.046  -5.986  0.00  0.00    -0.016 A 
ATOM      8  C8  IND d   1      -4.490  -3.282  -5.579  0.00  0.00    -0.047 A 
ATOM      9  C9  IND d   1      -3.632  -3.698  -4.553  0.00  0.00    -0.096 A 
ATOM     10  HN1 IND d   1      -4.421  -1.566  -6.615  0.00  0.00     0.298 HD
ENDROOT
TORSDOF 0
ENDMDL
