MODEL 1
REMARK minimizedAffinity 11.6183128
REMARK minimizedRMSD -1
REMARK  0 active torsions:
REMARK  status: ('A' for Active; 'I' for Inactive)
ROOT
ATOM      1  N1  IND d   1       3.153  -2.458   0.107  0.00  0.00    -0.196 N 
ATOM      2  C2  IND d   1       1.940  -2.678  -0.485  0.00  0.00     0.054 A 
ATOM      3  C3  IND d   1       1.535  -1.573  -1.151  0.00  0.00    -0.031 A 
ATOM      4  C4  IND d   1       2.749   0.672  -1.487  0.00  0.00     0.051 A 
ATOM      5  C5  IND d   1       3.867   1.359  -1.106  0.00  0.00    -0.031 A 
ATOM      6  C6  IND d   1       4.825   0.797  -0.287  0.00  0.00     0.015 A 
ATOM      7  C7  IND d   1       4.705  -0.484   0.174  0.00  0.00    -0.016 A 
ATOM      8  C8  IND d   1       3.568  -1.182  -0.205  0.00  0.00    -0.047 A 
ATOM      9  C9  IND d   1       2.572  -0.602  -1.001  0.00  0.00    -0.096 A 
ATOM     10  HN1 IND d   1       3.584  -3.022   0.592  0.00  0.00     0.298 HD
ENDROOT
TORSDOF 0
ENDMDL
