MODEL 1
REMARK minimizedAffinity 13.3329964
REMARK minimizedRMSD -1
REMARK  0 active torsions:
REMARK  status: ('A' for Active; 'I' for Inactive)
ROOT
ATOM      1  N1  IND d   1      -3.858  -0.693   1.962  0.00  0.00    -0.196 N 
ATOM      2  C2  IND d   1      -3.597   0.643   1.832  0.00  0.00     0.054 A 
ATOM      3  C3  IND d   1      -3.388   1.202   3.045  0.00  0.00    -0.031 A 
ATOM      4  C4  IND d   1      -3.325   0.094   5.368  0.00  0.00     0.051 A 
ATOM      5  C5  IND d   1      -3.541  -1.099   5.998  0.00  0.00    -0.031 A 
ATOM      6  C6  IND d   1      -3.878  -2.242   5.301  0.00  0.00     0.015 A 
ATOM      7  C7  IND d   1      -4.001  -2.236   3.940  0.00  0.00    -0.016 A 
ATOM      8  C8  IND d   1      -3.789  -1.024   3.298  0.00  0.00    -0.047 A 
ATOM      9  C9  IND d   1      -3.489   0.148   4.003  0.00  0.00    -0.096 A 
ATOM     10  HN1 IND d   1      -4.036  -1.234   1.319  0.00  0.00     0.298 HD
ENDROOT
TORSDOF 0
ENDMDL
