MODEL 1
REMARK minimizedAffinity 6.01515579
REMARK minimizedRMSD -1
REMARK  0 active torsions:
REMARK  status: ('A' for Active; 'I' for Inactive)
ROOT
ATOM      1  N1  IND d   1       2.600  -0.282  -2.641  0.00  0.00    -0.196 N 
ATOM      2  C2  IND d   1       2.506   0.284  -1.400  0.00  0.00     0.054 A 
ATOM      3  C3  IND d   1       2.170  -0.649  -0.481  0.00  0.00    -0.031 A 
ATOM      4  C4  IND d   1       1.823  -3.183  -0.776  0.00  0.00     0.051 A 
ATOM      5  C5  IND d   1       1.766  -4.159  -1.732  0.00  0.00    -0.031 A 
ATOM      6  C6  IND d   1       1.991  -3.886  -3.066  0.00  0.00     0.015 A 
ATOM      7  C7  IND d   1       2.294  -2.625  -3.494  0.00  0.00    -0.016 A 
ATOM      8  C8  IND d   1       2.346  -1.631  -2.528  0.00  0.00    -0.047 A 
ATOM      9  C9  IND d   1       2.077  -1.893  -1.178  0.00  0.00    -0.096 A 
ATOM     10  HN1 IND d   1       2.786   0.135  -3.369  0.00  0.00     0.298 HD
ENDROOT
TORSDOF 0
ENDMDL
