MODEL 1
REMARK minimizedAffinity 8.3226366
REMARK minimizedRMSD -1
REMARK  0 active torsions:
REMARK  status: ('A' for Active; 'I' for Inactive)
ROOT
ATOM      1  N1  IND d   1       4.450  -0.242   0.490  0.00  0.00    -0.196 N 
ATOM      2  C2  IND d   1       4.449   1.079   0.137  0.00  0.00     0.054 A 
ATOM      3  C3  IND d   1       3.554   1.301  -0.851  0.00  0.00    -0.031 A 
ATOM      4  C4  IND d   1       1.912  -0.336  -1.969  0.00  0.00     0.051 A 
ATOM      5  C5  IND d   1       1.567  -1.658  -2.007  0.00  0.00    -0.031 A 
ATOM      6  C6  IND d   1       2.175  -2.594  -1.196  0.00  0.00     0.015 A 
ATOM      7  C7  IND d   1       3.148  -2.239  -0.305  0.00  0.00    -0.016 A 
ATOM      8  C8  IND d   1       3.506  -0.899  -0.269  0.00  0.00    -0.047 A 
ATOM      9  C9  IND d   1       2.922   0.048  -1.119  0.00  0.00    -0.096 A 
ATOM     10  HN1 IND d   1       4.954  -0.602   1.086  0.00  0.00     0.298 HD
ENDROOT
TORSDOF 0
ENDMDL
