MODEL 1
REMARK minimizedAffinity 3.81385112
REMARK minimizedRMSD -1
REMARK  0 active torsions:
REMARK  status: ('A' for Active; 'I' for Inactive)
ROOT
ATOM      1  N1  IND d   1       2.231  -4.569  -0.460  0.00  0.00    -0.196 N 
ATOM      2  C2  IND d   1       2.893  -5.760  -0.351  0.00  0.00     0.054 A 
ATOM      3  C3  IND d   1       3.625  -5.994  -1.463  0.00  0.00    -0.031 A 
ATOM      4  C4  IND d   1       3.967  -4.511  -3.540  0.00  0.00     0.051 A 
ATOM      5  C5  IND d   1       3.540  -3.346  -4.113  0.00  0.00    -0.031 A 
ATOM      6  C6  IND d   1       2.640  -2.511  -3.484  0.00  0.00     0.015 A 
ATOM      7  C7  IND d   1       2.138  -2.805  -2.248  0.00  0.00    -0.016 A 
ATOM      8  C8  IND d   1       2.564  -3.991  -1.666  0.00  0.00    -0.047 A 
ATOM      9  C9  IND d   1       3.445  -4.864  -2.317  0.00  0.00    -0.096 A 
ATOM     10  HN1 IND d   1       1.697  -4.236   0.126  0.00  0.00     0.298 HD
ENDROOT
TORSDOF 0
ENDMDL
