MODEL 1
REMARK minimizedAffinity 11.7256403
REMARK minimizedRMSD -1
REMARK  0 active torsions:
REMARK  status: ('A' for Active; 'I' for Inactive)
ROOT
ATOM      1  N1  IND d   1       1.227   0.517   3.837  0.00  0.00    -0.196 N 
ATOM      2  C2  IND d   1       1.464   1.651   4.561  0.00  0.00     0.054 A 
ATOM      3  C3  IND d   1       0.379   2.457   4.544  0.00  0.00    -0.031 A 
ATOM      4  C4  IND d   1      -1.930   2.067   3.474  0.00  0.00     0.051 A 
ATOM      5  C5  IND d   1      -2.614   1.193   2.676  0.00  0.00    -0.031 A 
ATOM      6  C6  IND d   1      -2.042   0.024   2.217  0.00  0.00     0.015 A 
ATOM      7  C7  IND d   1      -0.762  -0.321   2.550  0.00  0.00    -0.016 A 
ATOM      8  C8  IND d   1      -0.063   0.567   3.354  0.00  0.00    -0.047 A 
ATOM      9  C9  IND d   1      -0.624   1.775   3.788  0.00  0.00    -0.096 A 
ATOM     10  HN1 IND d   1       1.788  -0.121   3.704  0.00  0.00     0.298 HD
ENDROOT
TORSDOF 0
ENDMDL
