MODEL 1
REMARK minimizedAffinity 13.9055748
REMARK minimizedRMSD -1
REMARK  0 active torsions:
REMARK  status: ('A' for Active; 'I' for Inactive)
ROOT
ATOM      1  N1  IND d   1       2.655  -1.459   0.059  0.00  0.00    -0.196 N 
ATOM      2  C2  IND d   1       2.860  -2.748   0.468  0.00  0.00     0.054 A 
ATOM      3  C3  IND d   1       2.563  -3.611  -0.530  0.00  0.00    -0.031 A 
ATOM      4  C4  IND d   1       1.821  -3.124  -2.946  0.00  0.00     0.051 A 
ATOM      5  C5  IND d   1       1.462  -2.101  -3.777  0.00  0.00    -0.031 A 
ATOM      6  C6  IND d   1       1.485  -0.784  -3.365  0.00  0.00     0.015 A 
ATOM      7  C7  IND d   1       1.881  -0.440  -2.103  0.00  0.00    -0.016 A 
ATOM      8  C8  IND d   1       2.240  -1.477  -1.254  0.00  0.00    -0.047 A 
ATOM      9  C9  IND d   1       2.178  -2.818  -1.654  0.00  0.00    -0.096 A 
ATOM     10  HN1 IND d   1       2.767  -0.756   0.541  0.00  0.00     0.298 HD
ENDROOT
TORSDOF 0
ENDMDL
