MODEL 1
REMARK minimizedAffinity 8.06667042
REMARK minimizedRMSD -1
REMARK  0 active torsions:
REMARK  status: ('A' for Active; 'I' for Inactive)
ROOT
ATOM      1  N1  IND d   1       1.559  -0.301  -2.667  0.00  0.00    -0.196 N 
ATOM      2  C2  IND d   1       1.992   0.494  -1.642  0.00  0.00     0.054 A 
ATOM      3  C3  IND d   1       2.364  -0.262  -0.585  0.00  0.00    -0.031 A 
ATOM      4  C4  IND d   1       2.442  -2.824  -0.353  0.00  0.00     0.051 A 
ATOM      5  C5  IND d   1       2.110  -3.976  -1.010  0.00  0.00    -0.031 A 
ATOM      6  C6  IND d   1       1.570  -3.961  -2.280  0.00  0.00     0.015 A 
ATOM      7  C7  IND d   1       1.350  -2.789  -2.947  0.00  0.00    -0.016 A 
ATOM      8  C8  IND d   1       1.679  -1.618  -2.280  0.00  0.00    -0.047 A 
ATOM      9  C9  IND d   1       2.188  -1.625  -0.975  0.00  0.00    -0.096 A 
ATOM     10  HN1 IND d   1       1.262  -0.025  -3.425  0.00  0.00     0.298 HD
ENDROOT
TORSDOF 0
ENDMDL
