MODEL 1
REMARK minimizedAffinity 0.282919616
REMARK minimizedRMSD -1
REMARK  0 active torsions:
REMARK  status: ('A' for Active; 'I' for Inactive)
ROOT
ATOM      1  C   UNL d   1       1.516  -0.384  -1.120  0.00  0.00     0.023 A 
ATOM      2  C1  UNL d   1       0.753  -0.057   0.001  0.00  0.00     0.003 A 
ATOM      3  C2  UNL d   1       0.652   1.273   0.414  0.00  0.00     0.048 A 
ATOM      4  C3  UNL d   1       1.316   2.271  -0.299  0.00  0.00     0.023 A 
ATOM      5  C4  UNL d   1       2.080   1.948  -1.422  0.00  0.00     0.048 A 
ATOM      6  C5  UNL d   1       2.178   0.617  -1.831  0.00  0.00     0.003 A 
ATOM      7  I   UNL d   1       1.167   4.251   0.314  0.00  0.00    -0.146 I 
ENDROOT
TORSDOF 0
ENDMDL
