MODEL 1
REMARK minimizedAffinity 2.06866908
REMARK minimizedRMSD -1
REMARK  0 active torsions:
REMARK  status: ('A' for Active; 'I' for Inactive)
ROOT
ATOM      1  C   UNL d   1       0.775   2.114  -1.208  0.00  0.00     0.023 A 
ATOM      2  C1  UNL d   1       1.920   1.839  -1.955  0.00  0.00     0.003 A 
ATOM      3  C2  UNL d   1       2.766   0.793  -1.581  0.00  0.00     0.048 A 
ATOM      4  C3  UNL d   1       2.459   0.024  -0.459  0.00  0.00     0.023 A 
ATOM      5  C4  UNL d   1       1.314   0.295   0.292  0.00  0.00     0.048 A 
ATOM      6  C5  UNL d   1       0.472   1.343  -0.085  0.00  0.00     0.003 A 
ATOM      7  I   UNL d   1       3.716  -1.534   0.100  0.00  0.00    -0.146 I 
ENDROOT
TORSDOF 0
ENDMDL
