MODEL 1
REMARK minimizedAffinity -4.27437735
REMARK minimizedRMSD -1
REMARK  0 active torsions:
REMARK  status: ('A' for Active; 'I' for Inactive)
ROOT
ATOM      1  C   UNL d   1       0.711   3.363  -0.122  0.00  0.00     0.023 A 
ATOM      2  C1  UNL d   1       1.254   3.050  -1.368  0.00  0.00     0.003 A 
ATOM      3  C2  UNL d   1       1.550   1.724  -1.689  0.00  0.00     0.048 A 
ATOM      4  C3  UNL d   1       1.299   0.715  -0.760  0.00  0.00     0.023 A 
ATOM      5  C4  UNL d   1       0.755   1.023   0.488  0.00  0.00     0.048 A 
ATOM      6  C5  UNL d   1       0.461   2.350   0.805  0.00  0.00     0.003 A 
ATOM      7  I   UNL d   1       1.739  -1.260  -1.236  0.00  0.00    -0.146 I 
ENDROOT
TORSDOF 0
ENDMDL
