MODEL 1
REMARK minimizedAffinity -0.97855705
REMARK minimizedRMSD -1
REMARK  0 active torsions:
REMARK  status: ('A' for Active; 'I' for Inactive)
ROOT
ATOM      1  C   UNL d   1       1.007  -0.224  -0.876  0.00  0.00     0.023 A 
ATOM      2  C1  UNL d   1       1.261   0.548  -2.009  0.00  0.00     0.003 A 
ATOM      3  C2  UNL d   1       1.405   1.932  -1.895  0.00  0.00     0.048 A 
ATOM      4  C3  UNL d   1       1.294   2.537  -0.643  0.00  0.00     0.023 A 
ATOM      5  C4  UNL d   1       1.041   1.768   0.494  0.00  0.00     0.048 A 
ATOM      6  C5  UNL d   1       0.897   0.385   0.374  0.00  0.00     0.003 A 
ATOM      7  I   UNL d   1       1.508   4.598  -0.470  0.00  0.00    -0.146 I 
ENDROOT
TORSDOF 0
ENDMDL
