MODEL 1
REMARK minimizedAffinity 1.81799316
REMARK minimizedRMSD -1
REMARK  0 active torsions:
REMARK  status: ('A' for Active; 'I' for Inactive)
ROOT
ATOM      1  C   UNL d   1       1.153  -0.580  -0.365  0.00  0.00     0.023 A 
ATOM      2  C1  UNL d   1       0.696  -0.039  -1.567  0.00  0.00     0.003 A 
ATOM      3  C2  UNL d   1       0.779   1.336  -1.791  0.00  0.00     0.048 A 
ATOM      4  C3  UNL d   1       1.321   2.166  -0.810  0.00  0.00     0.023 A 
ATOM      5  C4  UNL d   1       1.780   1.629   0.394  0.00  0.00     0.048 A 
ATOM      6  C5  UNL d   1       1.694   0.253   0.614  0.00  0.00     0.003 A 
ATOM      7  I   UNL d   1       1.445   4.214  -1.141  0.00  0.00    -0.146 I 
ENDROOT
TORSDOF 0
ENDMDL
