MODEL 1
REMARK minimizedAffinity 1.53081369
REMARK minimizedRMSD -1
REMARK  0 active torsions:
REMARK  status: ('A' for Active; 'I' for Inactive)
ROOT
ATOM      1  C   UNL d   1       1.075   0.136  -0.161  0.00  0.00     0.023 A 
ATOM      2  C1  UNL d   1       1.291   1.180   0.738  0.00  0.00     0.003 A 
ATOM      3  C2  UNL d   1       1.529   2.472   0.265  0.00  0.00     0.048 A 
ATOM      4  C3  UNL d   1       1.549   2.713  -1.108  0.00  0.00     0.023 A 
ATOM      5  C4  UNL d   1       1.332   1.671  -2.011  0.00  0.00     0.048 A 
ATOM      6  C5  UNL d   1       1.095   0.381  -1.534  0.00  0.00     0.003 A 
ATOM      7  I   UNL d   1       1.904   4.635  -1.814  0.00  0.00    -0.146 I 
ENDROOT
TORSDOF 0
ENDMDL
