MODEL 1
REMARK minimizedAffinity -1.38975739
REMARK minimizedRMSD -1
REMARK  0 active torsions:
REMARK  status: ('A' for Active; 'I' for Inactive)
ROOT
ATOM      1  C   UNL d   1       0.888   1.161  -0.584  0.00  0.00     0.023 A 
ATOM      2  C1  UNL d   1       1.231   1.795  -1.778  0.00  0.00     0.003 A 
ATOM      3  C2  UNL d   1       1.579   3.148  -1.777  0.00  0.00     0.048 A 
ATOM      4  C3  UNL d   1       1.584   3.860  -0.579  0.00  0.00     0.023 A 
ATOM      5  C4  UNL d   1       1.242   3.229   0.619  0.00  0.00     0.048 A 
ATOM      6  C5  UNL d   1       0.894   1.877   0.613  0.00  0.00     0.003 A 
ATOM      7  I   UNL d   1       2.102   5.872  -0.575  0.00  0.00    -0.146 I 
ENDROOT
TORSDOF 0
ENDMDL
