MODEL 1
REMARK minimizedAffinity 6.6034646
REMARK minimizedRMSD -1
REMARK  0 active torsions:
REMARK  status: ('A' for Active; 'I' for Inactive)
ROOT
ATOM      1  C   UNL d   1       0.180   0.700  -1.827  0.00  0.00     0.023 A 
ATOM      2  C1  UNL d   1      -0.768   1.722  -1.866  0.00  0.00     0.003 A 
ATOM      3  C2  UNL d   1      -0.374   3.049  -1.681  0.00  0.00     0.048 A 
ATOM      4  C3  UNL d   1       0.970   3.346  -1.457  0.00  0.00     0.023 A 
ATOM      5  C4  UNL d   1       1.922   2.326  -1.417  0.00  0.00     0.048 A 
ATOM      6  C5  UNL d   1       1.523   1.001  -1.603  0.00  0.00     0.003 A 
ATOM      7  I   UNL d   1       1.560   5.320  -1.180  0.00  0.00    -0.146 I 
ENDROOT
TORSDOF 0
ENDMDL
