MODEL 1
REMARK minimizedAffinity -1.15928781
REMARK minimizedRMSD -1
REMARK  0 active torsions:
REMARK  status: ('A' for Active; 'I' for Inactive)
ROOT
ATOM      1  C   UNL d   1       0.832  -0.368   0.248  0.00  0.00     0.023 A 
ATOM      2  C1  UNL d   1       0.954   0.762   1.056  0.00  0.00     0.003 A 
ATOM      3  C2  UNL d   1       1.124   2.021   0.477  0.00  0.00     0.048 A 
ATOM      4  C3  UNL d   1       1.170   2.143  -0.911  0.00  0.00     0.023 A 
ATOM      5  C4  UNL d   1       1.047   1.015  -1.724  0.00  0.00     0.048 A 
ATOM      6  C5  UNL d   1       0.878  -0.242  -1.140  0.00  0.00     0.003 A 
ATOM      7  I   UNL d   1       1.423   4.016  -1.776  0.00  0.00    -0.146 I 
ENDROOT
TORSDOF 0
ENDMDL
