MODEL 1
REMARK minimizedAffinity -1.8044709
REMARK minimizedRMSD -1
REMARK  0 active torsions:
REMARK  status: ('A' for Active; 'I' for Inactive)
ROOT
ATOM      1  C   UNL d   1       0.719   0.991  -0.736  0.00  0.00     0.023 A 
ATOM      2  C1  UNL d   1       0.756   1.804   0.397  0.00  0.00     0.003 A 
ATOM      3  C2  UNL d   1       1.088   3.155   0.279  0.00  0.00     0.048 A 
ATOM      4  C3  UNL d   1       1.381   3.687  -0.976  0.00  0.00     0.023 A 
ATOM      5  C4  UNL d   1       1.344   2.878  -2.113  0.00  0.00     0.048 A 
ATOM      6  C5  UNL d   1       1.012   1.528  -1.990  0.00  0.00     0.003 A 
ATOM      7  I   UNL d   1       1.875   5.698  -1.156  0.00  0.00    -0.146 I 
ENDROOT
TORSDOF 0
ENDMDL
