MODEL 1
REMARK minimizedAffinity -0.0758159906
REMARK minimizedRMSD -1
REMARK  0 active torsions:
REMARK  status: ('A' for Active; 'I' for Inactive)
ROOT
ATOM      1  C   UNL d   1       1.045   0.422  -0.682  0.00  0.00     0.023 A 
ATOM      2  C1  UNL d   1       1.106   1.268   0.426  0.00  0.00     0.003 A 
ATOM      3  C2  UNL d   1       1.304   2.639   0.248  0.00  0.00     0.048 A 
ATOM      4  C3  UNL d   1       1.439   3.157  -1.040  0.00  0.00     0.023 A 
ATOM      5  C4  UNL d   1       1.378   2.314  -2.150  0.00  0.00     0.048 A 
ATOM      6  C5  UNL d   1       1.181   0.944  -1.968  0.00  0.00     0.003 A 
ATOM      7  I   UNL d   1       1.734   5.197  -1.306  0.00  0.00    -0.146 I 
ENDROOT
TORSDOF 0
ENDMDL
