MODEL 1
REMARK minimizedAffinity 3.68717337
REMARK minimizedRMSD -1
REMARK  0 active torsions:
REMARK  status: ('A' for Active; 'I' for Inactive)
ROOT
ATOM      1  C   UNL d   1       1.547   1.617  -0.117  0.00  0.00     0.023 A 
ATOM      2  C1  UNL d   1       2.017   0.534   0.625  0.00  0.00     0.003 A 
ATOM      3  C2  UNL d   1       1.670  -0.768   0.258  0.00  0.00     0.048 A 
ATOM      4  C3  UNL d   1       0.853  -0.980  -0.852  0.00  0.00     0.023 A 
ATOM      5  C4  UNL d   1       0.381   0.102  -1.598  0.00  0.00     0.048 A 
ATOM      6  C5  UNL d   1       0.730   1.402  -1.227  0.00  0.00     0.003 A 
ATOM      7  I   UNL d   1       0.335  -2.917  -1.400  0.00  0.00    -0.146 I 
ENDROOT
TORSDOF 0
ENDMDL
