MODEL 1
REMARK minimizedAffinity 5.4666748
REMARK minimizedRMSD -1
REMARK  0 active torsions:
REMARK  status: ('A' for Active; 'I' for Inactive)
ROOT
ATOM      1  C   UNL d   1       0.620   1.191  -2.118  0.00  0.00     0.023 A 
ATOM      2  C1  UNL d   1      -0.288   2.249  -2.073  0.00  0.00     0.003 A 
ATOM      3  C2  UNL d   1       0.168   3.555  -1.883  0.00  0.00     0.048 A 
ATOM      4  C3  UNL d   1       1.534   3.796  -1.739  0.00  0.00     0.023 A 
ATOM      5  C4  UNL d   1       2.447   2.740  -1.784  0.00  0.00     0.048 A 
ATOM      6  C5  UNL d   1       1.986   1.436  -1.973  0.00  0.00     0.003 A 
ATOM      7  I   UNL d   1       2.216   5.739  -1.456  0.00  0.00    -0.146 I 
ENDROOT
TORSDOF 0
ENDMDL
