MODEL 1
REMARK minimizedAffinity 14.1045389
REMARK minimizedRMSD -1
REMARK  0 active torsions:
REMARK  status: ('A' for Active; 'I' for Inactive)
ROOT
ATOM      1  C   UNL d   1       1.177  -2.138   3.720  0.00  0.00     0.124 A 
ATOM      2  C1  UNL d   1      -0.123  -2.626   3.742  0.00  0.00     0.062 A 
ATOM      3  C2  UNL d   1      -1.081  -2.103   2.878  0.00  0.00     0.162 A 
ATOM      4  C3  UNL d   1      -0.744  -1.087   1.984  0.00  0.00    -0.034 A 
ATOM      5  C4  UNL d   1       0.565  -0.601   1.968  0.00  0.00     0.162 A 
ATOM      6  C5  UNL d   1       1.519  -1.127   2.833  0.00  0.00     0.062 A 
ATOM      7  F   UNL d   1       2.774  -0.654   2.811  0.00  0.00    -0.097 F 
ATOM      8  F1  UNL d   1       0.923   0.375   1.121  0.00  0.00    -0.096 F 
ATOM      9  I   UNL d   1      -2.174  -0.303   0.691  0.00  0.00    -0.060 I 
ATOM     10  F2  UNL d   1      -2.329  -2.594   2.921  0.00  0.00    -0.096 F 
ATOM     11  F3  UNL d   1      -0.456  -3.602   4.598  0.00  0.00    -0.097 F 
ATOM     12  F4  UNL d   1       2.097  -2.642   4.552  0.00  0.00    -0.092 F 
ENDROOT
TORSDOF 0
ENDMDL
