MODEL 1
REMARK minimizedAffinity 6.26532936
REMARK minimizedRMSD -1
REMARK  0 active torsions:
REMARK  status: ('A' for Active; 'I' for Inactive)
ROOT
ATOM      1  C   UNL d   1      -1.284  -0.844   2.227  0.00  0.00     0.124 A 
ATOM      2  C1  UNL d   1      -1.532  -1.936   3.047  0.00  0.00     0.062 A 
ATOM      3  C2  UNL d   1      -0.500  -2.506   3.786  0.00  0.00     0.162 A 
ATOM      4  C3  UNL d   1       0.791  -1.983   3.711  0.00  0.00    -0.034 A 
ATOM      5  C4  UNL d   1       1.034  -0.885   2.884  0.00  0.00     0.162 A 
ATOM      6  C5  UNL d   1      -0.002  -0.319   2.147  0.00  0.00     0.062 A 
ATOM      7  F   UNL d   1       0.241   0.736   1.356  0.00  0.00    -0.097 F 
ATOM      8  F1  UNL d   1       2.263  -0.358   2.789  0.00  0.00    -0.096 F 
ATOM      9  I   UNL d   1       2.337  -2.832   4.816  0.00  0.00    -0.060 I 
ATOM     10  F2  UNL d   1      -0.769  -3.561   4.570  0.00  0.00    -0.096 F 
ATOM     11  F3  UNL d   1      -2.770  -2.446   3.125  0.00  0.00    -0.097 F 
ATOM     12  F4  UNL d   1      -2.279  -0.298   1.516  0.00  0.00    -0.092 F 
ENDROOT
TORSDOF 0
ENDMDL
