MODEL 1
REMARK minimizedAffinity 11.3993311
REMARK minimizedRMSD -1
REMARK  0 active torsions:
REMARK  status: ('A' for Active; 'I' for Inactive)
ROOT
ATOM      1  C   UNL d   1       1.498  -0.406   4.921  0.00  0.00     0.124 A 
ATOM      2  C1  UNL d   1       0.747   0.762   4.920  0.00  0.00     0.062 A 
ATOM      3  C2  UNL d   1      -0.003   1.110   3.800  0.00  0.00     0.162 A 
ATOM      4  C3  UNL d   1      -0.006   0.290   2.672  0.00  0.00    -0.034 A 
ATOM      5  C4  UNL d   1       0.753  -0.882   2.680  0.00  0.00     0.162 A 
ATOM      6  C5  UNL d   1       1.500  -1.226   3.802  0.00  0.00     0.062 A 
ATOM      7  F   UNL d   1       2.225  -2.354   3.801  0.00  0.00    -0.097 F 
ATOM      8  F1  UNL d   1       0.773  -1.693   1.612  0.00  0.00    -0.096 F 
ATOM      9  I   UNL d   1      -1.125   0.808   0.996  0.00  0.00    -0.060 I 
ATOM     10  F2  UNL d   1      -0.719   2.244   3.827  0.00  0.00    -0.096 F 
ATOM     11  F3  UNL d   1       0.743   1.556   6.000  0.00  0.00    -0.097 F 
ATOM     12  F4  UNL d   1       2.219  -0.738   6.000  0.00  0.00    -0.092 F 
ENDROOT
TORSDOF 0
ENDMDL
