MODEL 1
REMARK minimizedAffinity 16.9300861
REMARK minimizedRMSD -1
REMARK  0 active torsions:
REMARK  status: ('A' for Active; 'I' for Inactive)
ROOT
ATOM      1  C   UNL d   1      -1.371  -0.293   1.446  0.00  0.00     0.124 A 
ATOM      2  C1  UNL d   1      -1.715  -1.114   2.511  0.00  0.00     0.062 A 
ATOM      3  C2  UNL d   1      -0.743  -1.528   3.418  0.00  0.00     0.162 A 
ATOM      4  C3  UNL d   1       0.582  -1.120   3.264  0.00  0.00    -0.034 A 
ATOM      5  C4  UNL d   1       0.920  -0.295   2.190  0.00  0.00     0.162 A 
ATOM      6  C5  UNL d   1      -0.055   0.116   1.286  0.00  0.00     0.062 A 
ATOM      7  F   UNL d   1       0.278   0.909   0.258  0.00  0.00    -0.097 F 
ATOM      8  F1  UNL d   1       2.184   0.116   2.012  0.00  0.00    -0.096 F 
ATOM      9  I   UNL d   1       2.038  -1.736   4.617  0.00  0.00    -0.060 I 
ATOM     10  F2  UNL d   1      -1.103  -2.321   4.438  0.00  0.00    -0.096 F 
ATOM     11  F3  UNL d   1      -2.986  -1.511   2.667  0.00  0.00    -0.097 F 
ATOM     12  F4  UNL d   1      -2.308   0.103   0.575  0.00  0.00    -0.092 F 
ENDROOT
TORSDOF 0
ENDMDL
