MODEL 1
REMARK minimizedAffinity 13.341404
REMARK minimizedRMSD -1
REMARK  0 active torsions:
REMARK  status: ('A' for Active; 'I' for Inactive)
ROOT
ATOM      1  C   UNL d   1       0.407  -0.431   2.043  0.00  0.00     0.124 A 
ATOM      2  C1  UNL d   1       1.582   0.298   2.161  0.00  0.00     0.062 A 
ATOM      3  C2  UNL d   1       2.507  -0.020   3.151  0.00  0.00     0.162 A 
ATOM      4  C3  UNL d   1       2.261  -1.074   4.031  0.00  0.00    -0.034 A 
ATOM      5  C4  UNL d   1       1.077  -1.802   3.907  0.00  0.00     0.162 A 
ATOM      6  C5  UNL d   1       0.155  -1.480   2.915  0.00  0.00     0.062 A 
ATOM      7  F   UNL d   1      -0.979  -2.186   2.803  0.00  0.00    -0.097 F 
ATOM      8  F1  UNL d   1       0.808  -2.822   4.736  0.00  0.00    -0.096 F 
ATOM      9  I   UNL d   1       3.641  -1.553   5.513  0.00  0.00    -0.060 I 
ATOM     10  F2  UNL d   1       3.634   0.701   3.242  0.00  0.00    -0.096 F 
ATOM     11  F3  UNL d   1       1.827   1.313   1.319  0.00  0.00    -0.097 F 
ATOM     12  F4  UNL d   1      -0.481  -0.122   1.089  0.00  0.00    -0.092 F 
ENDROOT
TORSDOF 0
ENDMDL
