MODEL 1
REMARK minimizedAffinity 11.2568436
REMARK minimizedRMSD -1
REMARK  0 active torsions:
REMARK  status: ('A' for Active; 'I' for Inactive)
ROOT
ATOM      1  C   UNL d   1      -1.142  -0.691   2.378  0.00  0.00     0.124 A 
ATOM      2  C1  UNL d   1      -1.109   0.447   1.584  0.00  0.00     0.062 A 
ATOM      3  C2  UNL d   1       0.104   1.072   1.307  0.00  0.00     0.162 A 
ATOM      4  C3  UNL d   1       1.294   0.560   1.825  0.00  0.00    -0.034 A 
ATOM      5  C4  UNL d   1       1.252  -0.583   2.625  0.00  0.00     0.162 A 
ATOM      6  C5  UNL d   1       0.037  -1.205   2.898  0.00  0.00     0.062 A 
ATOM      7  F   UNL d   1       0.007  -2.304   3.666  0.00  0.00    -0.097 F 
ATOM      8  F1  UNL d   1       2.377  -1.102   3.139  0.00  0.00    -0.096 F 
ATOM      9  I   UNL d   1       3.109   1.492   1.415  0.00  0.00    -0.060 I 
ATOM     10  F2  UNL d   1       0.107   2.170   0.537  0.00  0.00    -0.096 F 
ATOM     11  F3  UNL d   1      -2.247   0.946   1.081  0.00  0.00    -0.097 F 
ATOM     12  F4  UNL d   1      -2.310  -1.289   2.643  0.00  0.00    -0.092 F 
ENDROOT
TORSDOF 0
ENDMDL
