MODEL 1
REMARK minimizedAffinity 11.5889597
REMARK minimizedRMSD -1
REMARK  0 active torsions:
REMARK  status: ('A' for Active; 'I' for Inactive)
ROOT
ATOM      1  C   UNL d   1      -0.821  -0.385   1.934  0.00  0.00     0.124 A 
ATOM      2  C1  UNL d   1      -1.085  -1.492   2.730  0.00  0.00     0.062 A 
ATOM      3  C2  UNL d   1      -0.087  -2.024   3.542  0.00  0.00     0.162 A 
ATOM      4  C3  UNL d   1       1.184  -1.450   3.563  0.00  0.00    -0.034 A 
ATOM      5  C4  UNL d   1       1.442  -0.338   2.759  0.00  0.00     0.162 A 
ATOM      6  C5  UNL d   1       0.442   0.190   1.950  0.00  0.00     0.062 A 
ATOM      7  F   UNL d   1       0.698   1.259   1.181  0.00  0.00    -0.097 F 
ATOM      8  F1  UNL d   1       2.653   0.239   2.756  0.00  0.00    -0.096 F 
ATOM      9  I   UNL d   1       2.678  -2.242   4.776  0.00  0.00    -0.060 I 
ATOM     10  F2  UNL d   1      -0.370  -3.093   4.300  0.00  0.00    -0.096 F 
ATOM     11  F3  UNL d   1      -2.303  -2.050   2.716  0.00  0.00    -0.097 F 
ATOM     12  F4  UNL d   1      -1.782   0.124   1.153  0.00  0.00    -0.092 F 
ENDROOT
TORSDOF 0
ENDMDL
