MODEL 1
REMARK minimizedAffinity 12.5888367
REMARK minimizedRMSD -1
REMARK  0 active torsions:
REMARK  status: ('A' for Active; 'I' for Inactive)
ROOT
ATOM      1  C   UNL d   1       1.121   0.165   1.866  0.00  0.00     0.124 A 
ATOM      2  C1  UNL d   1       0.024   0.854   1.368  0.00  0.00     0.062 A 
ATOM      3  C2  UNL d   1      -1.265   0.388   1.609  0.00  0.00     0.162 A 
ATOM      4  C3  UNL d   1      -1.464  -0.775   2.353  0.00  0.00    -0.034 A 
ATOM      5  C4  UNL d   1      -0.356  -1.464   2.850  0.00  0.00     0.162 A 
ATOM      6  C5  UNL d   1       0.930  -0.993   2.607  0.00  0.00     0.062 A 
ATOM      7  F   UNL d   1       1.988  -1.660   3.089  0.00  0.00    -0.097 F 
ATOM      8  F1  UNL d   1      -0.512  -2.585   3.570  0.00  0.00    -0.096 F 
ATOM      9  I   UNL d   1      -3.390  -1.477   2.715  0.00  0.00    -0.060 I 
ATOM     10  F2  UNL d   1      -2.306   1.074   1.115  0.00  0.00    -0.096 F 
ATOM     11  F3  UNL d   1       0.207   1.973   0.651  0.00  0.00    -0.097 F 
ATOM     12  F4  UNL d   1       2.360   0.616   1.632  0.00  0.00    -0.092 F 
ENDROOT
TORSDOF 0
ENDMDL
