MODEL 1
REMARK minimizedAffinity 5.48849916
REMARK minimizedRMSD -1
REMARK  0 active torsions:
REMARK  status: ('A' for Active; 'I' for Inactive)
ROOT
ATOM      1  C   UNL d   1       1.334   0.026   2.347  0.00  0.00     0.124 A 
ATOM      2  C1  UNL d   1       0.244   0.650   1.755  0.00  0.00     0.062 A 
ATOM      3  C2  UNL d   1      -1.030   0.103   1.882  0.00  0.00     0.162 A 
ATOM      4  C3  UNL d   1      -1.221  -1.075   2.604  0.00  0.00    -0.034 A 
ATOM      5  C4  UNL d   1      -0.120  -1.698   3.195  0.00  0.00     0.162 A 
ATOM      6  C5  UNL d   1       1.151  -1.147   3.066  0.00  0.00     0.062 A 
ATOM      7  F   UNL d   1       2.202  -1.751   3.638  0.00  0.00    -0.097 F 
ATOM      8  F1  UNL d   1      -0.268  -2.831   3.896  0.00  0.00    -0.096 F 
ATOM      9  I   UNL d   1      -3.123  -1.897   2.795  0.00  0.00    -0.060 I 
ATOM     10  F2  UNL d   1      -2.064   0.727   1.299  0.00  0.00    -0.096 F 
ATOM     11  F3  UNL d   1       0.418   1.782   1.059  0.00  0.00    -0.097 F 
ATOM     12  F4  UNL d   1       2.558   0.554   2.223  0.00  0.00    -0.092 F 
ENDROOT
TORSDOF 0
ENDMDL
