MODEL 1
REMARK minimizedAffinity 3.50769615
REMARK minimizedRMSD -1
REMARK  1 active torsions:
REMARK  status: ('A' for Active; 'I' for Inactive)
REMARK    1  A    between atoms: C1_2  and  C2_3 
ROOT
ATOM      1  C2  UNL d   1      -3.083   5.181  -5.150  0.00  0.00    -0.081 A 
ATOM      2  C3  UNL d   1      -1.802   4.820  -5.584  0.00  0.00     0.006 A 
ATOM      3  C4  UNL d   1      -0.689   5.043  -4.770  0.00  0.00     0.002 A 
ATOM      4  C5  UNL d   1      -0.840   5.623  -3.505  0.00  0.00    -0.080 A 
ATOM      5  C6  UNL d   1       0.343   5.840  -2.608  0.00  0.00     0.076 C 
ATOM      6  C7  UNL d   1      -2.118   6.000  -3.079  0.00  0.00     0.002 A 
ATOM      7  C8  UNL d   1      -3.230   5.778  -3.893  0.00  0.00     0.006 A 
ENDROOT
BRANCH   1   8
ATOM      8  C1  UNL d   1      -4.292   4.883  -6.000  0.00  0.00     0.054 C 
ATOM      9  C   UNL d   1      -5.324   5.998  -5.904  0.00  0.00     0.018 C 
ENDBRANCH   1   8
TORSDOF 1
ENDMDL
