MODEL 1
REMARK minimizedAffinity 5.46416044
REMARK minimizedRMSD -1
REMARK  1 active torsions:
REMARK  status: ('A' for Active; 'I' for Inactive)
REMARK    1  A    between atoms: C1_2  and  C2_3 
ROOT
ATOM      1  C2  UNL d   1       4.559   4.491  -2.261  0.00  0.00    -0.081 A 
ATOM      2  C3  UNL d   1       3.366   4.997  -1.729  0.00  0.00     0.006 A 
ATOM      3  C4  UNL d   1       2.142   4.400  -2.041  0.00  0.00     0.002 A 
ATOM      4  C5  UNL d   1       2.091   3.284  -2.882  0.00  0.00    -0.080 A 
ATOM      5  C6  UNL d   1       0.786   2.616  -3.200  0.00  0.00     0.076 C 
ATOM      6  C7  UNL d   1       3.280   2.789  -3.428  0.00  0.00     0.002 A 
ATOM      7  C8  UNL d   1       4.504   3.385  -3.117  0.00  0.00     0.006 A 
ENDROOT
BRANCH   1   8
ATOM      8  C1  UNL d   1       5.886   5.092  -1.875  0.00  0.00     0.054 C 
ATOM      9  C   UNL d   1       5.886   5.547  -0.423  0.00  0.00     0.018 C 
ENDBRANCH   1   8
TORSDOF 1
ENDMDL
