MODEL 1
REMARK minimizedAffinity 7.40283966
REMARK minimizedRMSD -1
REMARK  1 active torsions:
REMARK  status: ('A' for Active; 'I' for Inactive)
REMARK    1  A    between atoms: C1_2  and  C2_3 
ROOT
ATOM      1  C2  UNL d   1      -3.358   0.486   4.480  0.00  0.00    -0.081 A 
ATOM      2  C3  UNL d   1      -2.670   0.060   3.337  0.00  0.00     0.006 A 
ATOM      3  C4  UNL d   1      -3.368  -0.448   2.239  0.00  0.00     0.002 A 
ATOM      4  C5  UNL d   1      -4.765  -0.532   2.262  0.00  0.00    -0.080 A 
ATOM      5  C6  UNL d   1      -5.528  -1.047   1.078  0.00  0.00     0.076 C 
ATOM      6  C7  UNL d   1      -5.451  -0.123   3.411  0.00  0.00     0.002 A 
ATOM      7  C8  UNL d   1      -4.753   0.385   4.509  0.00  0.00     0.006 A 
ENDROOT
BRANCH   1   8
ATOM      8  C1  UNL d   1      -2.613   1.094   5.640  0.00  0.00     0.054 C 
ATOM      9  C   UNL d   1      -1.383   0.273   6.000  0.00  0.00     0.018 C 
ENDBRANCH   1   8
TORSDOF 1
ENDMDL
