MODEL 1
REMARK minimizedAffinity 3.38110662
REMARK minimizedRMSD -1
REMARK  1 active torsions:
REMARK  status: ('A' for Active; 'I' for Inactive)
REMARK    1  A    between atoms: C1_2  and  C2_3 
ROOT
ATOM      1  C2  UNL d   1      -3.952   5.593  -4.111  0.00  0.00    -0.081 A 
ATOM      2  C3  UNL d   1      -5.331   5.825  -4.038  0.00  0.00     0.006 A 
ATOM      3  C4  UNL d   1      -5.999   5.737  -2.814  0.00  0.00     0.002 A 
ATOM      4  C5  UNL d   1      -5.300   5.424  -1.644  0.00  0.00    -0.080 A 
ATOM      5  C6  UNL d   1      -6.000   5.357  -0.319  0.00  0.00     0.076 C 
ATOM      6  C7  UNL d   1      -3.925   5.176  -1.720  0.00  0.00     0.002 A 
ATOM      7  C8  UNL d   1      -3.256   5.263  -2.943  0.00  0.00     0.006 A 
ENDROOT
BRANCH   1   8
ATOM      8  C1  UNL d   1      -3.217   5.751  -5.418  0.00  0.00     0.054 C 
ATOM      9  C   UNL d   1      -1.774   5.282  -5.301  0.00  0.00     0.018 C 
ENDBRANCH   1   8
TORSDOF 1
ENDMDL
