MODEL 1
REMARK minimizedAffinity 16.6513176
REMARK minimizedRMSD -1
REMARK  1 active torsions:
REMARK  status: ('A' for Active; 'I' for Inactive)
REMARK    1  A    between atoms: C1_2  and  C2_3 
ROOT
ATOM      1  C2  UNL d   1      -5.134   0.176  -1.036  0.00  0.00    -0.081 A 
ATOM      2  C3  UNL d   1      -4.019  -0.325  -1.719  0.00  0.00     0.006 A 
ATOM      3  C4  UNL d   1      -3.276  -1.380  -1.185  0.00  0.00     0.002 A 
ATOM      4  C5  UNL d   1      -3.640  -1.957   0.036  0.00  0.00    -0.080 A 
ATOM      5  C6  UNL d   1      -2.869  -3.111   0.607  0.00  0.00     0.076 C 
ATOM      6  C7  UNL d   1      -4.744  -1.446   0.728  0.00  0.00     0.002 A 
ATOM      7  C8  UNL d   1      -5.486  -0.390   0.194  0.00  0.00     0.006 A 
ENDROOT
BRANCH   1   8
ATOM      8  C1  UNL d   1      -5.976   1.271  -1.641  0.00  0.00     0.054 C 
ATOM      9  C   UNL d   1      -5.638   2.626  -1.036  0.00  0.00     0.018 C 
ENDBRANCH   1   8
TORSDOF 1
ENDMDL
