MODEL 1
REMARK minimizedAffinity 16.5404606
REMARK minimizedRMSD -1
REMARK  1 active torsions:
REMARK  status: ('A' for Active; 'I' for Inactive)
REMARK    1  A    between atoms: C1_2  and  C2_3 
ROOT
ATOM      1  C2  UNL d   1      -2.410  -2.184   1.001  0.00  0.00    -0.081 A 
ATOM      2  C3  UNL d   1      -1.273  -1.720   1.674  0.00  0.00     0.006 A 
ATOM      3  C4  UNL d   1      -1.142  -0.366   1.991  0.00  0.00     0.002 A 
ATOM      4  C5  UNL d   1      -2.147   0.545   1.648  0.00  0.00    -0.080 A 
ATOM      5  C6  UNL d   1      -2.031   1.996   2.009  0.00  0.00     0.076 C 
ATOM      6  C7  UNL d   1      -3.274   0.084   0.959  0.00  0.00     0.002 A 
ATOM      7  C8  UNL d   1      -3.406  -1.269   0.641  0.00  0.00     0.006 A 
ENDROOT
BRANCH   1   8
ATOM      8  C1  UNL d   1      -2.585  -3.653   0.715  0.00  0.00     0.054 C 
ATOM      9  C   UNL d   1      -3.856  -4.194   1.353  0.00  0.00     0.018 C 
ENDBRANCH   1   8
TORSDOF 1
ENDMDL
