MODEL 1
REMARK minimizedAffinity 24.0078373
REMARK minimizedRMSD -1
REMARK  1 active torsions:
REMARK  status: ('A' for Active; 'I' for Inactive)
REMARK    1  A    between atoms: C1_2  and  C2_3 
ROOT
ATOM      1  C2  UNL d   1      -1.085  -4.819  -3.843  0.00  0.00    -0.081 A 
ATOM      2  C3  UNL d   1      -1.927  -5.055  -2.749  0.00  0.00     0.006 A 
ATOM      3  C4  UNL d   1      -2.356  -3.997  -1.944  0.00  0.00     0.002 A 
ATOM      4  C5  UNL d   1      -1.957  -2.686  -2.223  0.00  0.00    -0.080 A 
ATOM      5  C6  UNL d   1      -2.434  -1.537  -1.385  0.00  0.00     0.076 C 
ATOM      6  C7  UNL d   1      -1.102  -2.452  -3.305  0.00  0.00     0.002 A 
ATOM      7  C8  UNL d   1      -0.672  -3.509  -4.110  0.00  0.00     0.006 A 
ENDROOT
BRANCH   1   8
ATOM      8  C1  UNL d   1      -0.674  -5.949  -4.751  0.00  0.00     0.054 C 
ATOM      9  C   UNL d   1      -1.543  -6.000  -6.000  0.00  0.00     0.018 C 
ENDBRANCH   1   8
TORSDOF 1
ENDMDL
