MODEL 1
REMARK minimizedAffinity 16.3889561
REMARK minimizedRMSD -1
REMARK  1 active torsions:
REMARK  status: ('A' for Active; 'I' for Inactive)
REMARK    1  A    between atoms: C1_2  and  C2_3 
ROOT
ATOM      1  C2  UNL d   1       2.076  -0.132   1.321  0.00  0.00    -0.081 A 
ATOM      2  C3  UNL d   1       0.844  -0.745   1.581  0.00  0.00     0.006 A 
ATOM      3  C4  UNL d   1       0.722  -1.678   2.613  0.00  0.00     0.002 A 
ATOM      4  C5  UNL d   1       1.825  -2.008   3.407  0.00  0.00    -0.080 A 
ATOM      5  C6  UNL d   1       1.700  -2.986   4.537  0.00  0.00     0.076 C 
ATOM      6  C7  UNL d   1       3.060  -1.409   3.136  0.00  0.00     0.002 A 
ATOM      7  C8  UNL d   1       3.184  -0.477   2.103  0.00  0.00     0.006 A 
ENDROOT
BRANCH   1   8
ATOM      8  C1  UNL d   1       2.197   0.922   0.250  0.00  0.00     0.054 C 
ATOM      9  C   UNL d   1       3.654   1.245  -0.047  0.00  0.00     0.018 C 
ENDBRANCH   1   8
TORSDOF 1
ENDMDL
