MODEL 1
REMARK minimizedAffinity 18.3463306
REMARK minimizedRMSD -1
REMARK  1 active torsions:
REMARK  status: ('A' for Active; 'I' for Inactive)
REMARK    1  A    between atoms: C1_2  and  C2_3 
ROOT
ATOM      1  C2  UNL d   1       0.255  -1.813   2.744  0.00  0.00    -0.081 A 
ATOM      2  C3  UNL d   1      -0.356  -1.662   1.494  0.00  0.00     0.006 A 
ATOM      3  C4  UNL d   1      -1.187  -0.568   1.240  0.00  0.00     0.002 A 
ATOM      4  C5  UNL d   1      -1.413   0.397   2.228  0.00  0.00    -0.080 A 
ATOM      5  C6  UNL d   1      -2.278   1.592   1.958  0.00  0.00     0.076 C 
ATOM      6  C7  UNL d   1      -0.816   0.236   3.483  0.00  0.00     0.002 A 
ATOM      7  C8  UNL d   1       0.014  -0.858   3.738  0.00  0.00     0.006 A 
ENDROOT
BRANCH   1   8
ATOM      8  C1  UNL d   1       1.202  -2.957   3.001  0.00  0.00     0.054 C 
ATOM      9  C   UNL d   1       1.846  -2.846   4.375  0.00  0.00     0.018 C 
ENDBRANCH   1   8
TORSDOF 1
ENDMDL
