MODEL 1
REMARK minimizedAffinity 14.8651962
REMARK minimizedRMSD -1
REMARK  1 active torsions:
REMARK  status: ('A' for Active; 'I' for Inactive)
REMARK    1  A    between atoms: C1_2  and  C2_3 
ROOT
ATOM      1  C2  UNL d   1      -1.723   0.385   2.890  0.00  0.00    -0.081 A 
ATOM      2  C3  UNL d   1      -2.887  -0.221   2.400  0.00  0.00     0.006 A 
ATOM      3  C4  UNL d   1      -2.805  -1.293   1.508  0.00  0.00     0.002 A 
ATOM      4  C5  UNL d   1      -1.560  -1.781   1.097  0.00  0.00    -0.080 A 
ATOM      5  C6  UNL d   1      -1.458  -2.951   0.164  0.00  0.00     0.076 C 
ATOM      6  C7  UNL d   1      -0.398  -1.165   1.573  0.00  0.00     0.002 A 
ATOM      7  C8  UNL d   1      -0.479  -0.093   2.465  0.00  0.00     0.006 A 
ENDROOT
BRANCH   1   8
ATOM      8  C1  UNL d   1      -1.808   1.499   3.902  0.00  0.00     0.054 C 
ATOM      9  C   UNL d   1      -1.511   0.993   5.307  0.00  0.00     0.018 C 
ENDBRANCH   1   8
TORSDOF 1
ENDMDL
