MODEL 1
REMARK minimizedAffinity 10.3183594
REMARK minimizedRMSD -1
REMARK  1 active torsions:
REMARK  status: ('A' for Active; 'I' for Inactive)
REMARK    1  A    between atoms: C1_2  and  C2_3 
ROOT
ATOM      1  C2  UNL d   1      -3.837   0.388   1.699  0.00  0.00    -0.081 A 
ATOM      2  C3  UNL d   1      -2.670   1.085   2.037  0.00  0.00     0.006 A 
ATOM      3  C4  UNL d   1      -1.431   0.439   2.025  0.00  0.00     0.002 A 
ATOM      4  C5  UNL d   1      -1.337  -0.910   1.667  0.00  0.00    -0.080 A 
ATOM      5  C6  UNL d   1      -0.010  -1.607   1.620  0.00  0.00     0.076 C 
ATOM      6  C7  UNL d   1      -2.505  -1.610   1.345  0.00  0.00     0.002 A 
ATOM      7  C8  UNL d   1      -3.744  -0.966   1.358  0.00  0.00     0.006 A 
ENDROOT
BRANCH   1   8
ATOM      8  C1  UNL d   1      -5.166   1.098   1.648  0.00  0.00     0.054 C 
ATOM      9  C   UNL d   1      -5.897   0.812   0.344  0.00  0.00     0.018 C 
ENDBRANCH   1   8
TORSDOF 1
ENDMDL
