MODEL 1
REMARK minimizedAffinity -4.98770285
REMARK minimizedRMSD -1
REMARK  0 active torsions:
REMARK  status: ('A' for Active; 'I' for Inactive)
ROOT
ATOM      1  C1  DEN d   1      -1.532   4.242   0.431  0.00  0.00     0.130 A 
ATOM      2  C2  DEN d   1      -2.311   4.676   1.588  0.00  0.00    -0.031 A 
ATOM      3  C3  DEN d   1      -2.106   3.692   2.670  0.00  0.00     0.027 A 
ATOM      4  C4  DEN d   1      -0.664   1.554   2.668  0.00  0.00     0.027 A 
ATOM      5  C5  DEN d   1       0.171   0.764   1.909  0.00  0.00    -0.003 A 
ATOM      6  C6  DEN d   1       0.468   1.058   0.605  0.00  0.00     0.001 A 
ATOM      7  C7  DEN d   1      -0.039   2.194   0.032  0.00  0.00     0.017 A 
ATOM      8  C8  DEN d   1      -0.888   2.991   0.789  0.00  0.00    -0.094 A 
ATOM      9  C9  DEN d   1      -1.166   2.684   2.110  0.00  0.00    -0.072 A 
ENDROOT
TORSDOF 0
ENDMDL
