MODEL 1
REMARK minimizedAffinity 2.19203925
REMARK minimizedRMSD -1
REMARK  0 active torsions:
REMARK  status: ('A' for Active; 'I' for Inactive)
ROOT
ATOM      1  C1  DEN d   1      -0.219   0.063  -1.677  0.00  0.00     0.130 A 
ATOM      2  C2  DEN d   1       0.990  -0.744  -1.816  0.00  0.00    -0.031 A 
ATOM      3  C3  DEN d   1       1.870  -0.449  -0.667  0.00  0.00     0.027 A 
ATOM      4  C4  DEN d   1       1.476   1.167   1.305  0.00  0.00     0.027 A 
ATOM      5  C5  DEN d   1       0.601   2.080   1.851  0.00  0.00    -0.003 A 
ATOM      6  C6  DEN d   1      -0.584   2.407   1.246  0.00  0.00     0.001 A 
ATOM      7  C7  DEN d   1      -0.947   1.783   0.082  0.00  0.00     0.017 A 
ATOM      8  C8  DEN d   1      -0.066   0.867  -0.478  0.00  0.00    -0.094 A 
ATOM      9  C9  DEN d   1       1.121   0.541   0.155  0.00  0.00    -0.072 A 
ENDROOT
TORSDOF 0
ENDMDL
