MODEL 1
REMARK minimizedAffinity 3.86030316
REMARK minimizedRMSD -1
REMARK  0 active torsions:
REMARK  status: ('A' for Active; 'I' for Inactive)
ROOT
ATOM      1  C1  DEN d   1       0.359   0.947   1.498  0.00  0.00     0.130 A 
ATOM      2  C2  DEN d   1      -0.347   2.080   2.090  0.00  0.00    -0.031 A 
ATOM      3  C3  DEN d   1      -0.976   2.848   0.997  0.00  0.00     0.027 A 
ATOM      4  C4  DEN d   1      -0.929   2.393  -1.541  0.00  0.00     0.027 A 
ATOM      5  C5  DEN d   1      -0.447   1.556  -2.523  0.00  0.00    -0.003 A 
ATOM      6  C6  DEN d   1       0.358   0.485  -2.238  0.00  0.00     0.001 A 
ATOM      7  C7  DEN d   1       0.670   0.197  -0.936  0.00  0.00     0.017 A 
ATOM      8  C8  DEN d   1       0.194   1.041   0.059  0.00  0.00    -0.094 A 
ATOM      9  C9  DEN d   1      -0.629   2.112  -0.248  0.00  0.00    -0.072 A 
ENDROOT
TORSDOF 0
ENDMDL
