MODEL 1
REMARK minimizedAffinity 4.97938681
REMARK minimizedRMSD -1
REMARK  0 active torsions:
REMARK  status: ('A' for Active; 'I' for Inactive)
ROOT
ATOM      1  C1  DEN d   1      -1.782   3.993  -0.166  0.00  0.00     0.130 A 
ATOM      2  C2  DEN d   1      -0.828   4.240  -1.244  0.00  0.00    -0.031 A 
ATOM      3  C3  DEN d   1       0.342   3.366  -1.027  0.00  0.00     0.027 A 
ATOM      4  C4  DEN d   1       0.765   1.660   0.861  0.00  0.00     0.027 A 
ATOM      5  C5  DEN d   1       0.248   1.108   2.011  0.00  0.00    -0.003 A 
ATOM      6  C6  DEN d   1      -0.957   1.500   2.532  0.00  0.00     0.001 A 
ATOM      7  C7  DEN d   1      -1.707   2.440   1.874  0.00  0.00     0.017 A 
ATOM      8  C8  DEN d   1      -1.188   3.006   0.717  0.00  0.00    -0.094 A 
ATOM      9  C9  DEN d   1       0.026   2.588   0.201  0.00  0.00    -0.072 A 
ENDROOT
TORSDOF 0
ENDMDL
