MODEL 1
REMARK minimizedAffinity 6.33437538
REMARK minimizedRMSD -1
REMARK  0 active torsions:
REMARK  status: ('A' for Active; 'I' for Inactive)
ROOT
ATOM      1  C1  DEN d   1       0.064   1.175  -1.287  0.00  0.00     0.130 A 
ATOM      2  C2  DEN d   1      -0.319   1.902  -2.494  0.00  0.00    -0.031 A 
ATOM      3  C3  DEN d   1      -0.950   3.172  -2.081  0.00  0.00     0.027 A 
ATOM      4  C4  DEN d   1      -1.363   4.080   0.297  0.00  0.00     0.027 A 
ATOM      5  C5  DEN d   1      -1.221   3.813   1.641  0.00  0.00    -0.003 A 
ATOM      6  C6  DEN d   1      -0.676   2.643   2.100  0.00  0.00     0.001 A 
ATOM      7  C7  DEN d   1      -0.212   1.715   1.206  0.00  0.00     0.017 A 
ATOM      8  C8  DEN d   1      -0.358   1.973  -0.150  0.00  0.00    -0.094 A 
ATOM      9  C9  DEN d   1      -0.900   3.167  -0.594  0.00  0.00    -0.072 A 
ENDROOT
TORSDOF 0
ENDMDL
