MODEL 1
REMARK minimizedAffinity -1.03621292
REMARK minimizedRMSD -1
REMARK  0 active torsions:
REMARK  status: ('A' for Active; 'I' for Inactive)
ROOT
ATOM      1  C1  DEN d   1      -1.072   3.168   1.561  0.00  0.00     0.130 A 
ATOM      2  C2  DEN d   1      -0.542   2.094   2.396  0.00  0.00    -0.031 A 
ATOM      3  C3  DEN d   1      -0.189   0.962   1.515  0.00  0.00     0.027 A 
ATOM      4  C4  DEN d   1      -0.407   0.773  -1.048  0.00  0.00     0.027 A 
ATOM      5  C5  DEN d   1      -0.816   1.424  -2.191  0.00  0.00    -0.003 A 
ATOM      6  C6  DEN d   1      -1.365   2.679  -2.160  0.00  0.00     0.001 A 
ATOM      7  C7  DEN d   1      -1.479   3.340  -0.966  0.00  0.00     0.017 A 
ATOM      8  C8  DEN d   1      -1.077   2.687   0.191  0.00  0.00    -0.094 A 
ATOM      9  C9  DEN d   1      -0.513   1.424   0.138  0.00  0.00    -0.072 A 
ENDROOT
TORSDOF 0
ENDMDL
