MODEL 1
REMARK minimizedAffinity -0.58248508
REMARK minimizedRMSD -1
REMARK  0 active torsions:
REMARK  status: ('A' for Active; 'I' for Inactive)
ROOT
ATOM      1  C1  DEN d   1       1.678   4.115   1.125  0.00  0.00     0.130 A 
ATOM      2  C2  DEN d   1       2.099   3.864   2.501  0.00  0.00    -0.031 A 
ATOM      3  C3  DEN d   1       0.950   3.292   3.232  0.00  0.00     0.027 A 
ATOM      4  C4  DEN d   1      -1.425   2.771   2.370  0.00  0.00     0.027 A 
ATOM      5  C5  DEN d   1      -2.258   2.824   1.275  0.00  0.00    -0.003 A 
ATOM      6  C6  DEN d   1      -1.852   3.338   0.073  0.00  0.00     0.001 A 
ATOM      7  C7  DEN d   1      -0.564   3.778  -0.077  0.00  0.00     0.017 A 
ATOM      8  C8  DEN d   1       0.281   3.735   1.025  0.00  0.00    -0.094 A 
ATOM      9  C9  DEN d   1      -0.145   3.200   2.229  0.00  0.00    -0.072 A 
ENDROOT
TORSDOF 0
ENDMDL
