MODEL 1
REMARK minimizedAffinity 6.91693163
REMARK minimizedRMSD -1
REMARK  0 active torsions:
REMARK  status: ('A' for Active; 'I' for Inactive)
ROOT
ATOM      1  C1  DEN d   1       1.945  -0.995   2.928  0.00  0.00     0.130 A 
ATOM      2  C2  DEN d   1       2.501  -1.594   1.718  0.00  0.00    -0.031 A 
ATOM      3  C3  DEN d   1       1.806  -1.004   0.556  0.00  0.00     0.027 A 
ATOM      4  C4  DEN d   1      -0.063   0.774   0.514  0.00  0.00     0.027 A 
ATOM      5  C5  DEN d   1      -0.871   1.572   1.294  0.00  0.00    -0.003 A 
ATOM      6  C6  DEN d   1      -0.821   1.545   2.663  0.00  0.00     0.001 A 
ATOM      7  C7  DEN d   1       0.087   0.736   3.293  0.00  0.00     0.017 A 
ATOM      8  C8  DEN d   1       0.900  -0.077   2.514  0.00  0.00    -0.094 A 
ATOM      9  C9  DEN d   1       0.843  -0.026   1.132  0.00  0.00    -0.072 A 
ENDROOT
TORSDOF 0
ENDMDL
