MODEL 1
REMARK minimizedAffinity -4.96541166
REMARK minimizedRMSD -1
REMARK  2 active torsions:
REMARK  status: ('A' for Active; 'I' for Inactive)
REMARK    1  A    between atoms: C2'_3  and  C1'_4 
REMARK    2  A    between atoms: C1'_4  and  C1_5 
ROOT
ATOM      1  C1  I4B d   1       0.458  -0.083  -0.609  0.00  0.00    -0.075 A 
ATOM      2  C2  I4B d   1       1.345   0.170   0.407  0.00  0.00     0.003 A 
ATOM      3  C3  I4B d   1       0.889   0.709   1.635  0.00  0.00     0.002 A 
ATOM      4  C4  I4B d   1      -0.446   1.025   1.784  0.00  0.00    -0.004 A 
ATOM      5  C5  I4B d   1      -1.348   0.747   0.761  0.00  0.00     0.002 A 
ATOM      6  C6  I4B d   1      -0.896   0.178  -0.439  0.00  0.00     0.003 A 
ENDROOT
BRANCH   1   7
ATOM      7  C1' I4B d   1       0.978  -0.622  -1.903  0.00  0.00     0.060 C 
BRANCH   7   8
ATOM      8  C2' I4B d   1       1.687   0.505  -2.627  0.00  0.00    -0.013 C 
ATOM      9  C4' I4B d   1       3.130   0.163  -2.889  0.00  0.00     0.013 C 
ATOM     10  C3' I4B d   1       0.952   0.769  -3.907  0.00  0.00     0.013 C 
ENDBRANCH   7   8
ENDBRANCH   1   7
TORSDOF 2
ENDMDL
