MODEL 1
REMARK minimizedAffinity -1.74384797
REMARK minimizedRMSD -1
REMARK  2 active torsions:
REMARK  status: ('A' for Active; 'I' for Inactive)
REMARK    1  A    between atoms: C2'_3  and  C1'_4 
REMARK    2  A    between atoms: C1'_4  and  C1_5 
ROOT
ATOM      1  C1  I4B d   1       0.847   1.130  -2.133  0.00  0.00    -0.075 A 
ATOM      2  C2  I4B d   1      -0.082   0.837  -3.100  0.00  0.00     0.003 A 
ATOM      3  C3  I4B d   1       0.304   0.763  -4.461  0.00  0.00     0.002 A 
ATOM      4  C4  I4B d   1       1.610   1.038  -4.812  0.00  0.00    -0.004 A 
ATOM      5  C5  I4B d   1       2.555   1.313  -3.828  0.00  0.00     0.002 A 
ATOM      6  C6  I4B d   1       2.174   1.347  -2.479  0.00  0.00     0.003 A 
ENDROOT
BRANCH   1   7
ATOM      7  C1' I4B d   1       0.397   1.232  -0.710  0.00  0.00     0.060 C 
BRANCH   7   8
ATOM      8  C2' I4B d   1       0.268  -0.174  -0.160  0.00  0.00    -0.013 C 
ATOM      9  C4' I4B d   1       1.447  -0.531   0.707  0.00  0.00     0.013 C 
ATOM     10  C3' I4B d   1      -1.015  -0.253   0.612  0.00  0.00     0.013 C 
ENDBRANCH   7   8
ENDBRANCH   1   7
TORSDOF 2
ENDMDL
