MODEL 1
REMARK minimizedAffinity 1.09057295
REMARK minimizedRMSD -1
REMARK  2 active torsions:
REMARK  status: ('A' for Active; 'I' for Inactive)
REMARK    1  A    between atoms: C2'_3  and  C1'_4 
REMARK    2  A    between atoms: C1'_4  and  C1_5 
ROOT
ATOM      1  C1  I4B d   1       0.070  -0.031  -0.459  0.00  0.00    -0.075 A 
ATOM      2  C2  I4B d   1       1.115   0.347   0.346  0.00  0.00     0.003 A 
ATOM      3  C3  I4B d   1       0.866   0.905   1.623  0.00  0.00     0.002 A 
ATOM      4  C4  I4B d   1      -0.436   1.112   2.032  0.00  0.00    -0.004 A 
ATOM      5  C5  I4B d   1      -1.494   0.707   1.225  0.00  0.00     0.002 A 
ATOM      6  C6  I4B d   1      -1.241   0.120  -0.024  0.00  0.00     0.003 A 
ENDROOT
BRANCH   1   7
ATOM      7  C1' I4B d   1       0.368  -0.587  -1.815  0.00  0.00     0.060 C 
BRANCH   7   8
ATOM      8  C2' I4B d   1       0.534   0.578  -2.770  0.00  0.00    -0.013 C 
ATOM      9  C4' I4B d   1       1.978   0.772  -3.149  0.00  0.00     0.013 C 
ATOM     10  C3' I4B d   1      -0.311   0.308  -3.980  0.00  0.00     0.013 C 
ENDBRANCH   7   8
ENDBRANCH   1   7
TORSDOF 2
ENDMDL
