MODEL 1
REMARK minimizedAffinity -6.42677259
REMARK minimizedRMSD -1
REMARK  2 active torsions:
REMARK  status: ('A' for Active; 'I' for Inactive)
REMARK    1  A    between atoms: C2'_3  and  C1'_4 
REMARK    2  A    between atoms: C1'_4  and  C1_5 
ROOT
ATOM      1  C1  I4B d   1       0.110   0.048   0.101  0.00  0.00    -0.075 A 
ATOM      2  C2  I4B d   1      -1.252   0.066   0.270  0.00  0.00     0.003 A 
ATOM      3  C3  I4B d   1      -1.827   0.776   1.351  0.00  0.00     0.002 A 
ATOM      4  C4  I4B d   1      -1.006   1.408   2.263  0.00  0.00    -0.004 A 
ATOM      5  C5  I4B d   1       0.373   1.407   2.078  0.00  0.00     0.002 A 
ATOM      6  C6  I4B d   1       0.935   0.734   0.983  0.00  0.00     0.003 A 
ENDROOT
BRANCH   1   7
ATOM      7  C1' I4B d   1       0.686  -0.740  -1.033  0.00  0.00     0.060 C 
BRANCH   7   8
ATOM      8  C2' I4B d   1       0.509   0.071  -2.301  0.00  0.00    -0.013 C 
ATOM      9  C4' I4B d   1       1.767   0.825  -2.645  0.00  0.00     0.013 C 
ATOM     10  C3' I4B d   1       0.123  -0.870  -3.402  0.00  0.00     0.013 C 
ENDBRANCH   7   8
ENDBRANCH   1   7
TORSDOF 2
ENDMDL
