MODEL 1
REMARK minimizedAffinity -2.82275963
REMARK minimizedRMSD -1
REMARK  2 active torsions:
REMARK  status: ('A' for Active; 'I' for Inactive)
REMARK    1  A    between atoms: C2'_3  and  C1'_4 
REMARK    2  A    between atoms: C1'_4  and  C1_5 
ROOT
ATOM      1  C1  I4B d   1       0.024  -0.109  -0.456  0.00  0.00    -0.075 A 
ATOM      2  C2  I4B d   1       0.601   0.402   0.680  0.00  0.00     0.003 A 
ATOM      3  C3  I4B d   1      -0.209   0.929   1.715  0.00  0.00     0.002 A 
ATOM      4  C4  I4B d   1      -1.579   0.971   1.551  0.00  0.00    -0.004 A 
ATOM      5  C5  I4B d   1      -2.163   0.431   0.409  0.00  0.00     0.002 A 
ATOM      6  C6  I4B d   1      -1.357  -0.124  -0.596  0.00  0.00     0.003 A 
ENDROOT
BRANCH   1   7
ATOM      7  C1' I4B d   1       0.911  -0.628  -1.544  0.00  0.00     0.060 C 
BRANCH   7   8
ATOM      8  C2' I4B d   1       0.885   0.370  -2.683  0.00  0.00    -0.013 C 
ATOM      9  C4' I4B d   1       2.273   0.849  -3.021  0.00  0.00     0.013 C 
ATOM     10  C3' I4B d   1       0.238  -0.291  -3.863  0.00  0.00     0.013 C 
ENDBRANCH   7   8
ENDBRANCH   1   7
TORSDOF 2
ENDMDL
