MODEL 1
REMARK minimizedAffinity 6.03641129
REMARK minimizedRMSD -1
REMARK  2 active torsions:
REMARK  status: ('A' for Active; 'I' for Inactive)
REMARK    1  A    between atoms: C2'_3  and  C1'_4 
REMARK    2  A    between atoms: C1'_4  and  C1_5 
ROOT
ATOM      1  C1  I4B d   1      -0.030   0.728   1.168  0.00  0.00    -0.075 A 
ATOM      2  C2  I4B d   1      -0.890   0.235   0.218  0.00  0.00     0.003 A 
ATOM      3  C3  I4B d   1      -2.274   0.129   0.498  0.00  0.00     0.002 A 
ATOM      4  C4  I4B d   1      -2.744   0.476   1.748  0.00  0.00    -0.004 A 
ATOM      5  C5  I4B d   1      -1.874   0.997   2.701  0.00  0.00     0.002 A 
ATOM      6  C6  I4B d   1      -0.510   1.135   2.406  0.00  0.00     0.003 A 
ENDROOT
BRANCH   1   7
ATOM      7  C1' I4B d   1       1.431   0.796   0.851  0.00  0.00     0.060 C 
BRANCH   7   8
ATOM      8  C2' I4B d   1       2.128  -0.307   1.622  0.00  0.00    -0.013 C 
ATOM      9  C4' I4B d   1       2.699  -1.345   0.693  0.00  0.00     0.013 C 
ATOM     10  C3' I4B d   1       3.202   0.321   2.458  0.00  0.00     0.013 C 
ENDBRANCH   7   8
ENDBRANCH   1   7
TORSDOF 2
ENDMDL
