MODEL 1
REMARK minimizedAffinity -2.42102456
REMARK minimizedRMSD -1
REMARK  2 active torsions:
REMARK  status: ('A' for Active; 'I' for Inactive)
REMARK    1  A    between atoms: C2'_3  and  C1'_4 
REMARK    2  A    between atoms: C1'_4  and  C1_5 
ROOT
ATOM      1  C1  I4B d   1      -0.886   0.146   0.920  0.00  0.00    -0.075 A 
ATOM      2  C2  I4B d   1      -1.925  -0.262   1.719  0.00  0.00     0.003 A 
ATOM      3  C3  I4B d   1      -1.998   0.165   3.067  0.00  0.00     0.002 A 
ATOM      4  C4  I4B d   1      -0.991   0.953   3.585  0.00  0.00    -0.004 A 
ATOM      5  C5  I4B d   1       0.050   1.384   2.768  0.00  0.00     0.002 A 
ATOM      6  C6  I4B d   1       0.097   0.988   1.423  0.00  0.00     0.003 A 
ENDROOT
BRANCH   1   7
ATOM      7  C1' I4B d   1      -0.822  -0.351  -0.490  0.00  0.00     0.060 C 
BRANCH   7   8
ATOM      8  C2' I4B d   1       0.636  -0.554  -0.848  0.00  0.00    -0.013 C 
ATOM      9  C4' I4B d   1       1.150  -1.867  -0.319  0.00  0.00     0.013 C 
ATOM     10  C3' I4B d   1       0.760  -0.486  -2.340  0.00  0.00     0.013 C 
ENDBRANCH   7   8
ENDBRANCH   1   7
TORSDOF 2
ENDMDL
