MODEL 1
REMARK minimizedAffinity 8.66545582
REMARK minimizedRMSD -1
REMARK  0 active torsions:
REMARK  status: ('A' for Active; 'I' for Inactive)
ROOT
ATOM      1  C1  DEN d   1       2.061  -0.995   2.295  0.00  0.00     0.130 A 
ATOM      2  C2  DEN d   1       3.075  -1.603   3.152  0.00  0.00    -0.031 A 
ATOM      3  C3  DEN d   1       3.854  -2.554   2.334  0.00  0.00     0.027 A 
ATOM      4  C4  DEN d   1       3.592  -3.138  -0.165  0.00  0.00     0.027 A 
ATOM      5  C5  DEN d   1       2.862  -2.887  -1.306  0.00  0.00    -0.003 A 
ATOM      6  C6  DEN d   1       1.802  -2.021  -1.318  0.00  0.00     0.001 A 
ATOM      7  C7  DEN d   1       1.469  -1.339  -0.178  0.00  0.00     0.017 A 
ATOM      8  C8  DEN d   1       2.195  -1.592   0.978  0.00  0.00    -0.094 A 
ATOM      9  C9  DEN d   1       3.272  -2.463   0.968  0.00  0.00    -0.072 A 
ENDROOT
TORSDOF 0
ENDMDL
