MODEL 1
REMARK minimizedAffinity -4.35238314
REMARK minimizedRMSD -1
REMARK  0 active torsions:
REMARK  status: ('A' for Active; 'I' for Inactive)
ROOT
ATOM      1  C1  DEN d   1       0.695  -1.778   1.377  0.00  0.00     0.130 A 
ATOM      2  C2  DEN d   1       0.504  -0.629   2.258  0.00  0.00    -0.031 A 
ATOM      3  C3  DEN d   1       1.479  -0.733   3.362  0.00  0.00     0.027 A 
ATOM      4  C4  DEN d   1       3.260  -2.549   3.788  0.00  0.00     0.027 A 
ATOM      5  C5  DEN d   1       3.793  -3.730   3.321  0.00  0.00    -0.003 A 
ATOM      6  C6  DEN d   1       3.313  -4.355   2.201  0.00  0.00     0.001 A 
ATOM      7  C7  DEN d   1       2.298  -3.778   1.484  0.00  0.00     0.017 A 
ATOM      8  C8  DEN d   1       1.749  -2.592   1.954  0.00  0.00    -0.094 A 
ATOM      9  C9  DEN d   1       2.257  -1.969   3.081  0.00  0.00    -0.072 A 
ENDROOT
TORSDOF 0
ENDMDL
