MODEL 1
REMARK minimizedAffinity 13.9987698
REMARK minimizedRMSD -1
REMARK  0 active torsions:
REMARK  status: ('A' for Active; 'I' for Inactive)
ROOT
ATOM      1  C1  DEN d   1      -6.000   1.079  -5.456  0.00  0.00     0.130 A 
ATOM      2  C2  DEN d   1      -5.008   0.155  -6.000  0.00  0.00    -0.031 A 
ATOM      3  C3  DEN d   1      -3.723   0.413  -5.319  0.00  0.00     0.027 A 
ATOM      4  C4  DEN d   1      -3.177   2.139  -3.482  0.00  0.00     0.027 A 
ATOM      5  C5  DEN d   1      -3.693   3.153  -2.706  0.00  0.00    -0.003 A 
ATOM      6  C6  DEN d   1      -4.994   3.567  -2.815  0.00  0.00     0.001 A 
ATOM      7  C7  DEN d   1      -5.837   2.932  -3.689  0.00  0.00     0.017 A 
ATOM      8  C8  DEN d   1      -5.322   1.914  -4.481  0.00  0.00    -0.094 A 
ATOM      9  C9  DEN d   1      -4.007   1.502  -4.347  0.00  0.00    -0.072 A 
ENDROOT
TORSDOF 0
ENDMDL
