MODEL 1
REMARK minimizedAffinity 8.99091911
REMARK minimizedRMSD -1
REMARK  0 active torsions:
REMARK  status: ('A' for Active; 'I' for Inactive)
ROOT
ATOM      1  C1  DEN d   1       4.750  -0.269  -0.381  0.00  0.00     0.130 A 
ATOM      2  C2  DEN d   1       5.546  -0.758   0.741  0.00  0.00    -0.031 A 
ATOM      3  C3  DEN d   1       6.000   0.410   1.523  0.00  0.00     0.027 A 
ATOM      4  C4  DEN d   1       5.546   2.915   1.108  0.00  0.00     0.027 A 
ATOM      5  C5  DEN d   1       4.931   3.821   0.273  0.00  0.00    -0.003 A 
ATOM      6  C6  DEN d   1       4.247   3.433  -0.849  0.00  0.00     0.001 A 
ATOM      7  C7  DEN d   1       4.123   2.100  -1.141  0.00  0.00     0.017 A 
ATOM      8  C8  DEN d   1       4.747   1.181  -0.307  0.00  0.00    -0.094 A 
ATOM      9  C9  DEN d   1       5.423   1.593   0.829  0.00  0.00    -0.072 A 
ENDROOT
TORSDOF 0
ENDMDL
