MODEL 1
REMARK minimizedAffinity 13.0738764
REMARK minimizedRMSD -1
REMARK  0 active torsions:
REMARK  status: ('A' for Active; 'I' for Inactive)
ROOT
ATOM      1  C1  DEN d   1       2.182  -3.975   0.501  0.00  0.00     0.130 A 
ATOM      2  C2  DEN d   1       1.226  -2.896   0.269  0.00  0.00    -0.031 A 
ATOM      3  C3  DEN d   1       1.989  -1.668  -0.032  0.00  0.00     0.027 A 
ATOM      4  C4  DEN d   1       4.543  -1.336  -0.167  0.00  0.00     0.027 A 
ATOM      5  C5  DEN d   1       5.764  -1.959  -0.036  0.00  0.00    -0.003 A 
ATOM      6  C6  DEN d   1       5.877  -3.279   0.314  0.00  0.00     0.001 A 
ATOM      7  C7  DEN d   1       4.747  -4.030   0.500  0.00  0.00     0.017 A 
ATOM      8  C8  DEN d   1       3.512  -3.407   0.377  0.00  0.00    -0.094 A 
ATOM      9  C9  DEN d   1       3.419  -2.075   0.011  0.00  0.00    -0.072 A 
ENDROOT
TORSDOF 0
ENDMDL
