MODEL 1
REMARK minimizedAffinity 9.3526516
REMARK minimizedRMSD -1
REMARK  0 active torsions:
REMARK  status: ('A' for Active; 'I' for Inactive)
ROOT
ATOM      1  C1  DEN d   1       3.440   2.126  -0.131  0.00  0.00     0.130 A 
ATOM      2  C2  DEN d   1       4.207   0.965   0.311  0.00  0.00    -0.031 A 
ATOM      3  C3  DEN d   1       5.342   1.449   1.122  0.00  0.00     0.027 A 
ATOM      4  C4  DEN d   1       5.980   3.871   1.738  0.00  0.00     0.027 A 
ATOM      5  C5  DEN d   1       5.636   5.196   1.584  0.00  0.00    -0.003 A 
ATOM      6  C6  DEN d   1       4.565   5.589   0.827  0.00  0.00     0.001 A 
ATOM      7  C7  DEN d   1       3.772   4.645   0.230  0.00  0.00     0.017 A 
ATOM      8  C8  DEN d   1       4.117   3.307   0.374  0.00  0.00    -0.094 A 
ATOM      9  C9  DEN d   1       5.196   2.929   1.155  0.00  0.00    -0.072 A 
ENDROOT
TORSDOF 0
ENDMDL
