MODEL 1
REMARK minimizedAffinity -0.279466152
REMARK minimizedRMSD -1
REMARK  0 active torsions:
REMARK  status: ('A' for Active; 'I' for Inactive)
ROOT
ATOM      1  C1  DEN d   1       1.667  -2.653   1.629  0.00  0.00     0.130 A 
ATOM      2  C2  DEN d   1       2.117  -2.511   0.247  0.00  0.00    -0.031 A 
ATOM      3  C3  DEN d   1       1.342  -1.418  -0.375  0.00  0.00     0.027 A 
ATOM      4  C4  DEN d   1      -0.496   0.063   0.664  0.00  0.00     0.027 A 
ATOM      5  C5  DEN d   1      -1.228   0.309   1.804  0.00  0.00    -0.003 A 
ATOM      6  C6  DEN d   1      -1.072  -0.431   2.946  0.00  0.00     0.001 A 
ATOM      7  C7  DEN d   1      -0.130  -1.425   2.987  0.00  0.00     0.017 A 
ATOM      8  C8  DEN d   1       0.607  -1.684   1.839  0.00  0.00    -0.094 A 
ATOM      9  C9  DEN d   1       0.443  -0.916   0.698  0.00  0.00    -0.072 A 
ENDROOT
TORSDOF 0
ENDMDL
