MODEL 1
REMARK minimizedAffinity 2.91773534
REMARK minimizedRMSD -1
REMARK  0 active torsions:
REMARK  status: ('A' for Active; 'I' for Inactive)
ROOT
ATOM      1  C1  DEN d   1       5.992  -1.557   1.268  0.00  0.00     0.130 A 
ATOM      2  C2  DEN d   1       6.000  -0.420   0.351  0.00  0.00    -0.031 A 
ATOM      3  C3  DEN d   1       4.663  -0.324  -0.268  0.00  0.00     0.027 A 
ATOM      4  C4  DEN d   1       2.591  -1.815   0.104  0.00  0.00     0.027 A 
ATOM      5  C5  DEN d   1       2.105  -2.912   0.779  0.00  0.00    -0.003 A 
ATOM      6  C6  DEN d   1       2.883  -3.649   1.632  0.00  0.00     0.001 A 
ATOM      7  C7  DEN d   1       4.179  -3.271   1.866  0.00  0.00     0.017 A 
ATOM      8  C8  DEN d   1       4.679  -2.170   1.183  0.00  0.00    -0.094 A 
ATOM      9  C9  DEN d   1       3.872  -1.431   0.335  0.00  0.00    -0.072 A 
ENDROOT
TORSDOF 0
ENDMDL
