MODEL 1
REMARK minimizedAffinity 6.87588739
REMARK minimizedRMSD -1
REMARK  0 active torsions:
REMARK  status: ('A' for Active; 'I' for Inactive)
ROOT
ATOM      1  C1  DEN d   1      -4.133   0.746  -5.999  0.00  0.00     0.130 A 
ATOM      2  C2  DEN d   1      -4.415   1.719  -4.948  0.00  0.00    -0.031 A 
ATOM      3  C3  DEN d   1      -3.748   1.262  -3.712  0.00  0.00     0.027 A 
ATOM      4  C4  DEN d   1      -2.309  -0.844  -3.329  0.00  0.00     0.027 A 
ATOM      5  C5  DEN d   1      -1.798  -1.977  -3.922  0.00  0.00    -0.003 A 
ATOM      6  C6  DEN d   1      -2.056  -2.298  -5.228  0.00  0.00     0.001 A 
ATOM      7  C7  DEN d   1      -2.809  -1.451  -5.999  0.00  0.00     0.017 A 
ATOM      8  C8  DEN d   1      -3.333  -0.310  -5.406  0.00  0.00    -0.094 A 
ATOM      9  C9  DEN d   1      -3.051   0.002  -4.087  0.00  0.00    -0.072 A 
ENDROOT
TORSDOF 0
ENDMDL
