MODEL 1
REMARK minimizedAffinity -1.44341135
REMARK minimizedRMSD -1
REMARK  0 active torsions:
REMARK  status: ('A' for Active; 'I' for Inactive)
ROOT
ATOM      1  C4' PXY d   1      -3.017  -1.432   1.059  0.00  0.00     0.077 C 
ATOM      2  C1' PXY d   1       2.283   0.866   0.860  0.00  0.00     0.077 C 
ATOM      3  C1  PXY d   1       0.890   0.270   0.901  0.00  0.00    -0.082 A 
ATOM      4  C2  PXY d   1       0.392  -0.148   2.053  0.00  0.00     0.003 A 
ATOM      5  C3  PXY d   1      -0.854  -0.719   2.104  0.00  0.00     0.003 A 
ATOM      6  C4  PXY d   1      -1.618  -0.815   0.972  0.00  0.00    -0.082 A 
ATOM      7  C5  PXY d   1      -1.121  -0.382  -0.206  0.00  0.00     0.003 A 
ATOM      8  C6  PXY d   1       0.162   0.157  -0.243  0.00  0.00     0.003 A 
ENDROOT
TORSDOF 0
ENDMDL
