MODEL 1
REMARK minimizedAffinity -4.80209064
REMARK minimizedRMSD -1
REMARK  0 active torsions:
REMARK  status: ('A' for Active; 'I' for Inactive)
ROOT
ATOM      1  C4' PXY d   1       0.838   0.998  -2.141  0.00  0.00     0.077 C 
ATOM      2  C1' PXY d   1      -0.604  -0.772   3.169  0.00  0.00     0.077 C 
ATOM      3  C1  PXY d   1      -0.235  -0.315   1.771  0.00  0.00    -0.082 A 
ATOM      4  C2  PXY d   1       0.995   0.104   1.523  0.00  0.00     0.003 A 
ATOM      5  C3  PXY d   1       1.337   0.551   0.273  0.00  0.00     0.003 A 
ATOM      6  C4  PXY d   1       0.424   0.519  -0.748  0.00  0.00    -0.082 A 
ATOM      7  C5  PXY d   1      -0.830   0.082  -0.505  0.00  0.00     0.003 A 
ATOM      8  C6  PXY d   1      -1.168  -0.328   0.781  0.00  0.00     0.003 A 
ENDROOT
TORSDOF 0
ENDMDL
