MODEL 1
REMARK minimizedAffinity -4.51355457
REMARK minimizedRMSD -1
REMARK  0 active torsions:
REMARK  status: ('A' for Active; 'I' for Inactive)
ROOT
ATOM      1  C4' PXY d   1      -1.185  -0.616   3.529  0.00  0.00     0.077 C 
ATOM      2  C1' PXY d   1       0.616  -0.026  -1.932  0.00  0.00     0.077 C 
ATOM      3  C1  PXY d   1       0.156  -0.183  -0.496  0.00  0.00    -0.082 A 
ATOM      4  C2  PXY d   1      -1.099  -0.517  -0.245  0.00  0.00     0.003 A 
ATOM      5  C3  PXY d   1      -1.541  -0.632   1.048  0.00  0.00     0.003 A 
ATOM      6  C4  PXY d   1      -0.674  -0.456   2.094  0.00  0.00    -0.082 A 
ATOM      7  C5  PXY d   1       0.610  -0.125   1.845  0.00  0.00     0.003 A 
ATOM      8  C6  PXY d   1       1.028   0.027   0.526  0.00  0.00     0.003 A 
ENDROOT
TORSDOF 0
ENDMDL
