MODEL 1
REMARK minimizedAffinity -1.64885616
REMARK minimizedRMSD -1
REMARK  0 active torsions:
REMARK  status: ('A' for Active; 'I' for Inactive)
ROOT
ATOM      1  C4' PXY d   1      -0.221  -0.003   2.882  0.00  0.00     0.077 C 
ATOM      2  C1' PXY d   1       0.384  -0.095  -2.866  0.00  0.00     0.077 C 
ATOM      3  C1  PXY d   1       0.238  -0.075  -1.357  0.00  0.00    -0.082 A 
ATOM      4  C2  PXY d   1      -0.965  -0.177  -0.815  0.00  0.00     0.003 A 
ATOM      5  C3  PXY d   1      -1.118  -0.129   0.547  0.00  0.00     0.003 A 
ATOM      6  C4  PXY d   1      -0.025  -0.028   1.364  0.00  0.00    -0.082 A 
ATOM      7  C5  PXY d   1       1.207   0.066   0.819  0.00  0.00     0.003 A 
ATOM      8  C6  PXY d   1       1.338   0.057  -0.566  0.00  0.00     0.003 A 
ENDROOT
TORSDOF 0
ENDMDL
