MODEL 1
REMARK minimizedAffinity -3.95071197
REMARK minimizedRMSD -1
REMARK  0 active torsions:
REMARK  status: ('A' for Active; 'I' for Inactive)
ROOT
ATOM      1  C4' PXY d   1      -0.131   0.095   2.877  0.00  0.00     0.077 C 
ATOM      2  C1' PXY d   1       0.736  -1.897  -2.479  0.00  0.00     0.077 C 
ATOM      3  C1  PXY d   1       0.506  -1.363  -1.079  0.00  0.00    -0.082 A 
ATOM      4  C2  PXY d   1       1.094  -1.950  -0.050  0.00  0.00     0.003 A 
ATOM      5  C3  PXY d   1       0.872  -1.500   1.226  0.00  0.00     0.003 A 
ATOM      6  C4  PXY d   1       0.080  -0.404   1.446  0.00  0.00    -0.082 A 
ATOM      7  C5  PXY d   1      -0.515   0.207   0.400  0.00  0.00     0.003 A 
ATOM      8  C6  PXY d   1      -0.309  -0.291  -0.884  0.00  0.00     0.003 A 
ENDROOT
TORSDOF 0
ENDMDL
