MODEL 1
REMARK minimizedAffinity -4.12853146
REMARK minimizedRMSD -1
REMARK  0 active torsions:
REMARK  status: ('A' for Active; 'I' for Inactive)
ROOT
ATOM      1  C4' PXY d   1       0.302  -0.463  -2.855  0.00  0.00     0.077 C 
ATOM      2  C1' PXY d   1      -0.606  -0.664   2.850  0.00  0.00     0.077 C 
ATOM      3  C1  PXY d   1      -0.380  -0.609   1.352  0.00  0.00    -0.082 A 
ATOM      4  C2  PXY d   1       0.656  -1.239   0.823  0.00  0.00     0.003 A 
ATOM      5  C3  PXY d   1       0.893  -1.173  -0.526  0.00  0.00     0.003 A 
ATOM      6  C4  PXY d   1       0.030  -0.499  -1.348  0.00  0.00    -0.082 A 
ATOM      7  C5  PXY d   1      -1.035   0.137  -0.818  0.00  0.00     0.003 A 
ATOM      8  C6  PXY d   1      -1.235   0.093   0.559  0.00  0.00     0.003 A 
ENDROOT
TORSDOF 0
ENDMDL
