MODEL 1
REMARK minimizedAffinity -3.33889842
REMARK minimizedRMSD -1
REMARK  0 active torsions:
REMARK  status: ('A' for Active; 'I' for Inactive)
ROOT
ATOM      1  C4' PXY d   1       1.087  -0.217  -2.394  0.00  0.00     0.077 C 
ATOM      2  C1' PXY d   1      -0.460  -0.143   3.175  0.00  0.00     0.077 C 
ATOM      3  C1  PXY d   1      -0.044  -0.155   1.718  0.00  0.00    -0.082 A 
ATOM      4  C2  PXY d   1      -0.945  -0.408   0.782  0.00  0.00     0.003 A 
ATOM      5  C3  PXY d   1      -0.580  -0.454  -0.538  0.00  0.00     0.003 A 
ATOM      6  C4  PXY d   1       0.711  -0.186  -0.910  0.00  0.00    -0.082 A 
ATOM      7  C5  PXY d   1       1.633   0.084   0.038  0.00  0.00     0.003 A 
ATOM      8  C6  PXY d   1       1.251   0.086   1.376  0.00  0.00     0.003 A 
ENDROOT
TORSDOF 0
ENDMDL
