MODEL 1
REMARK minimizedAffinity -4.41171694
REMARK minimizedRMSD -1
REMARK  0 active torsions:
REMARK  status: ('A' for Active; 'I' for Inactive)
ROOT
ATOM      1  C4' PXY d   1       0.580  -0.029  -1.671  0.00  0.00     0.077 C 
ATOM      2  C1' PXY d   1      -0.768  -0.675   3.913  0.00  0.00     0.077 C 
ATOM      3  C1  PXY d   1      -0.408  -0.495   2.451  0.00  0.00    -0.082 A 
ATOM      4  C2  PXY d   1      -1.176  -1.032   1.517  0.00  0.00     0.003 A 
ATOM      5  C3  PXY d   1      -0.847  -0.905   0.192  0.00  0.00     0.003 A 
ATOM      6  C4  PXY d   1       0.250  -0.177  -0.184  0.00  0.00    -0.082 A 
ATOM      7  C5  PXY d   1       1.033   0.383   0.763  0.00  0.00     0.003 A 
ATOM      8  C6  PXY d   1       0.705   0.208   2.104  0.00  0.00     0.003 A 
ENDROOT
TORSDOF 0
ENDMDL
