MODEL 1
REMARK minimizedAffinity -4.01569319
REMARK minimizedRMSD -1
REMARK  0 active torsions:
REMARK  status: ('A' for Active; 'I' for Inactive)
ROOT
ATOM      1  C4' PXY d   1       0.440   0.811  -2.132  0.00  0.00     0.077 C 
ATOM      2  C1' PXY d   1      -0.995  -0.853   3.215  0.00  0.00     0.077 C 
ATOM      3  C1  PXY d   1      -0.627  -0.426   1.808  0.00  0.00    -0.082 A 
ATOM      4  C2  PXY d   1       0.549   0.135   1.582  0.00  0.00     0.003 A 
ATOM      5  C3  PXY d   1       0.886   0.557   0.321  0.00  0.00     0.003 A 
ATOM      6  C4  PXY d   1       0.030   0.355  -0.729  0.00  0.00    -0.082 A 
ATOM      7  C5  PXY d   1      -1.168  -0.227  -0.508  0.00  0.00     0.003 A 
ATOM      8  C6  PXY d   1      -1.507  -0.610   0.787  0.00  0.00     0.003 A 
ENDROOT
TORSDOF 0
ENDMDL
