MODEL 1
REMARK minimizedAffinity -5.02377415
REMARK minimizedRMSD -1
REMARK  0 active torsions:
REMARK  status: ('A' for Active; 'I' for Inactive)
ROOT
ATOM      1  C4' PXY d   1      -0.845  -1.138   3.326  0.00  0.00     0.077 C 
ATOM      2  C1' PXY d   1       0.754   0.641  -1.937  0.00  0.00     0.077 C 
ATOM      3  C1  PXY d   1       0.322   0.177  -0.560  0.00  0.00    -0.082 A 
ATOM      4  C2  PXY d   1       1.188   0.202   0.440  0.00  0.00     0.003 A 
ATOM      5  C3  PXY d   1       0.824  -0.244   1.685  0.00  0.00     0.003 A 
ATOM      6  C4  PXY d   1      -0.456  -0.670   1.921  0.00  0.00    -0.082 A 
ATOM      7  C5  PXY d   1      -1.348  -0.689   0.908  0.00  0.00     0.003 A 
ATOM      8  C6  PXY d   1      -0.947  -0.271  -0.357  0.00  0.00     0.003 A 
ENDROOT
TORSDOF 0
ENDMDL
