MODEL 1
REMARK minimizedAffinity -4.60784388
REMARK minimizedRMSD -1
REMARK  0 active torsions:
REMARK  status: ('A' for Active; 'I' for Inactive)
ROOT
ATOM      1  C4' PXY d   1       0.403   0.189  -1.731  0.00  0.00     0.077 C 
ATOM      2  C1' PXY d   1      -1.522  -0.635   3.657  0.00  0.00     0.077 C 
ATOM      3  C1  PXY d   1      -1.006  -0.416   2.249  0.00  0.00    -0.082 A 
ATOM      4  C2  PXY d   1      -1.860  -0.159   1.272  0.00  0.00     0.003 A 
ATOM      5  C3  PXY d   1      -1.413   0.010  -0.014  0.00  0.00     0.003 A 
ATOM      6  C4  PXY d   1      -0.073  -0.030  -0.292  0.00  0.00    -0.082 A 
ATOM      7  C5  PXY d   1       0.806  -0.281   0.702  0.00  0.00     0.003 A 
ATOM      8  C6  PXY d   1       0.328  -0.491   1.992  0.00  0.00     0.003 A 
ENDROOT
TORSDOF 0
ENDMDL
