MODEL 1
REMARK minimizedAffinity -2.68292642
REMARK minimizedRMSD -1
REMARK  0 active torsions:
REMARK  status: ('A' for Active; 'I' for Inactive)
ROOT
ATOM      1  C4' PXY d   1       0.862  -1.098  -2.851  0.00  0.00     0.077 C 
ATOM      2  C1' PXY d   1      -0.147   0.393   2.642  0.00  0.00     0.077 C 
ATOM      3  C1  PXY d   1       0.109   0.011   1.197  0.00  0.00    -0.082 A 
ATOM      4  C2  PXY d   1       0.563  -1.199   0.911  0.00  0.00     0.003 A 
ATOM      5  C3  PXY d   1       0.830  -1.550  -0.387  0.00  0.00     0.003 A 
ATOM      6  C4  PXY d   1       0.580  -0.672  -1.408  0.00  0.00    -0.082 A 
ATOM      7  C5  PXY d   1       0.107   0.560  -1.125  0.00  0.00     0.003 A 
ATOM      8  C6  PXY d   1      -0.119   0.911   0.203  0.00  0.00     0.003 A 
ENDROOT
TORSDOF 0
ENDMDL
