MODEL 1
REMARK minimizedAffinity -5.05413866
REMARK minimizedRMSD -1
REMARK  0 active torsions:
REMARK  status: ('A' for Active; 'I' for Inactive)
ROOT
ATOM      1  C4' PXY d   1      -0.769  -0.541   3.089  0.00  0.00     0.077 C 
ATOM      2  C1' PXY d   1      -0.049   0.371  -2.573  0.00  0.00     0.077 C 
ATOM      3  C1  PXY d   1      -0.250   0.135  -1.089  0.00  0.00    -0.082 A 
ATOM      4  C2  PXY d   1       0.780   0.236  -0.265  0.00  0.00     0.003 A 
ATOM      5  C3  PXY d   1       0.622  -0.006   1.075  0.00  0.00     0.003 A 
ATOM      6  C4  PXY d   1      -0.614  -0.302   1.585  0.00  0.00    -0.082 A 
ATOM      7  C5  PXY d   1      -1.672  -0.397   0.752  0.00  0.00     0.003 A 
ATOM      8  C6  PXY d   1      -1.483  -0.189  -0.611  0.00  0.00     0.003 A 
ENDROOT
TORSDOF 0
ENDMDL
