MODEL 1
REMARK minimizedAffinity -4.04915142
REMARK minimizedRMSD -1
REMARK  0 active torsions:
REMARK  status: ('A' for Active; 'I' for Inactive)
ROOT
ATOM      1  C4' PXY d   1       0.737   0.261  -2.281  0.00  0.00     0.077 C 
ATOM      2  C1' PXY d   1      -0.508  -0.535   3.307  0.00  0.00     0.077 C 
ATOM      3  C1  PXY d   1      -0.192  -0.334   1.838  0.00  0.00    -0.082 A 
ATOM      4  C2  PXY d   1       1.043  -0.032   1.470  0.00  0.00     0.003 A 
ATOM      5  C3  PXY d   1       1.340   0.185   0.149  0.00  0.00     0.003 A 
ATOM      6  C4  PXY d   1       0.374   0.040  -0.810  0.00  0.00    -0.082 A 
ATOM      7  C5  PXY d   1      -0.886  -0.278  -0.444  0.00  0.00     0.003 A 
ATOM      8  C6  PXY d   1      -1.175  -0.454   0.906  0.00  0.00     0.003 A 
ENDROOT
TORSDOF 0
ENDMDL
