MODEL 1
REMARK minimizedAffinity -5.03996277
REMARK minimizedRMSD -1
REMARK  0 active torsions:
REMARK  status: ('A' for Active; 'I' for Inactive)
ROOT
ATOM      1  C4' PXY d   1       0.254  -0.721  -3.051  0.00  0.00     0.077 C 
ATOM      2  C1' PXY d   1       0.251   0.580   2.582  0.00  0.00     0.077 C 
ATOM      3  C1  PXY d   1       0.253   0.252   1.102  0.00  0.00    -0.082 A 
ATOM      4  C2  PXY d   1      -0.290  -0.880   0.682  0.00  0.00     0.003 A 
ATOM      5  C3  PXY d   1      -0.268  -1.208  -0.649  0.00  0.00     0.003 A 
ATOM      6  C4  PXY d   1       0.267  -0.344  -1.567  0.00  0.00    -0.082 A 
ATOM      7  C5  PXY d   1       0.812   0.818  -1.148  0.00  0.00     0.003 A 
ATOM      8  C6  PXY d   1       0.817   1.113   0.212  0.00  0.00     0.003 A 
ENDROOT
TORSDOF 0
ENDMDL
