MODEL 1
REMARK minimizedAffinity -2.88039899
REMARK minimizedRMSD -1
REMARK  0 active torsions:
REMARK  status: ('A' for Active; 'I' for Inactive)
ROOT
ATOM      1  C4' PXY d   1       0.730   1.129  -1.847  0.00  0.00     0.077 C 
ATOM      2  C1' PXY d   1      -0.914  -1.053   3.247  0.00  0.00     0.077 C 
ATOM      3  C1  PXY d   1      -0.491  -0.489   1.905  0.00  0.00    -0.082 A 
ATOM      4  C2  PXY d   1       0.692   0.092   1.783  0.00  0.00     0.003 A 
ATOM      5  C3  PXY d   1       1.077   0.636   0.585  0.00  0.00     0.003 A 
ATOM      6  C4  PXY d   1       0.266   0.537  -0.513  0.00  0.00    -0.082 A 
ATOM      7  C5  PXY d   1      -0.938  -0.063  -0.399  0.00  0.00     0.003 A 
ATOM      8  C6  PXY d   1      -1.328  -0.573   0.836  0.00  0.00     0.003 A 
ENDROOT
TORSDOF 0
ENDMDL
