MODEL 1
REMARK minimizedAffinity -4.46962214
REMARK minimizedRMSD -1
REMARK  0 active torsions:
REMARK  status: ('A' for Active; 'I' for Inactive)
ROOT
ATOM      1  C4' PXY d   1       0.350  -1.190  -1.987  0.00  0.00     0.077 C 
ATOM      2  C1' PXY d   1      -0.500   0.275   3.540  0.00  0.00     0.077 C 
ATOM      3  C1  PXY d   1      -0.269  -0.099   2.089  0.00  0.00    -0.082 A 
ATOM      4  C2  PXY d   1      -1.168  -0.830   1.451  0.00  0.00     0.003 A 
ATOM      5  C3  PXY d   1      -0.961  -1.204   0.148  0.00  0.00     0.003 A 
ATOM      6  C4  PXY d   1       0.154  -0.781  -0.525  0.00  0.00    -0.082 A 
ATOM      7  C5  PXY d   1       1.071  -0.025   0.116  0.00  0.00     0.003 A 
ATOM      8  C6  PXY d   1       0.861   0.309   1.451  0.00  0.00     0.003 A 
ENDROOT
TORSDOF 0
ENDMDL
