MODEL 1
REMARK minimizedAffinity -4.14632463
REMARK minimizedRMSD -1
REMARK  0 active torsions:
REMARK  status: ('A' for Active; 'I' for Inactive)
ROOT
ATOM      1  C4' PXY d   1       1.123  -0.662  -2.260  0.00  0.00     0.077 C 
ATOM      2  C1' PXY d   1      -0.536  -0.193   3.258  0.00  0.00     0.077 C 
ATOM      3  C1  PXY d   1      -0.099  -0.303   1.810  0.00  0.00    -0.082 A 
ATOM      4  C2  PXY d   1      -0.489  -1.340   1.086  0.00  0.00     0.003 A 
ATOM      5  C3  PXY d   1      -0.077  -1.472  -0.215  0.00  0.00     0.003 A 
ATOM      6  C4  PXY d   1       0.699  -0.505  -0.797  0.00  0.00    -0.082 A 
ATOM      7  C5  PXY d   1       1.092   0.561  -0.069  0.00  0.00     0.003 A 
ATOM      8  C6  PXY d   1       0.697   0.656   1.263  0.00  0.00     0.003 A 
ENDROOT
TORSDOF 0
ENDMDL
