MODEL 1
REMARK minimizedAffinity -4.14997911
REMARK minimizedRMSD -1
REMARK  0 active torsions:
REMARK  status: ('A' for Active; 'I' for Inactive)
ROOT
ATOM      1  C4' PXY d   1      -0.026   0.520   3.350  0.00  0.00     0.077 C 
ATOM      2  C1' PXY d   1       0.215  -0.973  -2.229  0.00  0.00     0.077 C 
ATOM      3  C1  PXY d   1       0.140  -0.587  -0.765  0.00  0.00    -0.082 A 
ATOM      4  C2  PXY d   1       0.848   0.440  -0.322  0.00  0.00     0.003 A 
ATOM      5  C3  PXY d   1       0.816   0.783   1.005  0.00  0.00     0.003 A 
ATOM      6  C4  PXY d   1       0.012   0.101   1.878  0.00  0.00    -0.082 A 
ATOM      7  C5  PXY d   1      -0.721  -0.941   1.432  0.00  0.00     0.003 A 
ATOM      8  C6  PXY d   1      -0.644  -1.299   0.089  0.00  0.00     0.003 A 
ENDROOT
TORSDOF 0
ENDMDL
