MODEL 1
REMARK minimizedAffinity 0.281205535
REMARK minimizedRMSD -1
REMARK  0 active torsions:
REMARK  status: ('A' for Active; 'I' for Inactive)
ROOT
ATOM      1  C4' PXY d   1       0.131  -0.800  -2.276  0.00  0.00     0.077 C 
ATOM      2  C1' PXY d   1      -0.648   0.528   3.295  0.00  0.00     0.077 C 
ATOM      3  C1  PXY d   1      -0.457   0.180   1.832  0.00  0.00    -0.082 A 
ATOM      4  C2  PXY d   1       0.634  -0.464   1.450  0.00  0.00     0.003 A 
ATOM      5  C3  PXY d   1       0.838  -0.758   0.127  0.00  0.00     0.003 A 
ATOM      6  C4  PXY d   1      -0.109  -0.437  -0.808  0.00  0.00    -0.082 A 
ATOM      7  C5  PXY d   1      -1.229   0.211  -0.425  0.00  0.00     0.003 A 
ATOM      8  C6  PXY d   1      -1.399   0.537   0.917  0.00  0.00     0.003 A 
ENDROOT
TORSDOF 0
ENDMDL
