MODEL 1
REMARK minimizedAffinity 13.1553507
REMARK minimizedRMSD -1
REMARK  0 active torsions:
REMARK  status: ('A' for Active; 'I' for Inactive)
ROOT
ATOM      1  N1  IND d   1       0.247   1.467   0.688  0.00  0.00    -0.196 N 
ATOM      2  C2  IND d   1       1.517   1.073   0.372  0.00  0.00     0.054 A 
ATOM      3  C3  IND d   1       1.558  -0.262   0.164  0.00  0.00    -0.031 A 
ATOM      4  C4  IND d   1      -0.359  -1.980   0.188  0.00  0.00     0.051 A 
ATOM      5  C5  IND d   1      -1.693  -2.102   0.461  0.00  0.00    -0.031 A 
ATOM      6  C6  IND d   1      -2.464  -1.019   0.828  0.00  0.00     0.015 A 
ATOM      7  C7  IND d   1      -1.930   0.235   0.926  0.00  0.00    -0.016 A 
ATOM      8  C8  IND d   1      -0.575   0.362   0.656  0.00  0.00    -0.047 A 
ATOM      9  C9  IND d   1       0.222  -0.741   0.324  0.00  0.00    -0.096 A 
ATOM     10  HN1 IND d   1       0.002   2.270   0.874  0.00  0.00     0.298 HD
ENDROOT
TORSDOF 0
ENDMDL
