MODEL 1
REMARK minimizedAffinity 4.16980839
REMARK minimizedRMSD -1
REMARK  0 active torsions:
REMARK  status: ('A' for Active; 'I' for Inactive)
ROOT
ATOM      1  N1  IND d   1       0.001  -0.987   3.884  0.00  0.00    -0.196 N 
ATOM      2  C2  IND d   1       0.873  -1.899   3.357  0.00  0.00     0.054 A 
ATOM      3  C3  IND d   1       0.625  -2.081   2.041  0.00  0.00    -0.031 A 
ATOM      4  C4  IND d   1      -1.097  -0.913   0.524  0.00  0.00     0.051 A 
ATOM      5  C5  IND d   1      -2.140  -0.032   0.559  0.00  0.00    -0.031 A 
ATOM      6  C6  IND d   1      -2.530   0.591   1.727  0.00  0.00     0.015 A 
ATOM      7  C7  IND d   1      -1.879   0.363   2.907  0.00  0.00    -0.016 A 
ATOM      8  C8  IND d   1      -0.824  -0.537   2.877  0.00  0.00    -0.047 A 
ATOM      9  C9  IND d   1      -0.451  -1.204   1.703  0.00  0.00    -0.096 A 
ATOM     10  HN1 IND d   1      -0.027  -0.737   4.706  0.00  0.00     0.298 HD
ENDROOT
TORSDOF 0
ENDMDL
