MODEL 1
REMARK minimizedAffinity 9.59949398
REMARK minimizedRMSD -1
REMARK  0 active torsions:
REMARK  status: ('A' for Active; 'I' for Inactive)
ROOT
ATOM      1  N1  IND d   1       1.426  -0.495   1.016  0.00  0.00    -0.196 N 
ATOM      2  C2  IND d   1       1.992  -1.481   0.257  0.00  0.00     0.054 A 
ATOM      3  C3  IND d   1       1.033  -2.241  -0.319  0.00  0.00    -0.031 A 
ATOM      4  C4  IND d   1      -1.527  -1.983  -0.235  0.00  0.00     0.051 A 
ATOM      5  C5  IND d   1      -2.517  -1.251   0.359  0.00  0.00    -0.031 A 
ATOM      6  C6  IND d   1      -2.238  -0.207   1.217  0.00  0.00     0.015 A 
ATOM      7  C7  IND d   1      -0.952   0.153   1.506  0.00  0.00    -0.016 A 
ATOM      8  C8  IND d   1       0.056  -0.592   0.910  0.00  0.00    -0.047 A 
ATOM      9  C9  IND d   1      -0.222  -1.680   0.072  0.00  0.00    -0.096 A 
ATOM     10  HN1 IND d   1       1.854   0.088   1.480  0.00  0.00     0.298 HD
ENDROOT
TORSDOF 0
ENDMDL
