MODEL 1
REMARK minimizedAffinity 5.37785196
REMARK minimizedRMSD -1
REMARK  0 active torsions:
REMARK  status: ('A' for Active; 'I' for Inactive)
ROOT
ATOM      1  N1  IND d   1       2.613   0.714   0.306  0.00  0.00    -0.196 N 
ATOM      2  C2  IND d   1       3.465   1.318   1.188  0.00  0.00     0.054 A 
ATOM      3  C3  IND d   1       4.424   2.000   0.522  0.00  0.00    -0.031 A 
ATOM      4  C4  IND d   1       4.729   2.344  -2.011  0.00  0.00     0.051 A 
ATOM      5  C5  IND d   1       4.221   1.957  -3.219  0.00  0.00    -0.031 A 
ATOM      6  C6  IND d   1       3.127   1.121  -3.316  0.00  0.00     0.015 A 
ATOM      7  C7  IND d   1       2.491   0.648  -2.203  0.00  0.00    -0.016 A 
ATOM      8  C8  IND d   1       3.009   1.033  -0.975  0.00  0.00    -0.047 A 
ATOM      9  C9  IND d   1       4.144   1.847  -0.870  0.00  0.00    -0.096 A 
ATOM     10  HN1 IND d   1       1.944   0.217   0.516  0.00  0.00     0.298 HD
ENDROOT
TORSDOF 0
ENDMDL
