MODEL 1
REMARK minimizedAffinity 6.81565809
REMARK minimizedRMSD -1
REMARK  0 active torsions:
REMARK  status: ('A' for Active; 'I' for Inactive)
ROOT
ATOM      1  N1  IND d   1      -5.040   0.268   1.624  0.00  0.00    -0.196 N 
ATOM      2  C2  IND d   1      -5.354   0.456   2.941  0.00  0.00     0.054 A 
ATOM      3  C3  IND d   1      -4.244   0.361   3.707  0.00  0.00    -0.031 A 
ATOM      4  C4  IND d   1      -1.794   0.005   3.001  0.00  0.00     0.051 A 
ATOM      5  C5  IND d   1      -1.015  -0.255   1.909  0.00  0.00    -0.031 A 
ATOM      6  C6  IND d   1      -1.548  -0.354   0.640  0.00  0.00     0.015 A 
ATOM      7  C7  IND d   1      -2.884  -0.184   0.413  0.00  0.00    -0.016 A 
ATOM      8  C8  IND d   1      -3.680   0.074   1.521  0.00  0.00    -0.047 A 
ATOM      9  C9  IND d   1      -3.151   0.133   2.817  0.00  0.00    -0.096 A 
ATOM     10  HN1 IND d   1      -5.598   0.270   0.969  0.00  0.00     0.298 HD
ENDROOT
TORSDOF 0
ENDMDL
