MODEL 1
REMARK minimizedAffinity 3.43914461
REMARK minimizedRMSD -1
REMARK  0 active torsions:
REMARK  status: ('A' for Active; 'I' for Inactive)
ROOT
ATOM      1  N1  IND d   1       0.087  -2.524   0.522  0.00  0.00    -0.196 N 
ATOM      2  C2  IND d   1       1.171  -2.099   1.237  0.00  0.00     0.054 A 
ATOM      3  C3  IND d   1       0.926  -0.888   1.787  0.00  0.00    -0.031 A 
ATOM      4  C4  IND d   1      -1.220   0.531   1.727  0.00  0.00     0.051 A 
ATOM      5  C5  IND d   1      -2.467   0.576   1.168  0.00  0.00    -0.031 A 
ATOM      6  C6  IND d   1      -2.936  -0.431   0.351  0.00  0.00     0.015 A 
ATOM      7  C7  IND d   1      -2.177  -1.532   0.070  0.00  0.00    -0.016 A 
ATOM      8  C8  IND d   1      -0.908  -1.578   0.630  0.00  0.00    -0.047 A 
ATOM      9  C9  IND d   1      -0.411  -0.538   1.426  0.00  0.00    -0.096 A 
ATOM     10  HN1 IND d   1       0.036  -3.259   0.078  0.00  0.00     0.298 HD
ENDROOT
TORSDOF 0
ENDMDL
