MODEL 1
REMARK minimizedAffinity 12.9638958
REMARK minimizedRMSD -1
REMARK  0 active torsions:
REMARK  status: ('A' for Active; 'I' for Inactive)
ROOT
ATOM      1  N1  IND d   1       0.378  -0.279   2.307  0.00  0.00    -0.196 N 
ATOM      2  C2  IND d   1       1.187  -1.381   2.324  0.00  0.00     0.054 A 
ATOM      3  C3  IND d   1       0.577  -2.421   1.711  0.00  0.00    -0.031 A 
ATOM      4  C4  IND d   1      -1.705  -2.509   0.522  0.00  0.00     0.051 A 
ATOM      5  C5  IND d   1      -2.821  -1.760   0.276  0.00  0.00    -0.031 A 
ATOM      6  C6  IND d   1      -2.929  -0.451   0.701  0.00  0.00     0.015 A 
ATOM      7  C7  IND d   1      -1.915   0.163   1.381  0.00  0.00    -0.016 A 
ATOM      8  C8  IND d   1      -0.783  -0.597   1.638  0.00  0.00    -0.047 A 
ATOM      9  C9  IND d   1      -0.685  -1.938   1.246  0.00  0.00    -0.096 A 
ATOM     10  HN1 IND d   1       0.564   0.485   2.656  0.00  0.00     0.298 HD
ENDROOT
TORSDOF 0
ENDMDL
