MODEL 1
REMARK minimizedAffinity 13.4445515
REMARK minimizedRMSD -1
REMARK  0 active torsions:
REMARK  status: ('A' for Active; 'I' for Inactive)
ROOT
ATOM      1  N1  IND d   1      -0.167  -2.523   0.420  0.00  0.00    -0.196 N 
ATOM      2  C2  IND d   1       0.781  -2.163   1.337  0.00  0.00     0.054 A 
ATOM      3  C3  IND d   1       0.477  -0.964   1.882  0.00  0.00    -0.031 A 
ATOM      4  C4  IND d   1      -1.578   0.536   1.492  0.00  0.00     0.051 A 
ATOM      5  C5  IND d   1      -2.700   0.646   0.719  0.00  0.00    -0.031 A 
ATOM      6  C6  IND d   1      -3.043  -0.315  -0.210  0.00  0.00     0.015 A 
ATOM      7  C7  IND d   1      -2.279  -1.433  -0.393  0.00  0.00    -0.016 A 
ATOM      8  C8  IND d   1      -1.136  -1.545   0.385  0.00  0.00    -0.047 A 
ATOM      9  C9  IND d   1      -0.760  -0.552   1.299  0.00  0.00    -0.096 A 
ATOM     10  HN1 IND d   1      -0.159  -3.240  -0.055  0.00  0.00     0.298 HD
ENDROOT
TORSDOF 0
ENDMDL
