MODEL 1
REMARK minimizedAffinity 0.190112039
REMARK minimizedRMSD -1
REMARK  0 active torsions:
REMARK  status: ('A' for Active; 'I' for Inactive)
ROOT
ATOM      1  N1  IND d   1       0.208  -0.939   1.334  0.00  0.00    -0.196 N 
ATOM      2  C2  IND d   1      -0.468  -2.085   1.020  0.00  0.00     0.054 A 
ATOM      3  C3  IND d   1      -1.342  -1.855   0.015  0.00  0.00    -0.031 A 
ATOM      4  C4  IND d   1      -1.757   0.301  -1.331  0.00  0.00     0.051 A 
ATOM      5  C5  IND d   1      -1.405   1.620  -1.387  0.00  0.00    -0.031 A 
ATOM      6  C6  IND d   1      -0.477   2.165  -0.523  0.00  0.00     0.015 A 
ATOM      7  C7  IND d   1       0.145   1.403   0.426  0.00  0.00    -0.016 A 
ATOM      8  C8  IND d   1      -0.215   0.065   0.490  0.00  0.00    -0.047 A 
ATOM      9  C9  IND d   1      -1.187  -0.484  -0.356  0.00  0.00    -0.096 A 
ATOM     10  HN1 IND d   1       0.798  -0.858   1.954  0.00  0.00     0.298 HD
ENDROOT
TORSDOF 0
ENDMDL
