MODEL 1
REMARK minimizedAffinity -0.139231369
REMARK minimizedRMSD -1
REMARK  0 active torsions:
REMARK  status: ('A' for Active; 'I' for Inactive)
ROOT
ATOM      1  N1  IND d   1      -0.044   1.475   0.110  0.00  0.00    -0.196 N 
ATOM      2  C2  IND d   1      -0.714   0.383   0.588  0.00  0.00     0.054 A 
ATOM      3  C3  IND d   1       0.141  -0.645   0.785  0.00  0.00    -0.031 A 
ATOM      4  C4  IND d   1       2.697  -0.727   0.488  0.00  0.00     0.051 A 
ATOM      5  C5  IND d   1       3.753   0.014   0.037  0.00  0.00    -0.031 A 
ATOM      6  C6  IND d   1       3.595   1.307  -0.418  0.00  0.00     0.015 A 
ATOM      7  C7  IND d   1       2.371   1.913  -0.430  0.00  0.00    -0.016 A 
ATOM      8  C8  IND d   1       1.295   1.161   0.020  0.00  0.00    -0.047 A 
ATOM      9  C9  IND d   1       1.442  -0.166   0.443  0.00  0.00    -0.096 A 
ATOM     10  HN1 IND d   1      -0.398   2.230  -0.099  0.00  0.00     0.298 HD
ENDROOT
TORSDOF 0
ENDMDL
