MODEL 1
REMARK minimizedAffinity 1.55726504
REMARK minimizedRMSD -1
REMARK  0 active torsions:
REMARK  status: ('A' for Active; 'I' for Inactive)
ROOT
ATOM      1  N1  IND d   1       3.877   1.508   1.898  0.00  0.00    -0.196 N 
ATOM      2  C2  IND d   1       4.166   1.046   0.644  0.00  0.00     0.054 A 
ATOM      3  C3  IND d   1       4.689   2.037  -0.113  0.00  0.00    -0.031 A 
ATOM      4  C4  IND d   1       5.254   4.464   0.533  0.00  0.00     0.051 A 
ATOM      5  C5  IND d   1       5.136   5.361   1.557  0.00  0.00    -0.031 A 
ATOM      6  C6  IND d   1       4.585   5.012   2.773  0.00  0.00     0.015 A 
ATOM      7  C7  IND d   1       4.138   3.744   3.014  0.00  0.00    -0.016 A 
ATOM      8  C8  IND d   1       4.249   2.832   1.974  0.00  0.00    -0.047 A 
ATOM      9  C9  IND d   1       4.769   3.192   0.724  0.00  0.00    -0.096 A 
ATOM     10  HN1 IND d   1       3.522   1.048   2.532  0.00  0.00     0.298 HD
ENDROOT
TORSDOF 0
ENDMDL
