MODEL 1
REMARK minimizedAffinity 8.06282234
REMARK minimizedRMSD -1
REMARK  0 active torsions:
REMARK  status: ('A' for Active; 'I' for Inactive)
ROOT
ATOM      1  N1  IND d   1       1.736  -0.413   0.924  0.00  0.00    -0.196 N 
ATOM      2  C2  IND d   1       2.543  -1.513   0.849  0.00  0.00     0.054 A 
ATOM      3  C3  IND d   1       1.804  -2.624   0.630  0.00  0.00    -0.031 A 
ATOM      4  C4  IND d   1      -0.734  -2.855   0.262  0.00  0.00     0.051 A 
ATOM      5  C5  IND d   1      -1.894  -2.133   0.276  0.00  0.00    -0.031 A 
ATOM      6  C6  IND d   1      -1.904  -0.772   0.509  0.00  0.00     0.015 A 
ATOM      7  C7  IND d   1      -0.747  -0.079   0.726  0.00  0.00    -0.016 A 
ATOM      8  C8  IND d   1       0.433  -0.810   0.720  0.00  0.00    -0.047 A 
ATOM      9  C9  IND d   1       0.445  -2.197   0.526  0.00  0.00    -0.096 A 
ATOM     10  HN1 IND d   1       1.998   0.392   1.075  0.00  0.00     0.298 HD
ENDROOT
TORSDOF 0
ENDMDL
