MODEL 1
REMARK minimizedAffinity 12.7822866
REMARK minimizedRMSD -1
REMARK  0 active torsions:
REMARK  status: ('A' for Active; 'I' for Inactive)
ROOT
ATOM      1  N1  IND d   1       3.267  -3.687  -0.140  0.00  0.00    -0.196 N 
ATOM      2  C2  IND d   1       4.628  -3.812  -0.089  0.00  0.00     0.054 A 
ATOM      3  C3  IND d   1       5.204  -2.605   0.112  0.00  0.00    -0.031 A 
ATOM      4  C4  IND d   1       4.102  -0.309   0.485  0.00  0.00     0.051 A 
ATOM      5  C5  IND d   1       2.886   0.315   0.489  0.00  0.00    -0.031 A 
ATOM      6  C6  IND d   1       1.711  -0.378   0.282  0.00  0.00     0.015 A 
ATOM      7  C7  IND d   1       1.707  -1.728   0.074  0.00  0.00    -0.016 A 
ATOM      8  C8  IND d   1       2.941  -2.364   0.062  0.00  0.00    -0.047 A 
ATOM      9  C9  IND d   1       4.140  -1.659   0.229  0.00  0.00    -0.096 A 
ATOM     10  HN1 IND d   1       2.709  -4.327  -0.276  0.00  0.00     0.298 HD
ENDROOT
TORSDOF 0
ENDMDL
