MODEL 1
REMARK minimizedAffinity 2.28405952
REMARK minimizedRMSD -1
REMARK  0 active torsions:
REMARK  status: ('A' for Active; 'I' for Inactive)
ROOT
ATOM      1  N1  IND d   1      -4.322  -3.155  -5.707  0.00  0.00    -0.196 N 
ATOM      2  C2  IND d   1      -5.239  -4.058  -5.246  0.00  0.00     0.054 A 
ATOM      3  C3  IND d   1      -6.000  -3.502  -4.277  0.00  0.00    -0.031 A 
ATOM      4  C4  IND d   1      -5.982  -1.096  -3.361  0.00  0.00     0.051 A 
ATOM      5  C5  IND d   1      -5.297   0.084  -3.447  0.00  0.00    -0.031 A 
ATOM      6  C6  IND d   1      -4.233   0.249  -4.309  0.00  0.00     0.015 A 
ATOM      7  C7  IND d   1      -3.819  -0.761  -5.130  0.00  0.00    -0.016 A 
ATOM      8  C8  IND d   1      -4.507  -1.963  -5.042  0.00  0.00    -0.047 A 
ATOM      9  C9  IND d   1      -5.561  -2.149  -4.138  0.00  0.00    -0.096 A 
ATOM     10  HN1 IND d   1      -3.729  -3.306  -6.312  0.00  0.00     0.298 HD
ENDROOT
TORSDOF 0
ENDMDL
