MODEL 1
REMARK minimizedAffinity 13.6842041
REMARK minimizedRMSD -1
REMARK  0 active torsions:
REMARK  status: ('A' for Active; 'I' for Inactive)
ROOT
ATOM      1  N1  IND d   1      -3.798   0.751  -3.011  0.00  0.00    -0.196 N 
ATOM      2  C2  IND d   1      -4.963   1.225  -2.475  0.00  0.00     0.054 A 
ATOM      3  C3  IND d   1      -6.000   0.432  -2.826  0.00  0.00    -0.031 A 
ATOM      4  C4  IND d   1      -6.000  -1.752  -4.188  0.00  0.00     0.051 A 
ATOM      5  C5  IND d   1      -5.180  -2.566  -4.920  0.00  0.00    -0.031 A 
ATOM      6  C6  IND d   1      -3.831  -2.311  -5.053  0.00  0.00     0.015 A 
ATOM      7  C7  IND d   1      -3.245  -1.235  -4.447  0.00  0.00    -0.016 A 
ATOM      8  C8  IND d   1      -4.076  -0.403  -3.710  0.00  0.00    -0.047 A 
ATOM      9  C9  IND d   1      -5.454  -0.633  -3.606  0.00  0.00    -0.096 A 
ATOM     10  HN1 IND d   1      -3.023   1.113  -2.927  0.00  0.00     0.298 HD
ENDROOT
TORSDOF 0
ENDMDL
