MODEL 1
REMARK minimizedAffinity 24.7565365
REMARK minimizedRMSD -1
REMARK  0 active torsions:
REMARK  status: ('A' for Active; 'I' for Inactive)
ROOT
ATOM      1  N1  IND d   1       2.724  -2.832   3.562  0.00  0.00    -0.196 N 
ATOM      2  C2  IND d   1       1.591  -2.819   4.327  0.00  0.00     0.054 A 
ATOM      3  C3  IND d   1       0.637  -2.060   3.741  0.00  0.00    -0.031 A 
ATOM      4  C4  IND d   1       0.685  -0.834   1.478  0.00  0.00     0.051 A 
ATOM      5  C5  IND d   1       1.515  -0.525   0.437  0.00  0.00    -0.031 A 
ATOM      6  C6  IND d   1       2.816  -0.981   0.382  0.00  0.00     0.015 A 
ATOM      7  C7  IND d   1       3.334  -1.776   1.365  0.00  0.00    -0.016 A 
ATOM      8  C8  IND d   1       2.496  -2.086   2.427  0.00  0.00    -0.047 A 
ATOM      9  C9  IND d   1       1.188  -1.591   2.509  0.00  0.00    -0.096 A 
ATOM     10  HN1 IND d   1       3.456  -3.239   3.757  0.00  0.00     0.298 HD
ENDROOT
TORSDOF 0
ENDMDL
