MODEL 1
REMARK minimizedAffinity 15.7024193
REMARK minimizedRMSD -1
REMARK  0 active torsions:
REMARK  status: ('A' for Active; 'I' for Inactive)
ROOT
ATOM      1  N1  IND d   1      -0.211  -0.341   2.640  0.00  0.00    -0.196 N 
ATOM      2  C2  IND d   1       0.775  -1.286   2.695  0.00  0.00     0.054 A 
ATOM      3  C3  IND d   1       0.438  -2.361   1.947  0.00  0.00    -0.031 A 
ATOM      4  C4  IND d   1      -1.636  -2.740   0.469  0.00  0.00     0.051 A 
ATOM      5  C5  IND d   1      -2.832  -2.175   0.126  0.00  0.00    -0.031 A 
ATOM      6  C6  IND d   1      -3.222  -0.943   0.611  0.00  0.00     0.015 A 
ATOM      7  C7  IND d   1      -2.422  -0.223   1.452  0.00  0.00    -0.016 A 
ATOM      8  C8  IND d   1      -1.210  -0.797   1.808  0.00  0.00    -0.047 A 
ATOM      9  C9  IND d   1      -0.827  -2.065   1.353  0.00  0.00    -0.096 A 
ATOM     10  HN1 IND d   1      -0.207   0.412   3.055  0.00  0.00     0.298 HD
ENDROOT
TORSDOF 0
ENDMDL
