MODEL 1
REMARK minimizedAffinity 16.1788006
REMARK minimizedRMSD -1
REMARK  0 active torsions:
REMARK  status: ('A' for Active; 'I' for Inactive)
ROOT
ATOM      1  N1  IND d   1       5.014   2.484  -3.002  0.00  0.00    -0.196 N 
ATOM      2  C2  IND d   1       4.434   1.310  -2.610  0.00  0.00     0.054 A 
ATOM      3  C3  IND d   1       4.004   1.401  -1.331  0.00  0.00    -0.031 A 
ATOM      4  C4  IND d   1       4.059   3.415   0.273  0.00  0.00     0.051 A 
ATOM      5  C5  IND d   1       4.524   4.695   0.378  0.00  0.00    -0.031 A 
ATOM      6  C6  IND d   1       5.187   5.318  -0.660  0.00  0.00     0.015 A 
ATOM      7  C7  IND d   1       5.401   4.684  -1.851  0.00  0.00    -0.016 A 
ATOM      8  C8  IND d   1       4.936   3.381  -1.959  0.00  0.00    -0.047 A 
ATOM      9  C9  IND d   1       4.300   2.729  -0.894  0.00  0.00    -0.096 A 
ATOM     10  HN1 IND d   1       5.368   2.637  -3.770  0.00  0.00     0.298 HD
ENDROOT
TORSDOF 0
ENDMDL
