MODEL 1
REMARK minimizedAffinity 8.29886913
REMARK minimizedRMSD -1
REMARK  0 active torsions:
REMARK  status: ('A' for Active; 'I' for Inactive)
ROOT
ATOM      1  C   UNL d   1      -3.481   2.156  -3.471  0.00  0.00     0.077 C 
ATOM      2  C1  UNL d   1      -2.908   0.783  -3.286  0.00  0.00    -0.074 A 
ATOM      3  C2  UNL d   1      -1.547   0.602  -3.018  0.00  0.00    -0.005 A 
ATOM      4  C3  UNL d   1      -1.030  -0.681  -2.838  0.00  0.00     0.006 A 
ATOM      5  C4  UNL d   1      -1.867  -1.794  -2.924  0.00  0.00    -0.005 A 
ATOM      6  C5  UNL d   1      -3.230  -1.633  -3.190  0.00  0.00    -0.074 A 
ATOM      7  C6  UNL d   1      -4.146  -2.818  -3.275  0.00  0.00     0.077 C 
ATOM      8  C7  UNL d   1      -3.744  -0.340  -3.362  0.00  0.00    -0.001 A 
ENDROOT
TORSDOF 0
ENDMDL
