MODEL 1
REMARK minimizedAffinity 8.76777744
REMARK minimizedRMSD -1
REMARK  0 active torsions:
REMARK  status: ('A' for Active; 'I' for Inactive)
ROOT
ATOM      1  C   UNL d   1      -2.193  -0.622   0.823  0.00  0.00     0.077 C 
ATOM      2  C1  UNL d   1      -2.275  -0.616  -0.674  0.00  0.00    -0.074 A 
ATOM      3  C2  UNL d   1      -2.569  -1.786  -1.383  0.00  0.00    -0.005 A 
ATOM      4  C3  UNL d   1      -2.651  -1.763  -2.775  0.00  0.00     0.006 A 
ATOM      5  C4  UNL d   1      -2.440  -0.572  -3.472  0.00  0.00    -0.005 A 
ATOM      6  C5  UNL d   1      -2.145   0.607  -2.781  0.00  0.00    -0.074 A 
ATOM      7  C6  UNL d   1      -1.925   1.897  -3.513  0.00  0.00     0.077 C 
ATOM      8  C7  UNL d   1      -2.071   0.577  -1.381  0.00  0.00    -0.001 A 
ENDROOT
TORSDOF 0
ENDMDL
