MODEL 1
REMARK minimizedAffinity 5.53169441
REMARK minimizedRMSD -1
REMARK  0 active torsions:
REMARK  status: ('A' for Active; 'I' for Inactive)
ROOT
ATOM      1  C   UNL d   1      -2.135   0.034   0.446  0.00  0.00     0.077 C 
ATOM      2  C1  UNL d   1      -2.384   0.430  -0.979  0.00  0.00    -0.074 A 
ATOM      3  C2  UNL d   1      -2.047  -0.427  -2.032  0.00  0.00    -0.005 A 
ATOM      4  C3  UNL d   1      -2.294  -0.049  -3.352  0.00  0.00     0.006 A 
ATOM      5  C4  UNL d   1      -2.878   1.187  -3.631  0.00  0.00    -0.005 A 
ATOM      6  C5  UNL d   1      -3.221   2.057  -2.591  0.00  0.00    -0.074 A 
ATOM      7  C6  UNL d   1      -3.859   3.385  -2.874  0.00  0.00     0.077 C 
ATOM      8  C7  UNL d   1      -2.977   1.667  -1.267  0.00  0.00    -0.001 A 
ENDROOT
TORSDOF 0
ENDMDL
