MODEL 1
REMARK minimizedAffinity 14.4737444
REMARK minimizedRMSD -1
REMARK  0 active torsions:
REMARK  status: ('A' for Active; 'I' for Inactive)
ROOT
ATOM      1  C   UNL d   1       4.260  -5.998  -5.337  0.00  0.00     0.077 C 
ATOM      2  C1  UNL d   1       3.655  -4.646  -5.574  0.00  0.00    -0.074 A 
ATOM      3  C2  UNL d   1       2.270  -4.487  -5.679  0.00  0.00    -0.005 A 
ATOM      4  C3  UNL d   1       1.721  -3.222  -5.890  0.00  0.00     0.006 A 
ATOM      5  C4  UNL d   1       2.551  -2.106  -5.998  0.00  0.00    -0.005 A 
ATOM      6  C5  UNL d   1       3.939  -2.245  -5.894  0.00  0.00    -0.074 A 
ATOM      7  C6  UNL d   1       4.844  -1.054  -5.998  0.00  0.00     0.077 C 
ATOM      8  C7  UNL d   1       4.482  -3.519  -5.675  0.00  0.00    -0.001 A 
ENDROOT
TORSDOF 0
ENDMDL
