MODEL 1
REMARK minimizedAffinity 10.8223181
REMARK minimizedRMSD -1
REMARK  0 active torsions:
REMARK  status: ('A' for Active; 'I' for Inactive)
ROOT
ATOM      1  C   UNL d   1      -1.088  -1.917   1.228  0.00  0.00     0.077 C 
ATOM      2  C1  UNL d   1      -1.526  -0.801   0.327  0.00  0.00    -0.074 A 
ATOM      3  C2  UNL d   1      -1.633   0.509   0.805  0.00  0.00    -0.005 A 
ATOM      4  C3  UNL d   1      -2.033   1.538  -0.048  0.00  0.00     0.006 A 
ATOM      5  C4  UNL d   1      -2.328   1.269  -1.384  0.00  0.00    -0.005 A 
ATOM      6  C5  UNL d   1      -2.226  -0.035  -1.881  0.00  0.00    -0.074 A 
ATOM      7  C6  UNL d   1      -2.531  -0.340  -3.317  0.00  0.00     0.077 C 
ATOM      8  C7  UNL d   1      -1.817  -1.062  -1.020  0.00  0.00    -0.001 A 
ENDROOT
TORSDOF 0
ENDMDL
