MODEL 1
REMARK minimizedAffinity 3.67859006
REMARK minimizedRMSD -1
REMARK  0 active torsions:
REMARK  status: ('A' for Active; 'I' for Inactive)
ROOT
ATOM      1  C   UNL d   1      -3.344   2.206  -2.615  0.00  0.00     0.077 C 
ATOM      2  C1  UNL d   1      -2.931   0.787  -2.359  0.00  0.00    -0.074 A 
ATOM      3  C2  UNL d   1      -2.850  -0.137  -3.406  0.00  0.00    -0.005 A 
ATOM      4  C3  UNL d   1      -2.456  -1.451  -3.154  0.00  0.00     0.006 A 
ATOM      5  C4  UNL d   1      -2.139  -1.854  -1.856  0.00  0.00    -0.005 A 
ATOM      6  C5  UNL d   1      -2.213  -0.943  -0.797  0.00  0.00    -0.074 A 
ATOM      7  C6  UNL d   1      -1.867  -1.356   0.602  0.00  0.00     0.077 C 
ATOM      8  C7  UNL d   1      -2.604   0.377  -1.059  0.00  0.00    -0.001 A 
ENDROOT
TORSDOF 0
ENDMDL
