MODEL 1
REMARK minimizedAffinity 14.1688213
REMARK minimizedRMSD -1
REMARK  0 active torsions:
REMARK  status: ('A' for Active; 'I' for Inactive)
ROOT
ATOM      1  C   UNL d   1       1.879  -2.407   2.420  0.00  0.00     0.077 C 
ATOM      2  C1  UNL d   1       1.879  -1.488   3.605  0.00  0.00    -0.074 A 
ATOM      3  C2  UNL d   1       1.813  -1.993   4.907  0.00  0.00    -0.005 A 
ATOM      4  C3  UNL d   1       1.824  -1.126   6.000  0.00  0.00     0.006 A 
ATOM      5  C4  UNL d   1       1.899   0.253   5.802  0.00  0.00    -0.005 A 
ATOM      6  C5  UNL d   1       1.966   0.777   4.507  0.00  0.00    -0.074 A 
ATOM      7  C6  UNL d   1       2.058   2.256   4.277  0.00  0.00     0.077 C 
ATOM      8  C7  UNL d   1       1.963  -0.101   3.414  0.00  0.00    -0.001 A 
ENDROOT
TORSDOF 0
ENDMDL
