MODEL 1
REMARK minimizedAffinity 1.6811204
REMARK minimizedRMSD -1
REMARK  0 active torsions:
REMARK  status: ('A' for Active; 'I' for Inactive)
ROOT
ATOM      1  C   UNL d   1       2.196  -3.165   4.415  0.00  0.00     0.077 C 
ATOM      2  C1  UNL d   1       2.151  -1.747   3.928  0.00  0.00    -0.074 A 
ATOM      3  C2  UNL d   1       1.860  -1.455   2.592  0.00  0.00    -0.005 A 
ATOM      4  C3  UNL d   1       1.812  -0.131   2.156  0.00  0.00     0.006 A 
ATOM      5  C4  UNL d   1       2.054   0.913   3.050  0.00  0.00    -0.005 A 
ATOM      6  C5  UNL d   1       2.346   0.640   4.391  0.00  0.00    -0.074 A 
ATOM      7  C6  UNL d   1       2.598   1.750   5.367  0.00  0.00     0.077 C 
ATOM      8  C7  UNL d   1       2.385  -0.693   4.823  0.00  0.00    -0.001 A 
ENDROOT
TORSDOF 0
ENDMDL
