MODEL 1
REMARK minimizedAffinity 3.27331424
REMARK minimizedRMSD -1
REMARK  0 active torsions:
REMARK  status: ('A' for Active; 'I' for Inactive)
ROOT
ATOM      1  C   UNL d   1      -0.029   0.126  -2.583  0.00  0.00     0.077 C 
ATOM      2  C1  UNL d   1      -1.206  -0.605  -3.157  0.00  0.00    -0.074 A 
ATOM      3  C2  UNL d   1      -1.077  -1.380  -4.313  0.00  0.00    -0.005 A 
ATOM      4  C3  UNL d   1      -2.179  -2.062  -4.830  0.00  0.00     0.006 A 
ATOM      5  C4  UNL d   1      -3.419  -1.976  -4.196  0.00  0.00    -0.005 A 
ATOM      6  C5  UNL d   1      -3.567  -1.206  -3.038  0.00  0.00    -0.074 A 
ATOM      7  C6  UNL d   1      -4.891  -1.110  -2.339  0.00  0.00     0.077 C 
ATOM      8  C7  UNL d   1      -2.454  -0.529  -2.521  0.00  0.00    -0.001 A 
ENDROOT
TORSDOF 0
ENDMDL
