MODEL 1
REMARK minimizedAffinity 3.90861106
REMARK minimizedRMSD -1
REMARK  0 active torsions:
REMARK  status: ('A' for Active; 'I' for Inactive)
ROOT
ATOM      1  O1  BZF d   1      -0.467  -3.391  -2.508  0.00  0.00    -0.204 OA
ATOM      2  C2  BZF d   1      -1.561  -3.911  -1.844  0.00  0.00     0.174 A 
ATOM      3  C3  BZF d   1      -1.679  -3.365  -0.616  0.00  0.00    -0.012 A 
ATOM      4  C3A BZF d   1      -0.644  -2.380  -0.541  0.00  0.00    -0.107 A 
ATOM      5  C4  BZF d   1      -0.260  -1.493   0.424  0.00  0.00     0.055 A 
ATOM      6  C5  BZF d   1       0.837  -0.720   0.211  0.00  0.00    -0.016 A 
ATOM      7  C6  BZF d   1       1.575  -0.810  -0.951  0.00  0.00     0.022 A 
ATOM      8  C7  BZF d   1       1.230  -1.671  -1.939  0.00  0.00     0.029 A 
ATOM      9  C7A BZF d   1       0.103  -2.430  -1.741  0.00  0.00     0.058 A 
ENDROOT
TORSDOF 0
ENDMDL
