MODEL 1
REMARK minimizedAffinity -3.00829124
REMARK minimizedRMSD -1
REMARK  0 active torsions:
REMARK  status: ('A' for Active; 'I' for Inactive)
ROOT
ATOM      1  O1  BZF d   1      -2.755   2.612   0.482  0.00  0.00    -0.204 OA
ATOM      2  C2  BZF d   1      -3.949   1.918   0.471  0.00  0.00     0.174 A 
ATOM      3  C3  BZF d   1      -3.728   0.587   0.463  0.00  0.00    -0.012 A 
ATOM      4  C3A BZF d   1      -2.308   0.441   0.562  0.00  0.00    -0.107 A 
ATOM      5  C4  BZF d   1      -1.478  -0.642   0.616  0.00  0.00     0.055 A 
ATOM      6  C5  BZF d   1      -0.134  -0.443   0.636  0.00  0.00    -0.016 A 
ATOM      7  C6  BZF d   1       0.414   0.823   0.598  0.00  0.00     0.022 A 
ATOM      8  C7  BZF d   1      -0.370   1.927   0.549  0.00  0.00     0.029 A 
ATOM      9  C7A BZF d   1      -1.729   1.731   0.561  0.00  0.00     0.058 A 
ENDROOT
TORSDOF 0
ENDMDL
