MODEL 1
REMARK minimizedAffinity 6.68721962
REMARK minimizedRMSD -1
REMARK  0 active torsions:
REMARK  status: ('A' for Active; 'I' for Inactive)
ROOT
ATOM      1  O1  BZF d   1       2.444   1.725   1.350  0.00  0.00    -0.204 OA
ATOM      2  C2  BZF d   1       2.843   2.667   2.278  0.00  0.00     0.174 A 
ATOM      3  C3  BZF d   1       1.795   3.414   2.683  0.00  0.00    -0.012 A 
ATOM      4  C3A BZF d   1       0.655   2.846   2.032  0.00  0.00    -0.107 A 
ATOM      5  C4  BZF d   1      -0.679   3.140   2.049  0.00  0.00     0.055 A 
ATOM      6  C5  BZF d   1      -1.519   2.440   1.243  0.00  0.00    -0.016 A 
ATOM      7  C6  BZF d   1      -1.061   1.443   0.406  0.00  0.00     0.022 A 
ATOM      8  C7  BZF d   1       0.252   1.112   0.359  0.00  0.00     0.029 A 
ATOM      9  C7A BZF d   1       1.100   1.796   1.196  0.00  0.00     0.058 A 
ENDROOT
TORSDOF 0
ENDMDL
