MODEL 1
REMARK minimizedAffinity 0.758968294
REMARK minimizedRMSD -1
REMARK  0 active torsions:
REMARK  status: ('A' for Active; 'I' for Inactive)
ROOT
ATOM      1  O1  BZF d   1      -4.732   3.090  -5.977  0.00  0.00    -0.204 OA
ATOM      2  C2  BZF d   1      -5.750   4.024  -6.000  0.00  0.00     0.174 A 
ATOM      3  C3  BZF d   1      -5.251   5.277  -5.957  0.00  0.00    -0.012 A 
ATOM      4  C3A BZF d   1      -3.830   5.117  -5.998  0.00  0.00    -0.107 A 
ATOM      5  C4  BZF d   1      -2.786   5.997  -5.999  0.00  0.00     0.055 A 
ATOM      6  C5  BZF d   1      -1.515   5.515  -5.970  0.00  0.00    -0.016 A 
ATOM      7  C6  BZF d   1      -1.253   4.162  -5.934  0.00  0.00     0.022 A 
ATOM      8  C7  BZF d   1      -2.256   3.250  -5.937  0.00  0.00     0.029 A 
ATOM      9  C7A BZF d   1      -3.540   3.733  -5.999  0.00  0.00     0.058 A 
ENDROOT
TORSDOF 0
ENDMDL
