MODEL 1
REMARK minimizedAffinity 9.33781433
REMARK minimizedRMSD -1
REMARK  0 active torsions:
REMARK  status: ('A' for Active; 'I' for Inactive)
ROOT
ATOM      1  O1  BZF d   1       2.514   2.498   1.836  0.00  0.00    -0.204 OA
ATOM      2  C2  BZF d   1       3.408   3.044   2.736  0.00  0.00     0.174 A 
ATOM      3  C3  BZF d   1       2.757   3.670   3.737  0.00  0.00    -0.012 A 
ATOM      4  C3A BZF d   1       1.368   3.427   3.493  0.00  0.00    -0.107 A 
ATOM      5  C4  BZF d   1       0.224   3.779   4.150  0.00  0.00     0.055 A 
ATOM      6  C5  BZF d   1      -0.977   3.445   3.609  0.00  0.00    -0.016 A 
ATOM      7  C6  BZF d   1      -1.071   2.765   2.412  0.00  0.00     0.022 A 
ATOM      8  C7  BZF d   1       0.037   2.391   1.727  0.00  0.00     0.029 A 
ATOM      9  C7A BZF d   1       1.252   2.698   2.287  0.00  0.00     0.058 A 
ENDROOT
TORSDOF 0
ENDMDL
