MODEL 1
REMARK minimizedAffinity 2.76539302
REMARK minimizedRMSD -1
REMARK  0 active torsions:
REMARK  status: ('A' for Active; 'I' for Inactive)
ROOT
ATOM      1  O1  BZF d   1      -0.605  -2.850  -2.622  0.00  0.00    -0.204 OA
ATOM      2  C2  BZF d   1      -1.742  -3.343  -2.011  0.00  0.00     0.174 A 
ATOM      3  C3  BZF d   1      -1.840  -2.887  -0.745  0.00  0.00    -0.012 A 
ATOM      4  C3A BZF d   1      -0.742  -1.985  -0.583  0.00  0.00    -0.107 A 
ATOM      5  C4  BZF d   1      -0.312  -1.206   0.452  0.00  0.00     0.055 A 
ATOM      6  C5  BZF d   1       0.839  -0.497   0.312  0.00  0.00    -0.016 A 
ATOM      7  C6  BZF d   1       1.586  -0.547  -0.847  0.00  0.00     0.022 A 
ATOM      8  C7  BZF d   1       1.197  -1.302  -1.903  0.00  0.00     0.029 A 
ATOM      9  C7A BZF d   1       0.018  -1.995  -1.776  0.00  0.00     0.058 A 
ENDROOT
TORSDOF 0
ENDMDL
