MODEL 1
REMARK minimizedAffinity -0.32267338
REMARK minimizedRMSD -1
REMARK  0 active torsions:
REMARK  status: ('A' for Active; 'I' for Inactive)
ROOT
ATOM      1  O1  BZF d   1       3.065   2.089   1.207  0.00  0.00    -0.204 OA
ATOM      2  C2  BZF d   1       3.203   3.039   2.200  0.00  0.00     0.174 A 
ATOM      3  C3  BZF d   1       2.003   3.550   2.543  0.00  0.00    -0.012 A 
ATOM      4  C3A BZF d   1       1.046   2.811   1.778  0.00  0.00    -0.107 A 
ATOM      5  C4  BZF d   1      -0.316   2.845   1.693  0.00  0.00     0.055 A 
ATOM      6  C5  BZF d   1      -0.942   2.040   0.794  0.00  0.00    -0.016 A 
ATOM      7  C6  BZF d   1      -0.238   1.195  -0.038  0.00  0.00     0.022 A 
ATOM      8  C7  BZF d   1       1.115   1.122   0.014  0.00  0.00     0.029 A 
ATOM      9  C7A BZF d   1       1.748   1.910   0.944  0.00  0.00     0.058 A 
ENDROOT
TORSDOF 0
ENDMDL
