MODEL 1
REMARK minimizedAffinity -3.27220893
REMARK minimizedRMSD -1
REMARK  0 active torsions:
REMARK  status: ('A' for Active; 'I' for Inactive)
ROOT
ATOM      1  O1  BZF d   1      -1.697   4.491  -5.231  0.00  0.00    -0.204 OA
ATOM      2  C2  BZF d   1      -1.529   3.187  -5.654  0.00  0.00     0.174 A 
ATOM      3  C3  BZF d   1      -2.715   2.629  -5.969  0.00  0.00    -0.012 A 
ATOM      4  C3A BZF d   1      -3.677   3.678  -5.817  0.00  0.00    -0.107 A 
ATOM      5  C4  BZF d   1      -5.028   3.747  -6.000  0.00  0.00     0.055 A 
ATOM      6  C5  BZF d   1      -5.678   4.900  -5.693  0.00  0.00    -0.016 A 
ATOM      7  C6  BZF d   1      -5.010   6.000  -5.196  0.00  0.00     0.022 A 
ATOM      8  C7  BZF d   1      -3.669   5.981  -5.002  0.00  0.00     0.029 A 
ATOM      9  C7A BZF d   1      -3.004   4.828  -5.343  0.00  0.00     0.058 A 
ENDROOT
TORSDOF 0
ENDMDL
