MODEL 1
REMARK minimizedAffinity 1.72011101
REMARK minimizedRMSD -1
REMARK  0 active torsions:
REMARK  status: ('A' for Active; 'I' for Inactive)
ROOT
ATOM      1  O1  BZF d   1      -4.804   5.901  -5.975  0.00  0.00    -0.204 OA
ATOM      2  C2  BZF d   1      -5.964   5.151  -5.959  0.00  0.00     0.174 A 
ATOM      3  C3  BZF d   1      -5.683   3.833  -5.999  0.00  0.00    -0.012 A 
ATOM      4  C3A BZF d   1      -4.255   3.752  -5.949  0.00  0.00    -0.107 A 
ATOM      5  C4  BZF d   1      -3.374   2.708  -5.942  0.00  0.00     0.055 A 
ATOM      6  C5  BZF d   1      -2.041   2.970  -5.962  0.00  0.00    -0.016 A 
ATOM      7  C6  BZF d   1      -1.554   4.260  -5.995  0.00  0.00     0.022 A 
ATOM      8  C7  BZF d   1      -2.389   5.328  -5.999  0.00  0.00     0.029 A 
ATOM      9  C7A BZF d   1      -3.737   5.067  -5.945  0.00  0.00     0.058 A 
ENDROOT
TORSDOF 0
ENDMDL
