MODEL 1
REMARK minimizedAffinity -1.10397589
REMARK minimizedRMSD -1
REMARK  0 active torsions:
REMARK  status: ('A' for Active; 'I' for Inactive)
ROOT
ATOM      1  O1  BZF d   1       1.622   2.238   1.056  0.00  0.00    -0.204 OA
ATOM      2  C2  BZF d   1       2.308   1.087   0.720  0.00  0.00     0.174 A 
ATOM      3  C3  BZF d   1       1.453   0.066   0.505  0.00  0.00    -0.012 A 
ATOM      4  C3A BZF d   1       0.146   0.637   0.629  0.00  0.00    -0.107 A 
ATOM      5  C4  BZF d   1      -1.115   0.129   0.508  0.00  0.00     0.055 A 
ATOM      6  C5  BZF d   1      -2.179   0.936   0.762  0.00  0.00    -0.016 A 
ATOM      7  C6  BZF d   1      -2.018   2.252   1.144  0.00  0.00     0.022 A 
ATOM      8  C7  BZF d   1      -0.786   2.801   1.273  0.00  0.00     0.029 A 
ATOM      9  C7A BZF d   1       0.290   1.998   0.984  0.00  0.00     0.058 A 
ENDROOT
TORSDOF 0
ENDMDL
