MODEL 1
REMARK minimizedAffinity 4.71521139
REMARK minimizedRMSD -1
REMARK  0 active torsions:
REMARK  status: ('A' for Active; 'I' for Inactive)
ROOT
ATOM      1  O1  BZF d   1      -1.820   3.098   1.902  0.00  0.00    -0.204 OA
ATOM      2  C2  BZF d   1      -2.486   2.200   1.090  0.00  0.00     0.174 A 
ATOM      3  C3  BZF d   1      -1.617   1.351   0.505  0.00  0.00    -0.012 A 
ATOM      4  C3A BZF d   1      -0.338   1.684   1.052  0.00  0.00    -0.107 A 
ATOM      5  C4  BZF d   1       0.919   1.182   0.872  0.00  0.00     0.055 A 
ATOM      6  C5  BZF d   1       1.965   1.780   1.501  0.00  0.00    -0.016 A 
ATOM      7  C6  BZF d   1       1.791   2.882   2.312  0.00  0.00     0.022 A 
ATOM      8  C7  BZF d   1       0.562   3.412   2.525  0.00  0.00     0.029 A 
ATOM      9  C7A BZF d   1      -0.501   2.790   1.917  0.00  0.00     0.058 A 
ENDROOT
TORSDOF 0
ENDMDL
