MODEL 1
REMARK minimizedAffinity 2.49889898
REMARK minimizedRMSD -1
REMARK  0 active torsions:
REMARK  status: ('A' for Active; 'I' for Inactive)
ROOT
ATOM      1  O1  BZF d   1      -2.720   1.708   1.485  0.00  0.00    -0.204 OA
ATOM      2  C2  BZF d   1      -3.212   0.447   1.205  0.00  0.00     0.174 A 
ATOM      3  C3  BZF d   1      -2.227  -0.365   0.770  0.00  0.00    -0.012 A 
ATOM      4  C3A BZF d   1      -1.029   0.412   0.866  0.00  0.00    -0.107 A 
ATOM      5  C4  BZF d   1       0.283   0.150   0.592  0.00  0.00     0.055 A 
ATOM      6  C5  BZF d   1       1.197   1.148   0.724  0.00  0.00    -0.016 A 
ATOM      7  C6  BZF d   1       0.832   2.418   1.121  0.00  0.00     0.022 A 
ATOM      8  C7  BZF d   1      -0.457   2.724   1.408  0.00  0.00     0.029 A 
ATOM      9  C7A BZF d   1      -1.377   1.709   1.308  0.00  0.00     0.058 A 
ENDROOT
TORSDOF 0
ENDMDL
