MODEL 1
REMARK minimizedAffinity 8.50741768
REMARK minimizedRMSD -1
REMARK  0 active torsions:
REMARK  status: ('A' for Active; 'I' for Inactive)
ROOT
ATOM      1  O1  BZF d   1      -1.817   2.401   1.499  0.00  0.00    -0.204 OA
ATOM      2  C2  BZF d   1      -0.863   3.401   1.466  0.00  0.00     0.174 A 
ATOM      3  C3  BZF d   1       0.355   2.891   1.191  0.00  0.00    -0.012 A 
ATOM      4  C3A BZF d   1       0.134   1.498   0.951  0.00  0.00    -0.107 A 
ATOM      5  C4  BZF d   1       0.957   0.462   0.615  0.00  0.00     0.055 A 
ATOM      6  C5  BZF d   1       0.439  -0.792   0.527  0.00  0.00    -0.016 A 
ATOM      7  C6  BZF d   1      -0.894  -1.045   0.773  0.00  0.00     0.022 A 
ATOM      8  C7  BZF d   1      -1.751  -0.048   1.105  0.00  0.00     0.029 A 
ATOM      9  C7A BZF d   1      -1.237   1.224   1.162  0.00  0.00     0.058 A 
ENDROOT
TORSDOF 0
ENDMDL
