MODEL 1
REMARK minimizedAffinity 2.12685013
REMARK minimizedRMSD -1
REMARK  0 active torsions:
REMARK  status: ('A' for Active; 'I' for Inactive)
ROOT
ATOM      1  O1  BZF d   1      -2.514   5.996  -5.226  0.00  0.00    -0.204 OA
ATOM      2  C2  BZF d   1      -1.490   5.075  -5.334  0.00  0.00     0.174 A 
ATOM      3  C3  BZF d   1      -1.978   3.843  -5.582  0.00  0.00    -0.012 A 
ATOM      4  C3A BZF d   1      -3.391   4.019  -5.723  0.00  0.00    -0.107 A 
ATOM      5  C4  BZF d   1      -4.422   3.165  -5.992  0.00  0.00     0.055 A 
ATOM      6  C5  BZF d   1      -5.694   3.642  -5.989  0.00  0.00    -0.016 A 
ATOM      7  C6  BZF d   1      -5.972   4.966  -5.716  0.00  0.00     0.022 A 
ATOM      8  C7  BZF d   1      -4.982   5.852  -5.448  0.00  0.00     0.029 A 
ATOM      9  C7A BZF d   1      -3.693   5.380  -5.483  0.00  0.00     0.058 A 
ENDROOT
TORSDOF 0
ENDMDL
