MODEL 1
REMARK minimizedAffinity 2.54995346
REMARK minimizedRMSD -1
REMARK  0 active torsions:
REMARK  status: ('A' for Active; 'I' for Inactive)
ROOT
ATOM      1  O1  BZF d   1      -2.576   2.501  -5.964  0.00  0.00    -0.204 OA
ATOM      2  C2  BZF d   1      -1.296   3.020  -5.951  0.00  0.00     0.174 A 
ATOM      3  C3  BZF d   1      -1.326   4.368  -6.000  0.00  0.00    -0.012 A 
ATOM      4  C3A BZF d   1      -2.713   4.716  -5.953  0.00  0.00    -0.107 A 
ATOM      5  C4  BZF d   1      -3.383   5.906  -5.953  0.00  0.00     0.055 A 
ATOM      6  C5  BZF d   1      -4.742   5.899  -5.974  0.00  0.00    -0.016 A 
ATOM      7  C6  BZF d   1      -5.461   4.722  -6.000  0.00  0.00     0.022 A 
ATOM      8  C7  BZF d   1      -4.841   3.517  -5.995  0.00  0.00     0.029 A 
ATOM      9  C7A BZF d   1      -3.468   3.521  -5.941  0.00  0.00     0.058 A 
ENDROOT
TORSDOF 0
ENDMDL
