MODEL 1
REMARK minimizedAffinity 0.536831558
REMARK minimizedRMSD -1
REMARK  0 active torsions:
REMARK  status: ('A' for Active; 'I' for Inactive)
ROOT
ATOM      1  O1  BZF d   1      -3.061   2.525  -5.970  0.00  0.00    -0.204 OA
ATOM      2  C2  BZF d   1      -1.762   2.996  -5.956  0.00  0.00     0.174 A 
ATOM      3  C3  BZF d   1      -1.742   4.344  -6.000  0.00  0.00    -0.012 A 
ATOM      4  C3A BZF d   1      -3.116   4.743  -5.951  0.00  0.00    -0.107 A 
ATOM      5  C4  BZF d   1      -3.741   5.956  -5.948  0.00  0.00     0.055 A 
ATOM      6  C5  BZF d   1      -5.099   5.999  -5.968  0.00  0.00    -0.016 A 
ATOM      7  C6  BZF d   1      -5.862   4.850  -5.998  0.00  0.00     0.022 A 
ATOM      8  C7  BZF d   1      -5.286   3.623  -5.998  0.00  0.00     0.029 A 
ATOM      9  C7A BZF d   1      -3.915   3.576  -5.944  0.00  0.00     0.058 A 
ENDROOT
TORSDOF 0
ENDMDL
