MODEL 1
REMARK minimizedAffinity 7.9763732
REMARK minimizedRMSD -1
REMARK  0 active torsions:
REMARK  status: ('A' for Active; 'I' for Inactive)
ROOT
ATOM      1  O1  BZF d   1      -1.845   2.161   1.522  0.00  0.00    -0.204 OA
ATOM      2  C2  BZF d   1      -1.227   3.397   1.504  0.00  0.00     0.174 A 
ATOM      3  C3  BZF d   1       0.068   3.280   1.149  0.00  0.00    -0.012 A 
ATOM      4  C3A BZF d   1       0.250   1.894   0.841  0.00  0.00    -0.107 A 
ATOM      5  C4  BZF d   1       1.319   1.160   0.412  0.00  0.00     0.055 A 
ATOM      6  C5  BZF d   1       1.184  -0.186   0.277  0.00  0.00    -0.016 A 
ATOM      7  C6  BZF d   1      -0.001  -0.829   0.566  0.00  0.00     0.022 A 
ATOM      8  C7  BZF d   1      -1.090  -0.143   0.990  0.00  0.00     0.029 A 
ATOM      9  C7A BZF d   1      -0.967   1.221   1.096  0.00  0.00     0.058 A 
ENDROOT
TORSDOF 0
ENDMDL
