MODEL 1
REMARK minimizedAffinity 5.30078745
REMARK minimizedRMSD -1
REMARK  0 active torsions:
REMARK  status: ('A' for Active; 'I' for Inactive)
ROOT
ATOM      1  O1  BZF d   1       3.264   2.921  -4.464  0.00  0.00    -0.204 OA
ATOM      2  C2  BZF d   1       3.829   2.856  -3.205  0.00  0.00     0.174 A 
ATOM      3  C3  BZF d   1       3.613   1.647  -2.646  0.00  0.00    -0.012 A 
ATOM      4  C3A BZF d   1       2.947   0.880  -3.654  0.00  0.00    -0.107 A 
ATOM      5  C4  BZF d   1       2.484  -0.403  -3.704  0.00  0.00     0.055 A 
ATOM      6  C5  BZF d   1       1.814  -0.821  -4.810  0.00  0.00    -0.016 A 
ATOM      7  C6  BZF d   1       1.585   0.018  -5.880  0.00  0.00     0.022 A 
ATOM      8  C7  BZF d   1       2.029   1.298  -5.879  0.00  0.00     0.029 A 
ATOM      9  C7A BZF d   1       2.735   1.714  -4.776  0.00  0.00     0.058 A 
ENDROOT
TORSDOF 0
ENDMDL
