MODEL 1
REMARK minimizedAffinity 9.63231945
REMARK minimizedRMSD -1
REMARK  0 active torsions:
REMARK  status: ('A' for Active; 'I' for Inactive)
ROOT
ATOM      1  C   UNL d   1       3.751   2.392   3.731  0.00  0.00     0.124 A 
ATOM      2  C1  UNL d   1       4.551   2.107   2.633  0.00  0.00     0.062 A 
ATOM      3  C2  UNL d   1       5.194   3.136   1.950  0.00  0.00     0.162 A 
ATOM      4  C3  UNL d   1       5.040   4.459   2.364  0.00  0.00    -0.034 A 
ATOM      5  C4  UNL d   1       4.233   4.737   3.468  0.00  0.00     0.162 A 
ATOM      6  C5  UNL d   1       3.592   3.706   4.147  0.00  0.00     0.062 A 
ATOM      7  F   UNL d   1       2.819   3.983   5.207  0.00  0.00    -0.097 F 
ATOM      8  F1  UNL d   1       4.063   5.998   3.892  0.00  0.00    -0.096 F 
ATOM      9  I   UNL d   1       6.000   6.000   1.345  0.00  0.00    -0.060 I 
ATOM     10  F2  UNL d   1       5.962   2.832   0.893  0.00  0.00    -0.096 F 
ATOM     11  F3  UNL d   1       4.705   0.838   2.228  0.00  0.00    -0.097 F 
ATOM     12  F4  UNL d   1       3.132   1.400   4.385  0.00  0.00    -0.092 F 
ENDROOT
TORSDOF 0
ENDMDL
