MODEL 1
REMARK minimizedAffinity 25.1909351
REMARK minimizedRMSD -1
REMARK  0 active torsions:
REMARK  status: ('A' for Active; 'I' for Inactive)
ROOT
ATOM      1  C   UNL d   1       5.598   1.385   3.208  0.00  0.00     0.124 A 
ATOM      2  C1  UNL d   1       5.210   1.802   1.943  0.00  0.00     0.062 A 
ATOM      3  C2  UNL d   1       4.791   3.113   1.736  0.00  0.00     0.162 A 
ATOM      4  C3  UNL d   1       4.759   4.018   2.797  0.00  0.00    -0.034 A 
ATOM      5  C4  UNL d   1       5.149   3.591   4.067  0.00  0.00     0.162 A 
ATOM      6  C5  UNL d   1       5.567   2.279   4.269  0.00  0.00     0.062 A 
ATOM      7  F   UNL d   1       5.942   1.878   5.493  0.00  0.00    -0.097 F 
ATOM      8  F1  UNL d   1       5.131   4.434   5.110  0.00  0.00    -0.096 F 
ATOM      9  I   UNL d   1       4.133   5.979   2.491  0.00  0.00    -0.060 I 
ATOM     10  F2  UNL d   1       4.421   3.488   0.502  0.00  0.00    -0.096 F 
ATOM     11  F3  UNL d   1       5.237   0.940   0.916  0.00  0.00    -0.097 F 
ATOM     12  F4  UNL d   1       6.000   0.123   3.405  0.00  0.00    -0.092 F 
ENDROOT
TORSDOF 0
ENDMDL
