MODEL 1
REMARK minimizedAffinity 23.2975483
REMARK minimizedRMSD -1
REMARK  0 active torsions:
REMARK  status: ('A' for Active; 'I' for Inactive)
ROOT
ATOM      1  C   UNL d   1       0.023  -1.644   3.397  0.00  0.00     0.124 A 
ATOM      2  C1  UNL d   1       1.123  -0.796   3.367  0.00  0.00     0.062 A 
ATOM      3  C2  UNL d   1       0.984   0.514   2.918  0.00  0.00     0.162 A 
ATOM      4  C3  UNL d   1      -0.259   0.986   2.496  0.00  0.00    -0.034 A 
ATOM      5  C4  UNL d   1      -1.359   0.128   2.529  0.00  0.00     0.162 A 
ATOM      6  C5  UNL d   1      -1.216  -1.181   2.978  0.00  0.00     0.062 A 
ATOM      7  F   UNL d   1      -2.279  -1.998   3.006  0.00  0.00    -0.097 F 
ATOM      8  F1  UNL d   1      -2.569   0.549   2.130  0.00  0.00    -0.096 F 
ATOM      9  I   UNL d   1      -0.469   2.944   1.825  0.00  0.00    -0.060 I 
ATOM     10  F2  UNL d   1       2.064   1.310   2.900  0.00  0.00    -0.096 F 
ATOM     11  F3  UNL d   1       2.321  -1.241   3.771  0.00  0.00    -0.097 F 
ATOM     12  F4  UNL d   1       0.159  -2.904   3.828  0.00  0.00    -0.092 F 
ENDROOT
TORSDOF 0
ENDMDL
