MODEL 1
REMARK minimizedAffinity 26.0560017
REMARK minimizedRMSD -1
REMARK  0 active torsions:
REMARK  status: ('A' for Active; 'I' for Inactive)
ROOT
ATOM      1  C   UNL d   1       1.173  -1.060   1.852  0.00  0.00     0.124 A 
ATOM      2  C1  UNL d   1       0.335   0.036   2.011  0.00  0.00     0.062 A 
ATOM      3  C2  UNL d   1       0.364   0.774   3.191  0.00  0.00     0.162 A 
ATOM      4  C3  UNL d   1       1.235   0.419   4.222  0.00  0.00    -0.034 A 
ATOM      5  C4  UNL d   1       2.073  -0.685   4.055  0.00  0.00     0.162 A 
ATOM      6  C5  UNL d   1       2.040  -1.419   2.874  0.00  0.00     0.062 A 
ATOM      7  F   UNL d   1       2.850  -2.477   2.722  0.00  0.00    -0.097 F 
ATOM      8  F1  UNL d   1       2.922  -1.053   5.026  0.00  0.00    -0.096 F 
ATOM      9  I   UNL d   1       1.281   1.520   5.987  0.00  0.00    -0.060 I 
ATOM     10  F2  UNL d   1      -0.456   1.828   3.317  0.00  0.00    -0.096 F 
ATOM     11  F3  UNL d   1      -0.505   0.384   1.026  0.00  0.00    -0.097 F 
ATOM     12  F4  UNL d   1       1.142  -1.769   0.716  0.00  0.00    -0.092 F 
ENDROOT
TORSDOF 0
ENDMDL
