MODEL 1
REMARK minimizedAffinity 24.9419975
REMARK minimizedRMSD -1
REMARK  0 active torsions:
REMARK  status: ('A' for Active; 'I' for Inactive)
ROOT
ATOM      1  C   UNL d   1       1.852  -0.062   3.926  0.00  0.00     0.124 A 
ATOM      2  C1  UNL d   1       1.307  -0.934   2.993  0.00  0.00     0.062 A 
ATOM      3  C2  UNL d   1       0.062  -0.669   2.430  0.00  0.00     0.162 A 
ATOM      4  C3  UNL d   1      -0.647   0.475   2.797  0.00  0.00    -0.034 A 
ATOM      5  C4  UNL d   1      -0.093   1.347   3.736  0.00  0.00     0.162 A 
ATOM      6  C5  UNL d   1       1.151   1.077   4.296  0.00  0.00     0.062 A 
ATOM      7  F   UNL d   1       1.676   1.921   5.197  0.00  0.00    -0.097 F 
ATOM      8  F1  UNL d   1      -0.748   2.456   4.112  0.00  0.00    -0.096 F 
ATOM      9  I   UNL d   1      -2.508   0.876   1.957  0.00  0.00    -0.060 I 
ATOM     10  F2  UNL d   1      -0.439  -1.529   1.531  0.00  0.00    -0.096 F 
ATOM     11  F3  UNL d   1       1.981  -2.036   2.634  0.00  0.00    -0.097 F 
ATOM     12  F4  UNL d   1       3.049  -0.320   4.467  0.00  0.00    -0.092 F 
ENDROOT
TORSDOF 0
ENDMDL
