MODEL 1
REMARK minimizedAffinity 28.0529976
REMARK minimizedRMSD -1
REMARK  0 active torsions:
REMARK  status: ('A' for Active; 'I' for Inactive)
ROOT
ATOM      1  C   UNL d   1       1.241  -2.088   2.998  0.00  0.00     0.124 A 
ATOM      2  C1  UNL d   1       1.900  -2.598   4.108  0.00  0.00     0.062 A 
ATOM      3  C2  UNL d   1       1.267  -3.521   4.935  0.00  0.00     0.162 A 
ATOM      4  C3  UNL d   1      -0.033  -3.941   4.655  0.00  0.00    -0.034 A 
ATOM      5  C4  UNL d   1      -0.691  -3.422   3.538  0.00  0.00     0.162 A 
ATOM      6  C5  UNL d   1      -0.054  -2.500   2.715  0.00  0.00     0.062 A 
ATOM      7  F   UNL d   1      -0.692  -2.008   1.643  0.00  0.00    -0.097 F 
ATOM      8  F1  UNL d   1      -1.941  -3.804   3.240  0.00  0.00    -0.096 F 
ATOM      9  I   UNL d   1      -0.984  -5.321   5.890  0.00  0.00    -0.060 I 
ATOM     10  F2  UNL d   1       1.929  -3.998   6.000  0.00  0.00    -0.096 F 
ATOM     11  F3  UNL d   1       3.151  -2.201   4.384  0.00  0.00    -0.097 F 
ATOM     12  F4  UNL d   1       1.852  -1.199   2.204  0.00  0.00    -0.092 F 
ENDROOT
TORSDOF 0
ENDMDL
