MODEL 1
REMARK minimizedAffinity 33.7408104
REMARK minimizedRMSD -1
REMARK  0 active torsions:
REMARK  status: ('A' for Active; 'I' for Inactive)
ROOT
ATOM      1  C   UNL d   1      -2.535  -0.838   2.769  0.00  0.00     0.124 A 
ATOM      2  C1  UNL d   1      -1.308  -0.310   2.392  0.00  0.00     0.062 A 
ATOM      3  C2  UNL d   1      -0.739  -0.664   1.173  0.00  0.00     0.162 A 
ATOM      4  C3  UNL d   1      -1.396  -1.551   0.320  0.00  0.00    -0.034 A 
ATOM      5  C4  UNL d   1      -2.630  -2.078   0.706  0.00  0.00     0.162 A 
ATOM      6  C5  UNL d   1      -3.195  -1.721   1.926  0.00  0.00     0.062 A 
ATOM      7  F   UNL d   1      -4.380  -2.232   2.289  0.00  0.00    -0.097 F 
ATOM      8  F1  UNL d   1      -3.289  -2.933  -0.089  0.00  0.00    -0.096 F 
ATOM      9  I   UNL d   1      -0.548  -2.083  -1.505  0.00  0.00    -0.060 I 
ATOM     10  F2  UNL d   1       0.448  -0.138   0.834  0.00  0.00    -0.096 F 
ATOM     11  F3  UNL d   1      -0.668   0.543   3.205  0.00  0.00    -0.097 F 
ATOM     12  F4  UNL d   1      -3.080  -0.496   3.944  0.00  0.00    -0.092 F 
ENDROOT
TORSDOF 0
ENDMDL
