MODEL 1
REMARK minimizedAffinity -3.90423799
REMARK minimizedRMSD -1
REMARK  1 active torsions:
REMARK  status: ('A' for Active; 'I' for Inactive)
REMARK    1  A    between atoms: C1_2  and  C2_3 
ROOT
ATOM      1  C2  UNL d   1       0.293   0.155  -0.866  0.00  0.00    -0.073 A 
ATOM      2  C3  UNL d   1      -1.059  -0.203  -0.899  0.00  0.00    -0.002 A 
ATOM      3  C4  UNL d   1      -1.541  -1.043  -1.904  0.00  0.00     0.004 A 
ATOM      4  C5  UNL d   1      -0.677  -1.539  -2.880  0.00  0.00    -0.004 A 
ATOM      5  C6  UNL d   1       0.681  -1.202  -2.856  0.00  0.00    -0.075 A 
ATOM      6  C7  UNL d   1       1.624  -1.725  -3.900  0.00  0.00     0.076 C 
ATOM      7  C8  UNL d   1       1.157  -0.356  -1.846  0.00  0.00     0.001 A 
ENDROOT
BRANCH   1   8
ATOM      8  C1  UNL d   1       0.820   1.056   0.221  0.00  0.00     0.053 C 
ATOM      9  C   UNL d   1       1.508   0.273   1.328  0.00  0.00     0.018 C 
ENDBRANCH   1   8
TORSDOF 1
ENDMDL
