MODEL 1
REMARK minimizedAffinity 0.739044785
REMARK minimizedRMSD -1
REMARK  1 active torsions:
REMARK  status: ('A' for Active; 'I' for Inactive)
REMARK    1  A    between atoms: C1_2  and  C2_3 
ROOT
ATOM      1  C2  UNL d   1      -0.257   0.278  -0.690  0.00  0.00    -0.073 A 
ATOM      2  C3  UNL d   1      -1.431   0.913  -0.271  0.00  0.00    -0.002 A 
ATOM      3  C4  UNL d   1      -2.676   0.438  -0.684  0.00  0.00     0.004 A 
ATOM      4  C5  UNL d   1      -2.760  -0.680  -1.514  0.00  0.00    -0.004 A 
ATOM      5  C6  UNL d   1      -1.598  -1.335  -1.935  0.00  0.00    -0.075 A 
ATOM      6  C7  UNL d   1      -1.672  -2.538  -2.829  0.00  0.00     0.076 C 
ATOM      7  C8  UNL d   1      -0.352  -0.850  -1.517  0.00  0.00     0.001 A 
ENDROOT
BRANCH   1   8
ATOM      8  C1  UNL d   1       1.090   0.784  -0.241  0.00  0.00     0.053 C 
ATOM      9  C   UNL d   1       1.398   0.388   1.194  0.00  0.00     0.018 C 
ENDBRANCH   1   8
TORSDOF 1
ENDMDL
