MODEL 1
REMARK minimizedAffinity -5.01780128
REMARK minimizedRMSD -1
REMARK  1 active torsions:
REMARK  status: ('A' for Active; 'I' for Inactive)
REMARK    1  A    between atoms: C1_2  and  C2_3 
ROOT
ATOM      1  C2  UNL d   1      -1.160  -0.543   0.773  0.00  0.00    -0.073 A 
ATOM      2  C3  UNL d   1      -1.352  -1.053   2.062  0.00  0.00    -0.002 A 
ATOM      3  C4  UNL d   1      -0.376  -0.874   3.044  0.00  0.00     0.004 A 
ATOM      4  C5  UNL d   1       0.797  -0.179   2.749  0.00  0.00    -0.004 A 
ATOM      5  C6  UNL d   1       1.002   0.348   1.470  0.00  0.00    -0.075 A 
ATOM      6  C7  UNL d   1       2.259   1.096   1.136  0.00  0.00     0.076 C 
ATOM      7  C8  UNL d   1       0.018   0.162   0.489  0.00  0.00     0.001 A 
ENDROOT
BRANCH   1   8
ATOM      8  C1  UNL d   1      -2.214  -0.729  -0.288  0.00  0.00     0.053 C 
ATOM      9  C   UNL d   1      -2.881   0.585  -0.664  0.00  0.00     0.018 C 
ENDBRANCH   1   8
TORSDOF 1
ENDMDL
