MODEL 1
REMARK minimizedAffinity -6.16940355
REMARK minimizedRMSD -1
REMARK  1 active torsions:
REMARK  status: ('A' for Active; 'I' for Inactive)
REMARK    1  A    between atoms: C1_2  and  C2_3 
ROOT
ATOM      1  C2  UNL d   1      -2.045  -0.064   1.404  0.00  0.00    -0.073 A 
ATOM      2  C3  UNL d   1      -2.212  -0.361   2.762  0.00  0.00    -0.002 A 
ATOM      3  C4  UNL d   1      -1.101  -0.482   3.598  0.00  0.00     0.004 A 
ATOM      4  C5  UNL d   1       0.184  -0.299   3.089  0.00  0.00    -0.004 A 
ATOM      5  C6  UNL d   1       0.371   0.010   1.738  0.00  0.00    -0.075 A 
ATOM      6  C7  UNL d   1       1.748   0.207   1.175  0.00  0.00     0.076 C 
ATOM      7  C8  UNL d   1      -0.749   0.127   0.904  0.00  0.00     0.001 A 
ENDROOT
BRANCH   1   8
ATOM      8  C1  UNL d   1      -3.241   0.073   0.498  0.00  0.00     0.053 C 
ATOM      9  C   UNL d   1      -2.855   0.582  -0.882  0.00  0.00     0.018 C 
ENDBRANCH   1   8
TORSDOF 1
ENDMDL
