MODEL 1
REMARK minimizedAffinity -6.84125805
REMARK minimizedRMSD -1
REMARK  1 active torsions:
REMARK  status: ('A' for Active; 'I' for Inactive)
REMARK    1  A    between atoms: C1_2  and  C2_3 
ROOT
ATOM      1  C2  UNL d   1      -1.783  -0.022  -0.642  0.00  0.00    -0.073 A 
ATOM      2  C3  UNL d   1      -3.106   0.271  -0.295  0.00  0.00    -0.002 A 
ATOM      3  C4  UNL d   1      -3.500   0.275   1.044  0.00  0.00     0.004 A 
ATOM      4  C5  UNL d   1      -2.574  -0.006   2.048  0.00  0.00    -0.004 A 
ATOM      5  C6  UNL d   1      -1.244  -0.290   1.723  0.00  0.00    -0.075 A 
ATOM      6  C7  UNL d   1      -0.237  -0.597   2.791  0.00  0.00     0.076 C 
ATOM      7  C8  UNL d   1      -0.857  -0.295   0.376  0.00  0.00     0.001 A 
ENDROOT
BRANCH   1   8
ATOM      8  C1  UNL d   1      -1.351  -0.021  -2.086  0.00  0.00     0.053 C 
ATOM      9  C   UNL d   1      -0.635  -1.307  -2.468  0.00  0.00     0.018 C 
ENDBRANCH   1   8
TORSDOF 1
ENDMDL
