MODEL 1
REMARK minimizedAffinity -7.00343704
REMARK minimizedRMSD -1
REMARK  1 active torsions:
REMARK  status: ('A' for Active; 'I' for Inactive)
REMARK    1  A    between atoms: C1_2  and  C2_3 
ROOT
ATOM      1  C2  UNL d   1      -0.958  -0.002  -0.367  0.00  0.00    -0.073 A 
ATOM      2  C3  UNL d   1      -2.294   0.383  -0.528  0.00  0.00    -0.002 A 
ATOM      3  C4  UNL d   1      -3.164   0.384   0.563  0.00  0.00     0.004 A 
ATOM      4  C5  UNL d   1      -2.706   0.008   1.826  0.00  0.00    -0.004 A 
ATOM      5  C6  UNL d   1      -1.372  -0.369   2.009  0.00  0.00    -0.075 A 
ATOM      6  C7  UNL d   1      -0.864  -0.778   3.360  0.00  0.00     0.076 C 
ATOM      7  C8  UNL d   1      -0.505  -0.370   0.908  0.00  0.00     0.001 A 
ENDROOT
BRANCH   1   8
ATOM      8  C1  UNL d   1      -0.014   0.002  -1.542  0.00  0.00     0.053 C 
ATOM      9  C   UNL d   1      -0.416  -1.013  -2.600  0.00  0.00     0.018 C 
ENDBRANCH   1   8
TORSDOF 1
ENDMDL
