MODEL 1
REMARK minimizedAffinity -3.98684812
REMARK minimizedRMSD -1
REMARK  1 active torsions:
REMARK  status: ('A' for Active; 'I' for Inactive)
REMARK    1  A    between atoms: C1_2  and  C2_3 
ROOT
ATOM      1  C2  UNL d   1      -1.644  -1.288   0.526  0.00  0.00    -0.073 A 
ATOM      2  C3  UNL d   1      -2.100  -0.840  -0.719  0.00  0.00    -0.002 A 
ATOM      3  C4  UNL d   1      -1.418   0.171  -1.397  0.00  0.00     0.004 A 
ATOM      4  C5  UNL d   1      -0.272   0.739  -0.842  0.00  0.00    -0.004 A 
ATOM      5  C6  UNL d   1       0.207   0.297   0.395  0.00  0.00    -0.075 A 
ATOM      6  C7  UNL d   1       1.438   0.899   1.007  0.00  0.00     0.076 C 
ATOM      7  C8  UNL d   1      -0.485  -0.717   1.072  0.00  0.00     0.001 A 
ENDROOT
BRANCH   1   8
ATOM      8  C1  UNL d   1      -2.373  -2.384   1.260  0.00  0.00     0.053 C 
ATOM      9  C   UNL d   1      -1.507  -3.026   2.332  0.00  0.00     0.018 C 
ENDBRANCH   1   8
TORSDOF 1
ENDMDL
