MODEL 1
REMARK minimizedAffinity -4.95954657
REMARK minimizedRMSD -1
REMARK  1 active torsions:
REMARK  status: ('A' for Active; 'I' for Inactive)
REMARK    1  A    between atoms: C1_2  and  C2_3 
ROOT
ATOM      1  C2  UNL d   1       0.474  -0.472   0.125  0.00  0.00    -0.073 A 
ATOM      2  C3  UNL d   1      -0.759   0.158  -0.075  0.00  0.00    -0.002 A 
ATOM      3  C4  UNL d   1      -1.248   0.357  -1.366  0.00  0.00     0.004 A 
ATOM      4  C5  UNL d   1      -0.513  -0.077  -2.470  0.00  0.00    -0.004 A 
ATOM      5  C6  UNL d   1       0.716  -0.719  -2.290  0.00  0.00    -0.075 A 
ATOM      6  C7  UNL d   1       1.520  -1.190  -3.466  0.00  0.00     0.076 C 
ATOM      7  C8  UNL d   1       1.202  -0.913  -0.989  0.00  0.00     0.001 A 
ENDROOT
BRANCH   1   8
ATOM      8  C1  UNL d   1       1.003  -0.695   1.519  0.00  0.00     0.053 C 
ATOM      9  C   UNL d   1       0.226   0.098   2.557  0.00  0.00     0.018 C 
ENDBRANCH   1   8
TORSDOF 1
ENDMDL
