MODEL 1
REMARK minimizedAffinity -4.59985161
REMARK minimizedRMSD -1
REMARK  1 active torsions:
REMARK  status: ('A' for Active; 'I' for Inactive)
REMARK    1  A    between atoms: C1_2  and  C2_3 
ROOT
ATOM      1  C2  UNL d   1       0.434  -0.130   0.388  0.00  0.00    -0.073 A 
ATOM      2  C3  UNL d   1       1.619  -0.121   1.133  0.00  0.00    -0.002 A 
ATOM      3  C4  UNL d   1       1.580   0.046   2.518  0.00  0.00     0.004 A 
ATOM      4  C5  UNL d   1       0.358   0.198   3.173  0.00  0.00    -0.004 A 
ATOM      5  C6  UNL d   1      -0.838   0.179   2.447  0.00  0.00    -0.075 A 
ATOM      6  C7  UNL d   1      -2.161   0.343   3.136  0.00  0.00     0.076 C 
ATOM      7  C8  UNL d   1      -0.790   0.014   1.056  0.00  0.00     0.001 A 
ENDROOT
BRANCH   1   8
ATOM      8  C1  UNL d   1       0.471  -0.317  -1.106  0.00  0.00     0.053 C 
ATOM      9  C   UNL d   1      -0.760  -1.046  -1.620  0.00  0.00     0.018 C 
ENDBRANCH   1   8
TORSDOF 1
ENDMDL
