MODEL 1
REMARK minimizedAffinity -0.741128266
REMARK minimizedRMSD -1
REMARK  0 active torsions:
REMARK  status: ('A' for Active; 'I' for Inactive)
ROOT
ATOM      1  C4' PXY d   1       1.344  -1.023   3.697  0.00  0.00     0.077 C 
ATOM      2  C1' PXY d   1      -2.752   0.806   0.052  0.00  0.00     0.077 C 
ATOM      3  C1  PXY d   1      -1.685   0.330   1.018  0.00  0.00    -0.082 A 
ATOM      4  C2  PXY d   1      -0.428   0.248   0.615  0.00  0.00     0.003 A 
ATOM      5  C3  PXY d   1       0.545  -0.211   1.466  0.00  0.00     0.003 A 
ATOM      6  C4  PXY d   1       0.236  -0.539   2.759  0.00  0.00    -0.082 A 
ATOM      7  C5  PXY d   1      -1.043  -0.447   3.181  0.00  0.00     0.003 A 
ATOM      8  C6  PXY d   1      -2.022  -0.018   2.289  0.00  0.00     0.003 A 
ENDROOT
TORSDOF 0
ENDMDL
