MODEL 1
REMARK minimizedAffinity 3.4650209
REMARK minimizedRMSD -1
REMARK  0 active torsions:
REMARK  status: ('A' for Active; 'I' for Inactive)
ROOT
ATOM      1  C4' PXY d   1      -1.782  -0.764   2.604  0.00  0.00     0.077 C 
ATOM      2  C1' PXY d   1       2.990  -2.050   5.602  0.00  0.00     0.077 C 
ATOM      3  C1  PXY d   1       1.746  -1.704   4.809  0.00  0.00    -0.082 A 
ATOM      4  C2  PXY d   1       0.553  -1.979   5.311  0.00  0.00     0.003 A 
ATOM      5  C3  PXY d   1      -0.582  -1.702   4.593  0.00  0.00     0.003 A 
ATOM      6  C4  PXY d   1      -0.498  -1.087   3.373  0.00  0.00    -0.082 A 
ATOM      7  C5  PXY d   1       0.715  -0.793   2.859  0.00  0.00     0.003 A 
ATOM      8  C6  PXY d   1       1.857  -1.120   3.585  0.00  0.00     0.003 A 
ENDROOT
TORSDOF 0
ENDMDL
