MODEL 1
REMARK minimizedAffinity 8.62229824
REMARK minimizedRMSD -1
REMARK  0 active torsions:
REMARK  status: ('A' for Active; 'I' for Inactive)
ROOT
ATOM      1  C4' PXY d   1      -4.217  -1.269   3.746  0.00  0.00     0.077 C 
ATOM      2  C1' PXY d   1       0.737   0.213   1.163  0.00  0.00     0.077 C 
ATOM      3  C1  PXY d   1      -0.557  -0.187   1.843  0.00  0.00    -0.082 A 
ATOM      4  C2  PXY d   1      -1.681   0.437   1.530  0.00  0.00     0.003 A 
ATOM      5  C3  PXY d   1      -2.855   0.110   2.159  0.00  0.00     0.003 A 
ATOM      6  C4  PXY d   1      -2.888  -0.904   3.078  0.00  0.00    -0.082 A 
ATOM      7  C5  PXY d   1      -1.748  -1.553   3.395  0.00  0.00     0.003 A 
ATOM      8  C6  PXY d   1      -0.560  -1.178   2.776  0.00  0.00     0.003 A 
ENDROOT
TORSDOF 0
ENDMDL
