MODEL 1
REMARK minimizedAffinity 1.00986981
REMARK minimizedRMSD -1
REMARK  0 active torsions:
REMARK  status: ('A' for Active; 'I' for Inactive)
ROOT
ATOM      1  C4' PXY d   1      -3.711  -1.391   3.570  0.00  0.00     0.077 C 
ATOM      2  C1' PXY d   1       1.265   0.480   1.299  0.00  0.00     0.077 C 
ATOM      3  C1  PXY d   1      -0.034  -0.022   1.898  0.00  0.00    -0.082 A 
ATOM      4  C2  PXY d   1      -1.186   0.446   1.446  0.00  0.00     0.003 A 
ATOM      5  C3  PXY d   1      -2.369   0.027   1.999  0.00  0.00     0.003 A 
ATOM      6  C4  PXY d   1      -2.375  -0.920   2.988  0.00  0.00    -0.082 A 
ATOM      7  C5  PXY d   1      -1.204  -1.410   3.447  0.00  0.00     0.003 A 
ATOM      8  C6  PXY d   1      -0.013  -0.941   2.901  0.00  0.00     0.003 A 
ENDROOT
TORSDOF 0
ENDMDL
