MODEL 1
REMARK minimizedAffinity 1.80992377
REMARK minimizedRMSD -1
REMARK  0 active torsions:
REMARK  status: ('A' for Active; 'I' for Inactive)
ROOT
ATOM      1  C4' PXY d   1      -3.926  -1.357   3.824  0.00  0.00     0.077 C 
ATOM      2  C1' PXY d   1       1.159   0.158   1.531  0.00  0.00     0.077 C 
ATOM      3  C1  PXY d   1      -0.169  -0.248   2.140  0.00  0.00    -0.082 A 
ATOM      4  C2  PXY d   1      -1.288  -0.044   1.464  0.00  0.00     0.003 A 
ATOM      5  C3  PXY d   1      -2.500  -0.376   2.013  0.00  0.00     0.003 A 
ATOM      6  C4  PXY d   1      -2.563  -0.972   3.244  0.00  0.00    -0.082 A 
ATOM      7  C5  PXY d   1      -1.424  -1.192   3.935  0.00  0.00     0.003 A 
ATOM      8  C6  PXY d   1      -0.208  -0.810   3.378  0.00  0.00     0.003 A 
ENDROOT
TORSDOF 0
ENDMDL
