MODEL 1
REMARK minimizedAffinity 1.01533592
REMARK minimizedRMSD -1
REMARK  0 active torsions:
REMARK  status: ('A' for Active; 'I' for Inactive)
ROOT
ATOM      1  C4' PXY d   1       0.722  -0.998   4.178  0.00  0.00     0.077 C 
ATOM      2  C1' PXY d   1      -2.512   0.521  -0.366  0.00  0.00     0.077 C 
ATOM      3  C1  PXY d   1      -1.672   0.129   0.833  0.00  0.00    -0.082 A 
ATOM      4  C2  PXY d   1      -0.377  -0.095   0.681  0.00  0.00     0.003 A 
ATOM      5  C3  PXY d   1       0.390  -0.482   1.749  0.00  0.00     0.003 A 
ATOM      6  C4  PXY d   1      -0.163  -0.590   2.997  0.00  0.00    -0.082 A 
ATOM      7  C5  PXY d   1      -1.481  -0.353   3.163  0.00  0.00     0.003 A 
ATOM      8  C6  PXY d   1      -2.252  -0.002   2.058  0.00  0.00     0.003 A 
ENDROOT
TORSDOF 0
ENDMDL
