MODEL 1
REMARK minimizedAffinity -0.201729879
REMARK minimizedRMSD -1
REMARK  0 active torsions:
REMARK  status: ('A' for Active; 'I' for Inactive)
ROOT
ATOM      1  C4' PXY d   1       5.587   3.327   5.321  0.00  0.00     0.077 C 
ATOM      2  C1' PXY d   1       2.980   6.000   0.908  0.00  0.00     0.077 C 
ATOM      3  C1  PXY d   1       3.656   5.288   2.063  0.00  0.00    -0.082 A 
ATOM      4  C2  PXY d   1       4.192   5.996   3.044  0.00  0.00     0.003 A 
ATOM      5  C3  PXY d   1       4.836   5.370   4.080  0.00  0.00     0.003 A 
ATOM      6  C4  PXY d   1       4.885   4.003   4.140  0.00  0.00    -0.082 A 
ATOM      7  C5  PXY d   1       4.332   3.273   3.148  0.00  0.00     0.003 A 
ATOM      8  C6  PXY d   1       3.719   3.929   2.084  0.00  0.00     0.003 A 
ENDROOT
TORSDOF 0
ENDMDL
