MODEL 1
REMARK minimizedAffinity -0.128395855
REMARK minimizedRMSD -1
REMARK  0 active torsions:
REMARK  status: ('A' for Active; 'I' for Inactive)
ROOT
ATOM      1  C4' PXY d   1       0.920   0.031   1.157  0.00  0.00     0.077 C 
ATOM      2  C1' PXY d   1      -3.638  -1.613   4.309  0.00  0.00     0.077 C 
ATOM      3  C1  PXY d   1      -2.436  -1.180   3.493  0.00  0.00    -0.082 A 
ATOM      4  C2  PXY d   1      -2.613  -0.688   2.278  0.00  0.00     0.003 A 
ATOM      5  C3  PXY d   1      -1.535  -0.321   1.514  0.00  0.00     0.003 A 
ATOM      6  C4  PXY d   1      -0.265  -0.410   2.020  0.00  0.00    -0.082 A 
ATOM      7  C5  PXY d   1      -0.077  -0.901   3.263  0.00  0.00     0.003 A 
ATOM      8  C6  PXY d   1      -1.182  -1.306   4.007  0.00  0.00     0.003 A 
ENDROOT
TORSDOF 0
ENDMDL
