MODEL 1
REMARK minimizedAffinity -4.32819223
REMARK minimizedRMSD -1
REMARK  1 active torsions:
REMARK  status: ('A' for Active; 'I' for Inactive)
REMARK    1  A    between atoms: C3_4  and  O_7 
ROOT
ATOM      1  C   UNL d   1       0.470  -0.370  -0.038  0.00  0.00    -0.033 A 
ATOM      2  C1  UNL d   1      -0.099   0.684  -0.757  0.00  0.00     0.039 A 
ATOM      3  C2  UNL d   1      -1.051   1.508  -0.154  0.00  0.00    -0.080 A 
ATOM      4  C3  UNL d   1      -1.425   1.269   1.165  0.00  0.00     0.150 A 
ATOM      5  C4  UNL d   1      -0.860   0.223   1.888  0.00  0.00    -0.007 A 
ATOM      6  C5  UNL d   1       0.090  -0.599   1.284  0.00  0.00     0.039 A 
ENDROOT
BRANCH   4   7
ATOM      7  O   UNL d   1      -2.354   2.043   1.794  0.00  0.00    -0.526 OA
ATOM      8  H5  UNL d   1      -2.679   2.708   1.163  0.00  0.00     0.418 HD
ENDBRANCH   4   7
TORSDOF 1
ENDMDL
