MODEL 1
REMARK minimizedAffinity -3.22087049
REMARK minimizedRMSD -1
REMARK  1 active torsions:
REMARK  status: ('A' for Active; 'I' for Inactive)
REMARK    1  A    between atoms: C3_4  and  O_7 
ROOT
ATOM      1  C   UNL d   1      -1.051   0.487   1.115  0.00  0.00    -0.033 A 
ATOM      2  C1  UNL d   1      -1.052   1.304  -0.018  0.00  0.00     0.039 A 
ATOM      3  C2  UNL d   1      -0.139   1.073  -1.048  0.00  0.00    -0.080 A 
ATOM      4  C3  UNL d   1       0.769   0.023  -0.934  0.00  0.00     0.150 A 
ATOM      5  C4  UNL d   1       0.773  -0.796   0.190  0.00  0.00    -0.007 A 
ATOM      6  C5  UNL d   1      -0.140  -0.564   1.218  0.00  0.00     0.039 A 
ENDROOT
BRANCH   4   7
ATOM      7  O   UNL d   1       1.683  -0.238  -1.911  0.00  0.00    -0.526 OA
ATOM      8  H5  UNL d   1       1.581   0.427  -2.613  0.00  0.00     0.418 HD
ENDBRANCH   4   7
TORSDOF 1
ENDMDL
