MODEL 1
REMARK minimizedAffinity -5.36006021
REMARK minimizedRMSD -1
REMARK  1 active torsions:
REMARK  status: ('A' for Active; 'I' for Inactive)
REMARK    1  A    between atoms: C3_4  and  O_7 
ROOT
ATOM      1  C   UNL d   1       0.425  -0.390   0.048  0.00  0.00    -0.033 A 
ATOM      2  C1  UNL d   1      -0.100   0.596  -0.790  0.00  0.00     0.039 A 
ATOM      3  C2  UNL d   1      -1.117   1.436  -0.331  0.00  0.00    -0.080 A 
ATOM      4  C3  UNL d   1      -1.598   1.281   0.966  0.00  0.00     0.150 A 
ATOM      5  C4  UNL d   1      -1.076   0.304   1.808  0.00  0.00    -0.007 A 
ATOM      6  C5  UNL d   1      -0.062  -0.535   1.348  0.00  0.00     0.039 A 
ENDROOT
BRANCH   4   7
ATOM      7  O   UNL d   1      -2.592   2.075   1.457  0.00  0.00    -0.526 OA
ATOM      8  H5  UNL d   1      -2.874   2.684   0.755  0.00  0.00     0.418 HD
ENDBRANCH   4   7
TORSDOF 1
ENDMDL
