MODEL 1
REMARK minimizedAffinity -3.87542248
REMARK minimizedRMSD -1
REMARK  1 active torsions:
REMARK  status: ('A' for Active; 'I' for Inactive)
REMARK    1  A    between atoms: C3_4  and  O_7 
ROOT
ATOM      1  C   UNL d   1       0.037   0.090  -0.459  0.00  0.00    -0.033 A 
ATOM      2  C1  UNL d   1      -0.357  -0.572   0.706  0.00  0.00     0.039 A 
ATOM      3  C2  UNL d   1      -1.197   0.065   1.622  0.00  0.00    -0.080 A 
ATOM      4  C3  UNL d   1      -1.637   1.360   1.361  0.00  0.00     0.150 A 
ATOM      5  C4  UNL d   1      -1.252   2.023   0.200  0.00  0.00    -0.007 A 
ATOM      6  C5  UNL d   1      -0.412   1.386  -0.713  0.00  0.00     0.039 A 
ENDROOT
BRANCH   4   7
ATOM      7  O   UNL d   1      -2.454   2.023   2.227  0.00  0.00    -0.526 OA
ATOM      8  H5  UNL d   1      -2.613   1.453   2.998  0.00  0.00     0.418 HD
ENDBRANCH   4   7
TORSDOF 1
ENDMDL
