MODEL 1
REMARK minimizedAffinity -5.20809031
REMARK minimizedRMSD -1
REMARK  1 active torsions:
REMARK  status: ('A' for Active; 'I' for Inactive)
REMARK    1  A    between atoms: C3_4  and  O_7 
ROOT
ATOM      1  C   UNL d   1      -2.044   1.477   1.522  0.00  0.00    -0.033 A 
ATOM      2  C1  UNL d   1      -1.432   0.352   2.077  0.00  0.00     0.039 A 
ATOM      3  C2  UNL d   1      -0.634  -0.475   1.284  0.00  0.00    -0.080 A 
ATOM      4  C3  UNL d   1      -0.455  -0.165  -0.062  0.00  0.00     0.150 A 
ATOM      5  C4  UNL d   1      -1.059   0.957  -0.621  0.00  0.00    -0.007 A 
ATOM      6  C5  UNL d   1      -1.856   1.780   0.173  0.00  0.00     0.039 A 
ENDROOT
BRANCH   4   7
ATOM      7  O   UNL d   1       0.311  -0.944  -0.877  0.00  0.00    -0.526 OA
ATOM      8  H5  UNL d   1       0.640  -1.698  -0.361  0.00  0.00     0.418 HD
ENDBRANCH   4   7
TORSDOF 1
ENDMDL
