MODEL 1
REMARK minimizedAffinity -3.46508932
REMARK minimizedRMSD -1
REMARK  1 active torsions:
REMARK  status: ('A' for Active; 'I' for Inactive)
REMARK    1  A    between atoms: C3_4  and  O_7 
ROOT
ATOM      1  C   UNL d   1      -2.559   1.860   1.633  0.00  0.00    -0.033 A 
ATOM      2  C1  UNL d   1      -2.700   1.480   0.297  0.00  0.00     0.039 A 
ATOM      3  C2  UNL d   1      -1.674   0.783  -0.344  0.00  0.00    -0.080 A 
ATOM      4  C3  UNL d   1      -0.515   0.472   0.361  0.00  0.00     0.150 A 
ATOM      5  C4  UNL d   1      -0.369   0.845   1.693  0.00  0.00    -0.007 A 
ATOM      6  C5  UNL d   1      -1.394   1.541   2.331  0.00  0.00     0.039 A 
ENDROOT
BRANCH   4   7
ATOM      7  O   UNL d   1       0.516  -0.203  -0.224  0.00  0.00    -0.526 OA
ATOM      8  H5  UNL d   1       0.286  -0.369  -1.153  0.00  0.00     0.418 HD
ENDBRANCH   4   7
TORSDOF 1
ENDMDL
