MODEL 1
REMARK minimizedAffinity -1.4545182
REMARK minimizedRMSD -1
REMARK  1 active torsions:
REMARK  status: ('A' for Active; 'I' for Inactive)
REMARK    1  A    between atoms: C3_4  and  O_7 
ROOT
ATOM      1  C   UNL d   1      -1.178   1.177   1.928  0.00  0.00    -0.033 A 
ATOM      2  C1  UNL d   1      -1.123   1.764   0.663  0.00  0.00     0.039 A 
ATOM      3  C2  UNL d   1      -0.349   1.185  -0.345  0.00  0.00    -0.080 A 
ATOM      4  C3  UNL d   1       0.362   0.019  -0.076  0.00  0.00     0.150 A 
ATOM      5  C4  UNL d   1       0.309  -0.574   1.182  0.00  0.00    -0.007 A 
ATOM      6  C5  UNL d   1      -0.463   0.007   2.187  0.00  0.00     0.039 A 
ENDROOT
BRANCH   4   7
ATOM      7  O   UNL d   1       1.135  -0.580  -1.026  0.00  0.00    -0.526 OA
ATOM      8  H5  UNL d   1       1.098  -0.044  -1.835  0.00  0.00     0.418 HD
ENDBRANCH   4   7
TORSDOF 1
ENDMDL
