MODEL 1
REMARK minimizedAffinity -2.7301693
REMARK minimizedRMSD -1
REMARK  1 active torsions:
REMARK  status: ('A' for Active; 'I' for Inactive)
REMARK    1  A    between atoms: C3_4  and  O_7 
ROOT
ATOM      1  C   UNL d   1       0.296  -0.014  -0.017  0.00  0.00    -0.033 A 
ATOM      2  C1  UNL d   1      -0.361  -0.604   1.064  0.00  0.00     0.039 A 
ATOM      3  C2  UNL d   1      -1.354   0.099   1.748  0.00  0.00    -0.080 A 
ATOM      4  C3  UNL d   1      -1.681   1.390   1.341  0.00  0.00     0.150 A 
ATOM      5  C4  UNL d   1      -1.033   1.982   0.262  0.00  0.00    -0.007 A 
ATOM      6  C5  UNL d   1      -0.041   1.279  -0.419  0.00  0.00     0.039 A 
ENDROOT
BRANCH   4   7
ATOM      7  O   UNL d   1      -2.640   2.118   1.981  0.00  0.00    -0.526 OA
ATOM      8  H5  UNL d   1      -2.981   1.592   2.723  0.00  0.00     0.418 HD
ENDBRANCH   4   7
TORSDOF 1
ENDMDL
