MODEL 1
REMARK minimizedAffinity -4.62765646
REMARK minimizedRMSD -1
REMARK  1 active torsions:
REMARK  status: ('A' for Active; 'I' for Inactive)
REMARK    1  A    between atoms: C3_4  and  O_7 
ROOT
ATOM      1  C   UNL d   1      -1.593   1.600   1.341  0.00  0.00    -0.033 A 
ATOM      2  C1  UNL d   1      -1.086   0.512   2.055  0.00  0.00     0.039 A 
ATOM      3  C2  UNL d   1      -0.343  -0.470   1.398  0.00  0.00    -0.080 A 
ATOM      4  C3  UNL d   1      -0.113  -0.353   0.030  0.00  0.00     0.150 A 
ATOM      5  C4  UNL d   1      -0.611   0.731  -0.686  0.00  0.00    -0.007 A 
ATOM      6  C5  UNL d   1      -1.354   1.710  -0.029  0.00  0.00     0.039 A 
ENDROOT
BRANCH   4   7
ATOM      7  O   UNL d   1       0.603  -1.289  -0.656  0.00  0.00    -0.526 OA
ATOM      8  H5  UNL d   1       0.859  -1.993  -0.038  0.00  0.00     0.418 HD
ENDBRANCH   4   7
TORSDOF 1
ENDMDL
