MODEL 1
REMARK minimizedAffinity -5.40889311
REMARK minimizedRMSD -1
REMARK  1 active torsions:
REMARK  status: ('A' for Active; 'I' for Inactive)
REMARK    1  A    between atoms: C3_4  and  O_7 
ROOT
ATOM      1  C   UNL d   1       0.568  -0.067   0.618  0.00  0.00    -0.033 A 
ATOM      2  C1  UNL d   1      -0.021  -0.210   1.876  0.00  0.00     0.039 A 
ATOM      3  C2  UNL d   1      -1.187   0.493   2.187  0.00  0.00    -0.080 A 
ATOM      4  C3  UNL d   1      -1.754   1.333   1.232  0.00  0.00     0.150 A 
ATOM      5  C4  UNL d   1      -1.175   1.477  -0.025  0.00  0.00    -0.007 A 
ATOM      6  C5  UNL d   1      -0.010   0.775  -0.333  0.00  0.00     0.039 A 
ENDROOT
BRANCH   4   7
ATOM      7  O   UNL d   1      -2.888   2.043   1.491  0.00  0.00    -0.526 OA
ATOM      8  H5  UNL d   1      -3.159   1.867   2.407  0.00  0.00     0.418 HD
ENDBRANCH   4   7
TORSDOF 1
ENDMDL
