MODEL 1
REMARK minimizedAffinity -3.6205616
REMARK minimizedRMSD -1
REMARK  1 active torsions:
REMARK  status: ('A' for Active; 'I' for Inactive)
REMARK    1  A    between atoms: C3_4  and  O_7 
ROOT
ATOM      1  C   UNL d   1       0.410  -0.144   0.267  0.00  0.00    -0.033 A 
ATOM      2  C1  UNL d   1      -0.322   0.563  -0.689  0.00  0.00     0.039 A 
ATOM      3  C2  UNL d   1      -1.395   1.366  -0.297  0.00  0.00    -0.080 A 
ATOM      4  C3  UNL d   1      -1.724   1.455   1.052  0.00  0.00     0.150 A 
ATOM      5  C4  UNL d   1      -0.997   0.757   2.011  0.00  0.00    -0.007 A 
ATOM      6  C5  UNL d   1       0.073  -0.045   1.618  0.00  0.00     0.039 A 
ENDROOT
BRANCH   4   7
ATOM      7  O   UNL d   1      -2.765   2.223   1.482  0.00  0.00    -0.526 OA
ATOM      8  H5  UNL d   1      -3.193   2.623   0.707  0.00  0.00     0.418 HD
ENDBRANCH   4   7
TORSDOF 1
ENDMDL
