MODEL 1
REMARK minimizedAffinity -4.40583658
REMARK minimizedRMSD -1
REMARK  1 active torsions:
REMARK  status: ('A' for Active; 'I' for Inactive)
REMARK    1  A    between atoms: C3_4  and  O_7 
ROOT
ATOM      1  C   UNL d   1       0.363  -0.429  -0.100  0.00  0.00    -0.033 A 
ATOM      2  C1  UNL d   1      -0.218   0.676  -0.726  0.00  0.00     0.039 A 
ATOM      3  C2  UNL d   1      -1.153   1.456  -0.043  0.00  0.00    -0.080 A 
ATOM      4  C3  UNL d   1      -1.496   1.123   1.265  0.00  0.00     0.150 A 
ATOM      5  C4  UNL d   1      -0.918   0.027   1.896  0.00  0.00    -0.007 A 
ATOM      6  C5  UNL d   1       0.014  -0.752   1.212  0.00  0.00     0.039 A 
ENDROOT
BRANCH   4   7
ATOM      7  O   UNL d   1      -2.406   1.853   1.970  0.00  0.00    -0.526 OA
ATOM      8  H5  UNL d   1      -2.743   2.562   1.397  0.00  0.00     0.418 HD
ENDBRANCH   4   7
TORSDOF 1
ENDMDL
