MODEL 1
REMARK minimizedAffinity -4.77071047
REMARK minimizedRMSD -1
REMARK  1 active torsions:
REMARK  status: ('A' for Active; 'I' for Inactive)
REMARK    1  A    between atoms: C3_4  and  O_7 
ROOT
ATOM      1  C   UNL d   1       0.517  -0.354  -0.394  0.00  0.00    -0.033 A 
ATOM      2  C1  UNL d   1      -0.053   0.723  -1.075  0.00  0.00     0.039 A 
ATOM      3  C2  UNL d   1      -1.014   1.519  -0.446  0.00  0.00    -0.080 A 
ATOM      4  C3  UNL d   1      -1.393   1.227   0.861  0.00  0.00     0.150 A 
ATOM      5  C4  UNL d   1      -0.826   0.158   1.546  0.00  0.00    -0.007 A 
ATOM      6  C5  UNL d   1       0.131  -0.636   0.917  0.00  0.00     0.039 A 
ENDROOT
BRANCH   4   7
ATOM      7  O   UNL d   1      -2.330   1.972   1.514  0.00  0.00    -0.526 OA
ATOM      8  H5  UNL d   1      -2.654   2.659   0.908  0.00  0.00     0.418 HD
ENDBRANCH   4   7
TORSDOF 1
ENDMDL
