MODEL 1
REMARK minimizedAffinity 0.0178131387
REMARK minimizedRMSD -1
REMARK  1 active torsions:
REMARK  status: ('A' for Active; 'I' for Inactive)
REMARK    1  A    between atoms: C1_2  and  C2_3 
ROOT
ATOM      1  C2  UNL d   1       5.248  -2.962  -4.910  0.00  0.00    -0.073 A 
ATOM      2  C3  UNL d   1       4.562  -3.555  -5.975  0.00  0.00    -0.002 A 
ATOM      3  C4  UNL d   1       4.349  -4.934  -5.996  0.00  0.00     0.004 A 
ATOM      4  C5  UNL d   1       4.813  -5.732  -4.950  0.00  0.00    -0.004 A 
ATOM      5  C6  UNL d   1       5.491  -5.156  -3.871  0.00  0.00    -0.075 A 
ATOM      6  C7  UNL d   1       5.998  -6.000  -2.739  0.00  0.00     0.076 C 
ATOM      7  C8  UNL d   1       5.703  -3.770  -3.859  0.00  0.00     0.001 A 
ENDROOT
BRANCH   1   8
ATOM      8  C1  UNL d   1       5.475  -1.472  -4.880  0.00  0.00     0.053 C 
ATOM      9  C   UNL d   1       5.997  -1.002  -3.532  0.00  0.00     0.018 C 
ENDBRANCH   1   8
TORSDOF 1
ENDMDL
