MODEL 1
REMARK minimizedAffinity -4.01407957
REMARK minimizedRMSD -1
REMARK  1 active torsions:
REMARK  status: ('A' for Active; 'I' for Inactive)
REMARK    1  A    between atoms: C1_2  and  C2_3 
ROOT
ATOM      1  C2  UNL d   1       5.270  -2.414  -4.998  0.00  0.00    -0.073 A 
ATOM      2  C3  UNL d   1       3.917  -2.509  -5.342  0.00  0.00    -0.002 A 
ATOM      3  C4  UNL d   1       3.243  -3.725  -5.223  0.00  0.00     0.004 A 
ATOM      4  C5  UNL d   1       3.912  -4.856  -4.754  0.00  0.00    -0.004 A 
ATOM      5  C6  UNL d   1       5.262  -4.778  -4.394  0.00  0.00    -0.075 A 
ATOM      6  C7  UNL d   1       5.997  -5.985  -3.890  0.00  0.00     0.076 C 
ATOM      7  C8  UNL d   1       5.932  -3.553  -4.519  0.00  0.00     0.001 A 
ENDROOT
BRANCH   1   8
ATOM      8  C1  UNL d   1       6.000  -1.101  -5.119  0.00  0.00     0.053 C 
ATOM      9  C   UNL d   1       5.139  -0.028  -5.768  0.00  0.00     0.018 C 
ENDBRANCH   1   8
TORSDOF 1
ENDMDL
