MODEL 1
REMARK minimizedAffinity 0.366310328
REMARK minimizedRMSD -1
REMARK  1 active torsions:
REMARK  status: ('A' for Active; 'I' for Inactive)
REMARK    1  A    between atoms: C1_2  and  C2_3 
ROOT
ATOM      1  C2  UNL d   1       4.787  -3.764  -5.251  0.00  0.00    -0.073 A 
ATOM      2  C3  UNL d   1       5.706  -3.646  -4.203  0.00  0.00    -0.002 A 
ATOM      3  C4  UNL d   1       5.997  -2.395  -3.658  0.00  0.00     0.004 A 
ATOM      4  C5  UNL d   1       5.369  -1.251  -4.150  0.00  0.00    -0.004 A 
ATOM      5  C6  UNL d   1       4.438  -1.350  -5.189  0.00  0.00    -0.075 A 
ATOM      6  C7  UNL d   1       3.755  -0.129  -5.732  0.00  0.00     0.076 C 
ATOM      7  C8  UNL d   1       4.153  -2.609  -5.733  0.00  0.00     0.001 A 
ENDROOT
BRANCH   1   8
ATOM      8  C1  UNL d   1       4.464  -5.113  -5.839  0.00  0.00     0.053 C 
ATOM      9  C   UNL d   1       5.696  -5.999  -5.942  0.00  0.00     0.018 C 
ENDBRANCH   1   8
TORSDOF 1
ENDMDL
