MODEL 1
REMARK minimizedAffinity 1.35942841
REMARK minimizedRMSD -1
REMARK  1 active torsions:
REMARK  status: ('A' for Active; 'I' for Inactive)
REMARK    1  A    between atoms: C1_2  and  C2_3 
ROOT
ATOM      1  C2  UNL d   1       5.028  -3.180  -4.450  0.00  0.00    -0.073 A 
ATOM      2  C3  UNL d   1       5.999  -3.905  -3.750  0.00  0.00    -0.002 A 
ATOM      3  C4  UNL d   1       5.988  -5.300  -3.770  0.00  0.00     0.004 A 
ATOM      4  C5  UNL d   1       5.013  -5.984  -4.495  0.00  0.00    -0.004 A 
ATOM      5  C6  UNL d   1       4.041  -5.278  -5.211  0.00  0.00    -0.075 A 
ATOM      6  C7  UNL d   1       2.984  -5.999  -5.995  0.00  0.00     0.076 C 
ATOM      7  C8  UNL d   1       4.057  -3.877  -5.184  0.00  0.00     0.001 A 
ENDROOT
BRANCH   1   8
ATOM      8  C1  UNL d   1       5.039  -1.674  -4.437  0.00  0.00     0.053 C 
ATOM      9  C   UNL d   1       3.705  -1.090  -4.875  0.00  0.00     0.018 C 
ENDBRANCH   1   8
TORSDOF 1
ENDMDL
