MODEL 1
REMARK minimizedAffinity -2.8247509
REMARK minimizedRMSD -1
REMARK  1 active torsions:
REMARK  status: ('A' for Active; 'I' for Inactive)
REMARK    1  A    between atoms: C1_2  and  C2_3 
ROOT
ATOM      1  C2  UNL d   1       4.558  -3.145  -5.000  0.00  0.00    -0.073 A 
ATOM      2  C3  UNL d   1       3.870  -3.853  -5.992  0.00  0.00    -0.002 A 
ATOM      3  C4  UNL d   1       3.876  -5.248  -5.995  0.00  0.00     0.004 A 
ATOM      4  C5  UNL d   1       4.563  -5.949  -5.005  0.00  0.00    -0.004 A 
ATOM      5  C6  UNL d   1       5.247  -5.260  -3.998  0.00  0.00    -0.075 A 
ATOM      6  C7  UNL d   1       5.993  -6.000  -2.927  0.00  0.00     0.076 C 
ATOM      7  C8  UNL d   1       5.239  -3.859  -4.003  0.00  0.00     0.001 A 
ENDROOT
BRANCH   1   8
ATOM      8  C1  UNL d   1       4.550  -1.638  -4.989  0.00  0.00     0.053 C 
ATOM      9  C   UNL d   1       5.948  -1.061  -4.840  0.00  0.00     0.018 C 
ENDBRANCH   1   8
TORSDOF 1
ENDMDL
