MODEL 1
REMARK minimizedAffinity 0.760262549
REMARK minimizedRMSD -1
REMARK  1 active torsions:
REMARK  status: ('A' for Active; 'I' for Inactive)
REMARK    1  A    between atoms: C1_2  and  C2_3 
ROOT
ATOM      1  C2  UNL d   1       5.444  -3.901  -5.252  0.00  0.00    -0.073 A 
ATOM      2  C3  UNL d   1       6.000  -3.682  -3.987  0.00  0.00    -0.002 A 
ATOM      3  C4  UNL d   1       5.884  -2.434  -3.372  0.00  0.00     0.004 A 
ATOM      4  C5  UNL d   1       5.207  -1.396  -4.013  0.00  0.00    -0.004 A 
ATOM      5  C6  UNL d   1       4.635  -1.599  -5.273  0.00  0.00    -0.075 A 
ATOM      6  C7  UNL d   1       3.906  -0.492  -5.976  0.00  0.00     0.076 C 
ATOM      7  C8  UNL d   1       4.758  -2.854  -5.884  0.00  0.00     0.001 A 
ENDROOT
BRANCH   1   8
ATOM      8  C1  UNL d   1       5.561  -5.248  -5.917  0.00  0.00     0.053 C 
ATOM      9  C   UNL d   1       4.239  -6.000  -5.917  0.00  0.00     0.018 C 
ENDBRANCH   1   8
TORSDOF 1
ENDMDL
