MODEL 1
REMARK minimizedAffinity -2.32328868
REMARK minimizedRMSD -1
REMARK  1 active torsions:
REMARK  status: ('A' for Active; 'I' for Inactive)
REMARK    1  A    between atoms: C1_2  and  C2_3 
ROOT
ATOM      1  C2  UNL d   1       5.895  -3.077  -4.737  0.00  0.00    -0.073 A 
ATOM      2  C3  UNL d   1       5.876  -3.751  -5.962  0.00  0.00    -0.002 A 
ATOM      3  C4  UNL d   1       5.904  -5.146  -6.000  0.00  0.00     0.004 A 
ATOM      4  C5  UNL d   1       5.944  -5.880  -4.814  0.00  0.00    -0.004 A 
ATOM      5  C6  UNL d   1       5.952  -5.224  -3.579  0.00  0.00    -0.075 A 
ATOM      6  C7  UNL d   1       5.997  -5.998  -2.294  0.00  0.00     0.076 C 
ATOM      7  C8  UNL d   1       5.926  -3.823  -3.550  0.00  0.00     0.001 A 
ENDROOT
BRANCH   1   8
ATOM      8  C1  UNL d   1       5.858  -1.571  -4.691  0.00  0.00     0.053 C 
ATOM      9  C   UNL d   1       5.343  -0.974  -5.991  0.00  0.00     0.018 C 
ENDBRANCH   1   8
TORSDOF 1
ENDMDL
