MODEL 1
REMARK minimizedAffinity -4.09734726
REMARK minimizedRMSD -1
REMARK  1 active torsions:
REMARK  status: ('A' for Active; 'I' for Inactive)
REMARK    1  A    between atoms: C1_2  and  C2_3 
ROOT
ATOM      1  C2  UNL d   1       5.305  -2.080  -5.077  0.00  0.00    -0.073 A 
ATOM      2  C3  UNL d   1       4.014  -2.232  -5.594  0.00  0.00    -0.002 A 
ATOM      3  C4  UNL d   1       3.372  -3.470  -5.537  0.00  0.00     0.004 A 
ATOM      4  C5  UNL d   1       4.011  -4.566  -4.957  0.00  0.00    -0.004 A 
ATOM      5  C6  UNL d   1       5.297  -4.431  -4.424  0.00  0.00    -0.075 A 
ATOM      6  C7  UNL d   1       5.999  -5.601  -3.799  0.00  0.00     0.076 C 
ATOM      7  C8  UNL d   1       5.936  -3.186  -4.488  0.00  0.00     0.001 A 
ENDROOT
BRANCH   1   8
ATOM      8  C1  UNL d   1       5.999  -0.744  -5.130  0.00  0.00     0.053 C 
ATOM      9  C   UNL d   1       5.088   0.351  -5.661  0.00  0.00     0.018 C 
ENDBRANCH   1   8
TORSDOF 1
ENDMDL
