MODEL 1
REMARK minimizedAffinity -2.51060152
REMARK minimizedRMSD -1
REMARK  0 active torsions:
REMARK  status: ('A' for Active; 'I' for Inactive)
ROOT
ATOM      1  C1  BNZ d   1      -0.254  -1.012  -0.609  0.00  0.00     0.000 A 
ATOM      2  C2  BNZ d   1      -0.071  -1.996   0.326  0.00  0.00     0.000 A 
ATOM      3  C3  BNZ d   1       1.186  -2.404   0.675  0.00  0.00     0.000 A 
ATOM      4  C4  BNZ d   1       2.256  -1.856   0.062  0.00  0.00     0.000 A 
ATOM      5  C5  BNZ d   1       2.087  -0.870  -0.889  0.00  0.00     0.000 A 
ATOM      6  C6  BNZ d   1       0.822  -0.434  -1.210  0.00  0.00     0.000 A 
ENDROOT
TORSDOF 0
ENDMDL
