MODEL 1
REMARK minimizedAffinity -0.172249094
REMARK minimizedRMSD -1
REMARK  0 active torsions:
REMARK  status: ('A' for Active; 'I' for Inactive)
ROOT
ATOM      1  C1  BNZ d   1       1.193   0.435  -2.736  0.00  0.00     0.000 A 
ATOM      2  C2  BNZ d   1       0.963   0.575  -1.393  0.00  0.00     0.000 A 
ATOM      3  C3  BNZ d   1       0.889  -0.520  -0.578  0.00  0.00     0.000 A 
ATOM      4  C4  BNZ d   1       1.005  -1.753  -1.112  0.00  0.00     0.000 A 
ATOM      5  C5  BNZ d   1       1.228  -1.910  -2.465  0.00  0.00     0.000 A 
ATOM      6  C6  BNZ d   1       1.341  -0.805  -3.276  0.00  0.00     0.000 A 
ENDROOT
TORSDOF 0
ENDMDL
