MODEL 1
REMARK minimizedAffinity 2.2155478
REMARK minimizedRMSD -1
REMARK  0 active torsions:
REMARK  status: ('A' for Active; 'I' for Inactive)
ROOT
ATOM      1  C1  BNZ d   1      -0.473  -0.914  -1.451  0.00  0.00     0.000 A 
ATOM      2  C2  BNZ d   1       0.065  -1.514  -0.343  0.00  0.00     0.000 A 
ATOM      3  C3  BNZ d   1       1.339  -1.226   0.060  0.00  0.00     0.000 A 
ATOM      4  C4  BNZ d   1       2.086  -0.370  -0.667  0.00  0.00     0.000 A 
ATOM      5  C5  BNZ d   1       1.562   0.235  -1.791  0.00  0.00     0.000 A 
ATOM      6  C6  BNZ d   1       0.266  -0.028  -2.172  0.00  0.00     0.000 A 
ENDROOT
TORSDOF 0
ENDMDL
