MODEL 1
REMARK minimizedAffinity -4.06482458
REMARK minimizedRMSD -1
REMARK  0 active torsions:
REMARK  status: ('A' for Active; 'I' for Inactive)
ROOT
ATOM      1  C1  BNZ d   1      -4.859  -0.612   2.759  0.00  0.00     0.000 A 
ATOM      2  C2  BNZ d   1      -5.058   0.722   2.994  0.00  0.00     0.000 A 
ATOM      3  C3  BNZ d   1      -4.162   1.444   3.732  0.00  0.00     0.000 A 
ATOM      4  C4  BNZ d   1      -3.091   0.824   4.266  0.00  0.00     0.000 A 
ATOM      5  C5  BNZ d   1      -2.881  -0.523   4.046  0.00  0.00     0.000 A 
ATOM      6  C6  BNZ d   1      -3.764  -1.238   3.270  0.00  0.00     0.000 A 
ENDROOT
TORSDOF 0
ENDMDL
