MODEL 1
REMARK minimizedAffinity -3.05305719
REMARK minimizedRMSD -1
REMARK  0 active torsions:
REMARK  status: ('A' for Active; 'I' for Inactive)
ROOT
ATOM      1  C1  BNZ d   1       1.217  -2.140   0.603  0.00  0.00     0.000 A 
ATOM      2  C2  BNZ d   1       2.106  -1.506  -0.223  0.00  0.00     0.000 A 
ATOM      3  C3  BNZ d   1       1.669  -0.748  -1.274  0.00  0.00     0.000 A 
ATOM      4  C4  BNZ d   1       0.346  -0.659  -1.521  0.00  0.00     0.000 A 
ATOM      5  C5  BNZ d   1      -0.563  -1.300  -0.703  0.00  0.00     0.000 A 
ATOM      6  C6  BNZ d   1      -0.121  -2.030   0.377  0.00  0.00     0.000 A 
ENDROOT
TORSDOF 0
ENDMDL
