MODEL 1
REMARK minimizedAffinity -4.53562355
REMARK minimizedRMSD -1
REMARK  0 active torsions:
REMARK  status: ('A' for Active; 'I' for Inactive)
ROOT
ATOM      1  C1  BNZ d   1      -0.640  -1.872  -0.272  0.00  0.00     0.000 A 
ATOM      2  C2  BNZ d   1      -0.164  -2.915   0.477  0.00  0.00     0.000 A 
ATOM      3  C3  BNZ d   1       1.181  -3.123   0.612  0.00  0.00     0.000 A 
ATOM      4  C4  BNZ d   1       2.045  -2.313  -0.033  0.00  0.00     0.000 A 
ATOM      5  C5  BNZ d   1       1.580  -1.262  -0.799  0.00  0.00     0.000 A 
ATOM      6  C6  BNZ d   1       0.227  -1.033  -0.901  0.00  0.00     0.000 A 
ENDROOT
TORSDOF 0
ENDMDL
