MODEL 1
REMARK minimizedAffinity 0.237381965
REMARK minimizedRMSD -1
REMARK  0 active torsions:
REMARK  status: ('A' for Active; 'I' for Inactive)
ROOT
ATOM      1  C1  BNZ d   1       1.337  -0.469  -4.159  0.00  0.00     0.000 A 
ATOM      2  C2  BNZ d   1       1.254   0.042  -2.891  0.00  0.00     0.000 A 
ATOM      3  C3  BNZ d   1       1.302  -0.781  -1.800  0.00  0.00     0.000 A 
ATOM      4  C4  BNZ d   1       1.391  -2.114  -1.980  0.00  0.00     0.000 A 
ATOM      5  C5  BNZ d   1       1.465  -2.645  -3.252  0.00  0.00     0.000 A 
ATOM      6  C6  BNZ d   1       1.456  -1.811  -4.346  0.00  0.00     0.000 A 
ENDROOT
TORSDOF 0
ENDMDL
