MODEL 1
REMARK minimizedAffinity 0.998123348
REMARK minimizedRMSD -1
REMARK  0 active torsions:
REMARK  status: ('A' for Active; 'I' for Inactive)
ROOT
ATOM      1  C1  BNZ d   1       0.622   1.601  -1.980  0.00  0.00     0.000 A 
ATOM      2  C2  BNZ d   1       0.790   0.568  -1.097  0.00  0.00     0.000 A 
ATOM      3  C3  BNZ d   1       1.199  -0.663  -1.528  0.00  0.00     0.000 A 
ATOM      4  C4  BNZ d   1       1.400  -0.871  -2.845  0.00  0.00     0.000 A 
ATOM      5  C5  BNZ d   1       1.226   0.158  -3.750  0.00  0.00     0.000 A 
ATOM      6  C6  BNZ d   1       0.852   1.406  -3.307  0.00  0.00     0.000 A 
ENDROOT
TORSDOF 0
ENDMDL
