MODEL 1
REMARK minimizedAffinity 0.809266686
REMARK minimizedRMSD -1
REMARK  0 active torsions:
REMARK  status: ('A' for Active; 'I' for Inactive)
ROOT
ATOM      1  C1  BNZ d   1       1.135  -0.720  -1.812  0.00  0.00     0.000 A 
ATOM      2  C2  BNZ d   1       1.337  -0.452  -0.484  0.00  0.00     0.000 A 
ATOM      3  C3  BNZ d   1       0.637  -1.123   0.480  0.00  0.00     0.000 A 
ATOM      4  C4  BNZ d   1      -0.291  -2.030   0.115  0.00  0.00     0.000 A 
ATOM      5  C5  BNZ d   1      -0.514  -2.304  -1.220  0.00  0.00     0.000 A 
ATOM      6  C6  BNZ d   1       0.220  -1.655  -2.186  0.00  0.00     0.000 A 
ENDROOT
TORSDOF 0
ENDMDL
