MODEL 1
REMARK minimizedAffinity 4.26444721
REMARK minimizedRMSD -1
REMARK  0 active torsions:
REMARK  status: ('A' for Active; 'I' for Inactive)
ROOT
ATOM      1  C1  BNZ d   1       0.217   1.111  -1.297  0.00  0.00     0.000 A 
ATOM      2  C2  BNZ d   1       0.647   1.285  -2.585  0.00  0.00     0.000 A 
ATOM      3  C3  BNZ d   1       1.400   0.328  -3.207  0.00  0.00     0.000 A 
ATOM      4  C4  BNZ d   1       1.754  -0.782  -2.527  0.00  0.00     0.000 A 
ATOM      5  C5  BNZ d   1       1.336  -0.967  -1.225  0.00  0.00     0.000 A 
ATOM      6  C6  BNZ d   1       0.546  -0.020  -0.615  0.00  0.00     0.000 A 
ENDROOT
TORSDOF 0
ENDMDL
