MODEL 1
REMARK minimizedAffinity 5.37657928
REMARK minimizedRMSD -1
REMARK  0 active torsions:
REMARK  status: ('A' for Active; 'I' for Inactive)
ROOT
ATOM      1  C1  BNZ d   1       2.566   1.542  -3.743  0.00  0.00     0.000 A 
ATOM      2  C2  BNZ d   1       3.934   1.507  -3.762  0.00  0.00     0.000 A 
ATOM      3  C3  BNZ d   1       4.628   1.860  -4.886  0.00  0.00     0.000 A 
ATOM      4  C4  BNZ d   1       3.952   2.208  -6.000  0.00  0.00     0.000 A 
ATOM      5  C5  BNZ d   1       2.572   2.239  -5.999  0.00  0.00     0.000 A 
ATOM      6  C6  BNZ d   1       1.878   1.921  -4.855  0.00  0.00     0.000 A 
ENDROOT
TORSDOF 0
ENDMDL
