MODEL 1
REMARK minimizedAffinity 5.78926659
REMARK minimizedRMSD -1
REMARK  0 active torsions:
REMARK  status: ('A' for Active; 'I' for Inactive)
ROOT
ATOM      1  C1  BNZ d   1      -3.240   5.952   4.880  0.00  0.00     0.000 A 
ATOM      2  C2  BNZ d   1      -4.028   5.993   6.000  0.00  0.00     0.000 A 
ATOM      3  C3  BNZ d   1      -5.368   5.738   5.922  0.00  0.00     0.000 A 
ATOM      4  C4  BNZ d   1      -5.926   5.483   4.721  0.00  0.00     0.000 A 
ATOM      5  C5  BNZ d   1      -5.148   5.448   3.582  0.00  0.00     0.000 A 
ATOM      6  C6  BNZ d   1      -3.792   5.667   3.669  0.00  0.00     0.000 A 
ENDROOT
TORSDOF 0
ENDMDL
