MODEL 1
REMARK minimizedAffinity 1.72620976
REMARK minimizedRMSD -1
REMARK  0 active torsions:
REMARK  status: ('A' for Active; 'I' for Inactive)
ROOT
ATOM      1  C1  BNZ d   1       0.762  -0.732  -0.654  0.00  0.00     0.000 A 
ATOM      2  C2  BNZ d   1       1.167  -1.792  -1.421  0.00  0.00     0.000 A 
ATOM      3  C3  BNZ d   1       1.513  -1.615  -2.732  0.00  0.00     0.000 A 
ATOM      4  C4  BNZ d   1       1.415  -0.388  -3.283  0.00  0.00     0.000 A 
ATOM      5  C5  BNZ d   1       1.000   0.689  -2.525  0.00  0.00     0.000 A 
ATOM      6  C6  BNZ d   1       0.690   0.514  -1.196  0.00  0.00     0.000 A 
ENDROOT
TORSDOF 0
ENDMDL
