MODEL 1
REMARK minimizedAffinity -2.65259552
REMARK minimizedRMSD -1
REMARK  0 active torsions:
REMARK  status: ('A' for Active; 'I' for Inactive)
ROOT
ATOM      1  C1  BNZ d   1       1.304  -0.938  -1.094  0.00  0.00     0.000 A 
ATOM      2  C2  BNZ d   1       1.576  -0.953  -2.436  0.00  0.00     0.000 A 
ATOM      3  C3  BNZ d   1       1.279   0.125  -3.223  0.00  0.00     0.000 A 
ATOM      4  C4  BNZ d   1       0.675   1.199  -2.675  0.00  0.00     0.000 A 
ATOM      5  C5  BNZ d   1       0.386   1.226  -1.325  0.00  0.00     0.000 A 
ATOM      6  C6  BNZ d   1       0.722   0.154  -0.529  0.00  0.00     0.000 A 
ENDROOT
TORSDOF 0
ENDMDL
