MODEL 1
REMARK minimizedAffinity 5.68234253
REMARK minimizedRMSD -1
REMARK  0 active torsions:
REMARK  status: ('A' for Active; 'I' for Inactive)
ROOT
ATOM      1  C1  BNZ d   1       3.625  -5.997   2.651  0.00  0.00     0.000 A 
ATOM      2  C2  BNZ d   1       2.348  -5.997   3.145  0.00  0.00     0.000 A 
ATOM      3  C3  BNZ d   1       2.119  -5.973   4.492  0.00  0.00     0.000 A 
ATOM      4  C4  BNZ d   1       3.166  -5.990   5.343  0.00  0.00     0.000 A 
ATOM      5  C5  BNZ d   1       4.459  -5.999   4.860  0.00  0.00     0.000 A 
ATOM      6  C6  BNZ d   1       4.686  -5.984   3.503  0.00  0.00     0.000 A 
ENDROOT
TORSDOF 0
ENDMDL
