MODEL 1
REMARK minimizedAffinity -1.68714654
REMARK minimizedRMSD -1
REMARK  0 active torsions:
REMARK  status: ('A' for Active; 'I' for Inactive)
ROOT
ATOM      1  C1  BNZ d   1       1.006   1.121  -3.019  0.00  0.00     0.000 A 
ATOM      2  C2  BNZ d   1       1.450   0.079  -3.789  0.00  0.00     0.000 A 
ATOM      3  C3  BNZ d   1       1.528  -1.186  -3.277  0.00  0.00     0.000 A 
ATOM      4  C4  BNZ d   1       1.202  -1.400  -1.986  0.00  0.00     0.000 A 
ATOM      5  C5  BNZ d   1       0.762  -0.359  -1.195  0.00  0.00     0.000 A 
ATOM      6  C6  BNZ d   1       0.647   0.906  -1.724  0.00  0.00     0.000 A 
ENDROOT
TORSDOF 0
ENDMDL
