MODEL 1
REMARK minimizedAffinity 1.61189008
REMARK minimizedRMSD -1
REMARK  0 active torsions:
REMARK  status: ('A' for Active; 'I' for Inactive)
ROOT
ATOM      1  C1  BNZ d   1       1.081  -0.447  -2.309  0.00  0.00     0.000 A 
ATOM      2  C2  BNZ d   1       0.909  -1.782  -2.058  0.00  0.00     0.000 A 
ATOM      3  C3  BNZ d   1       1.127  -2.712  -3.036  0.00  0.00     0.000 A 
ATOM      4  C4  BNZ d   1       1.477  -2.304  -4.273  0.00  0.00     0.000 A 
ATOM      5  C5  BNZ d   1       1.644  -0.960  -4.544  0.00  0.00     0.000 A 
ATOM      6  C6  BNZ d   1       1.462  -0.030  -3.547  0.00  0.00     0.000 A 
ENDROOT
TORSDOF 0
ENDMDL
