MODEL 1
REMARK minimizedAffinity 9.69011307
REMARK minimizedRMSD -1
REMARK  0 active torsions:
REMARK  status: ('A' for Active; 'I' for Inactive)
ROOT
ATOM      1  C   UNL d   1      -0.780   1.258   2.742  0.00  0.00    -0.002 A 
ATOM      2  C1  UNL d   1      -0.906  -0.059   3.162  0.00  0.00     0.010 A 
ATOM      3  C2  UNL d   1      -1.842  -0.907   2.567  0.00  0.00     0.041 A 
ATOM      4  C3  UNL d   1      -2.656  -0.406   1.533  0.00  0.00    -0.075 A 
ATOM      5  S   UNL d   1      -3.870  -1.261   0.658  0.00  0.00     0.015 SA
ATOM      6  C4  UNL d   1      -4.250   0.100  -0.294  0.00  0.00     0.022 A 
ATOM      7  C5  UNL d   1      -3.479   1.190   0.035  0.00  0.00     0.026 A 
ATOM      8  C6  UNL d   1      -2.547   0.916   1.092  0.00  0.00    -0.082 A 
ATOM      9  C7  UNL d   1      -1.589   1.752   1.716  0.00  0.00     0.045 A 
ENDROOT
TORSDOF 0
ENDMDL
