MODEL 1
REMARK minimizedAffinity 2.22674227
REMARK minimizedRMSD -1
REMARK  0 active torsions:
REMARK  status: ('A' for Active; 'I' for Inactive)
ROOT
ATOM      1  C   UNL d   1      -0.548  -4.665  -3.482  0.00  0.00    -0.002 A 
ATOM      2  C1  UNL d   1      -0.254  -3.908  -4.607  0.00  0.00     0.010 A 
ATOM      3  C2  UNL d   1       0.522  -2.752  -4.502  0.00  0.00     0.041 A 
ATOM      4  C3  UNL d   1       1.005  -2.368  -3.235  0.00  0.00    -0.075 A 
ATOM      5  S   UNL d   1       1.975  -0.991  -2.866  0.00  0.00     0.015 SA
ATOM      6  C4  UNL d   1       2.023  -1.377  -1.207  0.00  0.00     0.022 A 
ATOM      7  C5  UNL d   1       1.321  -2.525  -0.923  0.00  0.00     0.026 A 
ATOM      8  C6  UNL d   1       0.723  -3.115  -2.088  0.00  0.00    -0.082 A 
ATOM      9  C7  UNL d   1      -0.068  -4.281  -2.227  0.00  0.00     0.045 A 
ENDROOT
TORSDOF 0
ENDMDL
