MODEL 1
REMARK minimizedAffinity 12.2981529
REMARK minimizedRMSD -1
REMARK  0 active torsions:
REMARK  status: ('A' for Active; 'I' for Inactive)
ROOT
ATOM      1  C   UNL d   1      -0.424  -5.648  -5.140  0.00  0.00    -0.002 A 
ATOM      2  C1  UNL d   1      -1.511  -5.601  -4.278  0.00  0.00     0.010 A 
ATOM      3  C2  UNL d   1      -1.940  -4.386  -3.742  0.00  0.00     0.041 A 
ATOM      4  C3  UNL d   1      -1.253  -3.206  -4.091  0.00  0.00    -0.075 A 
ATOM      5  S   UNL d   1      -1.601  -1.604  -3.557  0.00  0.00     0.015 SA
ATOM      6  C4  UNL d   1      -0.315  -0.944  -4.461  0.00  0.00     0.022 A 
ATOM      7  C5  UNL d   1       0.373  -1.909  -5.159  0.00  0.00     0.026 A 
ATOM      8  C6  UNL d   1      -0.156  -3.228  -4.957  0.00  0.00    -0.082 A 
ATOM      9  C7  UNL d   1       0.255  -4.476  -5.484  0.00  0.00     0.045 A 
ENDROOT
TORSDOF 0
ENDMDL
