MODEL 1
REMARK minimizedAffinity 7.8606391
REMARK minimizedRMSD -1
REMARK  0 active torsions:
REMARK  status: ('A' for Active; 'I' for Inactive)
ROOT
ATOM      1  C   UNL d   1       1.245  -1.130   5.355  0.00  0.00     0.077 C 
ATOM      2  C1  UNL d   1       1.276  -1.097   3.855  0.00  0.00    -0.074 A 
ATOM      3  C2  UNL d   1       0.724  -2.139   3.103  0.00  0.00    -0.005 A 
ATOM      4  C3  UNL d   1       0.752  -2.090   1.709  0.00  0.00     0.006 A 
ATOM      5  C4  UNL d   1       1.329  -1.001   1.055  0.00  0.00    -0.005 A 
ATOM      6  C5  UNL d   1       1.884   0.050   1.791  0.00  0.00    -0.074 A 
ATOM      7  C6  UNL d   1       2.500   1.233   1.104  0.00  0.00     0.077 C 
ATOM      8  C7  UNL d   1       1.847  -0.003   3.191  0.00  0.00    -0.001 A 
ENDROOT
TORSDOF 0
ENDMDL
