MODEL 1
REMARK minimizedAffinity 8.68936539
REMARK minimizedRMSD -1
REMARK  0 active torsions:
REMARK  status: ('A' for Active; 'I' for Inactive)
ROOT
ATOM      1  C   UNL d   1       2.261   4.501  -1.942  0.00  0.00     0.077 C 
ATOM      2  C1  UNL d   1       3.566   5.030  -2.460  0.00  0.00    -0.074 A 
ATOM      3  C2  UNL d   1       4.602   5.370  -1.585  0.00  0.00    -0.005 A 
ATOM      4  C3  UNL d   1       5.813   5.852  -2.082  0.00  0.00     0.006 A 
ATOM      5  C4  UNL d   1       5.999   5.999  -3.457  0.00  0.00    -0.005 A 
ATOM      6  C5  UNL d   1       4.974   5.663  -4.347  0.00  0.00    -0.074 A 
ATOM      7  C6  UNL d   1       5.162   5.806  -5.829  0.00  0.00     0.077 C 
ATOM      8  C7  UNL d   1       3.763   5.173  -3.840  0.00  0.00    -0.001 A 
ENDROOT
TORSDOF 0
ENDMDL
