MODEL 1
REMARK minimizedAffinity 8.44416142
REMARK minimizedRMSD -1
REMARK  0 active torsions:
REMARK  status: ('A' for Active; 'I' for Inactive)
ROOT
ATOM      1  C   UNL d   1       2.503   3.767  -2.411  0.00  0.00     0.077 C 
ATOM      2  C1  UNL d   1       3.719   4.550  -2.807  0.00  0.00    -0.074 A 
ATOM      3  C2  UNL d   1       4.657   4.953  -1.851  0.00  0.00    -0.005 A 
ATOM      4  C3  UNL d   1       5.788   5.673  -2.235  0.00  0.00     0.006 A 
ATOM      5  C4  UNL d   1       5.993   5.996  -3.577  0.00  0.00    -0.005 A 
ATOM      6  C5  UNL d   1       5.066   5.601  -4.547  0.00  0.00    -0.074 A 
ATOM      7  C6  UNL d   1       5.276   5.932  -5.995  0.00  0.00     0.077 C 
ATOM      8  C7  UNL d   1       3.936   4.872  -4.154  0.00  0.00    -0.001 A 
ENDROOT
TORSDOF 0
ENDMDL
