MODEL 1
REMARK minimizedAffinity 5.5421834
REMARK minimizedRMSD -1
REMARK  0 active torsions:
REMARK  status: ('A' for Active; 'I' for Inactive)
ROOT
ATOM      1  C   UNL d   1      -4.556  -5.893  -4.778  0.00  0.00     0.077 C 
ATOM      2  C1  UNL d   1      -4.928  -4.442  -4.851  0.00  0.00    -0.074 A 
ATOM      3  C2  UNL d   1      -5.628  -3.934  -5.951  0.00  0.00    -0.005 A 
ATOM      4  C3  UNL d   1      -5.976  -2.584  -6.000  0.00  0.00     0.006 A 
ATOM      5  C4  UNL d   1      -5.629  -1.730  -4.952  0.00  0.00    -0.005 A 
ATOM      6  C5  UNL d   1      -4.930  -2.221  -3.845  0.00  0.00    -0.074 A 
ATOM      7  C6  UNL d   1      -4.557  -1.318  -2.706  0.00  0.00     0.077 C 
ATOM      8  C7  UNL d   1      -4.590  -3.579  -3.799  0.00  0.00    -0.001 A 
ENDROOT
TORSDOF 0
ENDMDL
