MODEL 1
REMARK minimizedAffinity 10.7534237
REMARK minimizedRMSD -1
REMARK  0 active torsions:
REMARK  status: ('A' for Active; 'I' for Inactive)
ROOT
ATOM      1  C   UNL d   1      -2.608  -5.516  -3.615  0.00  0.00     0.077 C 
ATOM      2  C1  UNL d   1      -3.771  -5.077  -4.454  0.00  0.00    -0.074 A 
ATOM      3  C2  UNL d   1      -4.495  -5.998  -5.217  0.00  0.00    -0.005 A 
ATOM      4  C3  UNL d   1      -5.580  -5.577  -5.986  0.00  0.00     0.006 A 
ATOM      5  C4  UNL d   1      -5.951  -4.231  -5.998  0.00  0.00    -0.005 A 
ATOM      6  C5  UNL d   1      -5.240  -3.296  -5.241  0.00  0.00    -0.074 A 
ATOM      7  C6  UNL d   1      -5.632  -1.848  -5.235  0.00  0.00     0.077 C 
ATOM      8  C7  UNL d   1      -4.155  -3.729  -4.466  0.00  0.00    -0.001 A 
ENDROOT
TORSDOF 0
ENDMDL
