MODEL 1
REMARK minimizedAffinity 5.94624758
REMARK minimizedRMSD -1
REMARK  0 active torsions:
REMARK  status: ('A' for Active; 'I' for Inactive)
ROOT
ATOM      1  C   UNL d   1      -5.028  -1.700  -5.346  0.00  0.00     0.077 C 
ATOM      2  C1  UNL d   1      -4.984  -3.199  -5.366  0.00  0.00    -0.074 A 
ATOM      3  C2  UNL d   1      -5.999  -3.940  -5.981  0.00  0.00    -0.005 A 
ATOM      4  C3  UNL d   1      -5.940  -5.333  -6.000  0.00  0.00     0.006 A 
ATOM      5  C4  UNL d   1      -4.868  -5.999  -5.406  0.00  0.00    -0.005 A 
ATOM      6  C5  UNL d   1      -3.843  -5.276  -4.788  0.00  0.00    -0.074 A 
ATOM      7  C6  UNL d   1      -2.678  -5.976  -4.153  0.00  0.00     0.077 C 
ATOM      8  C7  UNL d   1      -3.906  -3.876  -4.779  0.00  0.00    -0.001 A 
ENDROOT
TORSDOF 0
ENDMDL
