MODEL 1
REMARK minimizedAffinity 14.7836294
REMARK minimizedRMSD -1
REMARK  0 active torsions:
REMARK  status: ('A' for Active; 'I' for Inactive)
ROOT
ATOM      1  C   UNL d   1       1.391  -2.598   4.547  0.00  0.00     0.077 C 
ATOM      2  C1  UNL d   1       1.436  -1.830   3.259  0.00  0.00    -0.074 A 
ATOM      3  C2  UNL d   1       1.419  -2.492   2.027  0.00  0.00    -0.005 A 
ATOM      4  C3  UNL d   1       1.452  -1.764   0.837  0.00  0.00     0.006 A 
ATOM      5  C4  UNL d   1       1.502  -0.370   0.868  0.00  0.00    -0.005 A 
ATOM      6  C5  UNL d   1       1.519   0.309   2.090  0.00  0.00    -0.074 A 
ATOM      7  C6  UNL d   1       1.563   1.807   2.140  0.00  0.00     0.077 C 
ATOM      8  C7  UNL d   1       1.479  -0.429   3.281  0.00  0.00    -0.001 A 
ENDROOT
TORSDOF 0
ENDMDL
