MODEL 1
REMARK minimizedAffinity 13.6688204
REMARK minimizedRMSD -1
REMARK  0 active torsions:
REMARK  status: ('A' for Active; 'I' for Inactive)
ROOT
ATOM      1  C   UNL d   1       1.517   3.077   3.411  0.00  0.00     0.077 C 
ATOM      2  C1  UNL d   1       1.906   2.011   2.430  0.00  0.00    -0.074 A 
ATOM      3  C2  UNL d   1       2.751   2.299   1.354  0.00  0.00    -0.005 A 
ATOM      4  C3  UNL d   1       3.113   1.296   0.455  0.00  0.00     0.006 A 
ATOM      5  C4  UNL d   1       2.633  -0.004   0.623  0.00  0.00    -0.005 A 
ATOM      6  C5  UNL d   1       1.788  -0.311   1.694  0.00  0.00    -0.074 A 
ATOM      7  C6  UNL d   1       1.272  -1.705   1.895  0.00  0.00     0.077 C 
ATOM      8  C7  UNL d   1       1.435   0.701   2.597  0.00  0.00    -0.001 A 
ENDROOT
TORSDOF 0
ENDMDL
