MODEL 1
REMARK minimizedAffinity 6.06768274
REMARK minimizedRMSD -1
REMARK  0 active torsions:
REMARK  status: ('A' for Active; 'I' for Inactive)
ROOT
ATOM      1  C   UNL d   1      -4.460  -2.957  -1.124  0.00  0.00     0.077 C 
ATOM      2  C1  UNL d   1      -5.005  -2.417  -2.413  0.00  0.00    -0.074 A 
ATOM      3  C2  UNL d   1      -5.495  -1.110  -2.494  0.00  0.00    -0.005 A 
ATOM      4  C3  UNL d   1      -5.990  -0.619  -3.702  0.00  0.00     0.006 A 
ATOM      5  C4  UNL d   1      -6.000  -1.428  -4.839  0.00  0.00    -0.005 A 
ATOM      6  C5  UNL d   1      -5.513  -2.737  -4.777  0.00  0.00    -0.074 A 
ATOM      7  C6  UNL d   1      -5.506  -3.617  -5.991  0.00  0.00     0.077 C 
ATOM      8  C7  UNL d   1      -5.010  -3.221  -3.561  0.00  0.00    -0.001 A 
ENDROOT
TORSDOF 0
ENDMDL
