MODEL 1
REMARK minimizedAffinity 12.9601555
REMARK minimizedRMSD -1
REMARK  0 active torsions:
REMARK  status: ('A' for Active; 'I' for Inactive)
ROOT
ATOM      1  C   UNL d   1      -3.210  -5.999  -4.960  0.00  0.00     0.077 C 
ATOM      2  C1  UNL d   1      -4.066  -4.769  -5.020  0.00  0.00    -0.074 A 
ATOM      3  C2  UNL d   1      -5.206  -4.726  -5.830  0.00  0.00    -0.005 A 
ATOM      4  C3  UNL d   1      -5.998  -3.579  -5.869  0.00  0.00     0.006 A 
ATOM      5  C4  UNL d   1      -5.659  -2.465  -5.100  0.00  0.00    -0.005 A 
ATOM      6  C5  UNL d   1      -4.524  -2.490  -4.284  0.00  0.00    -0.074 A 
ATOM      7  C6  UNL d   1      -4.151  -1.305  -3.444  0.00  0.00     0.077 C 
ATOM      8  C7  UNL d   1      -3.737  -3.649  -4.245  0.00  0.00    -0.001 A 
ENDROOT
TORSDOF 0
ENDMDL
