MODEL 1
REMARK minimizedAffinity 17.4070644
REMARK minimizedRMSD -1
REMARK  0 active torsions:
REMARK  status: ('A' for Active; 'I' for Inactive)
ROOT
ATOM      1  C   UNL d   1      -2.239   2.695  -0.082  0.00  0.00     0.077 C 
ATOM      2  C1  UNL d   1      -2.782   1.978  -1.283  0.00  0.00    -0.074 A 
ATOM      3  C2  UNL d   1      -2.483   0.631  -1.510  0.00  0.00    -0.005 A 
ATOM      4  C3  UNL d   1      -3.003  -0.026  -2.626  0.00  0.00     0.006 A 
ATOM      5  C4  UNL d   1      -3.825   0.657  -3.524  0.00  0.00    -0.005 A 
ATOM      6  C5  UNL d   1      -4.135   2.004  -3.312  0.00  0.00    -0.074 A 
ATOM      7  C6  UNL d   1      -5.024   2.751  -4.261  0.00  0.00     0.077 C 
ATOM      8  C7  UNL d   1      -3.614   2.655  -2.185  0.00  0.00    -0.001 A 
ENDROOT
TORSDOF 0
ENDMDL
