MODEL 1
REMARK minimizedAffinity 8.89291477
REMARK minimizedRMSD -1
REMARK  0 active torsions:
REMARK  status: ('A' for Active; 'I' for Inactive)
ROOT
ATOM      1  C   UNL d   1      -1.515  -4.885   2.081  0.00  0.00     0.077 C 
ATOM      2  C1  UNL d   1      -0.438  -3.843   2.033  0.00  0.00    -0.074 A 
ATOM      3  C2  UNL d   1       0.913  -4.204   2.059  0.00  0.00    -0.005 A 
ATOM      4  C3  UNL d   1       1.904  -3.224   2.004  0.00  0.00     0.006 A 
ATOM      5  C4  UNL d   1       1.554  -1.875   1.921  0.00  0.00    -0.005 A 
ATOM      6  C5  UNL d   1       0.209  -1.496   1.892  0.00  0.00    -0.074 A 
ATOM      7  C6  UNL d   1      -0.184  -0.051   1.793  0.00  0.00     0.077 C 
ATOM      8  C7  UNL d   1      -0.781  -2.487   1.941  0.00  0.00    -0.001 A 
ENDROOT
TORSDOF 0
ENDMDL
