MODEL 1
REMARK minimizedAffinity 7.2724247
REMARK minimizedRMSD -1
REMARK  1 active torsions:
REMARK  status: ('A' for Active; 'I' for Inactive)
REMARK    1  A    between atoms: N_2  and  C1_3 
ROOT
ATOM      1  C1  UNL d   1       4.494   1.320  -2.101  0.00  0.00     0.143 A 
ATOM      2  C2  UNL d   1       3.791   0.258  -2.679  0.00  0.00    -0.057 A 
ATOM      3  C3  UNL d   1       2.935  -0.547  -1.918  0.00  0.00     0.033 A 
ATOM      4  C4  UNL d   1       2.789  -0.320  -0.553  0.00  0.00    -0.042 A 
ATOM      5  C5  UNL d   1       3.497   0.714   0.048  0.00  0.00     0.033 A 
ATOM      6  C6  UNL d   1       4.345   1.518  -0.719  0.00  0.00    -0.057 A 
ENDROOT
BRANCH   1   7
ATOM      7  N   UNL d   1       5.435   2.094  -2.784  0.00  0.00    -0.732 N 
ATOM      8  C   UNL d   1       5.199   3.502  -3.021  0.00  0.00     0.284 C 
ATOM      9  H3  UNL d   1       6.391   1.873  -2.513  0.00  0.00     0.395 HD
ENDBRANCH   1   7
TORSDOF 1
ENDMDL
