MODEL 1
REMARK minimizedAffinity 6.2772727
REMARK minimizedRMSD -1
REMARK  1 active torsions:
REMARK  status: ('A' for Active; 'I' for Inactive)
REMARK    1  A    between atoms: N_2  and  C1_3 
ROOT
ATOM      1  C1  UNL d   1       3.992   4.116   3.660  0.00  0.00     0.143 A 
ATOM      2  C2  UNL d   1       5.164   4.864   3.501  0.00  0.00    -0.057 A 
ATOM      3  C3  UNL d   1       5.733   5.558   4.576  0.00  0.00     0.033 A 
ATOM      4  C4  UNL d   1       5.121   5.541   5.825  0.00  0.00    -0.042 A 
ATOM      5  C5  UNL d   1       3.942   4.825   5.999  0.00  0.00     0.033 A 
ATOM      6  C6  UNL d   1       3.383   4.128   4.924  0.00  0.00    -0.057 A 
ENDROOT
BRANCH   1   7
ATOM      7  N   UNL d   1       3.324   3.485   2.607  0.00  0.00    -0.732 N 
ATOM      8  C   UNL d   1       2.129   2.707   2.854  0.00  0.00     0.284 C 
ATOM      9  H3  UNL d   1       3.277   4.065   1.773  0.00  0.00     0.395 HD
ENDBRANCH   1   7
TORSDOF 1
ENDMDL
