MODEL 1
REMARK minimizedAffinity 0.717297137
REMARK minimizedRMSD -1
REMARK  1 active torsions:
REMARK  status: ('A' for Active; 'I' for Inactive)
REMARK    1  A    between atoms: N_2  and  C1_3 
ROOT
ATOM      1  C1  UNL d   1       2.725   3.292   5.342  0.00  0.00     0.143 A 
ATOM      2  C2  UNL d   1       3.774   3.943   6.000  0.00  0.00    -0.057 A 
ATOM      3  C3  UNL d   1       4.834   4.514   5.287  0.00  0.00     0.033 A 
ATOM      4  C4  UNL d   1       4.879   4.419   3.900  0.00  0.00    -0.042 A 
ATOM      5  C5  UNL d   1       3.860   3.755   3.226  0.00  0.00     0.033 A 
ATOM      6  C6  UNL d   1       2.800   3.192   3.944  0.00  0.00    -0.057 A 
ENDROOT
BRANCH   1   7
ATOM      7  N   UNL d   1       1.693   2.618   6.000  0.00  0.00    -0.732 N 
ATOM      8  C   UNL d   1       0.705   1.872   5.251  0.00  0.00     0.284 C 
ATOM      9  H3  UNL d   1       2.011   2.153   6.847  0.00  0.00     0.395 HD
ENDBRANCH   1   7
TORSDOF 1
ENDMDL
