MODEL 1
REMARK minimizedAffinity 11.5768681
REMARK minimizedRMSD -1
REMARK  1 active torsions:
REMARK  status: ('A' for Active; 'I' for Inactive)
REMARK    1  A    between atoms: N_2  and  C1_3 
ROOT
ATOM      1  C1  UNL d   1      -5.305   0.089  -4.735  0.00  0.00     0.143 A 
ATOM      2  C2  UNL d   1      -4.366   0.728  -5.551  0.00  0.00    -0.057 A 
ATOM      3  C3  UNL d   1      -3.777   1.940  -5.169  0.00  0.00     0.033 A 
ATOM      4  C4  UNL d   1      -4.140   2.550  -3.973  0.00  0.00    -0.042 A 
ATOM      5  C5  UNL d   1      -5.090   1.945  -3.157  0.00  0.00     0.033 A 
ATOM      6  C6  UNL d   1      -5.670   0.732  -3.541  0.00  0.00    -0.057 A 
ENDROOT
BRANCH   1   7
ATOM      7  N   UNL d   1      -5.999  -1.066  -5.105  0.00  0.00    -0.732 N 
ATOM      8  C   UNL d   1      -5.992  -2.234  -4.251  0.00  0.00     0.284 C 
ATOM      9  H3  UNL d   1      -6.904  -0.859  -5.519  0.00  0.00     0.395 HD
ENDBRANCH   1   7
TORSDOF 1
ENDMDL
