MODEL 1
REMARK minimizedAffinity 8.67573071
REMARK minimizedRMSD -1
REMARK  1 active torsions:
REMARK  status: ('A' for Active; 'I' for Inactive)
REMARK    1  A    between atoms: N_2  and  C1_3 
ROOT
ATOM      1  C1  UNL d   1       4.861   1.122  -2.033  0.00  0.00     0.143 A 
ATOM      2  C2  UNL d   1       4.156   0.241  -2.860  0.00  0.00    -0.057 A 
ATOM      3  C3  UNL d   1       3.202  -0.639  -2.337  0.00  0.00     0.033 A 
ATOM      4  C4  UNL d   1       2.955  -0.674  -0.968  0.00  0.00    -0.042 A 
ATOM      5  C5  UNL d   1       3.661   0.176  -0.124  0.00  0.00     0.033 A 
ATOM      6  C6  UNL d   1       4.609   1.057  -0.654  0.00  0.00    -0.057 A 
ENDROOT
BRANCH   1   7
ATOM      7  N   UNL d   1       5.893   1.952  -2.480  0.00  0.00    -0.732 N 
ATOM      8  C   UNL d   1       5.673   3.371  -2.655  0.00  0.00     0.284 C 
ATOM      9  H3  UNL d   1       6.789   1.718  -2.059  0.00  0.00     0.395 HD
ENDBRANCH   1   7
TORSDOF 1
ENDMDL
