MODEL 1
REMARK minimizedAffinity 4.32903576
REMARK minimizedRMSD -1
REMARK  1 active torsions:
REMARK  status: ('A' for Active; 'I' for Inactive)
REMARK    1  A    between atoms: N_2  and  C1_3 
ROOT
ATOM      1  C1  UNL d   1      -0.508  -1.842  -2.488  0.00  0.00     0.143 A 
ATOM      2  C2  UNL d   1       0.232  -2.612  -1.584  0.00  0.00    -0.057 A 
ATOM      3  C3  UNL d   1       0.539  -2.134  -0.304  0.00  0.00     0.033 A 
ATOM      4  C4  UNL d   1       0.135  -0.861   0.085  0.00  0.00    -0.042 A 
ATOM      5  C5  UNL d   1      -0.580  -0.069  -0.806  0.00  0.00     0.033 A 
ATOM      6  C6  UNL d   1      -0.890  -0.554  -2.080  0.00  0.00    -0.057 A 
ENDROOT
BRANCH   1   7
ATOM      7  N   UNL d   1      -0.761  -2.221  -3.808  0.00  0.00    -0.732 N 
ATOM      8  C   UNL d   1      -1.578  -3.380  -4.098  0.00  0.00     0.284 C 
ATOM      9  H3  UNL d   1      -0.940  -1.424  -4.414  0.00  0.00     0.395 HD
ENDBRANCH   1   7
TORSDOF 1
ENDMDL
