MODEL 1
REMARK minimizedAffinity 1.62911379
REMARK minimizedRMSD -1
REMARK  1 active torsions:
REMARK  status: ('A' for Active; 'I' for Inactive)
REMARK    1  A    between atoms: N_2  and  C1_3 
ROOT
ATOM      1  C1  UNL d   1       0.630   0.180  -0.642  0.00  0.00     0.143 A 
ATOM      2  C2  UNL d   1      -0.547  -0.379  -1.152  0.00  0.00    -0.057 A 
ATOM      3  C3  UNL d   1      -0.608  -1.727  -1.525  0.00  0.00     0.033 A 
ATOM      4  C4  UNL d   1       0.519  -2.536  -1.422  0.00  0.00    -0.042 A 
ATOM      5  C5  UNL d   1       1.706  -1.996  -0.941  0.00  0.00     0.033 A 
ATOM      6  C6  UNL d   1       1.760  -0.650  -0.564  0.00  0.00    -0.057 A 
ENDROOT
BRANCH   1   7
ATOM      7  N   UNL d   1       0.783   1.536  -0.346  0.00  0.00    -0.732 N 
ATOM      8  C   UNL d   1       0.425   2.051   0.959  0.00  0.00     0.284 C 
ATOM      9  H3  UNL d   1       1.646   1.921  -0.722  0.00  0.00     0.395 HD
ENDBRANCH   1   7
TORSDOF 1
ENDMDL
