MODEL 1
REMARK minimizedAffinity 12.6820669
REMARK minimizedRMSD -1
REMARK  0 active torsions:
REMARK  status: ('A' for Active; 'I' for Inactive)
ROOT
ATOM      1  C   UNL d   1      -1.766  -4.163  -4.804  0.00  0.00     0.023 A 
ATOM      2  C1  UNL d   1      -1.254  -3.643  -5.993  0.00  0.00     0.003 A 
ATOM      3  C2  UNL d   1      -0.635  -2.391  -6.000  0.00  0.00     0.048 A 
ATOM      4  C3  UNL d   1      -0.531  -1.665  -4.814  0.00  0.00     0.023 A 
ATOM      5  C4  UNL d   1      -1.041  -2.181  -3.622  0.00  0.00     0.048 A 
ATOM      6  C5  UNL d   1      -1.660  -3.433  -3.620  0.00  0.00     0.003 A 
ATOM      7  I   UNL d   1       0.390   0.199  -4.822  0.00  0.00    -0.146 I 
ENDROOT
TORSDOF 0
ENDMDL
