MODEL 1
REMARK minimizedAffinity 11.4865046
REMARK minimizedRMSD -1
REMARK  0 active torsions:
REMARK  status: ('A' for Active; 'I' for Inactive)
ROOT
ATOM      1  C   UNL d   1       5.403   1.571   2.997  0.00  0.00     0.023 A 
ATOM      2  C1  UNL d   1       5.359   2.579   3.960  0.00  0.00     0.003 A 
ATOM      3  C2  UNL d   1       4.894   3.851   3.619  0.00  0.00     0.048 A 
ATOM      4  C3  UNL d   1       4.473   4.107   2.315  0.00  0.00     0.023 A 
ATOM      5  C4  UNL d   1       4.514   3.101   1.349  0.00  0.00     0.048 A 
ATOM      6  C5  UNL d   1       4.981   1.831   1.693  0.00  0.00     0.003 A 
ATOM      7  I   UNL d   1       3.780   6.000   1.806  0.00  0.00    -0.146 I 
ENDROOT
TORSDOF 0
ENDMDL
