MODEL 1
REMARK minimizedAffinity 8.09852219
REMARK minimizedRMSD -1
REMARK  0 active torsions:
REMARK  status: ('A' for Active; 'I' for Inactive)
ROOT
ATOM      1  C   UNL d   1      -2.865   1.453   1.739  0.00  0.00     0.023 A 
ATOM      2  C1  UNL d   1      -1.743   2.236   2.011  0.00  0.00     0.003 A 
ATOM      3  C2  UNL d   1      -0.577   1.641   2.499  0.00  0.00     0.048 A 
ATOM      4  C3  UNL d   1      -0.540   0.263   2.710  0.00  0.00     0.023 A 
ATOM      5  C4  UNL d   1      -1.661  -0.524   2.438  0.00  0.00     0.048 A 
ATOM      6  C5  UNL d   1      -2.824   0.075   1.952  0.00  0.00     0.003 A 
ATOM      7  I   UNL d   1       1.193  -0.625   3.435  0.00  0.00    -0.146 I 
ENDROOT
TORSDOF 0
ENDMDL
