MODEL 1
REMARK minimizedAffinity 6.84791708
REMARK minimizedRMSD -1
REMARK  0 active torsions:
REMARK  status: ('A' for Active; 'I' for Inactive)
ROOT
ATOM      1  C   UNL d   1      -0.037   0.104  -3.847  0.00  0.00     0.023 A 
ATOM      2  C1  UNL d   1      -0.000  -0.014  -5.237  0.00  0.00     0.003 A 
ATOM      3  C2  UNL d   1      -0.522  -1.151  -5.856  0.00  0.00     0.048 A 
ATOM      4  C3  UNL d   1      -1.080  -2.167  -5.080  0.00  0.00     0.023 A 
ATOM      5  C4  UNL d   1      -1.119  -2.053  -3.689  0.00  0.00     0.048 A 
ATOM      6  C5  UNL d   1      -0.595  -0.915  -3.074  0.00  0.00     0.003 A 
ATOM      7  I   UNL d   1      -1.858  -3.861  -6.000  0.00  0.00    -0.146 I 
ENDROOT
TORSDOF 0
ENDMDL
