MODEL 1
REMARK minimizedAffinity 9.55335426
REMARK minimizedRMSD -1
REMARK  0 active torsions:
REMARK  status: ('A' for Active; 'I' for Inactive)
ROOT
ATOM      1  C   UNL d   1       1.432  -1.372  -4.250  0.00  0.00     0.023 A 
ATOM      2  C1  UNL d   1       2.634  -2.035  -4.495  0.00  0.00     0.003 A 
ATOM      3  C2  UNL d   1       3.731  -1.332  -4.997  0.00  0.00     0.048 A 
ATOM      4  C3  UNL d   1       3.619   0.034  -5.251  0.00  0.00     0.023 A 
ATOM      5  C4  UNL d   1       2.418   0.703  -5.007  0.00  0.00     0.048 A 
ATOM      6  C5  UNL d   1       1.324  -0.005  -4.506  0.00  0.00     0.003 A 
ATOM      7  I   UNL d   1       5.251   1.083  -5.998  0.00  0.00    -0.146 I 
ENDROOT
TORSDOF 0
ENDMDL
