MODEL 1
REMARK minimizedAffinity 13.9562826
REMARK minimizedRMSD -1
REMARK  0 active torsions:
REMARK  status: ('A' for Active; 'I' for Inactive)
ROOT
ATOM      1  C   UNL d   1       6.000   1.055   1.523  0.00  0.00     0.023 A 
ATOM      2  C1  UNL d   1       5.996   1.870   0.391  0.00  0.00     0.003 A 
ATOM      3  C2  UNL d   1       5.248   3.049   0.381  0.00  0.00     0.048 A 
ATOM      4  C3  UNL d   1       4.506   3.407   1.506  0.00  0.00     0.023 A 
ATOM      5  C4  UNL d   1       4.507   2.594   2.641  0.00  0.00     0.048 A 
ATOM      6  C5  UNL d   1       5.256   1.416   2.647  0.00  0.00     0.003 A 
ATOM      7  I   UNL d   1       3.391   5.161   1.493  0.00  0.00    -0.146 I 
ENDROOT
TORSDOF 0
ENDMDL
