MODEL 1
REMARK minimizedAffinity 13.7726469
REMARK minimizedRMSD -1
REMARK  0 active torsions:
REMARK  status: ('A' for Active; 'I' for Inactive)
ROOT
ATOM      1  C   UNL d   1       6.000  -5.113   5.684  0.00  0.00     0.023 A 
ATOM      2  C1  UNL d   1       5.899  -3.722   5.695  0.00  0.00     0.003 A 
ATOM      3  C2  UNL d   1       4.728  -3.102   5.255  0.00  0.00     0.048 A 
ATOM      4  C3  UNL d   1       3.661  -3.880   4.806  0.00  0.00     0.023 A 
ATOM      5  C4  UNL d   1       3.757  -5.272   4.794  0.00  0.00     0.048 A 
ATOM      6  C5  UNL d   1       4.930  -5.887   5.234  0.00  0.00     0.003 A 
ATOM      7  I   UNL d   1       1.916  -2.959   4.150  0.00  0.00    -0.146 I 
ENDROOT
TORSDOF 0
ENDMDL
