MODEL 1
REMARK minimizedAffinity 9.6040144
REMARK minimizedRMSD -1
REMARK  0 active torsions:
REMARK  status: ('A' for Active; 'I' for Inactive)
ROOT
ATOM      1  C   UNL d   1       1.792  -0.958   3.563  0.00  0.00     0.023 A 
ATOM      2  C1  UNL d   1       1.765  -2.352   3.533  0.00  0.00     0.003 A 
ATOM      3  C2  UNL d   1       2.739  -3.086   4.213  0.00  0.00     0.048 A 
ATOM      4  C3  UNL d   1       3.736  -2.418   4.924  0.00  0.00     0.023 A 
ATOM      5  C4  UNL d   1       3.766  -1.023   4.958  0.00  0.00     0.048 A 
ATOM      6  C5  UNL d   1       2.791  -0.294   4.275  0.00  0.00     0.003 A 
ATOM      7  I   UNL d   1       5.187  -3.507   5.938  0.00  0.00    -0.146 I 
ENDROOT
TORSDOF 0
ENDMDL
