MODEL 1
REMARK minimizedAffinity 8.78609562
REMARK minimizedRMSD -1
REMARK  0 active torsions:
REMARK  status: ('A' for Active; 'I' for Inactive)
ROOT
ATOM      1  C   UNL d   1       1.478  -2.628   2.992  0.00  0.00     0.023 A 
ATOM      2  C1  UNL d   1       0.087  -2.618   3.102  0.00  0.00     0.003 A 
ATOM      3  C2  UNL d   1      -0.553  -3.510   3.964  0.00  0.00     0.048 A 
ATOM      4  C3  UNL d   1       0.203  -4.409   4.715  0.00  0.00     0.023 A 
ATOM      5  C4  UNL d   1       1.595  -4.422   4.610  0.00  0.00     0.048 A 
ATOM      6  C5  UNL d   1       2.231  -3.529   3.745  0.00  0.00     0.003 A 
ATOM      7  I   UNL d   1      -0.748  -5.738   5.999  0.00  0.00    -0.146 I 
ENDROOT
TORSDOF 0
ENDMDL
