MODEL 1
REMARK minimizedAffinity 6.62568521
REMARK minimizedRMSD -1
REMARK  0 active torsions:
REMARK  status: ('A' for Active; 'I' for Inactive)
ROOT
ATOM      1  C   UNL d   1       1.193  -3.210   4.022  0.00  0.00     0.023 A 
ATOM      2  C1  UNL d   1       1.948  -2.198   3.428  0.00  0.00     0.003 A 
ATOM      3  C2  UNL d   1       3.240  -1.930   3.883  0.00  0.00     0.048 A 
ATOM      4  C3  UNL d   1       3.773  -2.677   4.933  0.00  0.00     0.023 A 
ATOM      5  C4  UNL d   1       3.022  -3.691   5.530  0.00  0.00     0.048 A 
ATOM      6  C5  UNL d   1       1.730  -3.955   5.072  0.00  0.00     0.003 A 
ATOM      7  I   UNL d   1       5.696  -2.279   5.612  0.00  0.00    -0.146 I 
ENDROOT
TORSDOF 0
ENDMDL
