MODEL 1
REMARK minimizedAffinity 11.5763025
REMARK minimizedRMSD -1
REMARK  2 active torsions:
REMARK  status: ('A' for Active; 'I' for Inactive)
REMARK    1  A    between atoms: C1_2  and  C2_3 
REMARK    2  A    between atoms: C2_3  and  C3_4 
ROOT
ATOM      1  C3  UNL d   1      -3.647  -0.765   3.816  0.00  0.00    -0.075 A 
ATOM      2  C4  UNL d   1      -3.667  -1.996   3.145  0.00  0.00     0.002 A 
ATOM      3  C5  UNL d   1      -3.717  -3.193   3.861  0.00  0.00     0.002 A 
ATOM      4  C6  UNL d   1      -3.738  -3.174   5.254  0.00  0.00    -0.004 A 
ATOM      5  C7  UNL d   1      -3.701  -1.957   5.931  0.00  0.00     0.002 A 
ATOM      6  C8  UNL d   1      -3.655  -0.758   5.217  0.00  0.00     0.002 A 
ENDROOT
BRANCH   1   7
ATOM      7  C2  UNL d   1      -3.622   0.534   3.046  0.00  0.00     0.056 C 
BRANCH   7   8
ATOM      8  C1  UNL d   1      -3.837   1.778   3.914  0.00  0.00     0.007 C 
ATOM      9  C   UNL d   1      -5.256   2.326   3.837  0.00  0.00     0.009 C 
ENDBRANCH   7   8
ENDBRANCH   1   7
TORSDOF 2
ENDMDL
