MODEL 1
REMARK minimizedAffinity 10.4955425
REMARK minimizedRMSD -1
REMARK  2 active torsions:
REMARK  status: ('A' for Active; 'I' for Inactive)
REMARK    1  A    between atoms: C1_2  and  C2_3 
REMARK    2  A    between atoms: C2_3  and  C3_4 
ROOT
ATOM      1  C3  UNL d   1      -2.901   1.598   3.707  0.00  0.00    -0.075 A 
ATOM      2  C4  UNL d   1      -4.146   1.880   3.128  0.00  0.00     0.002 A 
ATOM      3  C5  UNL d   1      -5.172   2.437   3.892  0.00  0.00     0.002 A 
ATOM      4  C6  UNL d   1      -4.970   2.709   5.243  0.00  0.00    -0.004 A 
ATOM      5  C7  UNL d   1      -3.742   2.417   5.833  0.00  0.00     0.002 A 
ATOM      6  C8  UNL d   1      -2.712   1.864   5.070  0.00  0.00     0.002 A 
ENDROOT
BRANCH   1   7
ATOM      7  C2  UNL d   1      -1.777   1.022   2.879  0.00  0.00     0.056 C 
BRANCH   7   8
ATOM      8  C1  UNL d   1      -0.553   1.938   2.765  0.00  0.00     0.007 C 
ATOM      9  C   UNL d   1       0.762   1.175   2.679  0.00  0.00     0.009 C 
ENDBRANCH   7   8
ENDBRANCH   1   7
TORSDOF 2
ENDMDL
