MODEL 1
REMARK minimizedAffinity 10.4505577
REMARK minimizedRMSD -1
REMARK  2 active torsions:
REMARK  status: ('A' for Active; 'I' for Inactive)
REMARK    1  A    between atoms: C1_2  and  C2_3 
REMARK    2  A    between atoms: C2_3  and  C3_4 
ROOT
ATOM      1  C3  UNL d   1       2.772  -0.718  -0.654  0.00  0.00    -0.075 A 
ATOM      2  C4  UNL d   1       1.703  -1.383  -1.273  0.00  0.00     0.002 A 
ATOM      3  C5  UNL d   1       1.620  -2.775  -1.239  0.00  0.00     0.002 A 
ATOM      4  C6  UNL d   1       2.608  -3.519  -0.597  0.00  0.00    -0.004 A 
ATOM      5  C7  UNL d   1       3.682  -2.870   0.007  0.00  0.00     0.002 A 
ATOM      6  C8  UNL d   1       3.765  -1.476  -0.022  0.00  0.00     0.002 A 
ENDROOT
BRANCH   1   7
ATOM      7  C2  UNL d   1       2.851   0.790  -0.662  0.00  0.00     0.056 C 
BRANCH   7   8
ATOM      8  C1  UNL d   1       3.748   1.373   0.436  0.00  0.00     0.007 C 
ATOM      9  C   UNL d   1       5.153   1.703  -0.048  0.00  0.00     0.009 C 
ENDBRANCH   7   8
ENDBRANCH   1   7
TORSDOF 2
ENDMDL
