MODEL 1
REMARK minimizedAffinity 4.58059692
REMARK minimizedRMSD -1
REMARK  2 active torsions:
REMARK  status: ('A' for Active; 'I' for Inactive)
REMARK    1  A    between atoms: C1_2  and  C2_3 
REMARK    2  A    between atoms: C2_3  and  C3_4 
ROOT
ATOM      1  C3  UNL d   1       3.094  -0.304  -0.052  0.00  0.00    -0.075 A 
ATOM      2  C4  UNL d   1       2.552   0.643  -0.933  0.00  0.00     0.002 A 
ATOM      3  C5  UNL d   1       3.121   1.912  -1.045  0.00  0.00     0.002 A 
ATOM      4  C6  UNL d   1       4.230   2.253  -0.273  0.00  0.00    -0.004 A 
ATOM      5  C7  UNL d   1       4.766   1.325   0.617  0.00  0.00     0.002 A 
ATOM      6  C8  UNL d   1       4.202   0.053   0.728  0.00  0.00     0.002 A 
ENDROOT
BRANCH   1   7
ATOM      7  C2  UNL d   1       2.501  -1.689   0.053  0.00  0.00     0.056 C 
BRANCH   7   8
ATOM      8  C1  UNL d   1       3.538  -2.817   0.009  0.00  0.00     0.007 C 
ATOM      9  C   UNL d   1       2.937  -4.172  -0.338  0.00  0.00     0.009 C 
ENDBRANCH   7   8
ENDBRANCH   1   7
TORSDOF 2
ENDMDL
