MODEL 1
REMARK minimizedAffinity 9.30138397
REMARK minimizedRMSD -1
REMARK  2 active torsions:
REMARK  status: ('A' for Active; 'I' for Inactive)
REMARK    1  A    between atoms: C1_2  and  C2_3 
REMARK    2  A    between atoms: C2_3  and  C3_4 
ROOT
ATOM      1  C3  UNL d   1      -2.368   3.549  -4.643  0.00  0.00    -0.075 A 
ATOM      2  C4  UNL d   1      -1.875   4.759  -4.135  0.00  0.00     0.002 A 
ATOM      3  C5  UNL d   1      -2.421   5.975  -4.546  0.00  0.00     0.002 A 
ATOM      4  C6  UNL d   1      -3.458   5.998  -5.476  0.00  0.00    -0.004 A 
ATOM      5  C7  UNL d   1      -3.945   4.802  -6.000  0.00  0.00     0.002 A 
ATOM      6  C8  UNL d   1      -3.403   3.584  -5.587  0.00  0.00     0.002 A 
ENDROOT
BRANCH   1   7
ATOM      7  C2  UNL d   1      -1.801   2.228  -4.180  0.00  0.00     0.056 C 
BRANCH   7   8
ATOM      8  C1  UNL d   1      -0.632   1.719  -5.029  0.00  0.00     0.007 C 
ATOM      9  C   UNL d   1       0.731   2.094  -4.462  0.00  0.00     0.009 C 
ENDBRANCH   7   8
ENDBRANCH   1   7
TORSDOF 2
ENDMDL
