MODEL 1
REMARK minimizedAffinity 12.2516632
REMARK minimizedRMSD -1
REMARK  2 active torsions:
REMARK  status: ('A' for Active; 'I' for Inactive)
REMARK    1  A    between atoms: C1_2  and  C2_3 
REMARK    2  A    between atoms: C2_3  and  C3_4 
ROOT
ATOM      1  C3  UNL d   1       3.113   0.033  -0.730  0.00  0.00    -0.075 A 
ATOM      2  C4  UNL d   1       1.975  -0.410  -1.421  0.00  0.00     0.002 A 
ATOM      3  C5  UNL d   1       1.674  -1.771  -1.490  0.00  0.00     0.002 A 
ATOM      4  C6  UNL d   1       2.510  -2.704  -0.881  0.00  0.00    -0.004 A 
ATOM      5  C7  UNL d   1       3.651  -2.277  -0.207  0.00  0.00     0.002 A 
ATOM      6  C8  UNL d   1       3.953  -0.916  -0.132  0.00  0.00     0.002 A 
ENDROOT
BRANCH   1   7
ATOM      7  C2  UNL d   1       3.428   1.506  -0.626  0.00  0.00     0.056 C 
BRANCH   7   8
ATOM      8  C1  UNL d   1       4.713   1.815   0.150  0.00  0.00     0.007 C 
ATOM      9  C   UNL d   1       5.900   2.122  -0.752  0.00  0.00     0.009 C 
ENDBRANCH   7   8
ENDBRANCH   1   7
TORSDOF 2
ENDMDL
