MODEL 1
REMARK minimizedAffinity 12.9120245
REMARK minimizedRMSD -1
REMARK  2 active torsions:
REMARK  status: ('A' for Active; 'I' for Inactive)
REMARK    1  A    between atoms: C1_2  and  C2_3 
REMARK    2  A    between atoms: C2_3  and  C3_4 
ROOT
ATOM      1  C3  UNL d   1       2.536  -1.036  -1.289  0.00  0.00    -0.075 A 
ATOM      2  C4  UNL d   1       1.555  -1.407  -2.220  0.00  0.00     0.002 A 
ATOM      3  C5  UNL d   1       1.052  -2.708  -2.240  0.00  0.00     0.002 A 
ATOM      4  C6  UNL d   1       1.530  -3.656  -1.338  0.00  0.00    -0.004 A 
ATOM      5  C7  UNL d   1       2.516  -3.304  -0.419  0.00  0.00     0.002 A 
ATOM      6  C8  UNL d   1       3.018  -2.001  -0.394  0.00  0.00     0.002 A 
ENDROOT
BRANCH   1   7
ATOM      7  C2  UNL d   1       3.063   0.378  -1.243  0.00  0.00     0.056 C 
BRANCH   7   8
ATOM      8  C1  UNL d   1       3.637   0.786   0.118  0.00  0.00     0.007 C 
ATOM      9  C   UNL d   1       4.989   1.480   0.016  0.00  0.00     0.009 C 
ENDBRANCH   7   8
ENDBRANCH   1   7
TORSDOF 2
ENDMDL
