MODEL 1
REMARK minimizedAffinity 14.5131483
REMARK minimizedRMSD -1
REMARK  2 active torsions:
REMARK  status: ('A' for Active; 'I' for Inactive)
REMARK    1  A    between atoms: C1_2  and  C2_3 
REMARK    2  A    between atoms: C2_3  and  C3_4 
ROOT
ATOM      1  C3  UNL d   1       3.092  -2.332  -0.406  0.00  0.00    -0.075 A 
ATOM      2  C4  UNL d   1       4.448  -2.661  -0.268  0.00  0.00     0.002 A 
ATOM      3  C5  UNL d   1       4.829  -3.937   0.151  0.00  0.00     0.002 A 
ATOM      4  C6  UNL d   1       3.861  -4.894   0.446  0.00  0.00    -0.004 A 
ATOM      5  C7  UNL d   1       2.510  -4.573   0.328  0.00  0.00     0.002 A 
ATOM      6  C8  UNL d   1       2.127  -3.299  -0.095  0.00  0.00     0.002 A 
ENDROOT
BRANCH   1   7
ATOM      7  C2  UNL d   1       2.675  -0.963  -0.888  0.00  0.00     0.056 C 
BRANCH   7   8
ATOM      8  C1  UNL d   1       2.234  -0.925  -2.355  0.00  0.00     0.007 C 
ATOM      9  C   UNL d   1       1.817   0.463  -2.821  0.00  0.00     0.009 C 
ENDBRANCH   7   8
ENDBRANCH   1   7
TORSDOF 2
ENDMDL
