MODEL 1
REMARK minimizedAffinity 15.3598423
REMARK minimizedRMSD -1
REMARK  2 active torsions:
REMARK  status: ('A' for Active; 'I' for Inactive)
REMARK    1  A    between atoms: C1_2  and  C2_3 
REMARK    2  A    between atoms: C2_3  and  C3_4 
ROOT
ATOM      1  C3  UNL d   1       0.253   1.332   3.663  0.00  0.00    -0.075 A 
ATOM      2  C4  UNL d   1       0.729   0.717   4.830  0.00  0.00     0.002 A 
ATOM      3  C5  UNL d   1       0.931   1.462   5.992  0.00  0.00     0.002 A 
ATOM      4  C6  UNL d   1       0.671   2.830   6.000  0.00  0.00    -0.004 A 
ATOM      5  C7  UNL d   1       0.214   3.455   4.842  0.00  0.00     0.002 A 
ATOM      6  C8  UNL d   1       0.006   2.712   3.679  0.00  0.00     0.002 A 
ENDROOT
BRANCH   1   7
ATOM      7  C2  UNL d   1       0.003   0.526   2.411  0.00  0.00     0.056 C 
BRANCH   7   8
ATOM      8  C1  UNL d   1      -1.378   0.753   1.788  0.00  0.00     0.007 C 
ATOM      9  C   UNL d   1      -2.511   0.698   2.804  0.00  0.00     0.009 C 
ENDBRANCH   7   8
ENDBRANCH   1   7
TORSDOF 2
ENDMDL
