MODEL 1
REMARK minimizedAffinity 16.9181194
REMARK minimizedRMSD -1
REMARK  2 active torsions:
REMARK  status: ('A' for Active; 'I' for Inactive)
REMARK    1  A    between atoms: C1_2  and  C2_3 
REMARK    2  A    between atoms: C2_3  and  C3_4 
ROOT
ATOM      1  C3  UNL d   1      -1.143   0.532   2.364  0.00  0.00    -0.075 A 
ATOM      2  C4  UNL d   1      -0.341  -0.556   2.737  0.00  0.00     0.002 A 
ATOM      3  C5  UNL d   1       0.784  -0.363   3.540  0.00  0.00     0.002 A 
ATOM      4  C6  UNL d   1       1.126   0.917   3.970  0.00  0.00    -0.004 A 
ATOM      5  C7  UNL d   1       0.345   2.007   3.591  0.00  0.00     0.002 A 
ATOM      6  C8  UNL d   1      -0.783   1.817   2.792  0.00  0.00     0.002 A 
ENDROOT
BRANCH   1   7
ATOM      7  C2  UNL d   1      -2.379   0.327   1.519  0.00  0.00     0.056 C 
BRANCH   7   8
ATOM      8  C1  UNL d   1      -3.665   0.141   2.331  0.00  0.00     0.007 C 
ATOM      9  C   UNL d   1      -4.133  -1.307   2.391  0.00  0.00     0.009 C 
ENDBRANCH   7   8
ENDBRANCH   1   7
TORSDOF 2
ENDMDL
