MODEL 1
REMARK minimizedAffinity 14.6346254
REMARK minimizedRMSD -1
REMARK  2 active torsions:
REMARK  status: ('A' for Active; 'I' for Inactive)
REMARK    1  A    between atoms: C1_2  and  C2_3 
REMARK    2  A    between atoms: C2_3  and  C3_4 
ROOT
ATOM      1  C3  UNL d   1      -3.161  -0.723   2.354  0.00  0.00    -0.075 A 
ATOM      2  C4  UNL d   1      -1.838  -0.382   2.036  0.00  0.00     0.002 A 
ATOM      3  C5  UNL d   1      -1.307   0.845   2.436  0.00  0.00     0.002 A 
ATOM      4  C6  UNL d   1      -2.093   1.748   3.147  0.00  0.00    -0.004 A 
ATOM      5  C7  UNL d   1      -3.414   1.427   3.454  0.00  0.00     0.002 A 
ATOM      6  C8  UNL d   1      -3.946   0.198   3.060  0.00  0.00     0.002 A 
ENDROOT
BRANCH   1   7
ATOM      7  C2  UNL d   1      -3.732  -2.061   1.950  0.00  0.00     0.056 C 
BRANCH   7   8
ATOM      8  C1  UNL d   1      -5.177  -2.287   2.409  0.00  0.00     0.007 C 
ATOM      9  C   UNL d   1      -5.999  -3.106   1.423  0.00  0.00     0.009 C 
ENDBRANCH   7   8
ENDBRANCH   1   7
TORSDOF 2
ENDMDL
