MODEL 1
REMARK minimizedAffinity 14.9500074
REMARK minimizedRMSD -1
REMARK  2 active torsions:
REMARK  status: ('A' for Active; 'I' for Inactive)
REMARK    1  A    between atoms: C1_2  and  C2_3 
REMARK    2  A    between atoms: C2_3  and  C3_4 
ROOT
ATOM      1  C3  UNL d   1      -4.206  -0.679   2.741  0.00  0.00    -0.075 A 
ATOM      2  C4  UNL d   1      -5.190  -1.179   1.876  0.00  0.00     0.002 A 
ATOM      3  C5  UNL d   1      -5.999  -2.247   2.265  0.00  0.00     0.002 A 
ATOM      4  C6  UNL d   1      -5.827  -2.836   3.516  0.00  0.00    -0.004 A 
ATOM      5  C7  UNL d   1      -4.841  -2.358   4.377  0.00  0.00     0.002 A 
ATOM      6  C8  UNL d   1      -4.033  -1.286   3.992  0.00  0.00     0.002 A 
ENDROOT
BRANCH   1   7
ATOM      7  C2  UNL d   1      -3.347   0.496   2.338  0.00  0.00     0.056 C 
BRANCH   7   8
ATOM      8  C1  UNL d   1      -3.146   1.532   3.449  0.00  0.00     0.007 C 
ATOM      9  C   UNL d   1      -4.442   2.204   3.884  0.00  0.00     0.009 C 
ENDBRANCH   7   8
ENDBRANCH   1   7
TORSDOF 2
ENDMDL
