MODEL 1
REMARK minimizedAffinity 12.7850237
REMARK minimizedRMSD -1
REMARK  2 active torsions:
REMARK  status: ('A' for Active; 'I' for Inactive)
REMARK    1  A    between atoms: C1_2  and  C2_3 
REMARK    2  A    between atoms: C2_3  and  C3_4 
ROOT
ATOM      1  C3  UNL d   1      -2.706   0.299   2.135  0.00  0.00    -0.075 A 
ATOM      2  C4  UNL d   1      -1.405  -0.063   1.758  0.00  0.00     0.002 A 
ATOM      3  C5  UNL d   1      -0.300   0.465   2.426  0.00  0.00     0.002 A 
ATOM      4  C6  UNL d   1      -0.481   1.367   3.472  0.00  0.00    -0.004 A 
ATOM      5  C7  UNL d   1      -1.769   1.746   3.845  0.00  0.00     0.002 A 
ATOM      6  C8  UNL d   1      -2.876   1.216   3.181  0.00  0.00     0.002 A 
ENDROOT
BRANCH   1   7
ATOM      7  C2  UNL d   1      -3.907  -0.292   1.435  0.00  0.00     0.056 C 
BRANCH   7   8
ATOM      8  C1  UNL d   1      -4.359  -1.641   2.003  0.00  0.00     0.007 C 
ATOM      9  C   UNL d   1      -5.730  -2.075   1.501  0.00  0.00     0.009 C 
ENDBRANCH   7   8
ENDBRANCH   1   7
TORSDOF 2
ENDMDL
