MODEL 1
REMARK minimizedAffinity 9.45660973
REMARK minimizedRMSD -1
REMARK  2 active torsions:
REMARK  status: ('A' for Active; 'I' for Inactive)
REMARK    1  A    between atoms: C1_2  and  C2_3 
REMARK    2  A    between atoms: C2_3  and  C3_4 
ROOT
ATOM      1  C3  UNL d   1      -3.732   1.254   3.857  0.00  0.00    -0.075 A 
ATOM      2  C4  UNL d   1      -4.790   2.076   3.443  0.00  0.00     0.002 A 
ATOM      3  C5  UNL d   1      -5.301   3.057   4.293  0.00  0.00     0.002 A 
ATOM      4  C6  UNL d   1      -4.768   3.222   5.570  0.00  0.00    -0.004 A 
ATOM      5  C7  UNL d   1      -3.727   2.401   5.998  0.00  0.00     0.002 A 
ATOM      6  C8  UNL d   1      -3.211   1.422   5.147  0.00  0.00     0.002 A 
ENDROOT
BRANCH   1   7
ATOM      7  C2  UNL d   1      -3.155   0.211   2.931  0.00  0.00     0.056 C 
BRANCH   7   8
ATOM      8  C1  UNL d   1      -2.243   0.781   1.839  0.00  0.00     0.007 C 
ATOM      9  C   UNL d   1      -0.805   0.976   2.300  0.00  0.00     0.009 C 
ENDBRANCH   7   8
ENDBRANCH   1   7
TORSDOF 2
ENDMDL
