MODEL 1
REMARK minimizedAffinity 3.89687777
REMARK minimizedRMSD -1
REMARK  2 active torsions:
REMARK  status: ('A' for Active; 'I' for Inactive)
REMARK    1  A    between atoms: C1_2  and  C2_3 
REMARK    2  A    between atoms: C2_3  and  C3_4 
ROOT
ATOM      1  C3  UNL d   1      -1.858  -4.174  -4.673  0.00  0.00    -0.075 A 
ATOM      2  C4  UNL d   1      -2.638  -4.622  -3.597  0.00  0.00     0.002 A 
ATOM      3  C5  UNL d   1      -2.038  -4.995  -2.394  0.00  0.00     0.002 A 
ATOM      4  C6  UNL d   1      -0.653  -4.935  -2.255  0.00  0.00    -0.004 A 
ATOM      5  C7  UNL d   1       0.133  -4.507  -3.323  0.00  0.00     0.002 A 
ATOM      6  C8  UNL d   1      -0.466  -4.129  -4.526  0.00  0.00     0.002 A 
ENDROOT
BRANCH   1   7
ATOM      7  C2  UNL d   1      -2.504  -3.741  -5.967  0.00  0.00     0.056 C 
BRANCH   7   8
ATOM      8  C1  UNL d   1      -4.024  -3.929  -6.000  0.00  0.00     0.007 C 
ATOM      9  C   UNL d   1      -4.792  -2.615  -5.992  0.00  0.00     0.009 C 
ENDBRANCH   7   8
ENDBRANCH   1   7
TORSDOF 2
ENDMDL
