MODEL 1
REMARK minimizedAffinity 2.66958451
REMARK minimizedRMSD -1
REMARK  2 active torsions:
REMARK  status: ('A' for Active; 'I' for Inactive)
REMARK    1  A    between atoms: C2'_3  and  C1'_4 
REMARK    2  A    between atoms: C1'_4  and  C1_5 
ROOT
ATOM      1  C1  I4B d   1       0.649  -1.702   1.763  0.00  0.00    -0.075 A 
ATOM      2  C2  I4B d   1      -0.424  -1.593   2.612  0.00  0.00     0.003 A 
ATOM      3  C3  I4B d   1      -0.914  -2.734   3.291  0.00  0.00     0.002 A 
ATOM      4  C4  I4B d   1      -0.337  -3.965   3.055  0.00  0.00    -0.004 A 
ATOM      5  C5  I4B d   1       0.765  -4.070   2.212  0.00  0.00     0.002 A 
ATOM      6  C6  I4B d   1       1.270  -2.929   1.571  0.00  0.00     0.003 A 
ENDROOT
BRANCH   1   7
ATOM      7  C1' I4B d   1       1.120  -0.482   1.036  0.00  0.00     0.060 C 
BRANCH   7   8
ATOM      8  C2' I4B d   1       0.346  -0.385  -0.263  0.00  0.00    -0.013 C 
ATOM      9  C4' I4B d   1      -0.902   0.441  -0.094  0.00  0.00     0.013 C 
ATOM     10  C3' I4B d   1       1.252   0.210  -1.299  0.00  0.00     0.013 C 
ENDBRANCH   7   8
ENDBRANCH   1   7
TORSDOF 2
ENDMDL
