MODEL 1
REMARK minimizedAffinity 11.9998941
REMARK minimizedRMSD -1
REMARK  2 active torsions:
REMARK  status: ('A' for Active; 'I' for Inactive)
REMARK    1  A    between atoms: C2'_3  and  C1'_4 
REMARK    2  A    between atoms: C1'_4  and  C1_5 
ROOT
ATOM      1  C1  I4B d   1       0.221  -0.419   0.553  0.00  0.00    -0.075 A 
ATOM      2  C2  I4B d   1       0.262  -0.571   1.916  0.00  0.00     0.003 A 
ATOM      3  C3  I4B d   1      -0.920  -0.437   2.684  0.00  0.00     0.002 A 
ATOM      4  C4  I4B d   1      -2.103  -0.102   2.057  0.00  0.00    -0.004 A 
ATOM      5  C5  I4B d   1      -2.147   0.029   0.672  0.00  0.00     0.002 A 
ATOM      6  C6  I4B d   1      -0.980  -0.143  -0.087  0.00  0.00     0.003 A 
ENDROOT
BRANCH   1   7
ATOM      7  C1' I4B d   1       1.494  -0.536  -0.224  0.00  0.00     0.060 C 
BRANCH   7   8
ATOM      8  C2' I4B d   1       2.180   0.815  -0.203  0.00  0.00    -0.013 C 
ATOM      9  C4' I4B d   1       3.647   0.677   0.105  0.00  0.00     0.013 C 
ATOM     10  C3' I4B d   1       1.965   1.464  -1.537  0.00  0.00     0.013 C 
ENDBRANCH   7   8
ENDBRANCH   1   7
TORSDOF 2
ENDMDL
