MODEL 1
REMARK minimizedAffinity 2.73026824
REMARK minimizedRMSD -1
REMARK  2 active torsions:
REMARK  status: ('A' for Active; 'I' for Inactive)
REMARK    1  A    between atoms: C2'_3  and  C1'_4 
REMARK    2  A    between atoms: C1'_4  and  C1_5 
ROOT
ATOM      1  C1  I4B d   1       0.336  -1.101   0.600  0.00  0.00    -0.075 A 
ATOM      2  C2  I4B d   1      -0.529  -0.881   1.643  0.00  0.00     0.003 A 
ATOM      3  C3  I4B d   1      -0.579  -1.786   2.731  0.00  0.00     0.002 A 
ATOM      4  C4  I4B d   1       0.211  -2.917   2.711  0.00  0.00    -0.004 A 
ATOM      5  C5  I4B d   1       1.103  -3.127   1.664  0.00  0.00     0.002 A 
ATOM      6  C6  I4B d   1       1.176  -2.208   0.607  0.00  0.00     0.003 A 
ENDROOT
BRANCH   1   7
ATOM      7  C1' I4B d   1       0.340  -0.143  -0.548  0.00  0.00     0.060 C 
BRANCH   7   8
ATOM      8  C2' I4B d   1      -1.077  -0.039  -1.074  0.00  0.00    -0.013 C 
ATOM      9  C4' I4B d   1      -1.315   1.291  -1.740  0.00  0.00     0.013 C 
ATOM     10  C3' I4B d   1      -1.300  -1.171  -2.031  0.00  0.00     0.013 C 
ENDBRANCH   7   8
ENDBRANCH   1   7
TORSDOF 2
ENDMDL
