MODEL 1
REMARK minimizedAffinity 4.51847982
REMARK minimizedRMSD -1
REMARK  2 active torsions:
REMARK  status: ('A' for Active; 'I' for Inactive)
REMARK    1  A    between atoms: C2'_3  and  C1'_4 
REMARK    2  A    between atoms: C1'_4  and  C1_5 
ROOT
ATOM      1  C1  I4B d   1      -2.193  -0.377   2.016  0.00  0.00    -0.075 A 
ATOM      2  C2  I4B d   1      -1.537  -1.200   2.897  0.00  0.00     0.003 A 
ATOM      3  C3  I4B d   1      -0.139  -1.397   2.784  0.00  0.00     0.002 A 
ATOM      4  C4  I4B d   1       0.550  -0.795   1.751  0.00  0.00    -0.004 A 
ATOM      5  C5  I4B d   1      -0.113   0.057   0.872  0.00  0.00     0.002 A 
ATOM      6  C6  I4B d   1      -1.491   0.278   1.013  0.00  0.00     0.003 A 
ENDROOT
BRANCH   1   7
ATOM      7  C1' I4B d   1      -3.675  -0.218   2.145  0.00  0.00     0.060 C 
BRANCH   7   8
ATOM      8  C2' I4B d   1      -4.334  -1.347   1.379  0.00  0.00    -0.013 C 
ATOM      9  C4' I4B d   1      -5.835  -1.235   1.426  0.00  0.00     0.013 C 
ATOM     10  C3' I4B d   1      -3.832  -1.303  -0.034  0.00  0.00     0.013 C 
ENDBRANCH   7   8
ENDBRANCH   1   7
TORSDOF 2
ENDMDL
