MODEL 1
REMARK minimizedAffinity 5.30422449
REMARK minimizedRMSD -1
REMARK  2 active torsions:
REMARK  status: ('A' for Active; 'I' for Inactive)
REMARK    1  A    between atoms: C2'_3  and  C1'_4 
REMARK    2  A    between atoms: C1'_4  and  C1_5 
ROOT
ATOM      1  C1  I4B d   1       0.239  -0.411  -0.286  0.00  0.00    -0.075 A 
ATOM      2  C2  I4B d   1       0.344  -0.546   1.076  0.00  0.00     0.003 A 
ATOM      3  C3  I4B d   1      -0.819  -0.555   1.883  0.00  0.00     0.002 A 
ATOM      4  C4  I4B d   1      -2.055  -0.376   1.296  0.00  0.00    -0.004 A 
ATOM      5  C5  I4B d   1      -2.161  -0.263  -0.087  0.00  0.00     0.002 A 
ATOM      6  C6  I4B d   1      -1.008  -0.292  -0.885  0.00  0.00     0.003 A 
ENDROOT
BRANCH   1   7
ATOM      7  C1' I4B d   1       1.490  -0.372  -1.105  0.00  0.00     0.060 C 
BRANCH   7   8
ATOM      8  C2' I4B d   1       2.274   0.860  -0.703  0.00  0.00    -0.013 C 
ATOM      9  C4' I4B d   1       3.524   0.489   0.051  0.00  0.00     0.013 C 
ATOM     10  C3' I4B d   1       2.601   1.629  -1.948  0.00  0.00     0.013 C 
ENDBRANCH   7   8
ENDBRANCH   1   7
TORSDOF 2
ENDMDL
