MODEL 1
REMARK minimizedAffinity 0.227849051
REMARK minimizedRMSD -1
REMARK  2 active torsions:
REMARK  status: ('A' for Active; 'I' for Inactive)
REMARK    1  A    between atoms: C2'_3  and  C1'_4 
REMARK    2  A    between atoms: C1'_4  and  C1_5 
ROOT
ATOM      1  C1  I4B d   1       1.002  -2.192   1.888  0.00  0.00    -0.075 A 
ATOM      2  C2  I4B d   1       0.095  -1.698   2.792  0.00  0.00     0.003 A 
ATOM      3  C3  I4B d   1      -0.870  -0.744   2.386  0.00  0.00     0.002 A 
ATOM      4  C4  I4B d   1      -0.859  -0.278   1.087  0.00  0.00    -0.004 A 
ATOM      5  C5  I4B d   1       0.046  -0.797   0.166  0.00  0.00     0.002 A 
ATOM      6  C6  I4B d   1       0.975  -1.769   0.566  0.00  0.00     0.003 A 
ENDROOT
BRANCH   1   7
ATOM      7  C1' I4B d   1       2.028  -3.173   2.360  0.00  0.00     0.060 C 
BRANCH   7   8
ATOM      8  C2' I4B d   1       2.305  -4.139   1.226  0.00  0.00    -0.013 C 
ATOM      9  C4' I4B d   1       3.769  -4.487   1.152  0.00  0.00     0.013 C 
ATOM     10  C3' I4B d   1       1.468  -5.364   1.445  0.00  0.00     0.013 C 
ENDBRANCH   7   8
ENDBRANCH   1   7
TORSDOF 2
ENDMDL
