MODEL 1
REMARK minimizedAffinity 2.44872165
REMARK minimizedRMSD -1
REMARK  2 active torsions:
REMARK  status: ('A' for Active; 'I' for Inactive)
REMARK    1  A    between atoms: C2'_3  and  C1'_4 
REMARK    2  A    between atoms: C1'_4  and  C1_5 
ROOT
ATOM      1  C1  I4B d   1       0.384  -0.686   0.527  0.00  0.00    -0.075 A 
ATOM      2  C2  I4B d   1       0.558  -1.656   1.482  0.00  0.00     0.003 A 
ATOM      3  C3  I4B d   1      -0.364  -1.778   2.550  0.00  0.00     0.002 A 
ATOM      4  C4  I4B d   1      -1.409  -0.882   2.651  0.00  0.00    -0.004 A 
ATOM      5  C5  I4B d   1      -1.596   0.087   1.670  0.00  0.00     0.002 A 
ATOM      6  C6  I4B d   1      -0.701   0.178   0.594  0.00  0.00     0.003 A 
ENDROOT
BRANCH   1   7
ATOM      7  C1' I4B d   1       1.395  -0.565  -0.569  0.00  0.00     0.060 C 
BRANCH   7   8
ATOM      8  C2' I4B d   1       2.033   0.806  -0.467  0.00  0.00    -0.013 C 
ATOM      9  C4' I4B d   1       3.462   0.708  -0.001  0.00  0.00     0.013 C 
ATOM     10  C3' I4B d   1       1.946   1.459  -1.814  0.00  0.00     0.013 C 
ENDBRANCH   7   8
ENDBRANCH   1   7
TORSDOF 2
ENDMDL
