MODEL 1
REMARK minimizedAffinity 14.0072575
REMARK minimizedRMSD -1
REMARK  0 active torsions:
REMARK  status: ('A' for Active; 'I' for Inactive)
ROOT
ATOM      1  C   UNL d   1      -0.248  -1.246   3.046  0.00  0.00     0.124 A 
ATOM      2  C1  UNL d   1      -0.610  -2.126   4.057  0.00  0.00     0.062 A 
ATOM      3  C2  UNL d   1      -0.088  -3.416   4.082  0.00  0.00     0.162 A 
ATOM      4  C3  UNL d   1       0.803  -3.835   3.093  0.00  0.00    -0.034 A 
ATOM      5  C4  UNL d   1       1.161  -2.945   2.079  0.00  0.00     0.162 A 
ATOM      6  C5  UNL d   1       0.637  -1.656   2.059  0.00  0.00     0.062 A 
ATOM      7  F   UNL d   1       0.988  -0.808   1.081  0.00  0.00    -0.097 F 
ATOM      8  F1  UNL d   1       2.015  -3.314   1.113  0.00  0.00    -0.096 F 
ATOM      9  I   UNL d   1       1.585  -5.763   3.127  0.00  0.00    -0.060 I 
ATOM     10  F2  UNL d   1      -0.455  -4.245   5.071  0.00  0.00    -0.096 F 
ATOM     11  F3  UNL d   1      -1.465  -1.733   5.012  0.00  0.00    -0.097 F 
ATOM     12  F4  UNL d   1      -0.752  -0.006   3.024  0.00  0.00    -0.092 F 
ENDROOT
TORSDOF 0
ENDMDL
