MODEL 1
REMARK minimizedAffinity 20.6295319
REMARK minimizedRMSD -1
REMARK  0 active torsions:
REMARK  status: ('A' for Active; 'I' for Inactive)
ROOT
ATOM      1  C   UNL d   1      -2.542  -1.874   3.702  0.00  0.00     0.124 A 
ATOM      2  C1  UNL d   1      -1.496  -1.348   4.449  0.00  0.00     0.062 A 
ATOM      3  C2  UNL d   1      -0.314  -0.965   3.823  0.00  0.00     0.162 A 
ATOM      4  C3  UNL d   1      -0.170  -1.104   2.443  0.00  0.00    -0.034 A 
ATOM      5  C4  UNL d   1      -1.226  -1.635   1.699  0.00  0.00     0.162 A 
ATOM      6  C5  UNL d   1      -2.406  -2.017   2.329  0.00  0.00     0.062 A 
ATOM      7  F   UNL d   1      -3.415  -2.524   1.606  0.00  0.00    -0.097 F 
ATOM      8  F1  UNL d   1      -1.121  -1.783   0.370  0.00  0.00    -0.096 F 
ATOM      9  I   UNL d   1       1.597  -0.532   1.504  0.00  0.00    -0.060 I 
ATOM     10  F2  UNL d   1       0.680  -0.460   4.569  0.00  0.00    -0.096 F 
ATOM     11  F3  UNL d   1      -1.625  -1.210   5.776  0.00  0.00    -0.097 F 
ATOM     12  F4  UNL d   1      -3.679  -2.243   4.307  0.00  0.00    -0.092 F 
ENDROOT
TORSDOF 0
ENDMDL
