MODEL 1
REMARK minimizedAffinity 10.5632801
REMARK minimizedRMSD -1
REMARK  0 active torsions:
REMARK  status: ('A' for Active; 'I' for Inactive)
ROOT
ATOM      1  C   UNL d   1      -0.355  -1.336   1.915  0.00  0.00     0.124 A 
ATOM      2  C1  UNL d   1      -1.323  -2.074   1.249  0.00  0.00     0.062 A 
ATOM      3  C2  UNL d   1      -2.488  -2.457   1.908  0.00  0.00     0.162 A 
ATOM      4  C3  UNL d   1      -2.692  -2.100   3.241  0.00  0.00    -0.034 A 
ATOM      5  C4  UNL d   1      -1.713  -1.358   3.904  0.00  0.00     0.162 A 
ATOM      6  C5  UNL d   1      -0.551  -0.978   3.241  0.00  0.00     0.062 A 
ATOM      7  F   UNL d   1       0.383  -0.264   3.886  0.00  0.00    -0.097 F 
ATOM      8  F1  UNL d   1      -1.877  -0.998   5.186  0.00  0.00    -0.096 F 
ATOM      9  I   UNL d   1      -4.432  -2.670   4.230  0.00  0.00    -0.060 I 
ATOM     10  F2  UNL d   1      -3.407  -3.170   1.240  0.00  0.00    -0.096 F 
ATOM     11  F3  UNL d   1      -1.136  -2.422  -0.032  0.00  0.00    -0.097 F 
ATOM     12  F4  UNL d   1       0.765  -0.970   1.279  0.00  0.00    -0.092 F 
ENDROOT
TORSDOF 0
ENDMDL
