MODEL 1
REMARK minimizedAffinity 32.8336983
REMARK minimizedRMSD -1
REMARK  0 active torsions:
REMARK  status: ('A' for Active; 'I' for Inactive)
ROOT
ATOM      1  C   UNL d   1       1.489   2.382   0.009  0.00  0.00     0.124 A 
ATOM      2  C1  UNL d   1       0.750   2.095  -1.131  0.00  0.00     0.062 A 
ATOM      3  C2  UNL d   1       0.189   3.127  -1.878  0.00  0.00     0.162 A 
ATOM      4  C3  UNL d   1       0.364   4.454  -1.488  0.00  0.00    -0.034 A 
ATOM      5  C4  UNL d   1       1.107   4.734  -0.340  0.00  0.00     0.162 A 
ATOM      6  C5  UNL d   1       1.667   3.700   0.403  0.00  0.00     0.062 A 
ATOM      7  F   UNL d   1       2.380   3.978   1.504  0.00  0.00    -0.097 F 
ATOM      8  F1  UNL d   1       1.296   6.000   0.063  0.00  0.00    -0.096 F 
ATOM      9  I   UNL d   1      -0.474   5.999  -2.603  0.00  0.00    -0.060 I 
ATOM     10  F2  UNL d   1      -0.520   2.821  -2.975  0.00  0.00    -0.096 F 
ATOM     11  F3  UNL d   1       0.576   0.822  -1.513  0.00  0.00    -0.097 F 
ATOM     12  F4  UNL d   1       2.027   1.387   0.727  0.00  0.00    -0.092 F 
ENDROOT
TORSDOF 0
ENDMDL
