MODEL 1
REMARK minimizedAffinity 19.5548325
REMARK minimizedRMSD -1
REMARK  0 active torsions:
REMARK  status: ('A' for Active; 'I' for Inactive)
ROOT
ATOM      1  C   UNL d   1      -1.124   2.022  -2.182  0.00  0.00     0.124 A 
ATOM      2  C1  UNL d   1      -1.319   3.249  -2.800  0.00  0.00     0.062 A 
ATOM      3  C2  UNL d   1      -0.677   4.386  -2.317  0.00  0.00     0.162 A 
ATOM      4  C3  UNL d   1       0.167   4.301  -1.209  0.00  0.00    -0.034 A 
ATOM      5  C4  UNL d   1       0.357   3.063  -0.592  0.00  0.00     0.162 A 
ATOM      6  C5  UNL d   1      -0.287   1.930  -1.079  0.00  0.00     0.062 A 
ATOM      7  F   UNL d   1      -0.098   0.745  -0.480  0.00  0.00    -0.097 F 
ATOM      8  F1  UNL d   1       1.161   2.946   0.475  0.00  0.00    -0.096 F 
ATOM      9  I   UNL d   1       1.128   5.998  -0.484  0.00  0.00    -0.060 I 
ATOM     10  F2  UNL d   1      -0.883   5.559  -2.934  0.00  0.00    -0.096 F 
ATOM     11  F3  UNL d   1      -2.128   3.341  -3.865  0.00  0.00    -0.097 F 
ATOM     12  F4  UNL d   1      -1.744   0.930  -2.648  0.00  0.00    -0.092 F 
ENDROOT
TORSDOF 0
ENDMDL
