MODEL 1
REMARK minimizedAffinity 27.939621
REMARK minimizedRMSD -1
REMARK  0 active torsions:
REMARK  status: ('A' for Active; 'I' for Inactive)
ROOT
ATOM      1  C   UNL d   1       0.972  -2.141   1.402  0.00  0.00     0.124 A 
ATOM      2  C1  UNL d   1       0.553  -3.440   1.654  0.00  0.00     0.062 A 
ATOM      3  C2  UNL d   1      -0.700  -3.677   2.212  0.00  0.00     0.162 A 
ATOM      4  C3  UNL d   1      -1.545  -2.611   2.521  0.00  0.00    -0.034 A 
ATOM      5  C4  UNL d   1      -1.117  -1.307   2.266  0.00  0.00     0.162 A 
ATOM      6  C5  UNL d   1       0.137  -1.076   1.708  0.00  0.00     0.062 A 
ATOM      7  F   UNL d   1       0.539   0.180   1.466  0.00  0.00    -0.097 F 
ATOM      8  F1  UNL d   1      -1.904  -0.259   2.551  0.00  0.00    -0.096 F 
ATOM      9  I   UNL d   1      -3.419  -2.960   3.355  0.00  0.00    -0.060 I 
ATOM     10  F2  UNL d   1      -1.078  -4.942   2.444  0.00  0.00    -0.096 F 
ATOM     11  F3  UNL d   1       1.359  -4.471   1.360  0.00  0.00    -0.097 F 
ATOM     12  F4  UNL d   1       2.178  -1.916   0.866  0.00  0.00    -0.092 F 
ENDROOT
TORSDOF 0
ENDMDL
