MODEL 1
REMARK minimizedAffinity 24.8661118
REMARK minimizedRMSD -1
REMARK  0 active torsions:
REMARK  status: ('A' for Active; 'I' for Inactive)
ROOT
ATOM      1  C   UNL d   1      -0.667  -1.365   2.174  0.00  0.00     0.124 A 
ATOM      2  C1  UNL d   1       0.197  -1.741   1.156  0.00  0.00     0.062 A 
ATOM      3  C2  UNL d   1       1.548  -1.412   1.226  0.00  0.00     0.162 A 
ATOM      4  C3  UNL d   1       2.043  -0.703   2.320  0.00  0.00    -0.034 A 
ATOM      5  C4  UNL d   1       1.168  -0.327   3.341  0.00  0.00     0.162 A 
ATOM      6  C5  UNL d   1      -0.181  -0.658   3.266  0.00  0.00     0.062 A 
ATOM      7  F   UNL d   1      -1.015  -0.293   4.251  0.00  0.00    -0.097 F 
ATOM      8  F1  UNL d   1       1.610   0.356   4.407  0.00  0.00    -0.096 F 
ATOM      9  I   UNL d   1       4.062  -0.209   2.430  0.00  0.00    -0.060 I 
ATOM     10  F2  UNL d   1       2.360  -1.789   0.227  0.00  0.00    -0.096 F 
ATOM     11  F3  UNL d   1      -0.270  -2.423   0.100  0.00  0.00    -0.097 F 
ATOM     12  F4  UNL d   1      -1.966  -1.682   2.104  0.00  0.00    -0.092 F 
ENDROOT
TORSDOF 0
ENDMDL
