MODEL 1
REMARK minimizedAffinity 29.4086342
REMARK minimizedRMSD -1
REMARK  0 active torsions:
REMARK  status: ('A' for Active; 'I' for Inactive)
ROOT
ATOM      1  C   UNL d   1       2.357  -0.391   2.611  0.00  0.00     0.124 A 
ATOM      2  C1  UNL d   1       2.071  -1.201   1.521  0.00  0.00     0.062 A 
ATOM      3  C2  UNL d   1       0.799  -1.744   1.367  0.00  0.00     0.162 A 
ATOM      4  C3  UNL d   1      -0.198  -1.479   2.305  0.00  0.00    -0.034 A 
ATOM      5  C4  UNL d   1       0.097  -0.664   3.400  0.00  0.00     0.162 A 
ATOM      6  C5  UNL d   1       1.370  -0.123   3.549  0.00  0.00     0.062 A 
ATOM      7  F   UNL d   1       1.644   0.659   4.603  0.00  0.00    -0.097 F 
ATOM      8  F1  UNL d   1      -0.838  -0.388   4.321  0.00  0.00    -0.096 F 
ATOM      9  I   UNL d   1      -2.102  -2.289   2.078  0.00  0.00    -0.060 I 
ATOM     10  F2  UNL d   1       0.551  -2.524   0.304  0.00  0.00    -0.096 F 
ATOM     11  F3  UNL d   1       3.023  -1.462   0.614  0.00  0.00    -0.097 F 
ATOM     12  F4  UNL d   1       3.582   0.130   2.758  0.00  0.00    -0.092 F 
ENDROOT
TORSDOF 0
ENDMDL
