MODEL 1
REMARK minimizedAffinity 27.1445198
REMARK minimizedRMSD -1
REMARK  0 active torsions:
REMARK  status: ('A' for Active; 'I' for Inactive)
ROOT
ATOM      1  C   UNL d   1      -0.808  -1.340   2.171  0.00  0.00     0.124 A 
ATOM      2  C1  UNL d   1      -1.483  -2.460   2.635  0.00  0.00     0.062 A 
ATOM      3  C2  UNL d   1      -0.863  -3.706   2.622  0.00  0.00     0.162 A 
ATOM      4  C3  UNL d   1       0.441  -3.839   2.144  0.00  0.00    -0.034 A 
ATOM      5  C4  UNL d   1       1.113  -2.708   1.678  0.00  0.00     0.162 A 
ATOM      6  C5  UNL d   1       0.489  -1.465   1.693  0.00  0.00     0.062 A 
ATOM      7  F   UNL d   1       1.143  -0.383   1.244  0.00  0.00    -0.097 F 
ATOM      8  F1  UNL d   1       2.367  -2.800   1.212  0.00  0.00    -0.096 F 
ATOM      9  I   UNL d   1       1.371  -5.701   2.124  0.00  0.00    -0.060 I 
ATOM     10  F2  UNL d   1      -1.539  -4.772   3.077  0.00  0.00    -0.096 F 
ATOM     11  F3  UNL d   1      -2.736  -2.342   3.096  0.00  0.00    -0.097 F 
ATOM     12  F4  UNL d   1      -1.407  -0.142   2.183  0.00  0.00    -0.092 F 
ENDROOT
TORSDOF 0
ENDMDL
