MODEL 1
REMARK minimizedAffinity 24.4797211
REMARK minimizedRMSD -1
REMARK  0 active torsions:
REMARK  status: ('A' for Active; 'I' for Inactive)
ROOT
ATOM      1  C   UNL d   1      -3.121  -2.765   1.803  0.00  0.00     0.124 A 
ATOM      2  C1  UNL d   1      -2.623  -2.906   0.515  0.00  0.00     0.062 A 
ATOM      3  C2  UNL d   1      -1.285  -2.632   0.248  0.00  0.00     0.162 A 
ATOM      4  C3  UNL d   1      -0.435  -2.213   1.271  0.00  0.00    -0.034 A 
ATOM      5  C4  UNL d   1      -0.943  -2.073   2.564  0.00  0.00     0.162 A 
ATOM      6  C5  UNL d   1      -2.281  -2.348   2.826  0.00  0.00     0.062 A 
ATOM      7  F   UNL d   1      -2.760  -2.211   4.071  0.00  0.00    -0.097 F 
ATOM      8  F1  UNL d   1      -0.153  -1.673   3.571  0.00  0.00    -0.096 F 
ATOM      9  I   UNL d   1       1.567  -1.802   0.876  0.00  0.00    -0.060 I 
ATOM     10  F2  UNL d   1      -0.832  -2.777  -1.006  0.00  0.00    -0.096 F 
ATOM     11  F3  UNL d   1      -3.434  -3.308  -0.475  0.00  0.00    -0.097 F 
ATOM     12  F4  UNL d   1      -4.409  -3.029   2.057  0.00  0.00    -0.092 F 
ENDROOT
TORSDOF 0
ENDMDL
