MODEL 1
REMARK minimizedAffinity 23.1172848
REMARK minimizedRMSD -1
REMARK  0 active torsions:
REMARK  status: ('A' for Active; 'I' for Inactive)
ROOT
ATOM      1  C   UNL d   1       2.733  -2.016   0.154  0.00  0.00     0.124 A 
ATOM      2  C1  UNL d   1       1.695  -2.848   0.551  0.00  0.00     0.062 A 
ATOM      3  C2  UNL d   1       0.749  -2.398   1.467  0.00  0.00     0.162 A 
ATOM      4  C3  UNL d   1       0.834  -1.108   1.991  0.00  0.00    -0.034 A 
ATOM      5  C4  UNL d   1       1.882  -0.277   1.588  0.00  0.00     0.162 A 
ATOM      6  C5  UNL d   1       2.825  -0.732   0.673  0.00  0.00     0.062 A 
ATOM      7  F   UNL d   1       3.827   0.073   0.290  0.00  0.00    -0.097 F 
ATOM      8  F1  UNL d   1       1.994   0.968   2.073  0.00  0.00    -0.096 F 
ATOM      9  I   UNL d   1      -0.579  -0.431   3.361  0.00  0.00    -0.060 I 
ATOM     10  F2  UNL d   1      -0.243  -3.223   1.833  0.00  0.00    -0.096 F 
ATOM     11  F3  UNL d   1       1.605  -4.089   0.052  0.00  0.00    -0.097 F 
ATOM     12  F4  UNL d   1       3.643  -2.452  -0.726  0.00  0.00    -0.092 F 
ENDROOT
TORSDOF 0
ENDMDL
