MODEL 1
REMARK minimizedAffinity 25.6419258
REMARK minimizedRMSD -1
REMARK  0 active torsions:
REMARK  status: ('A' for Active; 'I' for Inactive)
ROOT
ATOM      1  C   UNL d   1       2.470  -0.218   2.715  0.00  0.00     0.124 A 
ATOM      2  C1  UNL d   1       2.228  -1.057   1.637  0.00  0.00     0.062 A 
ATOM      3  C2  UNL d   1       1.012  -1.725   1.529  0.00  0.00     0.162 A 
ATOM      4  C3  UNL d   1       0.027  -1.556   2.502  0.00  0.00    -0.034 A 
ATOM      5  C4  UNL d   1       0.278  -0.710   3.584  0.00  0.00     0.162 A 
ATOM      6  C5  UNL d   1       1.495  -0.045   3.687  0.00  0.00     0.062 A 
ATOM      7  F   UNL d   1       1.727   0.766   4.730  0.00  0.00    -0.097 F 
ATOM      8  F1  UNL d   1      -0.647  -0.524   4.538  0.00  0.00    -0.096 F 
ATOM      9  I   UNL d   1      -1.793  -2.553   2.344  0.00  0.00    -0.060 I 
ATOM     10  F2  UNL d   1       0.805  -2.530   0.476  0.00  0.00    -0.096 F 
ATOM     11  F3  UNL d   1       3.169  -1.226   0.696  0.00  0.00    -0.097 F 
ATOM     12  F4  UNL d   1       3.642   0.423   2.817  0.00  0.00    -0.092 F 
ENDROOT
TORSDOF 0
ENDMDL
