MODEL 1
REMARK minimizedAffinity 20.5953789
REMARK minimizedRMSD -1
REMARK  0 active torsions:
REMARK  status: ('A' for Active; 'I' for Inactive)
ROOT
ATOM      1  C   UNL d   1       3.076   1.465  -2.704  0.00  0.00     0.124 A 
ATOM      2  C1  UNL d   1       2.024   1.870  -1.895  0.00  0.00     0.062 A 
ATOM      3  C2  UNL d   1       1.737   1.179  -0.721  0.00  0.00     0.162 A 
ATOM      4  C3  UNL d   1       2.505   0.075  -0.349  0.00  0.00    -0.034 A 
ATOM      5  C4  UNL d   1       3.561  -0.327  -1.169  0.00  0.00     0.162 A 
ATOM      6  C5  UNL d   1       3.843   0.367  -2.341  0.00  0.00     0.062 A 
ATOM      7  F   UNL d   1       4.860  -0.026  -3.122  0.00  0.00    -0.097 F 
ATOM      8  F1  UNL d   1       4.320  -1.384  -0.841  0.00  0.00    -0.096 F 
ATOM      9  I   UNL d   1       2.080  -0.961   1.405  0.00  0.00    -0.060 I 
ATOM     10  F2  UNL d   1       0.715   1.592   0.042  0.00  0.00    -0.096 F 
ATOM     11  F3  UNL d   1       1.280   2.929  -2.244  0.00  0.00    -0.097 F 
ATOM     12  F4  UNL d   1       3.349   2.131  -3.834  0.00  0.00    -0.092 F 
ENDROOT
TORSDOF 0
ENDMDL
