MODEL 1
REMARK minimizedAffinity 31.0791035
REMARK minimizedRMSD -1
REMARK  0 active torsions:
REMARK  status: ('A' for Active; 'I' for Inactive)
ROOT
ATOM      1  C   UNL d   1      -2.923  -2.384   2.271  0.00  0.00     0.124 A 
ATOM      2  C1  UNL d   1      -3.265  -3.709   2.034  0.00  0.00     0.062 A 
ATOM      3  C2  UNL d   1      -2.370  -4.729   2.344  0.00  0.00     0.162 A 
ATOM      4  C3  UNL d   1      -1.125  -4.429   2.897  0.00  0.00    -0.034 A 
ATOM      5  C4  UNL d   1      -0.788  -3.095   3.132  0.00  0.00     0.162 A 
ATOM      6  C5  UNL d   1      -1.686  -2.079   2.819  0.00  0.00     0.062 A 
ATOM      7  F   UNL d   1      -1.354  -0.800   3.049  0.00  0.00    -0.097 F 
ATOM      8  F1  UNL d   1       0.401  -2.771   3.662  0.00  0.00    -0.096 F 
ATOM      9  I   UNL d   1       0.215  -5.951   3.363  0.00  0.00    -0.060 I 
ATOM     10  F2  UNL d   1      -2.727  -5.999   2.105  0.00  0.00    -0.096 F 
ATOM     11  F3  UNL d   1      -4.460  -4.006   1.503  0.00  0.00    -0.097 F 
ATOM     12  F4  UNL d   1      -3.785  -1.405   1.970  0.00  0.00    -0.092 F 
ENDROOT
TORSDOF 0
ENDMDL
