MODEL 1
REMARK minimizedAffinity 24.7378616
REMARK minimizedRMSD -1
REMARK  0 active torsions:
REMARK  status: ('A' for Active; 'I' for Inactive)
ROOT
ATOM      1  C   UNL d   1      -0.034  -2.874   2.293  0.00  0.00     0.124 A 
ATOM      2  C1  UNL d   1      -0.509  -1.644   2.728  0.00  0.00     0.062 A 
ATOM      3  C2  UNL d   1       0.153  -0.473   2.373  0.00  0.00     0.162 A 
ATOM      4  C3  UNL d   1       1.298  -0.525   1.577  0.00  0.00    -0.034 A 
ATOM      5  C4  UNL d   1       1.770  -1.765   1.144  0.00  0.00     0.162 A 
ATOM      6  C5  UNL d   1       1.105  -2.933   1.502  0.00  0.00     0.062 A 
ATOM      7  F   UNL d   1       1.565  -4.120   1.080  0.00  0.00    -0.097 F 
ATOM      8  F1  UNL d   1       2.868  -1.851   0.378  0.00  0.00    -0.096 F 
ATOM      9  I   UNL d   1       2.291   1.225   1.044  0.00  0.00    -0.060 I 
ATOM     10  F2  UNL d   1      -0.328   0.701   2.807  0.00  0.00    -0.096 F 
ATOM     11  F3  UNL d   1      -1.608  -1.585   3.493  0.00  0.00    -0.097 F 
ATOM     12  F4  UNL d   1      -0.673  -4.000   2.636  0.00  0.00    -0.092 F 
ENDROOT
TORSDOF 0
ENDMDL
