MODEL 1
REMARK minimizedAffinity -0.339413851
REMARK minimizedRMSD -1
REMARK  1 active torsions:
REMARK  status: ('A' for Active; 'I' for Inactive)
REMARK    1  A    between atoms: C1_2  and  C2_3 
ROOT
ATOM      1  C2  UNL d   1       0.164  -0.779   0.110  0.00  0.00    -0.081 A 
ATOM      2  C3  UNL d   1      -0.953   0.019   0.385  0.00  0.00     0.006 A 
ATOM      3  C4  UNL d   1      -0.874   1.409   0.278  0.00  0.00     0.002 A 
ATOM      4  C5  UNL d   1       0.320   2.024  -0.112  0.00  0.00    -0.080 A 
ATOM      5  C6  UNL d   1       0.410   3.514  -0.260  0.00  0.00     0.076 C 
ATOM      6  C7  UNL d   1       1.441   1.228  -0.370  0.00  0.00     0.002 A 
ATOM      7  C8  UNL d   1       1.363  -0.162  -0.263  0.00  0.00     0.006 A 
ENDROOT
BRANCH   1   8
ATOM      8  C1  UNL d   1       0.064  -2.282   0.162  0.00  0.00     0.054 C 
ATOM      9  C   UNL d   1      -1.118  -2.787  -0.655  0.00  0.00     0.018 C 
ENDBRANCH   1   8
TORSDOF 1
ENDMDL
