MODEL 1
REMARK minimizedAffinity -5.00577593
REMARK minimizedRMSD -1
REMARK  1 active torsions:
REMARK  status: ('A' for Active; 'I' for Inactive)
REMARK    1  A    between atoms: C1_2  and  C2_3 
ROOT
ATOM      1  C2  UNL d   1      -0.301   0.992   0.369  0.00  0.00    -0.081 A 
ATOM      2  C3  UNL d   1       0.031   2.345   0.508  0.00  0.00     0.006 A 
ATOM      3  C4  UNL d   1      -0.617   3.139   1.458  0.00  0.00     0.002 A 
ATOM      4  C5  UNL d   1      -1.600   2.591   2.290  0.00  0.00    -0.080 A 
ATOM      5  C6  UNL d   1      -2.281   3.424   3.334  0.00  0.00     0.076 C 
ATOM      6  C7  UNL d   1      -1.943   1.243   2.139  0.00  0.00     0.002 A 
ATOM      7  C8  UNL d   1      -1.297   0.449   1.189  0.00  0.00     0.006 A 
ENDROOT
BRANCH   1   8
ATOM      8  C1  UNL d   1       0.441   0.118  -0.610  0.00  0.00     0.054 C 
ATOM      9  C   UNL d   1       0.683  -1.272  -0.038  0.00  0.00     0.018 C 
ENDBRANCH   1   8
TORSDOF 1
ENDMDL
