MODEL 1
REMARK minimizedAffinity 5.90762901
REMARK minimizedRMSD -1
REMARK  1 active torsions:
REMARK  status: ('A' for Active; 'I' for Inactive)
REMARK    1  A    between atoms: C1_2  and  C2_3 
ROOT
ATOM      1  C2  UNL d   1       0.239   1.715   0.860  0.00  0.00    -0.081 A 
ATOM      2  C3  UNL d   1      -0.820   2.161   1.661  0.00  0.00     0.006 A 
ATOM      3  C4  UNL d   1      -1.638   1.246   2.327  0.00  0.00     0.002 A 
ATOM      4  C5  UNL d   1      -1.407  -0.128   2.211  0.00  0.00    -0.080 A 
ATOM      5  C6  UNL d   1      -2.259  -1.120   2.945  0.00  0.00     0.076 C 
ATOM      6  C7  UNL d   1      -0.360  -0.575   1.397  0.00  0.00     0.002 A 
ATOM      7  C8  UNL d   1       0.458   0.339   0.730  0.00  0.00     0.006 A 
ENDROOT
BRANCH   1   8
ATOM      8  C1  UNL d   1       1.163   2.701   0.191  0.00  0.00     0.054 C 
ATOM      9  C   UNL d   1       2.608   2.479   0.614  0.00  0.00     0.018 C 
ENDBRANCH   1   8
TORSDOF 1
ENDMDL
