MODEL 1
REMARK minimizedAffinity 6.36436653
REMARK minimizedRMSD -1
REMARK  1 active torsions:
REMARK  status: ('A' for Active; 'I' for Inactive)
REMARK    1  A    between atoms: C1_2  and  C2_3 
ROOT
ATOM      1  C2  UNL d   1       0.295   2.322   0.917  0.00  0.00    -0.081 A 
ATOM      2  C3  UNL d   1       0.807   1.111   0.436  0.00  0.00     0.006 A 
ATOM      3  C4  UNL d   1       2.187   0.900   0.378  0.00  0.00     0.002 A 
ATOM      4  C5  UNL d   1       3.076   1.891   0.806  0.00  0.00    -0.080 A 
ATOM      5  C6  UNL d   1       4.558   1.665   0.777  0.00  0.00     0.076 C 
ATOM      6  C7  UNL d   1       2.564   3.108   1.270  0.00  0.00     0.002 A 
ATOM      7  C8  UNL d   1       1.185   3.320   1.329  0.00  0.00     0.006 A 
ENDROOT
BRANCH   1   8
ATOM      8  C1  UNL d   1      -1.193   2.529   1.042  0.00  0.00     0.054 C 
ATOM      9  C   UNL d   1      -1.861   2.581  -0.324  0.00  0.00     0.018 C 
ENDBRANCH   1   8
TORSDOF 1
ENDMDL
