MODEL 1
REMARK minimizedAffinity 3.38990593
REMARK minimizedRMSD -1
REMARK  1 active torsions:
REMARK  status: ('A' for Active; 'I' for Inactive)
REMARK    1  A    between atoms: C1_2  and  C2_3 
ROOT
ATOM      1  C2  UNL d   1       0.153   0.541   0.583  0.00  0.00    -0.081 A 
ATOM      2  C3  UNL d   1      -0.836   1.530   0.526  0.00  0.00     0.006 A 
ATOM      3  C4  UNL d   1      -0.523   2.822   0.097  0.00  0.00     0.002 A 
ATOM      4  C5  UNL d   1       0.782   3.144  -0.290  0.00  0.00    -0.080 A 
ATOM      5  C6  UNL d   1       1.126   4.518  -0.782  0.00  0.00     0.076 C 
ATOM      6  C7  UNL d   1       1.775   2.160  -0.218  0.00  0.00     0.002 A 
ATOM      7  C8  UNL d   1       1.462   0.869   0.212  0.00  0.00     0.006 A 
ENDROOT
BRANCH   1   8
ATOM      8  C1  UNL d   1      -0.195  -0.870   0.984  0.00  0.00     0.054 C 
ATOM      9  C   UNL d   1       0.649  -1.885   0.226  0.00  0.00     0.018 C 
ENDBRANCH   1   8
TORSDOF 1
ENDMDL
