MODEL 1
REMARK minimizedAffinity -4.74072218
REMARK minimizedRMSD -1
REMARK  1 active torsions:
REMARK  status: ('A' for Active; 'I' for Inactive)
REMARK    1  A    between atoms: C1_2  and  C2_3 
ROOT
ATOM      1  C2  UNL d   1       0.130  -0.902   0.164  0.00  0.00    -0.081 A 
ATOM      2  C3  UNL d   1      -1.038  -0.165   0.394  0.00  0.00     0.006 A 
ATOM      3  C4  UNL d   1      -1.017   1.230   0.345  0.00  0.00     0.002 A 
ATOM      4  C5  UNL d   1       0.170   1.912   0.058  0.00  0.00    -0.080 A 
ATOM      5  C6  UNL d   1       0.201   3.410  -0.028  0.00  0.00     0.076 C 
ATOM      6  C7  UNL d   1       1.342   1.177  -0.155  0.00  0.00     0.002 A 
ATOM      7  C8  UNL d   1       1.321  -0.218  -0.105  0.00  0.00     0.006 A 
ENDROOT
BRANCH   1   8
ATOM      8  C1  UNL d   1       0.097  -2.409   0.153  0.00  0.00     0.054 C 
ATOM      9  C   UNL d   1      -1.026  -2.930  -0.732  0.00  0.00     0.018 C 
ENDBRANCH   1   8
TORSDOF 1
ENDMDL
