MODEL 1
REMARK minimizedAffinity -6.18950272
REMARK minimizedRMSD -1
REMARK  1 active torsions:
REMARK  status: ('A' for Active; 'I' for Inactive)
REMARK    1  A    between atoms: C1_2  and  C2_3 
ROOT
ATOM      1  C2  UNL d   1      -0.789   0.718   0.205  0.00  0.00    -0.081 A 
ATOM      2  C3  UNL d   1      -0.892  -0.488   0.910  0.00  0.00     0.006 A 
ATOM      3  C4  UNL d   1      -0.780  -1.710   0.244  0.00  0.00     0.002 A 
ATOM      4  C5  UNL d   1      -0.557  -1.748  -1.137  0.00  0.00    -0.080 A 
ATOM      5  C6  UNL d   1      -0.405  -3.054  -1.859  0.00  0.00     0.076 C 
ATOM      6  C7  UNL d   1      -0.471  -0.544  -1.844  0.00  0.00     0.002 A 
ATOM      7  C8  UNL d   1      -0.583   0.678  -1.179  0.00  0.00     0.006 A 
ENDROOT
BRANCH   1   8
ATOM      8  C1  UNL d   1      -0.844   2.038   0.930  0.00  0.00     0.054 C 
ATOM      9  C   UNL d   1       0.237   2.988   0.433  0.00  0.00     0.018 C 
ENDBRANCH   1   8
TORSDOF 1
ENDMDL
