MODEL 1
REMARK minimizedAffinity 0.506756604
REMARK minimizedRMSD -1
REMARK  0 active torsions:
REMARK  status: ('A' for Active; 'I' for Inactive)
ROOT
ATOM      1  C   UNL d   1       1.004   1.089   3.945  0.00  0.00     0.078 C 
ATOM      2  C1  UNL d   1       0.839   1.052   2.455  0.00  0.00    -0.077 A 
ATOM      3  C2  UNL d   1       0.403  -0.110   1.806  0.00  0.00    -0.001 A 
ATOM      4  C3  UNL d   1       0.264  -0.133   0.418  0.00  0.00     0.003 A 
ATOM      5  C4  UNL d   1       0.560   1.002  -0.334  0.00  0.00    -0.005 A 
ATOM      6  C5  UNL d   1       0.996   2.162   0.303  0.00  0.00     0.003 A 
ATOM      7  C6  UNL d   1       1.136   2.187   1.691  0.00  0.00    -0.001 A 
ENDROOT
TORSDOF 0
ENDMDL
