MODEL 1
REMARK minimizedAffinity -5.57822514
REMARK minimizedRMSD -1
REMARK  0 active torsions:
REMARK  status: ('A' for Active; 'I' for Inactive)
ROOT
ATOM      1  C   UNL d   1       1.702  -0.935  -0.063  0.00  0.00     0.078 C 
ATOM      2  C1  UNL d   1       1.182   0.378   0.441  0.00  0.00    -0.077 A 
ATOM      3  C2  UNL d   1       0.170   0.430   1.407  0.00  0.00    -0.001 A 
ATOM      4  C3  UNL d   1      -0.312   1.659   1.860  0.00  0.00     0.003 A 
ATOM      5  C4  UNL d   1       0.212   2.846   1.351  0.00  0.00    -0.005 A 
ATOM      6  C5  UNL d   1       1.217   2.805   0.388  0.00  0.00     0.003 A 
ATOM      7  C6  UNL d   1       1.700   1.576  -0.066  0.00  0.00    -0.001 A 
ENDROOT
TORSDOF 0
ENDMDL
