MODEL 1
REMARK minimizedAffinity -0.819515467
REMARK minimizedRMSD -1
REMARK  0 active torsions:
REMARK  status: ('A' for Active; 'I' for Inactive)
ROOT
ATOM      1  C   UNL d   1       1.129   2.827   1.483  0.00  0.00     0.078 C 
ATOM      2  C1  UNL d   1       0.651   1.547   0.866  0.00  0.00    -0.077 A 
ATOM      3  C2  UNL d   1      -0.470   0.877   1.372  0.00  0.00    -0.001 A 
ATOM      4  C3  UNL d   1      -0.899  -0.318   0.794  0.00  0.00     0.003 A 
ATOM      5  C4  UNL d   1      -0.212  -0.856  -0.292  0.00  0.00    -0.005 A 
ATOM      6  C5  UNL d   1       0.906  -0.198  -0.801  0.00  0.00     0.003 A 
ATOM      7  C6  UNL d   1       1.336   0.998  -0.225  0.00  0.00    -0.001 A 
ENDROOT
TORSDOF 0
ENDMDL
