MODEL 1
REMARK minimizedAffinity -5.24552441
REMARK minimizedRMSD -1
REMARK  0 active torsions:
REMARK  status: ('A' for Active; 'I' for Inactive)
ROOT
ATOM      1  C   UNL d   1       1.508   2.788   1.444  0.00  0.00     0.078 C 
ATOM      2  C1  UNL d   1       1.376   1.477   0.728  0.00  0.00    -0.077 A 
ATOM      3  C2  UNL d   1       0.208   0.712   0.833  0.00  0.00    -0.001 A 
ATOM      4  C3  UNL d   1       0.103  -0.511   0.168  0.00  0.00     0.003 A 
ATOM      5  C4  UNL d   1       1.164  -0.980  -0.605  0.00  0.00    -0.005 A 
ATOM      6  C5  UNL d   1       2.331  -0.227  -0.713  0.00  0.00     0.003 A 
ATOM      7  C6  UNL d   1       2.437   0.996  -0.049  0.00  0.00    -0.001 A 
ENDROOT
TORSDOF 0
ENDMDL
