MODEL 1
REMARK minimizedAffinity -3.41718411
REMARK minimizedRMSD -1
REMARK  0 active torsions:
REMARK  status: ('A' for Active; 'I' for Inactive)
ROOT
ATOM      1  C   UNL d   1      -0.481  -1.426   0.832  0.00  0.00     0.078 C 
ATOM      2  C1  UNL d   1      -0.093  -0.047   0.388  0.00  0.00    -0.077 A 
ATOM      3  C2  UNL d   1       0.923   0.662   1.041  0.00  0.00    -0.001 A 
ATOM      4  C3  UNL d   1       1.267   1.948   0.623  0.00  0.00     0.003 A 
ATOM      5  C4  UNL d   1       0.599   2.537  -0.449  0.00  0.00    -0.005 A 
ATOM      6  C5  UNL d   1      -0.414   1.840  -1.104  0.00  0.00     0.003 A 
ATOM      7  C6  UNL d   1      -0.759   0.554  -0.687  0.00  0.00    -0.001 A 
ENDROOT
TORSDOF 0
ENDMDL
