MODEL 1
REMARK minimizedAffinity -2.5414505
REMARK minimizedRMSD -1
REMARK  0 active torsions:
REMARK  status: ('A' for Active; 'I' for Inactive)
ROOT
ATOM      1  C   UNL d   1       2.237   2.483   0.621  0.00  0.00     0.078 C 
ATOM      2  C1  UNL d   1       1.445   1.241   0.340  0.00  0.00    -0.077 A 
ATOM      3  C2  UNL d   1       2.043   0.123  -0.256  0.00  0.00    -0.001 A 
ATOM      4  C3  UNL d   1       1.292  -1.023  -0.520  0.00  0.00     0.003 A 
ATOM      5  C4  UNL d   1      -0.062  -1.062  -0.194  0.00  0.00    -0.005 A 
ATOM      6  C5  UNL d   1      -0.667   0.045   0.397  0.00  0.00     0.003 A 
ATOM      7  C6  UNL d   1       0.083   1.192   0.663  0.00  0.00    -0.001 A 
ENDROOT
TORSDOF 0
ENDMDL
