MODEL 1
REMARK minimizedAffinity -4.12276459
REMARK minimizedRMSD -1
REMARK  0 active torsions:
REMARK  status: ('A' for Active; 'I' for Inactive)
ROOT
ATOM      1  C   UNL d   1       1.982  -0.368  -0.650  0.00  0.00     0.078 C 
ATOM      2  C1  UNL d   1       1.111   0.490   0.218  0.00  0.00    -0.077 A 
ATOM      3  C2  UNL d   1       1.484   1.800   0.543  0.00  0.00    -0.001 A 
ATOM      4  C3  UNL d   1       0.668   2.584   1.360  0.00  0.00     0.003 A 
ATOM      5  C4  UNL d   1      -0.525   2.067   1.861  0.00  0.00    -0.005 A 
ATOM      6  C5  UNL d   1      -0.903   0.764   1.545  0.00  0.00     0.003 A 
ATOM      7  C6  UNL d   1      -0.089  -0.022   0.728  0.00  0.00    -0.001 A 
ENDROOT
TORSDOF 0
ENDMDL
