MODEL 1
REMARK minimizedAffinity -2.01018429
REMARK minimizedRMSD -1
REMARK  0 active torsions:
REMARK  status: ('A' for Active; 'I' for Inactive)
ROOT
ATOM      1  C   UNL d   1      -1.971   0.442  -1.890  0.00  0.00     0.078 C 
ATOM      2  C1  UNL d   1      -0.947   0.614  -0.808  0.00  0.00    -0.077 A 
ATOM      3  C2  UNL d   1       0.219   1.356  -1.030  0.00  0.00    -0.001 A 
ATOM      4  C3  UNL d   1       1.168   1.500  -0.017  0.00  0.00     0.003 A 
ATOM      5  C4  UNL d   1       0.962   0.902   1.225  0.00  0.00    -0.005 A 
ATOM      6  C5  UNL d   1      -0.195   0.160   1.454  0.00  0.00     0.003 A 
ATOM      7  C6  UNL d   1      -1.145   0.016   0.443  0.00  0.00    -0.001 A 
ENDROOT
TORSDOF 0
ENDMDL
