MODEL 1
REMARK minimizedAffinity -4.35675049
REMARK minimizedRMSD -1
REMARK  0 active torsions:
REMARK  status: ('A' for Active; 'I' for Inactive)
ROOT
ATOM      1  C   UNL d   1      -0.451  -0.387  -0.966  0.00  0.00     0.078 C 
ATOM      2  C1  UNL d   1       0.004   0.517   0.141  0.00  0.00    -0.077 A 
ATOM      3  C2  UNL d   1      -0.420   0.313   1.459  0.00  0.00    -0.001 A 
ATOM      4  C3  UNL d   1       0.003   1.168   2.478  0.00  0.00     0.003 A 
ATOM      5  C4  UNL d   1       0.853   2.234   2.188  0.00  0.00    -0.005 A 
ATOM      6  C5  UNL d   1       1.279   2.446   0.878  0.00  0.00     0.003 A 
ATOM      7  C6  UNL d   1       0.856   1.592  -0.141  0.00  0.00    -0.001 A 
ENDROOT
TORSDOF 0
ENDMDL
