MODEL 1
REMARK minimizedAffinity 6.90131807
REMARK minimizedRMSD -1
REMARK  0 active torsions:
REMARK  status: ('A' for Active; 'I' for Inactive)
ROOT
ATOM      1  C   UNL d   1      -5.997   5.808  -5.105  0.00  0.00     0.078 C 
ATOM      2  C1  UNL d   1      -5.085   5.777  -3.916  0.00  0.00    -0.077 A 
ATOM      3  C2  UNL d   1      -3.717   5.516  -4.062  0.00  0.00    -0.001 A 
ATOM      4  C3  UNL d   1      -2.882   5.480  -2.945  0.00  0.00     0.003 A 
ATOM      5  C4  UNL d   1      -3.405   5.702  -1.673  0.00  0.00    -0.005 A 
ATOM      6  C5  UNL d   1      -4.765   5.960  -1.516  0.00  0.00     0.003 A 
ATOM      7  C6  UNL d   1      -5.602   5.997  -2.633  0.00  0.00    -0.001 A 
ENDROOT
TORSDOF 0
ENDMDL
