MODEL 1
REMARK minimizedAffinity 4.55640459
REMARK minimizedRMSD -1
REMARK  0 active torsions:
REMARK  status: ('A' for Active; 'I' for Inactive)
ROOT
ATOM      1  C   UNL d   1       1.849   3.548  -3.003  0.00  0.00     0.078 C 
ATOM      2  C1  UNL d   1       3.293   3.561  -3.406  0.00  0.00    -0.077 A 
ATOM      3  C2  UNL d   1       3.668   3.747  -4.742  0.00  0.00    -0.001 A 
ATOM      4  C3  UNL d   1       5.016   3.746  -5.104  0.00  0.00     0.003 A 
ATOM      5  C4  UNL d   1       6.000   3.560  -4.136  0.00  0.00    -0.005 A 
ATOM      6  C5  UNL d   1       5.637   3.372  -2.804  0.00  0.00     0.003 A 
ATOM      7  C6  UNL d   1       4.289   3.372  -2.440  0.00  0.00    -0.001 A 
ENDROOT
TORSDOF 0
ENDMDL
