MODEL 1
REMARK minimizedAffinity -3.61260271
REMARK minimizedRMSD -1
REMARK  0 active torsions:
REMARK  status: ('A' for Active; 'I' for Inactive)
ROOT
ATOM      1  C   UNL d   1       4.508   3.746  -3.576  0.00  0.00     0.078 C 
ATOM      2  C1  UNL d   1       3.357   4.525  -4.138  0.00  0.00    -0.077 A 
ATOM      3  C2  UNL d   1       3.321   4.883  -5.492  0.00  0.00    -0.001 A 
ATOM      4  C3  UNL d   1       2.248   5.617  -6.000  0.00  0.00     0.003 A 
ATOM      5  C4  UNL d   1       1.203   6.000  -5.161  0.00  0.00    -0.005 A 
ATOM      6  C5  UNL d   1       1.231   5.650  -3.813  0.00  0.00     0.003 A 
ATOM      7  C6  UNL d   1       2.303   4.917  -3.303  0.00  0.00    -0.001 A 
ENDROOT
TORSDOF 0
ENDMDL
