MODEL 1
REMARK minimizedAffinity -3.67267656
REMARK minimizedRMSD -1
REMARK  0 active torsions:
REMARK  status: ('A' for Active; 'I' for Inactive)
ROOT
ATOM      1  C   UNL d   1       0.653   1.169   0.739  0.00  0.00     0.078 C 
ATOM      2  C1  UNL d   1       1.333   1.281   2.071  0.00  0.00    -0.077 A 
ATOM      3  C2  UNL d   1       2.730   1.315   2.167  0.00  0.00    -0.001 A 
ATOM      4  C3  UNL d   1       3.350   1.409   3.414  0.00  0.00     0.003 A 
ATOM      5  C4  UNL d   1       2.581   1.470   4.575  0.00  0.00    -0.005 A 
ATOM      6  C5  UNL d   1       1.191   1.435   4.489  0.00  0.00     0.003 A 
ATOM      7  C6  UNL d   1       0.569   1.340   3.243  0.00  0.00    -0.001 A 
ENDROOT
TORSDOF 0
ENDMDL
