MODEL 1
REMARK minimizedAffinity -3.06974077
REMARK minimizedRMSD -1
REMARK  0 active torsions:
REMARK  status: ('A' for Active; 'I' for Inactive)
ROOT
ATOM      1  C   UNL d   1      -0.199  -0.075   1.132  0.00  0.00     0.078 C 
ATOM      2  C1  UNL d   1      -1.056  -0.958   1.989  0.00  0.00    -0.077 A 
ATOM      3  C2  UNL d   1      -1.842  -0.423   3.016  0.00  0.00    -0.001 A 
ATOM      4  C3  UNL d   1      -2.628  -1.259   3.812  0.00  0.00     0.003 A 
ATOM      5  C4  UNL d   1      -2.634  -2.634   3.589  0.00  0.00    -0.005 A 
ATOM      6  C5  UNL d   1      -1.853  -3.176   2.570  0.00  0.00     0.003 A 
ATOM      7  C6  UNL d   1      -1.067  -2.342   1.774  0.00  0.00    -0.001 A 
ENDROOT
TORSDOF 0
ENDMDL
