MODEL 1
REMARK minimizedAffinity 0.513330877
REMARK minimizedRMSD -1
REMARK  0 active torsions:
REMARK  status: ('A' for Active; 'I' for Inactive)
ROOT
ATOM      1  C   UNL d   1      -4.083  -2.635  -1.747  0.00  0.00     0.078 C 
ATOM      2  C1  UNL d   1      -3.093  -1.876  -2.579  0.00  0.00    -0.077 A 
ATOM      3  C2  UNL d   1      -2.988  -2.099  -3.957  0.00  0.00    -0.001 A 
ATOM      4  C3  UNL d   1      -2.054  -1.393  -4.717  0.00  0.00     0.003 A 
ATOM      5  C4  UNL d   1      -1.218  -0.460  -4.108  0.00  0.00    -0.005 A 
ATOM      6  C5  UNL d   1      -1.313  -0.233  -2.737  0.00  0.00     0.003 A 
ATOM      7  C6  UNL d   1      -2.246  -0.939  -1.975  0.00  0.00    -0.001 A 
ENDROOT
TORSDOF 0
ENDMDL
