MODEL 1
REMARK minimizedAffinity 5.35791588
REMARK minimizedRMSD -1
REMARK  0 active torsions:
REMARK  status: ('A' for Active; 'I' for Inactive)
ROOT
ATOM      1  C   UNL d   1       1.287  -1.083  -2.091  0.00  0.00     0.078 C 
ATOM      2  C1  UNL d   1       0.604  -0.690  -3.366  0.00  0.00    -0.077 A 
ATOM      3  C2  UNL d   1      -0.287  -1.561  -4.006  0.00  0.00    -0.001 A 
ATOM      4  C3  UNL d   1      -0.908  -1.185  -5.198  0.00  0.00     0.003 A 
ATOM      5  C4  UNL d   1      -0.644   0.061  -5.762  0.00  0.00    -0.005 A 
ATOM      6  C5  UNL d   1       0.242   0.934  -5.134  0.00  0.00     0.003 A 
ATOM      7  C6  UNL d   1       0.864   0.560  -3.942  0.00  0.00    -0.001 A 
ENDROOT
TORSDOF 0
ENDMDL
