MODEL 1
REMARK minimizedAffinity -2.75286078
REMARK minimizedRMSD -1
REMARK  0 active torsions:
REMARK  status: ('A' for Active; 'I' for Inactive)
ROOT
ATOM      1  C   UNL d   1      -3.772   5.978  -2.619  0.00  0.00     0.078 C 
ATOM      2  C1  UNL d   1      -2.406   5.892  -3.232  0.00  0.00    -0.077 A 
ATOM      3  C2  UNL d   1      -1.268   5.719  -2.435  0.00  0.00    -0.001 A 
ATOM      4  C3  UNL d   1      -0.002   5.650  -3.018  0.00  0.00     0.003 A 
ATOM      5  C4  UNL d   1       0.139   5.755  -4.400  0.00  0.00    -0.005 A 
ATOM      6  C5  UNL d   1      -0.988   5.930  -5.201  0.00  0.00     0.003 A 
ATOM      7  C6  UNL d   1      -2.255   5.999  -4.620  0.00  0.00    -0.001 A 
ENDROOT
TORSDOF 0
ENDMDL
