MODEL 1
REMARK minimizedAffinity -2.61922359
REMARK minimizedRMSD -1
REMARK  0 active torsions:
REMARK  status: ('A' for Active; 'I' for Inactive)
ROOT
ATOM      1  C1  DEN d   1       0.992  -0.865   0.190  0.00  0.00     0.130 A 
ATOM      2  C2  DEN d   1      -0.443  -1.127   0.136  0.00  0.00    -0.031 A 
ATOM      3  C3  DEN d   1      -1.149   0.130   0.455  0.00  0.00     0.027 A 
ATOM      4  C4  DEN d   1      -0.163   2.446   1.019  0.00  0.00     0.027 A 
ATOM      5  C5  DEN d   1       1.004   3.156   1.199  0.00  0.00    -0.003 A 
ATOM      6  C6  DEN d   1       2.238   2.572   1.088  0.00  0.00     0.001 A 
ATOM      7  C7  DEN d   1       2.335   1.249   0.746  0.00  0.00     0.017 A 
ATOM      8  C8  DEN d   1       1.163   0.525   0.571  0.00  0.00    -0.094 A 
ATOM      9  C9  DEN d   1      -0.075   1.136   0.675  0.00  0.00    -0.072 A 
ENDROOT
TORSDOF 0
ENDMDL
