MODEL 1
REMARK minimizedAffinity 0.758944154
REMARK minimizedRMSD -1
REMARK  0 active torsions:
REMARK  status: ('A' for Active; 'I' for Inactive)
ROOT
ATOM      1  C1  DEN d   1      -1.400   1.828   0.639  0.00  0.00     0.130 A 
ATOM      2  C2  DEN d   1      -1.727   0.483   0.173  0.00  0.00    -0.031 A 
ATOM      3  C3  DEN d   1      -0.470  -0.286   0.079  0.00  0.00     0.027 A 
ATOM      4  C4  DEN d   1       1.938   0.469   0.612  0.00  0.00     0.027 A 
ATOM      5  C5  DEN d   1       2.716   1.526   1.029  0.00  0.00    -0.003 A 
ATOM      6  C6  DEN d   1       2.186   2.758   1.310  0.00  0.00     0.001 A 
ATOM      7  C7  DEN d   1       0.833   2.950   1.221  0.00  0.00     0.017 A 
ATOM      8  C8  DEN d   1       0.042   1.891   0.794  0.00  0.00    -0.094 A 
ATOM      9  C9  DEN d   1       0.596   0.651   0.527  0.00  0.00    -0.072 A 
ENDROOT
TORSDOF 0
ENDMDL
