MODEL 1
REMARK minimizedAffinity -3.58044267
REMARK minimizedRMSD -1
REMARK  0 active torsions:
REMARK  status: ('A' for Active; 'I' for Inactive)
ROOT
ATOM      1  C1  DEN d   1       1.323   1.996   0.110  0.00  0.00     0.130 A 
ATOM      2  C2  DEN d   1       0.546   3.192   0.423  0.00  0.00    -0.031 A 
ATOM      3  C3  DEN d   1      -0.863   2.788   0.600  0.00  0.00     0.027 A 
ATOM      4  C4  DEN d   1      -1.911   0.438   0.424  0.00  0.00     0.027 A 
ATOM      5  C5  DEN d   1      -1.653  -0.891   0.167  0.00  0.00    -0.003 A 
ATOM      6  C6  DEN d   1      -0.400  -1.341  -0.158  0.00  0.00     0.001 A 
ATOM      7  C7  DEN d   1       0.650  -0.462  -0.190  0.00  0.00     0.017 A 
ATOM      8  C8  DEN d   1       0.395   0.880   0.061  0.00  0.00    -0.094 A 
ATOM      9  C9  DEN d   1      -0.875   1.314   0.399  0.00  0.00    -0.072 A 
ENDROOT
TORSDOF 0
ENDMDL
