MODEL 1
REMARK minimizedAffinity -2.49818468
REMARK minimizedRMSD -1
REMARK  0 active torsions:
REMARK  status: ('A' for Active; 'I' for Inactive)
ROOT
ATOM      1  C1  DEN d   1       0.837  -1.308  -0.356  0.00  0.00     0.130 A 
ATOM      2  C2  DEN d   1      -0.327  -2.160  -0.585  0.00  0.00    -0.031 A 
ATOM      3  C3  DEN d   1      -1.538  -1.361  -0.309  0.00  0.00     0.027 A 
ATOM      4  C4  DEN d   1      -1.723   1.099   0.443  0.00  0.00     0.027 A 
ATOM      5  C5  DEN d   1      -1.007   2.227   0.780  0.00  0.00    -0.003 A 
ATOM      6  C6  DEN d   1       0.362   2.245   0.795  0.00  0.00     0.001 A 
ATOM      7  C7  DEN d   1       1.060   1.126   0.423  0.00  0.00     0.017 A 
ATOM      8  C8  DEN d   1       0.345  -0.017   0.088  0.00  0.00    -0.094 A 
ATOM      9  C9  DEN d   1      -1.039  -0.011   0.068  0.00  0.00    -0.072 A 
ENDROOT
TORSDOF 0
ENDMDL
