MODEL 1
REMARK minimizedAffinity -0.0667697936
REMARK minimizedRMSD -1
REMARK  0 active torsions:
REMARK  status: ('A' for Active; 'I' for Inactive)
ROOT
ATOM      1  C1  DEN d   1       0.845   2.189   0.103  0.00  0.00     0.130 A 
ATOM      2  C2  DEN d   1      -0.177   3.103   0.606  0.00  0.00    -0.031 A 
ATOM      3  C3  DEN d   1      -1.333   2.297   1.048  0.00  0.00     0.027 A 
ATOM      4  C4  DEN d   1      -1.634  -0.265   1.009  0.00  0.00     0.027 A 
ATOM      5  C5  DEN d   1      -1.043  -1.459   0.662  0.00  0.00    -0.003 A 
ATOM      6  C6  DEN d   1       0.194  -1.519   0.078  0.00  0.00     0.001 A 
ATOM      7  C7  DEN d   1       0.901  -0.365  -0.136  0.00  0.00     0.017 A 
ATOM      8  C8  DEN d   1       0.308   0.844   0.205  0.00  0.00    -0.094 A 
ATOM      9  C9  DEN d   1      -0.938   0.883   0.806  0.00  0.00    -0.072 A 
ENDROOT
TORSDOF 0
ENDMDL
