MODEL 1
REMARK minimizedAffinity -4.63785696
REMARK minimizedRMSD -1
REMARK  0 active torsions:
REMARK  status: ('A' for Active; 'I' for Inactive)
ROOT
ATOM      1  C1  DEN d   1       1.786   2.730   1.105  0.00  0.00     0.130 A 
ATOM      2  C2  DEN d   1       2.988   1.935   0.869  0.00  0.00    -0.031 A 
ATOM      3  C3  DEN d   1       2.567   0.593   0.421  0.00  0.00     0.027 A 
ATOM      4  C4  DEN d   1       0.183  -0.326   0.065  0.00  0.00     0.027 A 
ATOM      5  C5  DEN d   1      -1.159  -0.026   0.147  0.00  0.00    -0.003 A 
ATOM      6  C6  DEN d   1      -1.611   1.191   0.583  0.00  0.00     0.001 A 
ATOM      7  C7  DEN d   1      -0.711   2.171   0.911  0.00  0.00     0.017 A 
ATOM      8  C8  DEN d   1       0.644   1.874   0.838  0.00  0.00    -0.094 A 
ATOM      9  C9  DEN d   1       1.080   0.641   0.383  0.00  0.00    -0.072 A 
ENDROOT
TORSDOF 0
ENDMDL
