MODEL 1
REMARK minimizedAffinity -3.95632768
REMARK minimizedRMSD -1
REMARK  0 active torsions:
REMARK  status: ('A' for Active; 'I' for Inactive)
ROOT
ATOM      1  C1  DEN d   1      -0.734   2.006   0.568  0.00  0.00     0.130 A 
ATOM      2  C2  DEN d   1      -2.054   1.380   0.554  0.00  0.00    -0.031 A 
ATOM      3  C3  DEN d   1      -1.864  -0.084   0.543  0.00  0.00     0.027 A 
ATOM      4  C4  DEN d   1       0.333  -1.436   0.552  0.00  0.00     0.027 A 
ATOM      5  C5  DEN d   1       1.707  -1.344   0.552  0.00  0.00    -0.003 A 
ATOM      6  C6  DEN d   1       2.359  -0.140   0.523  0.00  0.00     0.001 A 
ATOM      7  C7  DEN d   1       1.636   1.024   0.539  0.00  0.00     0.017 A 
ATOM      8  C8  DEN d   1       0.250   0.939   0.531  0.00  0.00    -0.094 A 
ATOM      9  C9  DEN d   1      -0.390  -0.288   0.573  0.00  0.00    -0.072 A 
ENDROOT
TORSDOF 0
ENDMDL
