MODEL 1
REMARK minimizedAffinity -2.22404218
REMARK minimizedRMSD -1
REMARK  0 active torsions:
REMARK  status: ('A' for Active; 'I' for Inactive)
ROOT
ATOM      1  C1  DEN d   1       2.364   2.412   0.935  0.00  0.00     0.130 A 
ATOM      2  C2  DEN d   1       1.303   3.385   1.181  0.00  0.00    -0.031 A 
ATOM      3  C3  DEN d   1       0.011   2.739   0.877  0.00  0.00     0.027 A 
ATOM      4  C4  DEN d   1      -0.449   0.337   0.056  0.00  0.00     0.027 A 
ATOM      5  C5  DEN d   1       0.136  -0.856  -0.308  0.00  0.00    -0.003 A 
ATOM      6  C6  DEN d   1       1.494  -1.031  -0.316  0.00  0.00     0.001 A 
ATOM      7  C7  DEN d   1       2.313  -0.010   0.090  0.00  0.00     0.017 A 
ATOM      8  C8  DEN d   1       1.731   1.198   0.452  0.00  0.00    -0.094 A 
ATOM      9  C9  DEN d   1       0.355   1.351   0.465  0.00  0.00    -0.072 A 
ENDROOT
TORSDOF 0
ENDMDL
