MODEL 1
REMARK minimizedAffinity 1.95591843
REMARK minimizedRMSD -1
REMARK  0 active torsions:
REMARK  status: ('A' for Active; 'I' for Inactive)
ROOT
ATOM      1  C1  DEN d   1       1.052  -0.778  -0.001  0.00  0.00     0.130 A 
ATOM      2  C2  DEN d   1       0.133  -1.714  -0.643  0.00  0.00    -0.031 A 
ATOM      3  C3  DEN d   1      -1.187  -1.060  -0.746  0.00  0.00     0.027 A 
ATOM      4  C4  DEN d   1      -1.891   1.301   0.019  0.00  0.00     0.027 A 
ATOM      5  C5  DEN d   1      -1.460   2.459   0.627  0.00  0.00    -0.003 A 
ATOM      6  C6  DEN d   1      -0.181   2.606   1.095  0.00  0.00     0.001 A 
ATOM      7  C7  DEN d   1       0.725   1.593   0.922  0.00  0.00     0.017 A 
ATOM      8  C8  DEN d   1       0.296   0.419   0.316  0.00  0.00    -0.094 A 
ATOM      9  C9  DEN d   1      -0.998   0.295  -0.161  0.00  0.00    -0.072 A 
ENDROOT
TORSDOF 0
ENDMDL
