MODEL 1
REMARK minimizedAffinity -4.9046011
REMARK minimizedRMSD -1
REMARK  0 active torsions:
REMARK  status: ('A' for Active; 'I' for Inactive)
ROOT
ATOM      1  C1  DEN d   1      -1.085   0.945  -0.708  0.00  0.00     0.130 A 
ATOM      2  C2  DEN d   1      -1.632   0.946   0.646  0.00  0.00    -0.031 A 
ATOM      3  C3  DEN d   1      -1.589  -0.439   1.156  0.00  0.00     0.027 A 
ATOM      4  C4  DEN d   1      -0.728  -2.572  -0.011  0.00  0.00     0.027 A 
ATOM      5  C5  DEN d   1      -0.181  -3.074  -1.171  0.00  0.00    -0.003 A 
ATOM      6  C6  DEN d   1       0.069  -2.284  -2.262  0.00  0.00     0.001 A 
ATOM      7  C7  DEN d   1      -0.186  -0.940  -2.199  0.00  0.00     0.017 A 
ATOM      8  C8  DEN d   1      -0.744  -0.428  -1.035  0.00  0.00    -0.094 A 
ATOM      9  C9  DEN d   1      -0.979  -1.240   0.061  0.00  0.00    -0.072 A 
ENDROOT
TORSDOF 0
ENDMDL
