MODEL 1
REMARK minimizedAffinity 6.03386927
REMARK minimizedRMSD -1
REMARK  0 active torsions:
REMARK  status: ('A' for Active; 'I' for Inactive)
ROOT
ATOM      1  C1  BNZ d   1      -2.050  -2.839  -0.753  0.00  0.00     0.000 A 
ATOM      2  C2  BNZ d   1      -2.990  -2.745  -1.744  0.00  0.00     0.000 A 
ATOM      3  C3  BNZ d   1      -3.917  -1.740  -1.736  0.00  0.00     0.000 A 
ATOM      4  C4  BNZ d   1      -3.928  -0.856  -0.718  0.00  0.00     0.000 A 
ATOM      5  C5  BNZ d   1      -2.992  -0.943   0.293  0.00  0.00     0.000 A 
ATOM      6  C6  BNZ d   1      -2.036  -1.932   0.262  0.00  0.00     0.000 A 
ENDROOT
TORSDOF 0
ENDMDL
