MODEL 1
REMARK minimizedAffinity 3.54536128
REMARK minimizedRMSD -1
REMARK  0 active torsions:
REMARK  status: ('A' for Active; 'I' for Inactive)
ROOT
ATOM      1  C1  BNZ d   1      -1.823  -2.990  -0.792  0.00  0.00     0.000 A 
ATOM      2  C2  BNZ d   1      -1.841  -4.194  -1.444  0.00  0.00     0.000 A 
ATOM      3  C3  BNZ d   1      -0.761  -5.030  -1.399  0.00  0.00     0.000 A 
ATOM      4  C4  BNZ d   1       0.349  -4.645  -0.737  0.00  0.00     0.000 A 
ATOM      5  C5  BNZ d   1       0.386  -3.430  -0.082  0.00  0.00     0.000 A 
ATOM      6  C6  BNZ d   1      -0.717  -2.608  -0.097  0.00  0.00     0.000 A 
ENDROOT
TORSDOF 0
ENDMDL
