MODEL 1
REMARK minimizedAffinity 0.81605351
REMARK minimizedRMSD -1
REMARK  0 active torsions:
REMARK  status: ('A' for Active; 'I' for Inactive)
ROOT
ATOM      1  C1  BNZ d   1      -1.554  -3.867  -0.486  0.00  0.00     0.000 A 
ATOM      2  C2  BNZ d   1      -2.816  -3.606  -0.024  0.00  0.00     0.000 A 
ATOM      3  C3  BNZ d   1      -3.055  -2.540   0.798  0.00  0.00     0.000 A 
ATOM      4  C4  BNZ d   1      -2.025  -1.761   1.188  0.00  0.00     0.000 A 
ATOM      5  C5  BNZ d   1      -0.745  -2.016   0.738  0.00  0.00     0.000 A 
ATOM      6  C6  BNZ d   1      -0.516  -3.067  -0.120  0.00  0.00     0.000 A 
ENDROOT
TORSDOF 0
ENDMDL
