MODEL 1
REMARK minimizedAffinity 5.74885368
REMARK minimizedRMSD -1
REMARK  0 active torsions:
REMARK  status: ('A' for Active; 'I' for Inactive)
ROOT
ATOM      1  C1  BNZ d   1       2.738   2.212   2.152  0.00  0.00     0.000 A 
ATOM      2  C2  BNZ d   1       2.293   3.435   2.578  0.00  0.00     0.000 A 
ATOM      3  C3  BNZ d   1       3.176   4.420   2.921  0.00  0.00     0.000 A 
ATOM      4  C4  BNZ d   1       4.500   4.168   2.877  0.00  0.00     0.000 A 
ATOM      5  C5  BNZ d   1       4.964   2.937   2.459  0.00  0.00     0.000 A 
ATOM      6  C6  BNZ d   1       4.073   1.961   2.077  0.00  0.00     0.000 A 
ENDROOT
TORSDOF 0
ENDMDL
