MODEL 1
REMARK minimizedAffinity 2.39422822
REMARK minimizedRMSD -1
REMARK  0 active torsions:
REMARK  status: ('A' for Active; 'I' for Inactive)
ROOT
ATOM      1  C1  BNZ d   1      -2.831  -5.987  -0.338  0.00  0.00     0.000 A 
ATOM      2  C2  BNZ d   1      -1.488  -5.989  -0.608  0.00  0.00     0.000 A 
ATOM      3  C3  BNZ d   1      -0.844  -4.838  -0.965  0.00  0.00     0.000 A 
ATOM      4  C4  BNZ d   1      -1.548  -3.695  -1.090  0.00  0.00     0.000 A 
ATOM      5  C5  BNZ d   1      -2.904  -3.678  -0.830  0.00  0.00     0.000 A 
ATOM      6  C6  BNZ d   1      -3.543  -4.831  -0.433  0.00  0.00     0.000 A 
ENDROOT
TORSDOF 0
ENDMDL
