MODEL 1
REMARK minimizedAffinity 4.98399115
REMARK minimizedRMSD -1
REMARK  0 active torsions:
REMARK  status: ('A' for Active; 'I' for Inactive)
ROOT
ATOM      1  C1  BNZ d   1      -0.450  -3.633  -0.662  0.00  0.00     0.000 A 
ATOM      2  C2  BNZ d   1       0.291  -4.750  -0.943  0.00  0.00     0.000 A 
ATOM      3  C3  BNZ d   1      -0.192  -5.719  -1.778  0.00  0.00     0.000 A 
ATOM      4  C4  BNZ d   1      -1.429  -5.588  -2.300  0.00  0.00     0.000 A 
ATOM      5  C5  BNZ d   1      -2.192  -4.472  -2.019  0.00  0.00     0.000 A 
ATOM      6  C6  BNZ d   1      -1.687  -3.481  -1.209  0.00  0.00     0.000 A 
ENDROOT
TORSDOF 0
ENDMDL
