MODEL 1
REMARK minimizedAffinity 4.54713631
REMARK minimizedRMSD -1
REMARK  0 active torsions:
REMARK  status: ('A' for Active; 'I' for Inactive)
ROOT
ATOM      1  C1  BNZ d   1      -6.000   0.757  -2.062  0.00  0.00     0.000 A 
ATOM      2  C2  BNZ d   1      -5.703   1.035  -0.754  0.00  0.00     0.000 A 
ATOM      3  C3  BNZ d   1      -5.181   2.247  -0.397  0.00  0.00     0.000 A 
ATOM      4  C4  BNZ d   1      -4.918   3.163  -1.352  0.00  0.00     0.000 A 
ATOM      5  C5  BNZ d   1      -5.203   2.894  -2.676  0.00  0.00     0.000 A 
ATOM      6  C6  BNZ d   1      -5.765   1.687  -3.027  0.00  0.00     0.000 A 
ENDROOT
TORSDOF 0
ENDMDL
