MODEL 1
REMARK minimizedAffinity 5.82164764
REMARK minimizedRMSD -1
REMARK  0 active torsions:
REMARK  status: ('A' for Active; 'I' for Inactive)
ROOT
ATOM      1  C1  BNZ d   1      -5.998   0.898  -1.332  0.00  0.00     0.000 A 
ATOM      2  C2  BNZ d   1      -5.969   2.249  -1.555  0.00  0.00     0.000 A 
ATOM      3  C3  BNZ d   1      -4.983   3.026  -1.013  0.00  0.00     0.000 A 
ATOM      4  C4  BNZ d   1      -4.054   2.459  -0.218  0.00  0.00     0.000 A 
ATOM      5  C5  BNZ d   1      -4.076   1.100   0.024  0.00  0.00     0.000 A 
ATOM      6  C6  BNZ d   1      -5.046   0.315  -0.554  0.00  0.00     0.000 A 
ENDROOT
TORSDOF 0
ENDMDL
