MODEL 1
REMARK minimizedAffinity 1.02509344
REMARK minimizedRMSD -1
REMARK  0 active torsions:
REMARK  status: ('A' for Active; 'I' for Inactive)
ROOT
ATOM      1  C1  BNZ d   1       1.157  -5.065  -1.500  0.00  0.00     0.000 A 
ATOM      2  C2  BNZ d   1       1.972  -4.070  -1.030  0.00  0.00     0.000 A 
ATOM      3  C3  BNZ d   1       1.454  -2.999  -0.358  0.00  0.00     0.000 A 
ATOM      4  C4  BNZ d   1       0.119  -2.903  -0.193  0.00  0.00     0.000 A 
ATOM      5  C5  BNZ d   1      -0.718  -3.893  -0.668  0.00  0.00     0.000 A 
ATOM      6  C6  BNZ d   1      -0.188  -4.990  -1.310  0.00  0.00     0.000 A 
ENDROOT
TORSDOF 0
ENDMDL
