MODEL 1
REMARK minimizedAffinity -0.166647628
REMARK minimizedRMSD -1
REMARK  0 active torsions:
REMARK  status: ('A' for Active; 'I' for Inactive)
ROOT
ATOM      1  C1  BNZ d   1       1.670   2.916  -5.901  0.00  0.00     0.000 A 
ATOM      2  C2  BNZ d   1       0.482   2.241  -5.998  0.00  0.00     0.000 A 
ATOM      3  C3  BNZ d   1       0.203   1.192  -5.168  0.00  0.00     0.000 A 
ATOM      4  C4  BNZ d   1       1.127   0.794  -4.269  0.00  0.00     0.000 A 
ATOM      5  C5  BNZ d   1       2.332   1.459  -4.164  0.00  0.00     0.000 A 
ATOM      6  C6  BNZ d   1       2.594   2.539  -4.976  0.00  0.00     0.000 A 
ENDROOT
TORSDOF 0
ENDMDL
