MODEL 1
REMARK minimizedAffinity 4.69116688
REMARK minimizedRMSD -1
REMARK  0 active torsions:
REMARK  status: ('A' for Active; 'I' for Inactive)
ROOT
ATOM      1  C1  BNZ d   1       0.054   0.470  -4.748  0.00  0.00     0.000 A 
ATOM      2  C2  BNZ d   1       1.213   0.263  -4.048  0.00  0.00     0.000 A 
ATOM      3  C3  BNZ d   1       2.322   1.025  -4.287  0.00  0.00     0.000 A 
ATOM      4  C4  BNZ d   1       2.284   1.965  -5.254  0.00  0.00     0.000 A 
ATOM      5  C5  BNZ d   1       1.127   2.180  -5.975  0.00  0.00     0.000 A 
ATOM      6  C6  BNZ d   1       0.000   1.437  -5.704  0.00  0.00     0.000 A 
ENDROOT
TORSDOF 0
ENDMDL
