MODEL 1
REMARK minimizedAffinity 6.28156614
REMARK minimizedRMSD -1
REMARK  0 active torsions:
REMARK  status: ('A' for Active; 'I' for Inactive)
ROOT
ATOM      1  C1  BNZ d   1      -1.722  -4.038  -1.160  0.00  0.00     0.000 A 
ATOM      2  C2  BNZ d   1      -2.960  -3.709  -1.646  0.00  0.00     0.000 A 
ATOM      3  C3  BNZ d   1      -3.644  -2.635  -1.149  0.00  0.00     0.000 A 
ATOM      4  C4  BNZ d   1      -3.108  -1.916  -0.141  0.00  0.00     0.000 A 
ATOM      5  C5  BNZ d   1      -1.866  -2.241   0.366  0.00  0.00     0.000 A 
ATOM      6  C6  BNZ d   1      -1.163  -3.299  -0.163  0.00  0.00     0.000 A 
ENDROOT
TORSDOF 0
ENDMDL
