MODEL 1
REMARK minimizedAffinity 5.81808519
REMARK minimizedRMSD -1
REMARK  0 active torsions:
REMARK  status: ('A' for Active; 'I' for Inactive)
ROOT
ATOM      1  C1  BNZ d   1       4.591   3.410   2.616  0.00  0.00     0.000 A 
ATOM      2  C2  BNZ d   1       3.350   3.946   2.835  0.00  0.00     0.000 A 
ATOM      3  C3  BNZ d   1       2.220   3.231   2.553  0.00  0.00     0.000 A 
ATOM      4  C4  BNZ d   1       2.331   1.998   2.017  0.00  0.00     0.000 A 
ATOM      5  C5  BNZ d   1       3.575   1.448   1.782  0.00  0.00     0.000 A 
ATOM      6  C6  BNZ d   1       4.711   2.155   2.103  0.00  0.00     0.000 A 
ENDROOT
TORSDOF 0
ENDMDL
