MODEL 1
REMARK minimizedAffinity -1.3256675
REMARK minimizedRMSD -1
REMARK  0 active torsions:
REMARK  status: ('A' for Active; 'I' for Inactive)
ROOT
ATOM      1  C1  BNZ d   1      -1.512  -5.263  -1.499  0.00  0.00     0.000 A 
ATOM      2  C2  BNZ d   1      -0.314  -5.288  -0.837  0.00  0.00     0.000 A 
ATOM      3  C3  BNZ d   1       0.122  -4.198  -0.137  0.00  0.00     0.000 A 
ATOM      4  C4  BNZ d   1      -0.621  -3.072  -0.132  0.00  0.00     0.000 A 
ATOM      5  C5  BNZ d   1      -1.827  -3.028  -0.802  0.00  0.00     0.000 A 
ATOM      6  C6  BNZ d   1      -2.281  -4.140  -1.474  0.00  0.00     0.000 A 
ENDROOT
TORSDOF 0
ENDMDL
