MODEL 1
REMARK minimizedAffinity -5.10825729
REMARK minimizedRMSD -1
REMARK  1 active torsions:
REMARK  status: ('A' for Active; 'I' for Inactive)
REMARK    1  A    between atoms: C1_2  and  C2_3 
ROOT
ATOM      1  C2  UNL d   1       0.048   0.351  -0.444  0.00  0.00    -0.077 A 
ATOM      2  C3  UNL d   1      -0.454   1.564  -0.937  0.00  0.00     0.002 A 
ATOM      3  C4  UNL d   1      -1.580   2.151  -0.357  0.00  0.00     0.002 A 
ATOM      4  C5  UNL d   1      -2.211   1.535   0.722  0.00  0.00    -0.004 A 
ATOM      5  C6  UNL d   1      -1.720   0.327   1.218  0.00  0.00     0.002 A 
ATOM      6  C7  UNL d   1      -0.596  -0.261   0.639  0.00  0.00     0.002 A 
ENDROOT
BRANCH   1   7
ATOM      7  C1  UNL d   1       1.292  -0.258  -1.037  0.00  0.00     0.055 C 
ATOM      8  C   UNL d   1       1.032  -1.672  -1.535  0.00  0.00     0.019 C 
ENDBRANCH   1   7
TORSDOF 1
ENDMDL
