MODEL 1
REMARK minimizedAffinity -1.05449677
REMARK minimizedRMSD -1
REMARK  1 active torsions:
REMARK  status: ('A' for Active; 'I' for Inactive)
REMARK    1  A    between atoms: C1_2  and  C2_3 
ROOT
ATOM      1  C2  UNL d   1      -0.016  -0.111   0.146  0.00  0.00    -0.077 A 
ATOM      2  C3  UNL d   1      -0.860   0.953   0.494  0.00  0.00     0.002 A 
ATOM      3  C4  UNL d   1      -1.260   1.132   1.820  0.00  0.00     0.002 A 
ATOM      4  C5  UNL d   1      -0.817   0.255   2.808  0.00  0.00    -0.004 A 
ATOM      5  C6  UNL d   1       0.021  -0.807   2.471  0.00  0.00     0.002 A 
ATOM      6  C7  UNL d   1       0.420  -0.989   1.146  0.00  0.00     0.002 A 
ENDROOT
BRANCH   1   7
ATOM      7  C1  UNL d   1       0.457  -0.278  -1.275  0.00  0.00     0.055 C 
ATOM      8  C   UNL d   1       0.654  -1.746  -1.624  0.00  0.00     0.019 C 
ENDBRANCH   1   7
TORSDOF 1
ENDMDL
