MODEL 1
REMARK minimizedAffinity -5.68818331
REMARK minimizedRMSD -1
REMARK  1 active torsions:
REMARK  status: ('A' for Active; 'I' for Inactive)
REMARK    1  A    between atoms: C1_2  and  C2_3 
ROOT
ATOM      1  C2  UNL d   1      -0.708   0.541   0.988  0.00  0.00    -0.077 A 
ATOM      2  C3  UNL d   1      -0.055  -0.636   1.379  0.00  0.00     0.002 A 
ATOM      3  C4  UNL d   1       0.896  -1.226   0.544  0.00  0.00     0.002 A 
ATOM      4  C5  UNL d   1       1.204  -0.645  -0.685  0.00  0.00    -0.004 A 
ATOM      5  C6  UNL d   1       0.557   0.525  -1.083  0.00  0.00     0.002 A 
ATOM      6  C7  UNL d   1      -0.394   1.116  -0.250  0.00  0.00     0.002 A 
ENDROOT
BRANCH   1   7
ATOM      7  C1  UNL d   1      -1.698   1.207   1.909  0.00  0.00     0.055 C 
ATOM      8  C   UNL d   1      -2.959   1.617   1.163  0.00  0.00     0.019 C 
ENDBRANCH   1   7
TORSDOF 1
ENDMDL
