MODEL 1
REMARK minimizedAffinity -4.58935928
REMARK minimizedRMSD -1
REMARK  1 active torsions:
REMARK  status: ('A' for Active; 'I' for Inactive)
REMARK    1  A    between atoms: C1_2  and  C2_3 
ROOT
ATOM      1  C2  UNL d   1       0.275  -0.440   0.036  0.00  0.00    -0.077 A 
ATOM      2  C3  UNL d   1       0.065  -0.860   1.357  0.00  0.00     0.002 A 
ATOM      3  C4  UNL d   1      -0.798  -0.152   2.195  0.00  0.00     0.002 A 
ATOM      4  C5  UNL d   1      -1.462   0.978   1.720  0.00  0.00    -0.004 A 
ATOM      5  C6  UNL d   1      -1.258   1.405   0.409  0.00  0.00     0.002 A 
ATOM      6  C7  UNL d   1      -0.395   0.699  -0.430  0.00  0.00     0.002 A 
ENDROOT
BRANCH   1   7
ATOM      7  C1  UNL d   1       1.168  -1.231  -0.884  0.00  0.00     0.055 C 
ATOM      8  C   UNL d   1       0.445  -2.445  -1.448  0.00  0.00     0.019 C 
ENDBRANCH   1   7
TORSDOF 1
ENDMDL
