MODEL 1
REMARK minimizedAffinity -2.55018163
REMARK minimizedRMSD -1
REMARK  1 active torsions:
REMARK  status: ('A' for Active; 'I' for Inactive)
REMARK    1  A    between atoms: C1_2  and  C2_3 
ROOT
ATOM      1  C2  UNL d   1      -0.531   0.443   0.788  0.00  0.00    -0.077 A 
ATOM      2  C3  UNL d   1      -1.069   1.244   1.805  0.00  0.00     0.002 A 
ATOM      3  C4  UNL d   1      -1.965   2.269   1.497  0.00  0.00     0.002 A 
ATOM      4  C5  UNL d   1      -2.334   2.501   0.174  0.00  0.00    -0.004 A 
ATOM      5  C6  UNL d   1      -1.803   1.711  -0.845  0.00  0.00     0.002 A 
ATOM      6  C7  UNL d   1      -0.906   0.686  -0.539  0.00  0.00     0.002 A 
ENDROOT
BRANCH   1   7
ATOM      7  C1  UNL d   1       0.397  -0.696   1.123  0.00  0.00     0.055 C 
ATOM      8  C   UNL d   1       0.300  -1.075   2.594  0.00  0.00     0.019 C 
ENDBRANCH   1   7
TORSDOF 1
ENDMDL
