MODEL 1
REMARK minimizedAffinity -5.97475195
REMARK minimizedRMSD -1
REMARK  1 active torsions:
REMARK  status: ('A' for Active; 'I' for Inactive)
REMARK    1  A    between atoms: C1_2  and  C2_3 
ROOT
ATOM      1  C2  UNL d   1      -0.383   1.016   0.547  0.00  0.00    -0.077 A 
ATOM      2  C3  UNL d   1       0.188   1.759  -0.496  0.00  0.00     0.002 A 
ATOM      3  C4  UNL d   1      -0.129   3.109  -0.658  0.00  0.00     0.002 A 
ATOM      4  C5  UNL d   1      -1.015   3.728   0.222  0.00  0.00    -0.004 A 
ATOM      5  C6  UNL d   1      -1.589   2.998   1.261  0.00  0.00     0.002 A 
ATOM      6  C7  UNL d   1      -1.275   1.648   1.423  0.00  0.00     0.002 A 
ENDROOT
BRANCH   1   7
ATOM      7  C1  UNL d   1      -0.005  -0.427   0.753  0.00  0.00     0.055 C 
ATOM      8  C   UNL d   1       0.471  -1.065  -0.544  0.00  0.00     0.019 C 
ENDBRANCH   1   7
TORSDOF 1
ENDMDL
