MODEL 1
REMARK minimizedAffinity -5.07187986
REMARK minimizedRMSD -1
REMARK  1 active torsions:
REMARK  status: ('A' for Active; 'I' for Inactive)
REMARK    1  A    between atoms: C1_2  and  C2_3 
ROOT
ATOM      1  C2  UNL d   1      -0.120   1.014   0.630  0.00  0.00    -0.077 A 
ATOM      2  C3  UNL d   1      -1.013   1.519   1.585  0.00  0.00     0.002 A 
ATOM      3  C4  UNL d   1      -1.699   2.712   1.350  0.00  0.00     0.002 A 
ATOM      4  C5  UNL d   1      -1.503   3.407   0.159  0.00  0.00    -0.004 A 
ATOM      5  C6  UNL d   1      -0.615   2.915  -0.797  0.00  0.00     0.002 A 
ATOM      6  C7  UNL d   1       0.072   1.723  -0.563  0.00  0.00     0.002 A 
ENDROOT
BRANCH   1   7
ATOM      7  C1  UNL d   1       0.584  -0.298   0.860  0.00  0.00     0.055 C 
ATOM      8  C   UNL d   1       0.634  -0.646   2.341  0.00  0.00     0.019 C 
ENDBRANCH   1   7
TORSDOF 1
ENDMDL
