MODEL 1
REMARK minimizedAffinity -5.73831034
REMARK minimizedRMSD -1
REMARK  1 active torsions:
REMARK  status: ('A' for Active; 'I' for Inactive)
REMARK    1  A    between atoms: C1_2  and  C2_3 
ROOT
ATOM      1  C2  UNL d   1      -0.569   0.626  -0.062  0.00  0.00    -0.077 A 
ATOM      2  C3  UNL d   1      -1.432   1.363   0.761  0.00  0.00     0.002 A 
ATOM      3  C4  UNL d   1      -1.446   2.758   0.700  0.00  0.00     0.002 A 
ATOM      4  C5  UNL d   1      -0.604   3.427  -0.186  0.00  0.00    -0.004 A 
ATOM      5  C6  UNL d   1       0.259   2.702  -1.007  0.00  0.00     0.002 A 
ATOM      6  C7  UNL d   1       0.276   1.308  -0.946  0.00  0.00     0.002 A 
ENDROOT
BRANCH   1   7
ATOM      7  C1  UNL d   1      -0.587  -0.880  -0.032  0.00  0.00     0.055 C 
ATOM      8  C   UNL d   1       0.564  -1.464  -0.840  0.00  0.00     0.019 C 
ENDBRANCH   1   7
TORSDOF 1
ENDMDL
