MODEL 1
REMARK minimizedAffinity -5.2645421
REMARK minimizedRMSD -1
REMARK  1 active torsions:
REMARK  status: ('A' for Active; 'I' for Inactive)
REMARK    1  A    between atoms: C1_2  and  C2_3 
ROOT
ATOM      1  C2  UNL d   1      -0.058   1.887  -0.184  0.00  0.00    -0.077 A 
ATOM      2  C3  UNL d   1      -0.814   2.461   0.847  0.00  0.00     0.002 A 
ATOM      3  C4  UNL d   1      -1.126   1.722   1.990  0.00  0.00     0.002 A 
ATOM      4  C5  UNL d   1      -0.684   0.406   2.113  0.00  0.00    -0.004 A 
ATOM      5  C6  UNL d   1       0.067  -0.174   1.091  0.00  0.00     0.002 A 
ATOM      6  C7  UNL d   1       0.379   0.563  -0.052  0.00  0.00     0.002 A 
ENDROOT
BRANCH   1   7
ATOM      7  C1  UNL d   1       0.322   2.699  -1.395  0.00  0.00     0.055 C 
ATOM      8  C   UNL d   1      -0.509   3.971  -1.492  0.00  0.00     0.019 C 
ENDBRANCH   1   7
TORSDOF 1
ENDMDL
