MODEL 1
REMARK minimizedAffinity -4.2327528
REMARK minimizedRMSD -1
REMARK  1 active torsions:
REMARK  status: ('A' for Active; 'I' for Inactive)
REMARK    1  A    between atoms: C1_2  and  C2_3 
ROOT
ATOM      1  C2  UNL d   1       0.098   2.236  -0.071  0.00  0.00    -0.077 A 
ATOM      2  C3  UNL d   1      -0.591   2.594   1.097  0.00  0.00     0.002 A 
ATOM      3  C4  UNL d   1      -0.830   1.647   2.094  0.00  0.00     0.002 A 
ATOM      4  C5  UNL d   1      -0.381   0.337   1.936  0.00  0.00    -0.004 A 
ATOM      5  C6  UNL d   1       0.303  -0.029   0.777  0.00  0.00     0.002 A 
ATOM      6  C7  UNL d   1       0.542   0.916  -0.221  0.00  0.00     0.002 A 
ENDROOT
BRANCH   1   7
ATOM      7  C1  UNL d   1       0.400   3.268  -1.125  0.00  0.00     0.055 C 
ATOM      8  C   UNL d   1       1.556   2.831  -2.013  0.00  0.00     0.019 C 
ENDBRANCH   1   7
TORSDOF 1
ENDMDL
