MODEL 1
REMARK minimizedAffinity -6.25774479
REMARK minimizedRMSD -1
REMARK  1 active torsions:
REMARK  status: ('A' for Active; 'I' for Inactive)
REMARK    1  A    between atoms: C1_2  and  C2_3 
ROOT
ATOM      1  C2  UNL d   1      -0.157   0.003   1.360  0.00  0.00    -0.077 A 
ATOM      2  C3  UNL d   1      -0.733  -0.275   0.112  0.00  0.00     0.002 A 
ATOM      3  C4  UNL d   1      -1.784   0.508  -0.370  0.00  0.00     0.002 A 
ATOM      4  C5  UNL d   1      -2.265   1.574   0.387  0.00  0.00    -0.004 A 
ATOM      5  C6  UNL d   1      -1.700   1.857   1.630  0.00  0.00     0.002 A 
ATOM      6  C7  UNL d   1      -0.650   1.075   2.114  0.00  0.00     0.002 A 
ENDROOT
BRANCH   1   7
ATOM      7  C1  UNL d   1       1.009  -0.809   1.860  0.00  0.00     0.055 C 
ATOM      8  C   UNL d   1       0.838  -1.180   3.326  0.00  0.00     0.019 C 
ENDBRANCH   1   7
TORSDOF 1
ENDMDL
