MODEL 1
REMARK minimizedAffinity -5.77927446
REMARK minimizedRMSD -1
REMARK  1 active torsions:
REMARK  status: ('A' for Active; 'I' for Inactive)
REMARK    1  A    between atoms: C1_2  and  C2_3 
ROOT
ATOM      1  C2  UNL d   1      -0.723   0.972   0.033  0.00  0.00    -0.077 A 
ATOM      2  C3  UNL d   1      -1.568   1.638   0.931  0.00  0.00     0.002 A 
ATOM      3  C4  UNL d   1      -1.596   3.033   0.974  0.00  0.00     0.002 A 
ATOM      4  C5  UNL d   1      -0.784   3.774   0.118  0.00  0.00    -0.004 A 
ATOM      5  C6  UNL d   1       0.062   3.121  -0.778  0.00  0.00     0.002 A 
ATOM      6  C7  UNL d   1       0.092   1.727  -0.821  0.00  0.00     0.002 A 
ENDROOT
BRANCH   1   7
ATOM      7  C1  UNL d   1      -0.728  -0.532  -0.049  0.00  0.00     0.055 C 
ATOM      8  C   UNL d   1       0.605  -1.063  -0.556  0.00  0.00     0.019 C 
ENDBRANCH   1   7
TORSDOF 1
ENDMDL
