MODEL 1
REMARK minimizedAffinity -5.11446428
REMARK minimizedRMSD -1
REMARK  1 active torsions:
REMARK  status: ('A' for Active; 'I' for Inactive)
REMARK    1  A    between atoms: C1_2  and  C2_3 
ROOT
ATOM      1  C2  UNL d   1       0.280   0.778   0.139  0.00  0.00    -0.077 A 
ATOM      2  C3  UNL d   1       0.246   2.110  -0.298  0.00  0.00     0.002 A 
ATOM      3  C4  UNL d   1      -0.450   3.076   0.431  0.00  0.00     0.002 A 
ATOM      4  C5  UNL d   1      -1.115   2.721   1.603  0.00  0.00    -0.004 A 
ATOM      5  C6  UNL d   1      -1.090   1.399   2.045  0.00  0.00     0.002 A 
ATOM      6  C7  UNL d   1      -0.395   0.432   1.317  0.00  0.00     0.002 A 
ENDROOT
BRANCH   1   7
ATOM      7  C1  UNL d   1       1.072  -0.255  -0.619  0.00  0.00     0.055 C 
ATOM      8  C   UNL d   1       0.172  -1.362  -1.150  0.00  0.00     0.019 C 
ENDBRANCH   1   7
TORSDOF 1
ENDMDL
