MODEL 1
REMARK minimizedAffinity -5.54037714
REMARK minimizedRMSD -1
REMARK  1 active torsions:
REMARK  status: ('A' for Active; 'I' for Inactive)
REMARK    1  A    between atoms: C1_2  and  C2_3 
ROOT
ATOM      1  C2  UNL d   1      -0.605   0.999   0.797  0.00  0.00    -0.077 A 
ATOM      2  C3  UNL d   1      -1.770   1.022   1.576  0.00  0.00     0.002 A 
ATOM      3  C4  UNL d   1      -2.633   2.119   1.523  0.00  0.00     0.002 A 
ATOM      4  C5  UNL d   1      -2.341   3.197   0.690  0.00  0.00    -0.004 A 
ATOM      5  C6  UNL d   1      -1.184   3.184  -0.087  0.00  0.00     0.002 A 
ATOM      6  C7  UNL d   1      -0.320   2.090  -0.035  0.00  0.00     0.002 A 
ENDROOT
BRANCH   1   7
ATOM      7  C1  UNL d   1       0.302  -0.204   0.815  0.00  0.00     0.055 C 
ATOM      8  C   UNL d   1       0.615  -0.683  -0.595  0.00  0.00     0.019 C 
ENDBRANCH   1   7
TORSDOF 1
ENDMDL
