MODEL 1
REMARK minimizedAffinity -4.90784311
REMARK minimizedRMSD -1
REMARK  1 active torsions:
REMARK  status: ('A' for Active; 'I' for Inactive)
REMARK    1  A    between atoms: C1_2  and  C2_3 
ROOT
ATOM      1  C2  UNL d   1      -0.755   2.005   0.681  0.00  0.00    -0.077 A 
ATOM      2  C3  UNL d   1      -1.363   1.731   1.915  0.00  0.00     0.002 A 
ATOM      3  C4  UNL d   1      -1.319   0.444   2.453  0.00  0.00     0.002 A 
ATOM      4  C5  UNL d   1      -0.667  -0.578   1.768  0.00  0.00    -0.004 A 
ATOM      5  C6  UNL d   1      -0.061  -0.317   0.539  0.00  0.00     0.002 A 
ATOM      6  C7  UNL d   1      -0.104   0.969  -0.001  0.00  0.00     0.002 A 
ENDROOT
BRANCH   1   7
ATOM      7  C1  UNL d   1      -0.758   3.404   0.122  0.00  0.00     0.055 C 
ATOM      8  C   UNL d   1       0.023   3.480  -1.181  0.00  0.00     0.019 C 
ENDBRANCH   1   7
TORSDOF 1
ENDMDL
