MODEL 1
REMARK minimizedAffinity -3.57194328
REMARK minimizedRMSD -1
REMARK  0 active torsions:
REMARK  status: ('A' for Active; 'I' for Inactive)
ROOT
ATOM      1  C   UNL d   1      -0.547   0.250  -1.004  0.00  0.00     0.172 C 
ATOM      2  N   UNL d   1      -1.535  -0.605  -0.388  0.00  0.00    -0.070 N 
ATOM      3  C1  UNL d   1      -2.889  -0.517  -0.569  0.00  0.00    -0.004 A 
ATOM      4  C2  UNL d   1      -3.481  -1.506   0.188  0.00  0.00    -0.047 A 
ATOM      5  C3  UNL d   1      -2.446  -2.211   0.847  0.00  0.00    -0.047 A 
ATOM      6  C4  UNL d   1      -1.251  -1.632   0.472  0.00  0.00    -0.004 A 
ENDROOT
TORSDOF 0
ENDMDL
