MODEL 1
REMARK minimizedAffinity -4.09437323
REMARK minimizedRMSD -1
REMARK  0 active torsions:
REMARK  status: ('A' for Active; 'I' for Inactive)
ROOT
ATOM      1  C   UNL d   1       0.393  -0.186   0.176  0.00  0.00     0.172 C 
ATOM      2  N   UNL d   1      -0.938  -0.745   0.198  0.00  0.00    -0.070 N 
ATOM      3  C1  UNL d   1      -1.990  -0.333  -0.576  0.00  0.00    -0.004 A 
ATOM      4  C2  UNL d   1      -3.080  -1.115  -0.259  0.00  0.00    -0.047 A 
ATOM      5  C3  UNL d   1      -2.669  -2.028   0.741  0.00  0.00    -0.047 A 
ATOM      6  C4  UNL d   1      -1.339  -1.777   1.005  0.00  0.00    -0.004 A 
ENDROOT
TORSDOF 0
ENDMDL
