MODEL 1
REMARK minimizedAffinity -2.9308722
REMARK minimizedRMSD -1
REMARK  0 active torsions:
REMARK  status: ('A' for Active; 'I' for Inactive)
ROOT
ATOM      1  C   UNL d   1      -3.319  -0.714  -0.017  0.00  0.00     0.172 C 
ATOM      2  N   UNL d   1      -1.905  -0.517   0.202  0.00  0.00    -0.070 N 
ATOM      3  C1  UNL d   1      -1.042   0.100  -0.664  0.00  0.00    -0.004 A 
ATOM      4  C2  UNL d   1       0.211   0.088  -0.091  0.00  0.00    -0.047 A 
ATOM      5  C3  UNL d   1       0.097  -0.560   1.162  0.00  0.00    -0.047 A 
ATOM      6  C4  UNL d   1      -1.224  -0.924   1.318  0.00  0.00    -0.004 A 
ENDROOT
TORSDOF 0
ENDMDL
