MODEL 1
REMARK minimizedAffinity -4.01303339
REMARK minimizedRMSD -1
REMARK  0 active torsions:
REMARK  status: ('A' for Active; 'I' for Inactive)
ROOT
ATOM      1  C   UNL d   1       0.731   0.137   0.223  0.00  0.00     0.172 C 
ATOM      2  N   UNL d   1      -0.603  -0.204  -0.211  0.00  0.00    -0.070 N 
ATOM      3  C1  UNL d   1      -1.139   0.077  -1.440  0.00  0.00    -0.004 A 
ATOM      4  C2  UNL d   1      -2.428  -0.411  -1.460  0.00  0.00    -0.047 A 
ATOM      5  C3  UNL d   1      -2.675  -1.005  -0.200  0.00  0.00    -0.047 A 
ATOM      6  C4  UNL d   1      -1.529  -0.863   0.554  0.00  0.00    -0.004 A 
ENDROOT
TORSDOF 0
ENDMDL
