MODEL 1
REMARK minimizedAffinity -4.12520552
REMARK minimizedRMSD -1
REMARK  0 active torsions:
REMARK  status: ('A' for Active; 'I' for Inactive)
ROOT
ATOM      1  C   UNL d   1      -0.517   0.601  -1.421  0.00  0.00     0.172 C 
ATOM      2  N   UNL d   1      -1.419  -0.288  -0.729  0.00  0.00    -0.070 N 
ATOM      3  C1  UNL d   1      -2.725  -0.524  -1.069  0.00  0.00    -0.004 A 
ATOM      4  C2  UNL d   1      -3.239  -1.430  -0.166  0.00  0.00    -0.047 A 
ATOM      5  C3  UNL d   1      -2.207  -1.749   0.748  0.00  0.00    -0.047 A 
ATOM      6  C4  UNL d   1      -1.091  -1.028   0.376  0.00  0.00    -0.004 A 
ENDROOT
TORSDOF 0
ENDMDL
