MODEL 1
REMARK minimizedAffinity -4.03248644
REMARK minimizedRMSD -1
REMARK  0 active torsions:
REMARK  status: ('A' for Active; 'I' for Inactive)
ROOT
ATOM      1  C   UNL d   1       0.793   0.203  -0.048  0.00  0.00     0.172 C 
ATOM      2  N   UNL d   1      -0.569  -0.268  -0.147  0.00  0.00    -0.070 N 
ATOM      3  C1  UNL d   1      -1.206  -1.063   0.768  0.00  0.00    -0.004 A 
ATOM      4  C2  UNL d   1      -2.487  -1.288   0.311  0.00  0.00    -0.047 A 
ATOM      5  C3  UNL d   1      -2.624  -0.605  -0.921  0.00  0.00    -0.047 A 
ATOM      6  C4  UNL d   1      -1.421   0.018  -1.180  0.00  0.00    -0.004 A 
ENDROOT
TORSDOF 0
ENDMDL
