MODEL 1
REMARK minimizedAffinity -3.04379058
REMARK minimizedRMSD -1
REMARK  0 active torsions:
REMARK  status: ('A' for Active; 'I' for Inactive)
ROOT
ATOM      1  C   UNL d   1       0.738   0.404  -0.296  0.00  0.00     0.172 C 
ATOM      2  N   UNL d   1       1.412   1.505   0.351  0.00  0.00    -0.070 N 
ATOM      3  C1  UNL d   1       2.753   1.573   0.620  0.00  0.00    -0.004 A 
ATOM      4  C2  UNL d   1       2.998   2.779   1.241  0.00  0.00    -0.047 A 
ATOM      5  C3  UNL d   1       1.761   3.458   1.351  0.00  0.00    -0.047 A 
ATOM      6  C4  UNL d   1       0.796   2.647   0.792  0.00  0.00    -0.004 A 
ENDROOT
TORSDOF 0
ENDMDL
