MODEL 1
REMARK minimizedAffinity -2.46498752
REMARK minimizedRMSD -1
REMARK  0 active torsions:
REMARK  status: ('A' for Active; 'I' for Inactive)
ROOT
ATOM      1  C   UNL d   1       0.765  -0.001   0.143  0.00  0.00     0.172 C 
ATOM      2  N   UNL d   1      -0.631  -0.173  -0.185  0.00  0.00    -0.070 N 
ATOM      3  C1  UNL d   1      -1.229   0.208  -1.356  0.00  0.00    -0.004 A 
ATOM      4  C2  UNL d   1      -2.563  -0.130  -1.279  0.00  0.00    -0.047 A 
ATOM      5  C3  UNL d   1      -2.774  -0.734  -0.017  0.00  0.00    -0.047 A 
ATOM      6  C4  UNL d   1      -1.562  -0.748   0.640  0.00  0.00    -0.004 A 
ENDROOT
TORSDOF 0
ENDMDL
