MODEL 1
REMARK minimizedAffinity -3.93765759
REMARK minimizedRMSD -1
REMARK  0 active torsions:
REMARK  status: ('A' for Active; 'I' for Inactive)
ROOT
ATOM      1  C   UNL d   1       0.545  -0.093  -0.109  0.00  0.00     0.172 C 
ATOM      2  N   UNL d   1      -0.753  -0.697   0.082  0.00  0.00    -0.070 N 
ATOM      3  C1  UNL d   1      -1.022  -1.775   0.881  0.00  0.00    -0.004 A 
ATOM      4  C2  UNL d   1      -2.372  -2.041   0.792  0.00  0.00    -0.047 A 
ATOM      5  C3  UNL d   1      -2.933  -1.090  -0.093  0.00  0.00    -0.047 A 
ATOM      6  C4  UNL d   1      -1.909  -0.270  -0.518  0.00  0.00    -0.004 A 
ENDROOT
TORSDOF 0
ENDMDL
