MODEL 1
REMARK minimizedAffinity -3.34832835
REMARK minimizedRMSD -1
REMARK  0 active torsions:
REMARK  status: ('A' for Active; 'I' for Inactive)
ROOT
ATOM      1  C   UNL d   1      -1.027  -2.749   2.150  0.00  0.00     0.172 C 
ATOM      2  N   UNL d   1      -1.622  -1.974   1.087  0.00  0.00    -0.070 N 
ATOM      3  C1  UNL d   1      -1.078  -0.855   0.514  0.00  0.00    -0.004 A 
ATOM      4  C2  UNL d   1      -1.950  -0.413  -0.458  0.00  0.00    -0.047 A 
ATOM      5  C3  UNL d   1      -3.056  -1.296  -0.468  0.00  0.00    -0.047 A 
ATOM      6  C4  UNL d   1      -2.827  -2.252   0.498  0.00  0.00    -0.004 A 
ENDROOT
TORSDOF 0
ENDMDL
