MODEL 1
REMARK minimizedAffinity -2.73375821
REMARK minimizedRMSD -1
REMARK  0 active torsions:
REMARK  status: ('A' for Active; 'I' for Inactive)
ROOT
ATOM      1  C   UNL d   1       0.017   0.251   0.220  0.00  0.00     0.172 C 
ATOM      2  N   UNL d   1      -1.106  -0.655   0.177  0.00  0.00    -0.070 N 
ATOM      3  C1  UNL d   1      -2.050  -0.710  -0.813  0.00  0.00    -0.004 A 
ATOM      4  C2  UNL d   1      -2.948  -1.703  -0.485  0.00  0.00    -0.047 A 
ATOM      5  C3  UNL d   1      -2.530  -2.263   0.745  0.00  0.00    -0.047 A 
ATOM      6  C4  UNL d   1      -1.387  -1.596   1.133  0.00  0.00    -0.004 A 
ENDROOT
TORSDOF 0
ENDMDL
