MODEL 1
REMARK minimizedAffinity -3.71579146
REMARK minimizedRMSD -1
REMARK  0 active torsions:
REMARK  status: ('A' for Active; 'I' for Inactive)
ROOT
ATOM      1  C   UNL d   1      -0.612   0.300  -0.446  0.00  0.00     0.172 C 
ATOM      2  N   UNL d   1      -1.585  -0.671  -0.003  0.00  0.00    -0.070 N 
ATOM      3  C1  UNL d   1      -2.858  -0.805  -0.491  0.00  0.00    -0.004 A 
ATOM      4  C2  UNL d   1      -3.463  -1.840   0.188  0.00  0.00    -0.047 A 
ATOM      5  C3  UNL d   1      -2.522  -2.345   1.117  0.00  0.00    -0.047 A 
ATOM      6  C4  UNL d   1      -1.368  -1.603   0.976  0.00  0.00    -0.004 A 
ENDROOT
TORSDOF 0
ENDMDL
