MODEL 1
REMARK minimizedAffinity -3.59108424
REMARK minimizedRMSD -1
REMARK  0 active torsions:
REMARK  status: ('A' for Active; 'I' for Inactive)
ROOT
ATOM      1  C   UNL d   1       0.260   0.118   0.051  0.00  0.00     0.172 C 
ATOM      2  N   UNL d   1      -0.994  -0.578   0.219  0.00  0.00    -0.070 N 
ATOM      3  C1  UNL d   1      -1.324  -1.383   1.277  0.00  0.00    -0.004 A 
ATOM      4  C2  UNL d   1      -2.601  -1.856   1.064  0.00  0.00    -0.047 A 
ATOM      5  C3  UNL d   1      -3.054  -1.318  -0.164  0.00  0.00    -0.047 A 
ATOM      6  C4  UNL d   1      -2.039  -0.530  -0.665  0.00  0.00    -0.004 A 
ENDROOT
TORSDOF 0
ENDMDL
