MODEL 1
REMARK minimizedAffinity -3.14125133
REMARK minimizedRMSD -1
REMARK  0 active torsions:
REMARK  status: ('A' for Active; 'I' for Inactive)
ROOT
ATOM      1  C   UNL d   1      -1.479  -2.927   1.661  0.00  0.00     0.172 C 
ATOM      2  N   UNL d   1      -2.070  -1.869   0.875  0.00  0.00    -0.070 N 
ATOM      3  C1  UNL d   1      -1.416  -0.760   0.409  0.00  0.00    -0.004 A 
ATOM      4  C2  UNL d   1      -2.325   0.001  -0.294  0.00  0.00    -0.047 A 
ATOM      5  C3  UNL d   1      -3.569  -0.673  -0.247  0.00  0.00    -0.047 A 
ATOM      6  C4  UNL d   1      -3.382  -1.828   0.482  0.00  0.00    -0.004 A 
ENDROOT
TORSDOF 0
ENDMDL
