MODEL 1
REMARK minimizedAffinity -2.62454081
REMARK minimizedRMSD -1
REMARK  0 active torsions:
REMARK  status: ('A' for Active; 'I' for Inactive)
ROOT
ATOM      1  C   UNL d   1      -1.245  -2.541   1.664  0.00  0.00     0.172 C 
ATOM      2  N   UNL d   1      -1.488  -1.659   0.547  0.00  0.00    -0.070 N 
ATOM      3  C1  UNL d   1      -0.662  -0.648   0.134  0.00  0.00    -0.004 A 
ATOM      4  C2  UNL d   1      -1.247  -0.045  -0.959  0.00  0.00    -0.047 A 
ATOM      5  C3  UNL d   1      -2.467  -0.715  -1.210  0.00  0.00    -0.047 A 
ATOM      6  C4  UNL d   1      -2.592  -1.710  -0.263  0.00  0.00    -0.004 A 
ENDROOT
TORSDOF 0
ENDMDL
