MODEL 1
REMARK minimizedAffinity -2.64163804
REMARK minimizedRMSD -1
REMARK  0 active torsions:
REMARK  status: ('A' for Active; 'I' for Inactive)
ROOT
ATOM      1  C   UNL d   1      -3.479  -1.389  -0.625  0.00  0.00     0.172 C 
ATOM      2  N   UNL d   1      -2.267  -1.452   0.158  0.00  0.00    -0.070 N 
ATOM      3  C1  UNL d   1      -2.005  -2.358   1.151  0.00  0.00    -0.004 A 
ATOM      4  C2  UNL d   1      -0.749  -2.086   1.650  0.00  0.00    -0.047 A 
ATOM      5  C3  UNL d   1      -0.240  -0.978   0.933  0.00  0.00    -0.047 A 
ATOM      6  C4  UNL d   1      -1.200  -0.605   0.016  0.00  0.00    -0.004 A 
ENDROOT
TORSDOF 0
ENDMDL
