MODEL 1
REMARK minimizedAffinity -1.99741602
REMARK minimizedRMSD -1
REMARK  0 active torsions:
REMARK  status: ('A' for Active; 'I' for Inactive)
ROOT
ATOM      1  C   UNL d   1       1.573   0.627   0.600  0.00  0.00     0.078 C 
ATOM      2  C1  UNL d   1       2.112   1.970   0.204  0.00  0.00    -0.077 A 
ATOM      3  C2  UNL d   1       3.280   2.478   0.786  0.00  0.00    -0.001 A 
ATOM      4  C3  UNL d   1       3.765   3.733   0.415  0.00  0.00     0.003 A 
ATOM      5  C4  UNL d   1       3.087   4.492  -0.537  0.00  0.00    -0.005 A 
ATOM      6  C5  UNL d   1       1.922   3.995  -1.119  0.00  0.00     0.003 A 
ATOM      7  C6  UNL d   1       1.436   2.740  -0.750  0.00  0.00    -0.001 A 
ENDROOT
TORSDOF 0
ENDMDL
