MODEL 1
REMARK minimizedAffinity -3.84890866
REMARK minimizedRMSD -1
REMARK  0 active torsions:
REMARK  status: ('A' for Active; 'I' for Inactive)
ROOT
ATOM      1  C   UNL d   1      -1.552   0.058  -0.559  0.00  0.00     0.078 C 
ATOM      2  C1  UNL d   1      -0.634  -0.006   0.625  0.00  0.00    -0.077 A 
ATOM      3  C2  UNL d   1      -1.045  -0.596   1.826  0.00  0.00    -0.001 A 
ATOM      4  C3  UNL d   1      -0.183  -0.640   2.923  0.00  0.00     0.003 A 
ATOM      5  C4  UNL d   1       1.095  -0.094   2.830  0.00  0.00    -0.005 A 
ATOM      6  C5  UNL d   1       1.513   0.498   1.640  0.00  0.00     0.003 A 
ATOM      7  C6  UNL d   1       0.652   0.542   0.542  0.00  0.00    -0.001 A 
ENDROOT
TORSDOF 0
ENDMDL
