MODEL 1
REMARK minimizedAffinity -2.7558682
REMARK minimizedRMSD -1
REMARK  0 active torsions:
REMARK  status: ('A' for Active; 'I' for Inactive)
ROOT
ATOM      1  C   UNL d   1      -2.248   0.315   0.711  0.00  0.00     0.078 C 
ATOM      2  C1  UNL d   1      -0.774   0.232   0.972  0.00  0.00    -0.077 A 
ATOM      3  C2  UNL d   1      -0.284  -0.070   2.248  0.00  0.00    -0.001 A 
ATOM      4  C3  UNL d   1       1.091  -0.134   2.479  0.00  0.00     0.003 A 
ATOM      5  C4  UNL d   1       1.987   0.104   1.439  0.00  0.00    -0.005 A 
ATOM      6  C5  UNL d   1       1.509   0.408   0.166  0.00  0.00     0.003 A 
ATOM      7  C6  UNL d   1       0.134   0.472  -0.067  0.00  0.00    -0.001 A 
ENDROOT
TORSDOF 0
ENDMDL
