MODEL 1
REMARK minimizedAffinity -5.31511068
REMARK minimizedRMSD -1
REMARK  0 active torsions:
REMARK  status: ('A' for Active; 'I' for Inactive)
ROOT
ATOM      1  C   UNL d   1       2.593   0.123   1.646  0.00  0.00     0.078 C 
ATOM      2  C1  UNL d   1       1.133  -0.211   1.726  0.00  0.00    -0.077 A 
ATOM      3  C2  UNL d   1       0.632  -1.013   2.758  0.00  0.00    -0.001 A 
ATOM      4  C3  UNL d   1      -0.727  -1.324   2.815  0.00  0.00     0.003 A 
ATOM      5  C4  UNL d   1      -1.597  -0.837   1.842  0.00  0.00    -0.005 A 
ATOM      6  C5  UNL d   1      -1.108  -0.039   0.809  0.00  0.00     0.003 A 
ATOM      7  C6  UNL d   1       0.252   0.272   0.751  0.00  0.00    -0.001 A 
ENDROOT
TORSDOF 0
ENDMDL
