MODEL 1
REMARK minimizedAffinity -2.33057714
REMARK minimizedRMSD -1
REMARK  0 active torsions:
REMARK  status: ('A' for Active; 'I' for Inactive)
ROOT
ATOM      1  C   UNL d   1      -1.707  -0.821  -5.550  0.00  0.00     0.078 C 
ATOM      2  C1  UNL d   1      -0.499  -1.248  -4.771  0.00  0.00    -0.077 A 
ATOM      3  C2  UNL d   1       0.672  -0.480  -4.776  0.00  0.00    -0.001 A 
ATOM      4  C3  UNL d   1       1.792  -0.895  -4.054  0.00  0.00     0.003 A 
ATOM      5  C4  UNL d   1       1.753  -2.080  -3.323  0.00  0.00    -0.005 A 
ATOM      6  C5  UNL d   1       0.594  -2.853  -3.315  0.00  0.00     0.003 A 
ATOM      7  C6  UNL d   1      -0.527  -2.440  -4.036  0.00  0.00    -0.001 A 
ENDROOT
TORSDOF 0
ENDMDL
