MODEL 1
REMARK minimizedAffinity -0.303357035
REMARK minimizedRMSD -1
REMARK  0 active torsions:
REMARK  status: ('A' for Active; 'I' for Inactive)
ROOT
ATOM      1  C   UNL d   1       1.881   2.123  -1.404  0.00  0.00     0.078 C 
ATOM      2  C1  UNL d   1       2.273   0.743  -1.844  0.00  0.00    -0.077 A 
ATOM      3  C2  UNL d   1       1.456  -0.360  -1.568  0.00  0.00    -0.001 A 
ATOM      4  C3  UNL d   1       1.838  -1.640  -1.975  0.00  0.00     0.003 A 
ATOM      5  C4  UNL d   1       3.038  -1.828  -2.658  0.00  0.00    -0.005 A 
ATOM      6  C5  UNL d   1       3.858  -0.736  -2.935  0.00  0.00     0.003 A 
ATOM      7  C6  UNL d   1       3.478   0.544  -2.529  0.00  0.00    -0.001 A 
ENDROOT
TORSDOF 0
ENDMDL
