MODEL 1
REMARK minimizedAffinity 4.83593702
REMARK minimizedRMSD -1
REMARK  0 active torsions:
REMARK  status: ('A' for Active; 'I' for Inactive)
ROOT
ATOM      1  C   UNL d   1      -2.422  -6.000  -0.129  0.00  0.00     0.078 C 
ATOM      2  C1  UNL d   1      -3.667  -5.278   0.290  0.00  0.00    -0.077 A 
ATOM      3  C2  UNL d   1      -3.753  -3.882   0.211  0.00  0.00    -0.001 A 
ATOM      4  C3  UNL d   1      -4.915  -3.223   0.615  0.00  0.00     0.003 A 
ATOM      5  C4  UNL d   1      -6.000  -3.950   1.101  0.00  0.00    -0.005 A 
ATOM      6  C5  UNL d   1      -5.923  -5.339   1.185  0.00  0.00     0.003 A 
ATOM      7  C6  UNL d   1      -4.761  -6.000   0.783  0.00  0.00    -0.001 A 
ENDROOT
TORSDOF 0
ENDMDL
