MODEL 1
REMARK minimizedAffinity 9.07365322
REMARK minimizedRMSD -1
REMARK  0 active torsions:
REMARK  status: ('A' for Active; 'I' for Inactive)
ROOT
ATOM      1  C   UNL d   1      -0.392  -2.830  -4.128  0.00  0.00     0.078 C 
ATOM      2  C1  UNL d   1      -0.379  -1.756  -3.080  0.00  0.00    -0.077 A 
ATOM      3  C2  UNL d   1      -1.535  -1.023  -2.784  0.00  0.00    -0.001 A 
ATOM      4  C3  UNL d   1      -1.505  -0.021  -1.814  0.00  0.00     0.003 A 
ATOM      5  C4  UNL d   1      -0.322   0.259  -1.132  0.00  0.00    -0.005 A 
ATOM      6  C5  UNL d   1       0.833  -0.464  -1.422  0.00  0.00     0.003 A 
ATOM      7  C6  UNL d   1       0.806  -1.467  -2.392  0.00  0.00    -0.001 A 
ENDROOT
TORSDOF 0
ENDMDL
