MODEL 1
REMARK minimizedAffinity -1.51561737
REMARK minimizedRMSD -1
REMARK  0 active torsions:
REMARK  status: ('A' for Active; 'I' for Inactive)
ROOT
ATOM      1  C   UNL d   1      -5.941  -2.392   1.858  0.00  0.00     0.078 C 
ATOM      2  C1  UNL d   1      -5.168  -3.647   1.583  0.00  0.00    -0.077 A 
ATOM      3  C2  UNL d   1      -3.781  -3.696   1.770  0.00  0.00    -0.001 A 
ATOM      4  C3  UNL d   1      -3.073  -4.868   1.501  0.00  0.00     0.003 A 
ATOM      5  C4  UNL d   1      -3.742  -6.000   1.041  0.00  0.00    -0.005 A 
ATOM      6  C5  UNL d   1      -5.122  -5.960   0.849  0.00  0.00     0.003 A 
ATOM      7  C6  UNL d   1      -5.832  -4.789   1.118  0.00  0.00    -0.001 A 
ENDROOT
TORSDOF 0
ENDMDL
