MODEL 1
REMARK minimizedAffinity -0.393768132
REMARK minimizedRMSD -1
REMARK  0 active torsions:
REMARK  status: ('A' for Active; 'I' for Inactive)
ROOT
ATOM      1  C   UNL d   1       3.816  -1.539  -3.271  0.00  0.00     0.078 C 
ATOM      2  C1  UNL d   1       2.501  -2.115  -2.838  0.00  0.00    -0.077 A 
ATOM      3  C2  UNL d   1       1.958  -3.235  -3.480  0.00  0.00    -0.001 A 
ATOM      4  C3  UNL d   1       0.728  -3.755  -3.072  0.00  0.00     0.003 A 
ATOM      5  C4  UNL d   1       0.031  -3.161  -2.022  0.00  0.00    -0.005 A 
ATOM      6  C5  UNL d   1       0.563  -2.045  -1.378  0.00  0.00     0.003 A 
ATOM      7  C6  UNL d   1       1.792  -1.524  -1.785  0.00  0.00    -0.001 A 
ENDROOT
TORSDOF 0
ENDMDL
