MODEL 1
REMARK minimizedAffinity -2.77628446
REMARK minimizedRMSD -1
REMARK  0 active torsions:
REMARK  status: ('A' for Active; 'I' for Inactive)
ROOT
ATOM      1  C   UNL d   1      -2.022   1.538   3.357  0.00  0.00     0.078 C 
ATOM      2  C1  UNL d   1      -3.401   1.921   3.804  0.00  0.00    -0.077 A 
ATOM      3  C2  UNL d   1      -3.767   1.852   5.154  0.00  0.00    -0.001 A 
ATOM      4  C3  UNL d   1      -5.058   2.202   5.554  0.00  0.00     0.003 A 
ATOM      5  C4  UNL d   1      -5.993   2.622   4.611  0.00  0.00    -0.005 A 
ATOM      6  C5  UNL d   1      -5.639   2.692   3.265  0.00  0.00     0.003 A 
ATOM      7  C6  UNL d   1      -4.349   2.342   2.863  0.00  0.00    -0.001 A 
ENDROOT
TORSDOF 0
ENDMDL
