MODEL 1
REMARK minimizedAffinity 2.64455795
REMARK minimizedRMSD -1
REMARK  0 active torsions:
REMARK  status: ('A' for Active; 'I' for Inactive)
ROOT
ATOM      1  C   UNL d   1       0.185   0.140   1.382  0.00  0.00     0.078 C 
ATOM      2  C1  UNL d   1       0.172   1.126   2.512  0.00  0.00    -0.077 A 
ATOM      3  C2  UNL d   1       1.367   1.613   3.058  0.00  0.00    -0.001 A 
ATOM      4  C3  UNL d   1       1.340   2.523   4.116  0.00  0.00     0.003 A 
ATOM      5  C4  UNL d   1       0.122   2.953   4.638  0.00  0.00    -0.005 A 
ATOM      6  C5  UNL d   1      -1.072   2.473   4.102  0.00  0.00     0.003 A 
ATOM      7  C6  UNL d   1      -1.047   1.563   3.045  0.00  0.00    -0.001 A 
ENDROOT
TORSDOF 0
ENDMDL
