MODEL 1
REMARK minimizedAffinity -0.116016075
REMARK minimizedRMSD -1
REMARK  0 active torsions:
REMARK  status: ('A' for Active; 'I' for Inactive)
ROOT
ATOM      1  C   UNL d   1      -0.582  -4.493   2.609  0.00  0.00     0.078 C 
ATOM      2  C1  UNL d   1       0.803  -4.893   3.021  0.00  0.00    -0.077 A 
ATOM      3  C2  UNL d   1       1.629  -5.625   2.159  0.00  0.00    -0.001 A 
ATOM      4  C3  UNL d   1       2.912  -6.000   2.559  0.00  0.00     0.003 A 
ATOM      5  C4  UNL d   1       3.381  -5.648   3.823  0.00  0.00    -0.005 A 
ATOM      6  C5  UNL d   1       2.566  -4.921   4.689  0.00  0.00     0.003 A 
ATOM      7  C6  UNL d   1       1.283  -4.546   4.290  0.00  0.00    -0.001 A 
ENDROOT
TORSDOF 0
ENDMDL
