MODEL 1
REMARK minimizedAffinity 4.80785227
REMARK minimizedRMSD -1
REMARK  0 active torsions:
REMARK  status: ('A' for Active; 'I' for Inactive)
ROOT
ATOM      1  C   UNL d   1      -3.094   1.314   5.473  0.00  0.00     0.078 C 
ATOM      2  C1  UNL d   1      -1.738   1.725   4.982  0.00  0.00    -0.077 A 
ATOM      3  C2  UNL d   1      -1.197   1.174   3.814  0.00  0.00    -0.001 A 
ATOM      4  C3  UNL d   1       0.070   1.559   3.374  0.00  0.00     0.003 A 
ATOM      5  C4  UNL d   1       0.808   2.495   4.097  0.00  0.00    -0.005 A 
ATOM      6  C5  UNL d   1       0.278   3.046   5.262  0.00  0.00     0.003 A 
ATOM      7  C6  UNL d   1      -0.989   2.663   5.703  0.00  0.00    -0.001 A 
ENDROOT
TORSDOF 0
ENDMDL
