MODEL 1
REMARK minimizedAffinity -0.124176785
REMARK minimizedRMSD -1
REMARK  0 active torsions:
REMARK  status: ('A' for Active; 'I' for Inactive)
ROOT
ATOM      1  C   UNL d   1      -1.432  -5.922   0.370  0.00  0.00     0.078 C 
ATOM      2  C1  UNL d   1      -2.787  -5.280   0.381  0.00  0.00    -0.077 A 
ATOM      3  C2  UNL d   1      -3.929  -6.000   0.006  0.00  0.00    -0.001 A 
ATOM      4  C3  UNL d   1      -5.183  -5.387   0.012  0.00  0.00     0.003 A 
ATOM      5  C4  UNL d   1      -5.308  -4.052   0.390  0.00  0.00    -0.005 A 
ATOM      6  C5  UNL d   1      -4.177  -3.327   0.762  0.00  0.00     0.003 A 
ATOM      7  C6  UNL d   1      -2.922  -3.938   0.757  0.00  0.00    -0.001 A 
ENDROOT
TORSDOF 0
ENDMDL
