MODEL 1
REMARK minimizedAffinity -3.29201388
REMARK minimizedRMSD -1
REMARK  0 active torsions:
REMARK  status: ('A' for Active; 'I' for Inactive)
ROOT
ATOM      1  C   UNL d   1      -0.761  -5.193   2.113  0.00  0.00     0.078 C 
ATOM      2  C1  UNL d   1      -2.105  -4.939   1.499  0.00  0.00    -0.077 A 
ATOM      3  C2  UNL d   1      -2.492  -3.647   1.121  0.00  0.00    -0.001 A 
ATOM      4  C3  UNL d   1      -3.750  -3.423   0.560  0.00  0.00     0.003 A 
ATOM      5  C4  UNL d   1      -4.632  -4.486   0.373  0.00  0.00    -0.005 A 
ATOM      6  C5  UNL d   1      -4.257  -5.774   0.748  0.00  0.00     0.003 A 
ATOM      7  C6  UNL d   1      -2.999  -6.000   1.310  0.00  0.00    -0.001 A 
ENDROOT
TORSDOF 0
ENDMDL
