MODEL 1
REMARK minimizedAffinity 8.52681541
REMARK minimizedRMSD -1
REMARK  1 active torsions:
REMARK  status: ('A' for Active; 'I' for Inactive)
REMARK    1  A    between atoms: C1_2  and  C2_3 
ROOT
ATOM      1  C2  UNL d   1       0.281   1.431   3.266  0.00  0.00    -0.076 A 
ATOM      2  C3  UNL d   1       1.591   1.619   2.790  0.00  0.00     0.004 A 
ATOM      3  C4  UNL d   1       2.167   0.714   1.900  0.00  0.00    -0.003 A 
ATOM      4  C5  UNL d   1       1.443  -0.393   1.471  0.00  0.00     0.000 A 
ATOM      5  C6  UNL d   1       0.137  -0.585   1.919  0.00  0.00     0.000 A 
ATOM      6  C7  UNL d   1      -0.465   0.326   2.804  0.00  0.00    -0.073 A 
ATOM      7  C8  UNL d   1      -1.874   0.066   3.261  0.00  0.00     0.078 C 
ENDROOT
BRANCH   1   8
ATOM      8  C1  UNL d   1      -0.281   2.431   4.252  0.00  0.00     0.053 C 
ATOM      9  C   UNL d   1       0.557   2.537   5.516  0.00  0.00     0.018 C 
ENDBRANCH   1   8
TORSDOF 1
ENDMDL
