MODEL 1
REMARK minimizedAffinity 8.22807693
REMARK minimizedRMSD -1
REMARK  1 active torsions:
REMARK  status: ('A' for Active; 'I' for Inactive)
REMARK    1  A    between atoms: C1_2  and  C2_3 
ROOT
ATOM      1  C2  UNL d   1      -5.758   3.329  -0.679  0.00  0.00    -0.076 A 
ATOM      2  C3  UNL d   1      -5.657   4.408  -1.575  0.00  0.00     0.004 A 
ATOM      3  C4  UNL d   1      -5.719   5.725  -1.122  0.00  0.00    -0.003 A 
ATOM      4  C5  UNL d   1      -5.883   5.985   0.234  0.00  0.00     0.000 A 
ATOM      5  C6  UNL d   1      -5.968   4.927   1.139  0.00  0.00     0.000 A 
ATOM      6  C7  UNL d   1      -5.890   3.594   0.701  0.00  0.00    -0.073 A 
ATOM      7  C8  UNL d   1      -5.993   2.492   1.720  0.00  0.00     0.078 C 
ENDROOT
BRANCH   1   8
ATOM      8  C1  UNL d   1      -5.711   1.923  -1.231  0.00  0.00     0.053 C 
ATOM      9  C   UNL d   1      -4.528   1.128  -0.701  0.00  0.00     0.018 C 
ENDBRANCH   1   8
TORSDOF 1
ENDMDL
