MODEL 1
REMARK minimizedAffinity -4.89127445
REMARK minimizedRMSD -1
REMARK  1 active torsions:
REMARK  status: ('A' for Active; 'I' for Inactive)
REMARK    1  A    between atoms: C1_2  and  C2_3 
ROOT
ATOM      1  C2  UNL d   1       0.074  -0.123  -0.139  0.00  0.00    -0.081 A 
ATOM      2  C3  UNL d   1      -0.360   0.828  -1.072  0.00  0.00     0.006 A 
ATOM      3  C4  UNL d   1      -0.795   2.086  -0.650  0.00  0.00     0.002 A 
ATOM      4  C5  UNL d   1      -0.797   2.418   0.709  0.00  0.00    -0.080 A 
ATOM      5  C6  UNL d   1      -1.233   3.776   1.173  0.00  0.00     0.076 C 
ATOM      6  C7  UNL d   1      -0.381   1.462   1.642  0.00  0.00     0.002 A 
ATOM      7  C8  UNL d   1       0.054   0.203   1.221  0.00  0.00     0.006 A 
ENDROOT
BRANCH   1   8
ATOM      8  C1  UNL d   1       0.605  -1.458  -0.596  0.00  0.00     0.054 C 
ATOM      9  C   UNL d   1      -0.525  -2.391  -1.007  0.00  0.00     0.018 C 
ENDBRANCH   1   8
TORSDOF 1
ENDMDL
