MODEL 1
REMARK minimizedAffinity -5.45768309
REMARK minimizedRMSD -1
REMARK  1 active torsions:
REMARK  status: ('A' for Active; 'I' for Inactive)
REMARK    1  A    between atoms: C1_2  and  C2_3 
ROOT
ATOM      1  C2  UNL d   1      -0.047   0.539  -0.661  0.00  0.00    -0.081 A 
ATOM      2  C3  UNL d   1      -0.550   1.707  -1.247  0.00  0.00     0.006 A 
ATOM      3  C4  UNL d   1      -0.998   2.764  -0.451  0.00  0.00     0.002 A 
ATOM      4  C5  UNL d   1      -0.943   2.673   0.944  0.00  0.00    -0.080 A 
ATOM      5  C6  UNL d   1      -1.392   3.812   1.811  0.00  0.00     0.076 C 
ATOM      6  C7  UNL d   1      -0.458   1.500   1.531  0.00  0.00     0.002 A 
ATOM      7  C8  UNL d   1      -0.010   0.443   0.735  0.00  0.00     0.006 A 
ENDROOT
BRANCH   1   8
ATOM      8  C1  UNL d   1       0.496  -0.576  -1.517  0.00  0.00     0.054 C 
ATOM      9  C   UNL d   1      -0.020  -1.931  -1.055  0.00  0.00     0.018 C 
ENDBRANCH   1   8
TORSDOF 1
ENDMDL
