MODEL 1
REMARK minimizedAffinity -2.64083958
REMARK minimizedRMSD -1
REMARK  1 active torsions:
REMARK  status: ('A' for Active; 'I' for Inactive)
REMARK    1  A    between atoms: C1_2  and  C2_3 
ROOT
ATOM      1  C2  UNL d   1      -0.533  -1.733  -0.425  0.00  0.00    -0.081 A 
ATOM      2  C3  UNL d   1       0.467  -0.848  -0.848  0.00  0.00     0.006 A 
ATOM      3  C4  UNL d   1       0.724   0.324  -0.133  0.00  0.00     0.002 A 
ATOM      4  C5  UNL d   1      -0.009   0.627   1.020  0.00  0.00    -0.080 A 
ATOM      5  C6  UNL d   1       0.278   1.867   1.814  0.00  0.00     0.076 C 
ATOM      6  C7  UNL d   1      -1.020  -0.247   1.432  0.00  0.00     0.002 A 
ATOM      7  C8  UNL d   1      -1.277  -1.419   0.717  0.00  0.00     0.006 A 
ENDROOT
BRANCH   1   8
ATOM      8  C1  UNL d   1      -0.769  -3.029  -1.157  0.00  0.00     0.054 C 
ATOM      9  C   UNL d   1      -1.920  -3.811  -0.541  0.00  0.00     0.018 C 
ENDBRANCH   1   8
TORSDOF 1
ENDMDL
