MODEL 1
REMARK minimizedAffinity -4.34097385
REMARK minimizedRMSD -1
REMARK  1 active torsions:
REMARK  status: ('A' for Active; 'I' for Inactive)
REMARK    1  A    between atoms: C1_2  and  C2_3 
ROOT
ATOM      1  C2  UNL d   1       0.432  -0.072   0.001  0.00  0.00    -0.081 A 
ATOM      2  C3  UNL d   1       0.222   0.772   1.098  0.00  0.00     0.006 A 
ATOM      3  C4  UNL d   1       0.007   2.139   0.909  0.00  0.00     0.002 A 
ATOM      4  C5  UNL d   1      -0.010   2.683  -0.380  0.00  0.00    -0.080 A 
ATOM      5  C6  UNL d   1      -0.270   4.144  -0.599  0.00  0.00     0.076 C 
ATOM      6  C7  UNL d   1       0.217   1.843  -1.475  0.00  0.00     0.002 A 
ATOM      7  C8  UNL d   1       0.433   0.476  -1.286  0.00  0.00     0.006 A 
ENDROOT
BRANCH   1   8
ATOM      8  C1  UNL d   1       0.600  -1.558   0.197  0.00  0.00     0.054 C 
ATOM      9  C   UNL d   1       0.356  -2.318  -1.098  0.00  0.00     0.018 C 
ENDBRANCH   1   8
TORSDOF 1
ENDMDL
