MODEL 1
REMARK minimizedAffinity 12.1873531
REMARK minimizedRMSD -1
REMARK  0 active torsions:
REMARK  status: ('A' for Active; 'I' for Inactive)
ROOT
ATOM      1  C   UNL d   1      -4.134   0.372   0.140  0.00  0.00     0.020 A 
ATOM      2  C1  UNL d   1      -5.510   0.366  -0.089  0.00  0.00     0.020 A 
ATOM      3  C2  UNL d   1      -6.000   0.357  -1.397  0.00  0.00     0.034 A 
ATOM      4  C3  UNL d   1      -5.114   0.354  -2.480  0.00  0.00     0.017 A 
ATOM      5  C4  UNL d   1      -3.734   0.360  -2.250  0.00  0.00     0.017 A 
ATOM      6  C5  UNL d   1      -3.249   0.369  -0.938  0.00  0.00     0.034 A 
ATOM      7 Cl   UNL d   1      -2.579   0.357  -3.536  0.00  0.00    -0.070 Cl
ATOM      8 Cl1  UNL d   1      -5.790   0.343  -4.070  0.00  0.00    -0.070 Cl
ENDROOT
TORSDOF 0
ENDMDL
