MODEL 1
REMARK minimizedAffinity 6.57796574
REMARK minimizedRMSD -1
REMARK  0 active torsions:
REMARK  status: ('A' for Active; 'I' for Inactive)
ROOT
ATOM      1  C   UNL d   1       3.538   1.958  -1.188  0.00  0.00     0.020 A 
ATOM      2  C1  UNL d   1       3.605   1.976   0.205  0.00  0.00     0.020 A 
ATOM      3  C2  UNL d   1       4.206   3.053   0.861  0.00  0.00     0.034 A 
ATOM      4  C3  UNL d   1       4.741   4.116   0.125  0.00  0.00     0.017 A 
ATOM      5  C4  UNL d   1       4.672   4.097  -1.273  0.00  0.00     0.017 A 
ATOM      6  C5  UNL d   1       4.070   3.017  -1.925  0.00  0.00     0.034 A 
ATOM      7 Cl   UNL d   1       5.311   5.373  -2.250  0.00  0.00    -0.070 Cl
ATOM      8 Cl1  UNL d   1       5.468   5.415   1.002  0.00  0.00    -0.070 Cl
ENDROOT
TORSDOF 0
ENDMDL
