MODEL 1
REMARK minimizedAffinity 12.9321575
REMARK minimizedRMSD -1
REMARK  0 active torsions:
REMARK  status: ('A' for Active; 'I' for Inactive)
ROOT
ATOM      1  C   UNL d   1       2.630   1.420  -0.976  0.00  0.00     0.020 A 
ATOM      2  C1  UNL d   1       3.894   2.003  -0.900  0.00  0.00     0.020 A 
ATOM      3  C2  UNL d   1       4.913   1.370  -0.185  0.00  0.00     0.034 A 
ATOM      4  C3  UNL d   1       4.670   0.151   0.456  0.00  0.00     0.017 A 
ATOM      5  C4  UNL d   1       3.400  -0.434   0.379  0.00  0.00     0.017 A 
ATOM      6  C5  UNL d   1       2.384   0.204  -0.338  0.00  0.00     0.034 A 
ATOM      7 Cl   UNL d   1       3.024  -1.937   1.145  0.00  0.00    -0.070 Cl
ATOM      8 Cl1  UNL d   1       5.976  -0.576   1.323  0.00  0.00    -0.070 Cl
ENDROOT
TORSDOF 0
ENDMDL
