MODEL 1
REMARK minimizedAffinity 8.60650635
REMARK minimizedRMSD -1
REMARK  0 active torsions:
REMARK  status: ('A' for Active; 'I' for Inactive)
ROOT
ATOM      1  C   UNL d   1       2.971   0.981   0.301  0.00  0.00     0.020 A 
ATOM      2  C1  UNL d   1       2.956   1.196  -1.077  0.00  0.00     0.020 A 
ATOM      3  C2  UNL d   1       3.741   2.207  -1.634  0.00  0.00     0.034 A 
ATOM      4  C3  UNL d   1       4.544   3.008  -0.814  0.00  0.00     0.017 A 
ATOM      5  C4  UNL d   1       4.559   2.791   0.569  0.00  0.00     0.017 A 
ATOM      6  C5  UNL d   1       3.771   1.777   1.122  0.00  0.00     0.034 A 
ATOM      7 Cl   UNL d   1       5.524   3.738   1.646  0.00  0.00    -0.070 Cl
ATOM      8 Cl1  UNL d   1       5.490   4.240  -1.571  0.00  0.00    -0.070 Cl
ENDROOT
TORSDOF 0
ENDMDL
