MODEL 1
REMARK minimizedAffinity 13.1511078
REMARK minimizedRMSD -1
REMARK  0 active torsions:
REMARK  status: ('A' for Active; 'I' for Inactive)
ROOT
ATOM      1  C   UNL d   1      -1.912  -6.000   5.349  0.00  0.00     0.020 A 
ATOM      2  C1  UNL d   1      -1.093  -5.077   6.000  0.00  0.00     0.020 A 
ATOM      3  C2  UNL d   1      -0.356  -4.153   5.256  0.00  0.00     0.034 A 
ATOM      4  C3  UNL d   1      -0.434  -4.150   3.859  0.00  0.00     0.017 A 
ATOM      5  C4  UNL d   1      -1.256  -5.077   3.207  0.00  0.00     0.017 A 
ATOM      6  C5  UNL d   1      -1.992  -6.000   3.956  0.00  0.00     0.034 A 
ATOM      7 Cl   UNL d   1      -1.404  -5.135   1.486  0.00  0.00    -0.070 Cl
ATOM      8 Cl1  UNL d   1       0.506  -2.979   3.004  0.00  0.00    -0.070 Cl
ENDROOT
TORSDOF 0
ENDMDL
