MODEL 1
REMARK minimizedAffinity 11.640336
REMARK minimizedRMSD -1
REMARK  0 active torsions:
REMARK  status: ('A' for Active; 'I' for Inactive)
ROOT
ATOM      1  C   UNL d   1       3.899   3.160  -2.086  0.00  0.00     0.020 A 
ATOM      2  C1  UNL d   1       4.227   2.420  -3.221  0.00  0.00     0.020 A 
ATOM      3  C2  UNL d   1       3.816   1.090  -3.330  0.00  0.00     0.034 A 
ATOM      4  C3  UNL d   1       3.074   0.496  -2.302  0.00  0.00     0.017 A 
ATOM      5  C4  UNL d   1       2.745   1.240  -1.163  0.00  0.00     0.017 A 
ATOM      6  C5  UNL d   1       3.160   2.571  -1.059  0.00  0.00     0.034 A 
ATOM      7 Cl   UNL d   1       1.833   0.576   0.146  0.00  0.00    -0.070 Cl
ATOM      8 Cl1  UNL d   1       2.598  -1.153  -2.504  0.00  0.00    -0.070 Cl
ENDROOT
TORSDOF 0
ENDMDL
