MODEL 1
REMARK minimizedAffinity 9.52814293
REMARK minimizedRMSD -1
REMARK  0 active torsions:
REMARK  status: ('A' for Active; 'I' for Inactive)
ROOT
ATOM      1  C   UNL d   1       2.255  -1.225   0.600  0.00  0.00     0.020 A 
ATOM      2  C1  UNL d   1       2.751   0.016   0.997  0.00  0.00     0.020 A 
ATOM      3  C2  UNL d   1       3.229   0.915   0.041  0.00  0.00     0.034 A 
ATOM      4  C3  UNL d   1       3.212   0.574  -1.316  0.00  0.00     0.017 A 
ATOM      5  C4  UNL d   1       2.714  -0.672  -1.714  0.00  0.00     0.017 A 
ATOM      6  C5  UNL d   1       2.236  -1.568  -0.753  0.00  0.00     0.034 A 
ATOM      7 Cl   UNL d   1       2.660  -1.163  -3.370  0.00  0.00    -0.070 Cl
ATOM      8 Cl1  UNL d   1       3.819   1.735  -2.444  0.00  0.00    -0.070 Cl
ENDROOT
TORSDOF 0
ENDMDL
