MODEL 1
REMARK minimizedAffinity 14.3909578
REMARK minimizedRMSD -1
REMARK  0 active torsions:
REMARK  status: ('A' for Active; 'I' for Inactive)
ROOT
ATOM      1  C   UNL d   1       6.000   5.707  -3.393  0.00  0.00     0.020 A 
ATOM      2  C1  UNL d   1       5.345   5.840  -2.169  0.00  0.00     0.020 A 
ATOM      3  C2  UNL d   1       4.690   4.744  -1.605  0.00  0.00     0.034 A 
ATOM      4  C3  UNL d   1       4.687   3.510  -2.265  0.00  0.00     0.017 A 
ATOM      5  C4  UNL d   1       5.344   3.377  -3.493  0.00  0.00     0.017 A 
ATOM      6  C5  UNL d   1       5.999   4.478  -4.054  0.00  0.00     0.034 A 
ATOM      7 Cl   UNL d   1       5.383   1.886  -4.367  0.00  0.00    -0.070 Cl
ATOM      8 Cl1  UNL d   1       3.856   2.196  -1.509  0.00  0.00    -0.070 Cl
ENDROOT
TORSDOF 0
ENDMDL
