MODEL 1
REMARK minimizedAffinity 6.07603979
REMARK minimizedRMSD -1
REMARK  0 active torsions:
REMARK  status: ('A' for Active; 'I' for Inactive)
ROOT
ATOM      1  C   UNL d   1      -4.167   3.941   1.966  0.00  0.00     0.020 A 
ATOM      2  C1  UNL d   1      -5.512   3.750   2.278  0.00  0.00     0.020 A 
ATOM      3  C2  UNL d   1      -6.000   4.133   3.529  0.00  0.00     0.034 A 
ATOM      4  C3  UNL d   1      -5.142   4.708   4.473  0.00  0.00     0.017 A 
ATOM      5  C4  UNL d   1      -3.792   4.900   4.159  0.00  0.00     0.017 A 
ATOM      6  C5  UNL d   1      -3.308   4.515   2.904  0.00  0.00     0.034 A 
ATOM      7 Cl   UNL d   1      -2.672   5.604   5.271  0.00  0.00    -0.070 Cl
ATOM      8 Cl1  UNL d   1      -5.813   5.158   6.000  0.00  0.00    -0.070 Cl
ENDROOT
TORSDOF 0
ENDMDL
