MODEL 1
REMARK minimizedAffinity 0.940202177
REMARK minimizedRMSD -1
REMARK  0 active torsions:
REMARK  status: ('A' for Active; 'I' for Inactive)
ROOT
ATOM      1  C   UNL d   1      -4.877   0.205  -0.715  0.00  0.00     0.020 A 
ATOM      2  C1  UNL d   1      -4.438   1.076   0.281  0.00  0.00     0.020 A 
ATOM      3  C2  UNL d   1      -4.477   2.456   0.068  0.00  0.00     0.034 A 
ATOM      4  C3  UNL d   1      -4.955   2.968  -1.143  0.00  0.00     0.017 A 
ATOM      5  C4  UNL d   1      -5.395   2.093  -2.142  0.00  0.00     0.017 A 
ATOM      6  C5  UNL d   1      -5.354   0.712  -1.924  0.00  0.00     0.034 A 
ATOM      7 Cl   UNL d   1      -5.998   2.650  -3.663  0.00  0.00    -0.070 Cl
ATOM      8 Cl1  UNL d   1      -4.974   4.685  -1.338  0.00  0.00    -0.070 Cl
ENDROOT
TORSDOF 0
ENDMDL
