MODEL 1
REMARK minimizedAffinity 16.0843906
REMARK minimizedRMSD -1
REMARK  0 active torsions:
REMARK  status: ('A' for Active; 'I' for Inactive)
ROOT
ATOM      1  C   UNL d   1       1.956  -0.652   1.794  0.00  0.00     0.020 A 
ATOM      2  C1  UNL d   1       2.172   0.281   0.781  0.00  0.00     0.020 A 
ATOM      3  C2  UNL d   1       1.925  -0.063  -0.550  0.00  0.00     0.034 A 
ATOM      4  C3  UNL d   1       1.461  -1.344  -0.871  0.00  0.00     0.017 A 
ATOM      5  C4  UNL d   1       1.245  -2.280   0.147  0.00  0.00     0.017 A 
ATOM      6  C5  UNL d   1       1.493  -1.930   1.477  0.00  0.00     0.034 A 
ATOM      7 Cl   UNL d   1       0.673  -3.880  -0.172  0.00  0.00    -0.070 Cl
ATOM      8 Cl1  UNL d   1       1.177  -1.701  -2.538  0.00  0.00    -0.070 Cl
ENDROOT
TORSDOF 0
ENDMDL
