MODEL 1
REMARK minimizedAffinity -1.95350194
REMARK minimizedRMSD -1
REMARK  0 active torsions:
REMARK  status: ('A' for Active; 'I' for Inactive)
ROOT
ATOM      1  C   UNL d   1       4.054   3.252   4.637  0.00  0.00     0.023 A 
ATOM      2  C1  UNL d   1       3.131   2.760   5.560  0.00  0.00     0.003 A 
ATOM      3  C2  UNL d   1       2.047   3.548   5.953  0.00  0.00     0.048 A 
ATOM      4  C3  UNL d   1       1.891   4.826   5.417  0.00  0.00     0.023 A 
ATOM      5  C4  UNL d   1       2.811   5.322   4.492  0.00  0.00     0.048 A 
ATOM      6  C5  UNL d   1       3.894   4.531   4.103  0.00  0.00     0.003 A 
ATOM      7  I   UNL d   1       0.277   5.999   5.999  0.00  0.00    -0.146 I 
ENDROOT
TORSDOF 0
ENDMDL
