MODEL 1
REMARK minimizedAffinity 9.78671646
REMARK minimizedRMSD -1
REMARK  0 active torsions:
REMARK  status: ('A' for Active; 'I' for Inactive)
ROOT
ATOM      1  C   UNL d   1      -4.912   0.571   0.479  0.00  0.00     0.023 A 
ATOM      2  C1  UNL d   1      -4.219   1.299   1.446  0.00  0.00     0.003 A 
ATOM      3  C2  UNL d   1      -2.881   1.642   1.239  0.00  0.00     0.048 A 
ATOM      4  C3  UNL d   1      -2.243   1.255   0.061  0.00  0.00     0.023 A 
ATOM      5  C4  UNL d   1      -2.933   0.527  -0.910  0.00  0.00     0.048 A 
ATOM      6  C5  UNL d   1      -4.270   0.186  -0.698  0.00  0.00     0.003 A 
ATOM      7  I   UNL d   1      -0.252   1.764  -0.250  0.00  0.00    -0.146 I 
ENDROOT
TORSDOF 0
ENDMDL
