MODEL 1
REMARK minimizedAffinity -2.35977888
REMARK minimizedRMSD -1
REMARK  0 active torsions:
REMARK  status: ('A' for Active; 'I' for Inactive)
ROOT
ATOM      1  C   UNL d   1       4.918   5.060   4.128  0.00  0.00     0.023 A 
ATOM      2  C1  UNL d   1       3.961   5.722   3.359  0.00  0.00     0.003 A 
ATOM      3  C2  UNL d   1       2.700   5.993   3.893  0.00  0.00     0.048 A 
ATOM      4  C3  UNL d   1       2.402   5.598   5.197  0.00  0.00     0.023 A 
ATOM      5  C4  UNL d   1       3.356   4.936   5.970  0.00  0.00     0.048 A 
ATOM      6  C5  UNL d   1       4.616   4.667   5.432  0.00  0.00     0.003 A 
ATOM      7  I   UNL d   1       0.524   6.000   5.993  0.00  0.00    -0.146 I 
ENDROOT
TORSDOF 0
ENDMDL
