MODEL 1
REMARK minimizedAffinity 5.1418767
REMARK minimizedRMSD -1
REMARK  0 active torsions:
REMARK  status: ('A' for Active; 'I' for Inactive)
ROOT
ATOM      1  C   UNL d   1       2.372  -2.938  -1.542  0.00  0.00     0.023 A 
ATOM      2  C1  UNL d   1       2.386  -2.433  -0.242  0.00  0.00     0.003 A 
ATOM      3  C2  UNL d   1       2.886  -1.152   0.005  0.00  0.00     0.048 A 
ATOM      4  C3  UNL d   1       3.369  -0.383  -1.052  0.00  0.00     0.023 A 
ATOM      5  C4  UNL d   1       3.357  -0.884  -2.355  0.00  0.00     0.048 A 
ATOM      6  C5  UNL d   1       2.857  -2.164  -2.597  0.00  0.00     0.003 A 
ATOM      7  I   UNL d   1       4.114   1.523  -0.686  0.00  0.00    -0.146 I 
ENDROOT
TORSDOF 0
ENDMDL
