MODEL 1
REMARK minimizedAffinity 10.1171017
REMARK minimizedRMSD -1
REMARK  0 active torsions:
REMARK  status: ('A' for Active; 'I' for Inactive)
ROOT
ATOM      1  C   UNL d   1       4.199   1.448  -0.530  0.00  0.00     0.023 A 
ATOM      2  C1  UNL d   1       2.979   1.129   0.065  0.00  0.00     0.003 A 
ATOM      3  C2  UNL d   1       2.733   1.487   1.392  0.00  0.00     0.048 A 
ATOM      4  C3  UNL d   1       3.712   2.165   2.118  0.00  0.00     0.023 A 
ATOM      5  C4  UNL d   1       4.934   2.487   1.526  0.00  0.00     0.048 A 
ATOM      6  C5  UNL d   1       5.176   2.127   0.199  0.00  0.00     0.003 A 
ATOM      7  I   UNL d   1       3.349   2.698   4.094  0.00  0.00    -0.146 I 
ENDROOT
TORSDOF 0
ENDMDL
