MODEL 1
REMARK minimizedAffinity 3.40800357
REMARK minimizedRMSD -1
REMARK  0 active torsions:
REMARK  status: ('A' for Active; 'I' for Inactive)
ROOT
ATOM      1  C   UNL d   1       3.374   4.167   5.125  0.00  0.00     0.023 A 
ATOM      2  C1  UNL d   1       2.907   3.186   6.000  0.00  0.00     0.003 A 
ATOM      3  C2  UNL d   1       2.258   2.055   5.501  0.00  0.00     0.048 A 
ATOM      4  C3  UNL d   1       2.081   1.910   4.125  0.00  0.00     0.023 A 
ATOM      5  C4  UNL d   1       2.547   2.889   3.246  0.00  0.00     0.048 A 
ATOM      6  C5  UNL d   1       3.195   4.019   3.750  0.00  0.00     0.003 A 
ATOM      7  I   UNL d   1       1.116   0.227   3.380  0.00  0.00    -0.146 I 
ENDROOT
TORSDOF 0
ENDMDL
