MODEL 1
REMARK minimizedAffinity 9.23684883
REMARK minimizedRMSD -1
REMARK  0 active torsions:
REMARK  status: ('A' for Active; 'I' for Inactive)
ROOT
ATOM      1  C   UNL d   1       2.534  -2.946  -0.705  0.00  0.00     0.023 A 
ATOM      2  C1  UNL d   1       2.482  -2.470  -2.016  0.00  0.00     0.003 A 
ATOM      3  C2  UNL d   1       3.121  -1.275  -2.351  0.00  0.00     0.048 A 
ATOM      4  C3  UNL d   1       3.812  -0.562  -1.372  0.00  0.00     0.023 A 
ATOM      5  C4  UNL d   1       3.867  -1.035  -0.060  0.00  0.00     0.048 A 
ATOM      6  C5  UNL d   1       3.226  -2.230   0.271  0.00  0.00     0.003 A 
ATOM      7  I   UNL d   1       4.764   1.217  -1.870  0.00  0.00    -0.146 I 
ENDROOT
TORSDOF 0
ENDMDL
