MODEL 1
REMARK minimizedAffinity -2.36524177
REMARK minimizedRMSD -1
REMARK  0 active torsions:
REMARK  status: ('A' for Active; 'I' for Inactive)
ROOT
ATOM      1  C   UNL d   1       4.182   2.443   3.661  0.00  0.00     0.023 A 
ATOM      2  C1  UNL d   1       3.663   2.215   4.936  0.00  0.00     0.003 A 
ATOM      3  C2  UNL d   1       2.988   3.235   5.609  0.00  0.00     0.048 A 
ATOM      4  C3  UNL d   1       2.832   4.480   5.000  0.00  0.00     0.023 A 
ATOM      5  C4  UNL d   1       3.348   4.712   3.724  0.00  0.00     0.048 A 
ATOM      6  C5  UNL d   1       4.024   3.690   3.056  0.00  0.00     0.003 A 
ATOM      7  I   UNL d   1       1.826   6.000   5.999  0.00  0.00    -0.146 I 
ENDROOT
TORSDOF 0
ENDMDL
