MODEL 1
REMARK minimizedAffinity 1.30759776
REMARK minimizedRMSD -1
REMARK  0 active torsions:
REMARK  status: ('A' for Active; 'I' for Inactive)
ROOT
ATOM      1  C   UNL d   1      -1.483   3.549   4.145  0.00  0.00     0.023 A 
ATOM      2  C1  UNL d   1      -0.882   2.953   3.036  0.00  0.00     0.003 A 
ATOM      3  C2  UNL d   1      -1.660   2.257   2.109  0.00  0.00     0.048 A 
ATOM      4  C3  UNL d   1      -3.039   2.162   2.295  0.00  0.00     0.023 A 
ATOM      5  C4  UNL d   1      -3.644   2.758   3.403  0.00  0.00     0.048 A 
ATOM      6  C5  UNL d   1      -2.862   3.452   4.328  0.00  0.00     0.003 A 
ATOM      7  I   UNL d   1      -4.199   1.127   0.916  0.00  0.00    -0.146 I 
ENDROOT
TORSDOF 0
ENDMDL
