MODEL 1
REMARK minimizedAffinity 2.92808008
REMARK minimizedRMSD -1
REMARK  0 active torsions:
REMARK  status: ('A' for Active; 'I' for Inactive)
ROOT
ATOM      1  C   UNL d   1      -0.359   5.695   6.000  0.00  0.00     0.023 A 
ATOM      2  C1  UNL d   1       0.460   6.000   4.913  0.00  0.00     0.003 A 
ATOM      3  C2  UNL d   1       0.457   5.180   3.782  0.00  0.00     0.048 A 
ATOM      4  C3  UNL d   1      -0.370   4.058   3.745  0.00  0.00     0.023 A 
ATOM      5  C4  UNL d   1      -1.192   3.749   4.830  0.00  0.00     0.048 A 
ATOM      6  C5  UNL d   1      -1.185   4.572   5.958  0.00  0.00     0.003 A 
ATOM      7  I   UNL d   1      -0.377   2.836   2.064  0.00  0.00    -0.146 I 
ENDROOT
TORSDOF 0
ENDMDL
