MODEL 1
REMARK minimizedAffinity -3.47584867
REMARK minimizedRMSD -1
REMARK  0 active torsions:
REMARK  status: ('A' for Active; 'I' for Inactive)
ROOT
ATOM      1  C1  BNZ d   1       5.638   4.205   5.206  0.00  0.00     0.000 A 
ATOM      2  C2  BNZ d   1       4.495   3.455   5.281  0.00  0.00     0.000 A 
ATOM      3  C3  BNZ d   1       3.370   3.825   4.599  0.00  0.00     0.000 A 
ATOM      4  C4  BNZ d   1       3.376   4.964   3.877  0.00  0.00     0.000 A 
ATOM      5  C5  BNZ d   1       4.518   5.736   3.800  0.00  0.00     0.000 A 
ATOM      6  C6  BNZ d   1       5.661   5.340   4.456  0.00  0.00     0.000 A 
ENDROOT
TORSDOF 0
ENDMDL
