MODEL 1
REMARK minimizedAffinity 7.02554226
REMARK minimizedRMSD -1
REMARK  0 active torsions:
REMARK  status: ('A' for Active; 'I' for Inactive)
ROOT
ATOM      1  C1  BNZ d   1      -3.666   5.608   1.364  0.00  0.00     0.000 A 
ATOM      2  C2  BNZ d   1      -3.682   5.641   2.733  0.00  0.00     0.000 A 
ATOM      3  C3  BNZ d   1      -4.853   5.817   3.415  0.00  0.00     0.000 A 
ATOM      4  C4  BNZ d   1      -5.999   6.000   2.729  0.00  0.00     0.000 A 
ATOM      5  C5  BNZ d   1      -5.998   5.979   1.348  0.00  0.00     0.000 A 
ATOM      6  C6  BNZ d   1      -4.823   5.763   0.665  0.00  0.00     0.000 A 
ENDROOT
TORSDOF 0
ENDMDL
