MODEL 1
REMARK minimizedAffinity 5.44259596
REMARK minimizedRMSD -1
REMARK  0 active torsions:
REMARK  status: ('A' for Active; 'I' for Inactive)
ROOT
ATOM      1  C1  BNZ d   1       2.203  -0.861  -1.012  0.00  0.00     0.000 A 
ATOM      2  C2  BNZ d   1       2.930  -0.734   0.142  0.00  0.00     0.000 A 
ATOM      3  C3  BNZ d   1       2.495   0.071   1.158  0.00  0.00     0.000 A 
ATOM      4  C4  BNZ d   1       1.356   0.777   1.003  0.00  0.00     0.000 A 
ATOM      5  C5  BNZ d   1       0.618   0.667  -0.158  0.00  0.00     0.000 A 
ATOM      6  C6  BNZ d   1       1.038  -0.174  -1.163  0.00  0.00     0.000 A 
ENDROOT
TORSDOF 0
ENDMDL
