MODEL 1
REMARK minimizedAffinity 0.348822147
REMARK minimizedRMSD -1
REMARK  0 active torsions:
REMARK  status: ('A' for Active; 'I' for Inactive)
ROOT
ATOM      1  C1  BNZ d   1      -1.219   2.521  -0.442  0.00  0.00     0.000 A 
ATOM      2  C2  BNZ d   1      -0.347   3.507  -0.065  0.00  0.00     0.000 A 
ATOM      3  C3  BNZ d   1       0.804   3.204   0.607  0.00  0.00     0.000 A 
ATOM      4  C4  BNZ d   1       1.061   1.922   0.937  0.00  0.00     0.000 A 
ATOM      5  C5  BNZ d   1       0.186   0.917   0.572  0.00  0.00     0.000 A 
ATOM      6  C6  BNZ d   1      -0.952   1.222  -0.139  0.00  0.00     0.000 A 
ENDROOT
TORSDOF 0
ENDMDL
