MODEL 1
REMARK minimizedAffinity 1.70258415
REMARK minimizedRMSD -1
REMARK  0 active torsions:
REMARK  status: ('A' for Active; 'I' for Inactive)
ROOT
ATOM      1  C1  BNZ d   1       3.354  -1.360  -0.229  0.00  0.00     0.000 A 
ATOM      2  C2  BNZ d   1       2.896  -2.635  -0.430  0.00  0.00     0.000 A 
ATOM      3  C3  BNZ d   1       1.555  -2.895  -0.492  0.00  0.00     0.000 A 
ATOM      4  C4  BNZ d   1       0.676  -1.888  -0.315  0.00  0.00     0.000 A 
ATOM      5  C5  BNZ d   1       1.122  -0.599  -0.103  0.00  0.00     0.000 A 
ATOM      6  C6  BNZ d   1       2.472  -0.334  -0.079  0.00  0.00     0.000 A 
ENDROOT
TORSDOF 0
ENDMDL
