MODEL 1
REMARK minimizedAffinity -1.34044719
REMARK minimizedRMSD -1
REMARK  0 active torsions:
REMARK  status: ('A' for Active; 'I' for Inactive)
ROOT
ATOM      1  C1  BNZ d   1       0.590  -4.234  -0.062  0.00  0.00     0.000 A 
ATOM      2  C2  BNZ d   1       0.130  -2.979  -0.361  0.00  0.00     0.000 A 
ATOM      3  C3  BNZ d   1       0.997  -1.935  -0.520  0.00  0.00     0.000 A 
ATOM      4  C4  BNZ d   1       2.318  -2.137  -0.341  0.00  0.00     0.000 A 
ATOM      5  C5  BNZ d   1       2.797  -3.394  -0.030  0.00  0.00     0.000 A 
ATOM      6  C6  BNZ d   1       1.925  -4.451   0.091  0.00  0.00     0.000 A 
ENDROOT
TORSDOF 0
ENDMDL
