MODEL 1
REMARK minimizedAffinity -2.3993938
REMARK minimizedRMSD -1
REMARK  0 active torsions:
REMARK  status: ('A' for Active; 'I' for Inactive)
ROOT
ATOM      1  C1  BNZ d   1      -5.892   5.943   3.262  0.00  0.00     0.000 A 
ATOM      2  C2  BNZ d   1      -4.660   5.853   2.671  0.00  0.00     0.000 A 
ATOM      3  C3  BNZ d   1      -3.523   5.808   3.429  0.00  0.00     0.000 A 
ATOM      4  C4  BNZ d   1      -3.616   5.894   4.771  0.00  0.00     0.000 A 
ATOM      5  C5  BNZ d   1      -4.851   5.994   5.381  0.00  0.00     0.000 A 
ATOM      6  C6  BNZ d   1      -5.996   6.000   4.617  0.00  0.00     0.000 A 
ENDROOT
TORSDOF 0
ENDMDL
