MODEL 1
REMARK minimizedAffinity -2.01717782
REMARK minimizedRMSD -1
REMARK  0 active torsions:
REMARK  status: ('A' for Active; 'I' for Inactive)
ROOT
ATOM      1  C1  BNZ d   1      -4.520  -1.162   0.432  0.00  0.00     0.000 A 
ATOM      2  C2  BNZ d   1      -3.512  -1.132  -0.495  0.00  0.00     0.000 A 
ATOM      3  C3  BNZ d   1      -3.448  -0.134  -1.427  0.00  0.00     0.000 A 
ATOM      4  C4  BNZ d   1      -4.412   0.809  -1.457  0.00  0.00     0.000 A 
ATOM      5  C5  BNZ d   1      -5.440   0.787  -0.535  0.00  0.00     0.000 A 
ATOM      6  C6  BNZ d   1      -5.480  -0.197   0.426  0.00  0.00     0.000 A 
ENDROOT
TORSDOF 0
ENDMDL
