MODEL 1
REMARK minimizedAffinity -4.42145538
REMARK minimizedRMSD -1
REMARK  0 active torsions:
REMARK  status: ('A' for Active; 'I' for Inactive)
ROOT
ATOM      1  C1  BNZ d   1       0.940  -1.755  -1.263  0.00  0.00     0.000 A 
ATOM      2  C2  BNZ d   1       2.152  -2.349  -1.031  0.00  0.00     0.000 A 
ATOM      3  C3  BNZ d   1       3.293  -1.601  -0.941  0.00  0.00     0.000 A 
ATOM      4  C4  BNZ d   1       3.226  -0.266  -1.123  0.00  0.00     0.000 A 
ATOM      5  C5  BNZ d   1       2.013   0.346  -1.368  0.00  0.00     0.000 A 
ATOM      6  C6  BNZ d   1       0.862  -0.406  -1.419  0.00  0.00     0.000 A 
ENDROOT
TORSDOF 0
ENDMDL
