MODEL 1
REMARK minimizedAffinity -3.71987271
REMARK minimizedRMSD -1
REMARK  3 active torsions:
REMARK  status: ('A' for Active; 'I' for Inactive)
REMARK    1  A    between atoms: C3'_2  and  C2'_3 
REMARK    2  A    between atoms: C2'_3  and  C1'_4 
REMARK    3  A    between atoms: C1'_4  and  C1_5 
ROOT
ATOM      1  C1  N4B d   1      -0.040  -1.318   3.593  0.00  0.00    -0.075 A 
ATOM      2  C2  N4B d   1       0.769  -0.567   2.712  0.00  0.00     0.002 A 
ATOM      3  C3  N4B d   1       0.188   0.240   1.766  0.00  0.00     0.002 A 
ATOM      4  C4  N4B d   1      -1.194   0.298   1.668  0.00  0.00    -0.004 A 
ATOM      5  C5  N4B d   1      -1.969  -0.411   2.539  0.00  0.00     0.002 A 
ATOM      6  C6  N4B d   1      -1.398  -1.223   3.498  0.00  0.00     0.002 A 
ENDROOT
BRANCH   1   7
ATOM      7  C1' N4B d   1       0.549  -2.280   4.588  0.00  0.00     0.057 C 
BRANCH   7   8
ATOM      8  C2' N4B d   1       2.049  -2.024   4.704  0.00  0.00     0.009 C 
BRANCH   8   9
ATOM      9  C3' N4B d   1       2.354  -0.824   5.584  0.00  0.00     0.004 C 
ATOM     10  C4' N4B d   1       3.628  -0.132   5.201  0.00  0.00     0.003 C 
ENDBRANCH   8   9
ENDBRANCH   7   8
ENDBRANCH   1   7
TORSDOF 3
ENDMDL
