MODEL 1
REMARK minimizedAffinity 2.27835393
REMARK minimizedRMSD -1
REMARK  3 active torsions:
REMARK  status: ('A' for Active; 'I' for Inactive)
REMARK    1  A    between atoms: C3'_2  and  C2'_3 
REMARK    2  A    between atoms: C2'_3  and  C1'_4 
REMARK    3  A    between atoms: C1'_4  and  C1_5 
ROOT
ATOM      1  C1  N4B d   1      -1.120  -0.324   1.555  0.00  0.00    -0.075 A 
ATOM      2  C2  N4B d   1      -2.008  -1.098   0.777  0.00  0.00     0.002 A 
ATOM      3  C3  N4B d   1      -2.719  -0.512  -0.241  0.00  0.00     0.002 A 
ATOM      4  C4  N4B d   1      -2.573   0.845  -0.487  0.00  0.00    -0.004 A 
ATOM      5  C5  N4B d   1      -1.694   1.581   0.252  0.00  0.00     0.002 A 
ATOM      6  C6  N4B d   1      -0.970   1.004   1.276  0.00  0.00     0.002 A 
ENDROOT
BRANCH   1   7
ATOM      7  C1' N4B d   1      -0.386  -0.902   2.734  0.00  0.00     0.057 C 
BRANCH   7   8
ATOM      8  C2' N4B d   1       1.013  -1.325   2.294  0.00  0.00     0.009 C 
BRANCH   8   9
ATOM      9  C3' N4B d   1       1.893  -1.692   3.476  0.00  0.00     0.004 C 
ATOM     10  C4' N4B d   1       1.150  -2.437   4.545  0.00  0.00     0.003 C 
ENDBRANCH   8   9
ENDBRANCH   7   8
ENDBRANCH   1   7
TORSDOF 3
ENDMDL
