MODEL 1
REMARK minimizedAffinity 7.48180389
REMARK minimizedRMSD -1
REMARK  3 active torsions:
REMARK  status: ('A' for Active; 'I' for Inactive)
REMARK    1  A    between atoms: C3'_2  and  C2'_3 
REMARK    2  A    between atoms: C2'_3  and  C1'_4 
REMARK    3  A    between atoms: C1'_4  and  C1_5 
ROOT
ATOM      1  C1  N4B d   1       0.952  -1.284   3.188  0.00  0.00    -0.075 A 
ATOM      2  C2  N4B d   1      -0.401  -1.335   2.785  0.00  0.00     0.002 A 
ATOM      3  C3  N4B d   1      -0.891  -0.401   1.905  0.00  0.00     0.002 A 
ATOM      4  C4  N4B d   1      -0.056   0.601   1.433  0.00  0.00    -0.004 A 
ATOM      5  C5  N4B d   1       1.256   0.628   1.807  0.00  0.00     0.002 A 
ATOM      6  C6  N4B d   1       1.763  -0.307   2.687  0.00  0.00     0.002 A 
ENDROOT
BRANCH   1   7
ATOM      7  C1' N4B d   1       1.511  -2.232   4.213  0.00  0.00     0.057 C 
BRANCH   7   8
ATOM      8  C2' N4B d   1       2.080  -1.430   5.379  0.00  0.00     0.009 C 
BRANCH   8   9
ATOM      9  C3' N4B d   1       3.509  -1.832   5.702  0.00  0.00     0.004 C 
ATOM     10  C4' N4B d   1       4.476  -0.692   5.580  0.00  0.00     0.003 C 
ENDBRANCH   8   9
ENDBRANCH   7   8
ENDBRANCH   1   7
TORSDOF 3
ENDMDL
