MODEL 1
REMARK minimizedAffinity -0.769131482
REMARK minimizedRMSD -1
REMARK  3 active torsions:
REMARK  status: ('A' for Active; 'I' for Inactive)
REMARK    1  A    between atoms: C3'_2  and  C2'_3 
REMARK    2  A    between atoms: C2'_3  and  C1'_4 
REMARK    3  A    between atoms: C1'_4  and  C1_5 
ROOT
ATOM      1  C1  N4B d   1       0.566  -0.955   2.883  0.00  0.00    -0.075 A 
ATOM      2  C2  N4B d   1       0.024  -0.331   1.738  0.00  0.00     0.002 A 
ATOM      3  C3  N4B d   1      -1.338  -0.238   1.587  0.00  0.00     0.002 A 
ATOM      4  C4  N4B d   1      -2.174  -0.775   2.555  0.00  0.00    -0.004 A 
ATOM      5  C5  N4B d   1      -1.642  -1.354   3.670  0.00  0.00     0.002 A 
ATOM      6  C6  N4B d   1      -0.275  -1.451   3.836  0.00  0.00     0.002 A 
ENDROOT
BRANCH   1   7
ATOM      7  C1' N4B d   1       2.047  -1.157   3.050  0.00  0.00     0.057 C 
BRANCH   7   8
ATOM      8  C2' N4B d   1       2.398  -1.083   4.533  0.00  0.00     0.009 C 
BRANCH   8   9
ATOM      9  C3' N4B d   1       3.607  -1.937   4.874  0.00  0.00     0.004 C 
ATOM     10  C4' N4B d   1       4.492  -1.305   5.907  0.00  0.00     0.003 C 
ENDBRANCH   8   9
ENDBRANCH   7   8
ENDBRANCH   1   7
TORSDOF 3
ENDMDL
