MODEL 1
REMARK minimizedAffinity -2.75366092
REMARK minimizedRMSD -1
REMARK  0 active torsions:
REMARK  status: ('A' for Active; 'I' for Inactive)
ROOT
ATOM      1  C   UNL d   1       3.602  -0.949   0.865  0.00  0.00     0.023 A 
ATOM      2  C1  UNL d   1       3.348  -0.295   2.071  0.00  0.00     0.003 A 
ATOM      3  C2  UNL d   1       2.170   0.438   2.234  0.00  0.00     0.048 A 
ATOM      4  C3  UNL d   1       1.251   0.512   1.188  0.00  0.00     0.023 A 
ATOM      5  C4  UNL d   1       1.500  -0.142  -0.019  0.00  0.00     0.048 A 
ATOM      6  C5  UNL d   1       2.679  -0.873  -0.179  0.00  0.00     0.003 A 
ATOM      7  I   UNL d   1      -0.503   1.601   1.429  0.00  0.00    -0.146 I 
ENDROOT
TORSDOF 0
ENDMDL
