MODEL 1
REMARK minimizedAffinity 3.18066502
REMARK minimizedRMSD -1
REMARK  0 active torsions:
REMARK  status: ('A' for Active; 'I' for Inactive)
ROOT
ATOM      1  C   UNL d   1       0.206   1.131   0.741  0.00  0.00     0.023 A 
ATOM      2  C1  UNL d   1       0.027   2.458   1.131  0.00  0.00     0.003 A 
ATOM      3  C2  UNL d   1      -1.011   2.798   2.002  0.00  0.00     0.048 A 
ATOM      4  C3  UNL d   1      -1.866   1.805   2.479  0.00  0.00     0.023 A 
ATOM      5  C4  UNL d   1      -1.691   0.475   2.091  0.00  0.00     0.048 A 
ATOM      6  C5  UNL d   1      -0.652   0.141   1.220  0.00  0.00     0.003 A 
ATOM      7  I   UNL d   1      -3.412   2.307   3.774  0.00  0.00    -0.146 I 
ENDROOT
TORSDOF 0
ENDMDL
