MODEL 1
REMARK minimizedAffinity 5.98544025
REMARK minimizedRMSD -1
REMARK  0 active torsions:
REMARK  status: ('A' for Active; 'I' for Inactive)
ROOT
ATOM      1  C   UNL d   1      -0.580   0.838   1.074  0.00  0.00     0.023 A 
ATOM      2  C1  UNL d   1      -1.157  -0.029   2.003  0.00  0.00     0.003 A 
ATOM      3  C2  UNL d   1      -2.034   0.465   2.970  0.00  0.00     0.048 A 
ATOM      4  C3  UNL d   1      -2.331   1.827   3.002  0.00  0.00     0.023 A 
ATOM      5  C4  UNL d   1      -1.757   2.698   2.074  0.00  0.00     0.048 A 
ATOM      6  C5  UNL d   1      -0.880   2.199   1.110  0.00  0.00     0.003 A 
ATOM      7  I   UNL d   1      -3.637   2.566   4.441  0.00  0.00    -0.146 I 
ENDROOT
TORSDOF 0
ENDMDL
