MODEL 1
REMARK minimizedAffinity 0.058695849
REMARK minimizedRMSD -1
REMARK  0 active torsions:
REMARK  status: ('A' for Active; 'I' for Inactive)
ROOT
ATOM      1  C   UNL d   1      -3.007   0.893   3.036  0.00  0.00     0.023 A 
ATOM      2  C1  UNL d   1      -2.164  -0.104   2.545  0.00  0.00     0.003 A 
ATOM      3  C2  UNL d   1      -0.989   0.241   1.875  0.00  0.00     0.048 A 
ATOM      4  C3  UNL d   1      -0.661   1.585   1.701  0.00  0.00     0.023 A 
ATOM      5  C4  UNL d   1      -1.501   2.586   2.191  0.00  0.00     0.048 A 
ATOM      6  C5  UNL d   1      -2.676   2.236   2.859  0.00  0.00     0.003 A 
ATOM      7  I   UNL d   1       1.088   2.101   0.704  0.00  0.00    -0.146 I 
ENDROOT
TORSDOF 0
ENDMDL
