MODEL 1
REMARK minimizedAffinity 8.53976536
REMARK minimizedRMSD -1
REMARK  0 active torsions:
REMARK  status: ('A' for Active; 'I' for Inactive)
ROOT
ATOM      1  C   UNL d   1      -2.588   0.921   2.391  0.00  0.00     0.023 A 
ATOM      2  C1  UNL d   1      -2.815   2.290   2.534  0.00  0.00     0.003 A 
ATOM      3  C2  UNL d   1      -3.771   2.749   3.443  0.00  0.00     0.048 A 
ATOM      4  C3  UNL d   1      -4.495   1.834   4.206  0.00  0.00     0.023 A 
ATOM      5  C4  UNL d   1      -4.270   0.463   4.067  0.00  0.00     0.048 A 
ATOM      6  C5  UNL d   1      -3.314   0.009   3.157  0.00  0.00     0.003 A 
ATOM      7  I   UNL d   1      -5.917   2.515   5.560  0.00  0.00    -0.146 I 
ENDROOT
TORSDOF 0
ENDMDL
