MODEL 1
REMARK minimizedAffinity -1.28047442
REMARK minimizedRMSD -1
REMARK  0 active torsions:
REMARK  status: ('A' for Active; 'I' for Inactive)
ROOT
ATOM      1  C   UNL d   1       0.180   0.555   1.209  0.00  0.00     0.023 A 
ATOM      2  C1  UNL d   1       0.070   1.894   1.581  0.00  0.00     0.003 A 
ATOM      3  C2  UNL d   1      -1.042   2.330   2.306  0.00  0.00     0.048 A 
ATOM      4  C3  UNL d   1      -2.039   1.420   2.655  0.00  0.00     0.023 A 
ATOM      5  C4  UNL d   1      -1.933   0.079   2.285  0.00  0.00     0.048 A 
ATOM      6  C5  UNL d   1      -0.820  -0.352   1.560  0.00  0.00     0.003 A 
ATOM      7  I   UNL d   1      -3.694   2.066   3.734  0.00  0.00    -0.146 I 
ENDROOT
TORSDOF 0
ENDMDL
