MODEL 1
REMARK minimizedAffinity 4.32097816
REMARK minimizedRMSD -1
REMARK  0 active torsions:
REMARK  status: ('A' for Active; 'I' for Inactive)
ROOT
ATOM      1  C   UNL d   1      -0.177   1.422   1.515  0.00  0.00     0.023 A 
ATOM      2  C1  UNL d   1      -0.407   0.208   2.162  0.00  0.00     0.003 A 
ATOM      3  C2  UNL d   1      -1.595   0.005   2.867  0.00  0.00     0.048 A 
ATOM      4  C3  UNL d   1      -2.550   1.021   2.920  0.00  0.00     0.023 A 
ATOM      5  C4  UNL d   1      -2.324   2.237   2.273  0.00  0.00     0.048 A 
ATOM      6  C5  UNL d   1      -1.134   2.436   1.571  0.00  0.00     0.003 A 
ATOM      7  I   UNL d   1      -4.319   0.721   3.968  0.00  0.00    -0.146 I 
ENDROOT
TORSDOF 0
ENDMDL
