MODEL 1
REMARK minimizedAffinity 5.41084909
REMARK minimizedRMSD -1
REMARK  0 active torsions:
REMARK  status: ('A' for Active; 'I' for Inactive)
ROOT
ATOM      1  C   UNL d   1      -4.369  -1.173  -1.047  0.00  0.00     0.023 A 
ATOM      2  C1  UNL d   1      -4.155  -2.528  -1.301  0.00  0.00     0.003 A 
ATOM      3  C2  UNL d   1      -3.776  -2.949  -2.577  0.00  0.00     0.048 A 
ATOM      4  C3  UNL d   1      -3.611  -2.009  -3.594  0.00  0.00     0.023 A 
ATOM      5  C4  UNL d   1      -3.823  -0.652  -3.344  0.00  0.00     0.048 A 
ATOM      6  C5  UNL d   1      -4.203  -0.237  -2.067  0.00  0.00     0.003 A 
ATOM      7  I   UNL d   1      -3.046  -2.633  -5.495  0.00  0.00    -0.146 I 
ENDROOT
TORSDOF 0
ENDMDL
