MODEL 1
REMARK minimizedAffinity 3.72455096
REMARK minimizedRMSD -1
REMARK  0 active torsions:
REMARK  status: ('A' for Active; 'I' for Inactive)
ROOT
ATOM      1  C   UNL d   1       1.192   0.184   0.675  0.00  0.00     0.023 A 
ATOM      2  C1  UNL d   1       0.067  -0.601   0.926  0.00  0.00     0.003 A 
ATOM      3  C2  UNL d   1      -1.093  -0.018   1.439  0.00  0.00     0.048 A 
ATOM      4  C3  UNL d   1      -1.122   1.352   1.697  0.00  0.00     0.023 A 
ATOM      5  C4  UNL d   1       0.001   2.142   1.447  0.00  0.00     0.048 A 
ATOM      6  C5  UNL d   1       1.159   1.554   0.935  0.00  0.00     0.003 A 
ATOM      7  I   UNL d   1      -2.848   2.223   2.460  0.00  0.00    -0.146 I 
ENDROOT
TORSDOF 0
ENDMDL
