MODEL 1
REMARK minimizedAffinity 7.16218901
REMARK minimizedRMSD -1
REMARK  0 active torsions:
REMARK  status: ('A' for Active; 'I' for Inactive)
ROOT
ATOM      1  C   UNL d   1      -4.677   1.534   4.293  0.00  0.00     0.023 A 
ATOM      2  C1  UNL d   1      -5.212   1.711   5.569  0.00  0.00     0.003 A 
ATOM      3  C2  UNL d   1      -5.590   2.985   5.999  0.00  0.00     0.048 A 
ATOM      4  C3  UNL d   1      -5.431   4.077   5.147  0.00  0.00     0.023 A 
ATOM      5  C4  UNL d   1      -4.898   3.905   3.868  0.00  0.00     0.048 A 
ATOM      6  C5  UNL d   1      -4.520   2.630   3.443  0.00  0.00     0.003 A 
ATOM      7  I   UNL d   1      -5.993   5.974   5.784  0.00  0.00    -0.146 I 
ENDROOT
TORSDOF 0
ENDMDL
