MODEL 1
REMARK minimizedAffinity -1.54814315
REMARK minimizedRMSD -1
REMARK  0 active torsions:
REMARK  status: ('A' for Active; 'I' for Inactive)
ROOT
ATOM      1  C   UNL d   1       0.070   0.715   1.374  0.00  0.00     0.023 A 
ATOM      2  C1  UNL d   1      -0.229   2.019   1.770  0.00  0.00     0.003 A 
ATOM      3  C2  UNL d   1      -1.364   2.273   2.542  0.00  0.00     0.048 A 
ATOM      4  C3  UNL d   1      -2.195   1.218   2.917  0.00  0.00     0.023 A 
ATOM      5  C4  UNL d   1      -1.900  -0.089   2.524  0.00  0.00     0.048 A 
ATOM      6  C5  UNL d   1      -0.765  -0.337   1.751  0.00  0.00     0.003 A 
ATOM      7  I   UNL d   1      -3.885   1.593   4.068  0.00  0.00    -0.146 I 
ENDROOT
TORSDOF 0
ENDMDL
