MODEL 1
REMARK minimizedAffinity 0.224950984
REMARK minimizedRMSD -1
REMARK  0 active torsions:
REMARK  status: ('A' for Active; 'I' for Inactive)
ROOT
ATOM      1  C   UNL d   1       1.058   0.482   0.524  0.00  0.00     0.023 A 
ATOM      2  C1  UNL d   1       0.986   1.787   1.010  0.00  0.00     0.003 A 
ATOM      3  C2  UNL d   1      -0.128   2.202   1.742  0.00  0.00     0.048 A 
ATOM      4  C3  UNL d   1      -1.168   1.305   1.985  0.00  0.00     0.023 A 
ATOM      5  C4  UNL d   1      -1.101  -0.003   1.501  0.00  0.00     0.048 A 
ATOM      6  C5  UNL d   1       0.015  -0.412   0.770  0.00  0.00     0.003 A 
ATOM      7  I   UNL d   1      -2.828   1.919   3.074  0.00  0.00    -0.146 I 
ENDROOT
TORSDOF 0
ENDMDL
