MODEL 1
REMARK minimizedAffinity 0.337085813
REMARK minimizedRMSD -1
REMARK  0 active torsions:
REMARK  status: ('A' for Active; 'I' for Inactive)
ROOT
ATOM      1  C   UNL d   1      -3.413   1.239   2.841  0.00  0.00     0.023 A 
ATOM      2  C1  UNL d   1      -2.916  -0.018   2.496  0.00  0.00     0.003 A 
ATOM      3  C2  UNL d   1      -1.630  -0.140   1.965  0.00  0.00     0.048 A 
ATOM      4  C3  UNL d   1      -0.846   0.999   1.783  0.00  0.00     0.023 A 
ATOM      5  C4  UNL d   1      -1.339   2.259   2.128  0.00  0.00     0.048 A 
ATOM      6  C5  UNL d   1      -2.625   2.376   2.658  0.00  0.00     0.003 A 
ATOM      7  I   UNL d   1       1.068   0.820   0.992  0.00  0.00    -0.146 I 
ENDROOT
TORSDOF 0
ENDMDL
