MODEL 1
REMARK minimizedAffinity 1.47772491
REMARK minimizedRMSD -1
REMARK  0 active torsions:
REMARK  status: ('A' for Active; 'I' for Inactive)
ROOT
ATOM      1  C   UNL d   1      -1.289   0.909   0.781  0.00  0.00     0.023 A 
ATOM      2  C1  UNL d   1      -0.302   1.878   0.960  0.00  0.00     0.003 A 
ATOM      3  C2  UNL d   1       0.953   1.517   1.453  0.00  0.00     0.048 A 
ATOM      4  C3  UNL d   1       1.216   0.183   1.764  0.00  0.00     0.023 A 
ATOM      5  C4  UNL d   1       0.232  -0.791   1.586  0.00  0.00     0.048 A 
ATOM      6  C5  UNL d   1      -1.022  -0.424   1.094  0.00  0.00     0.003 A 
ATOM      7  I   UNL d   1       3.083  -0.358   2.498  0.00  0.00    -0.146 I 
ENDROOT
TORSDOF 0
ENDMDL
