MODEL 1
REMARK minimizedAffinity 6.73641491
REMARK minimizedRMSD -1
REMARK  0 active torsions:
REMARK  status: ('A' for Active; 'I' for Inactive)
ROOT
ATOM      1  C   UNL d   1       0.895   1.806   1.358  0.00  0.00     0.023 A 
ATOM      2  C1  UNL d   1      -0.464   2.114   1.424  0.00  0.00     0.003 A 
ATOM      3  C2  UNL d   1      -1.368   1.184   1.942  0.00  0.00     0.048 A 
ATOM      4  C3  UNL d   1      -0.906  -0.051   2.393  0.00  0.00     0.023 A 
ATOM      5  C4  UNL d   1       0.453  -0.363   2.331  0.00  0.00     0.048 A 
ATOM      6  C5  UNL d   1       1.353   0.569   1.811  0.00  0.00     0.003 A 
ATOM      7  I   UNL d   1      -2.249  -1.437   3.165  0.00  0.00    -0.146 I 
ENDROOT
TORSDOF 0
ENDMDL
