MODEL 1
REMARK minimizedAffinity 6.29871655
REMARK minimizedRMSD -1
REMARK  0 active torsions:
REMARK  status: ('A' for Active; 'I' for Inactive)
ROOT
ATOM      1  C   UNL d   1      -2.253   1.696   2.179  0.00  0.00     0.023 A 
ATOM      2  C1  UNL d   1      -1.199   2.531   1.804  0.00  0.00     0.003 A 
ATOM      3  C2  UNL d   1       0.043   1.985   1.478  0.00  0.00     0.048 A 
ATOM      4  C3  UNL d   1       0.226   0.603   1.527  0.00  0.00     0.023 A 
ATOM      5  C4  UNL d   1      -0.825  -0.236   1.900  0.00  0.00     0.048 A 
ATOM      6  C5  UNL d   1      -2.066   0.315   2.227  0.00  0.00     0.003 A 
ATOM      7  I   UNL d   1       2.075  -0.212   1.040  0.00  0.00    -0.146 I 
ENDROOT
TORSDOF 0
ENDMDL
