MODEL 1
REMARK minimizedAffinity 6.29588318
REMARK minimizedRMSD -1
REMARK  0 active torsions:
REMARK  status: ('A' for Active; 'I' for Inactive)
ROOT
ATOM      1  C   UNL d   1       1.382  -0.223   1.466  0.00  0.00     0.023 A 
ATOM      2  C1  UNL d   1       0.146  -0.689   1.914  0.00  0.00     0.003 A 
ATOM      3  C2  UNL d   1      -0.958   0.165   1.936  0.00  0.00     0.048 A 
ATOM      4  C3  UNL d   1      -0.819   1.485   1.507  0.00  0.00     0.023 A 
ATOM      5  C4  UNL d   1       0.415   1.956   1.057  0.00  0.00     0.048 A 
ATOM      6  C5  UNL d   1       1.516   1.097   1.038  0.00  0.00     0.003 A 
ATOM      7  I   UNL d   1      -2.461   2.759   1.538  0.00  0.00    -0.146 I 
ENDROOT
TORSDOF 0
ENDMDL
