MODEL 1
REMARK minimizedAffinity -1.10233665
REMARK minimizedRMSD -1
REMARK  0 active torsions:
REMARK  status: ('A' for Active; 'I' for Inactive)
ROOT
ATOM      1  C   UNL d   1       0.381   0.251   1.499  0.00  0.00     0.023 A 
ATOM      2  C1  UNL d   1       0.026   1.595   1.616  0.00  0.00     0.003 A 
ATOM      3  C2  UNL d   1      -1.241   1.946   2.085  0.00  0.00     0.048 A 
ATOM      4  C3  UNL d   1      -2.150   0.948   2.435  0.00  0.00     0.023 A 
ATOM      5  C4  UNL d   1      -1.799  -0.398   2.320  0.00  0.00     0.048 A 
ATOM      6  C5  UNL d   1      -0.531  -0.744   1.850  0.00  0.00     0.003 A 
ATOM      7  I   UNL d   1      -4.037   1.468   3.134  0.00  0.00    -0.146 I 
ENDROOT
TORSDOF 0
ENDMDL
