MODEL 1
REMARK minimizedAffinity 1.50196898
REMARK minimizedRMSD -1
REMARK  0 active torsions:
REMARK  status: ('A' for Active; 'I' for Inactive)
ROOT
ATOM      1  C   UNL d   1      -0.082   2.737   1.616  0.00  0.00     0.023 A 
ATOM      2  C1  UNL d   1      -1.331   3.266   1.291  0.00  0.00     0.003 A 
ATOM      3  C2  UNL d   1      -2.448   2.949   2.067  0.00  0.00     0.048 A 
ATOM      4  C3  UNL d   1      -2.308   2.105   3.168  0.00  0.00     0.023 A 
ATOM      5  C4  UNL d   1      -1.059   1.575   3.498  0.00  0.00     0.048 A 
ATOM      6  C5  UNL d   1       0.054   1.893   2.718  0.00  0.00     0.003 A 
ATOM      7  I   UNL d   1      -3.968   1.633   4.326  0.00  0.00    -0.146 I 
ENDROOT
TORSDOF 0
ENDMDL
