MODEL 1
REMARK minimizedAffinity 9.98601818
REMARK minimizedRMSD -1
REMARK  0 active torsions:
REMARK  status: ('A' for Active; 'I' for Inactive)
ROOT
ATOM      1  C1  DEN d   1      -0.576  -3.201  -5.998  0.00  0.00     0.130 A 
ATOM      2  C2  DEN d   1      -1.443  -4.285  -5.546  0.00  0.00    -0.031 A 
ATOM      3  C3  DEN d   1      -1.871  -3.982  -4.166  0.00  0.00     0.027 A 
ATOM      4  C4  DEN d   1      -1.283  -1.947  -2.695  0.00  0.00     0.027 A 
ATOM      5  C5  DEN d   1      -0.571  -0.769  -2.640  0.00  0.00    -0.003 A 
ATOM      6  C6  DEN d   1       0.211  -0.340  -3.680  0.00  0.00     0.001 A 
ATOM      7  C7  DEN d   1       0.263  -1.072  -4.837  0.00  0.00     0.017 A 
ATOM      8  C8  DEN d   1      -0.447  -2.264  -4.897  0.00  0.00    -0.094 A 
ATOM      9  C9  DEN d   1      -1.241  -2.675  -3.839  0.00  0.00    -0.072 A 
ENDROOT
TORSDOF 0
ENDMDL
