MODEL 1
REMARK minimizedAffinity 14.4793739
REMARK minimizedRMSD -1
REMARK  0 active torsions:
REMARK  status: ('A' for Active; 'I' for Inactive)
ROOT
ATOM      1  C1  DEN d   1       3.097   0.875  -5.732  0.00  0.00     0.130 A 
ATOM      2  C2  DEN d   1       4.284   0.067  -6.000  0.00  0.00    -0.031 A 
ATOM      3  C3  DEN d   1       3.957  -1.340  -5.692  0.00  0.00     0.027 A 
ATOM      4  C4  DEN d   1       1.739  -2.340  -4.837  0.00  0.00     0.027 A 
ATOM      5  C5  DEN d   1       0.449  -2.047  -4.452  0.00  0.00    -0.003 A 
ATOM      6  C6  DEN d   1      -0.033  -0.765  -4.434  0.00  0.00     0.001 A 
ATOM      7  C7  DEN d   1       0.765   0.267  -4.851  0.00  0.00     0.017 A 
ATOM      8  C8  DEN d   1       2.069  -0.021  -5.235  0.00  0.00    -0.094 A 
ATOM      9  C9  DEN d   1       2.534  -1.324  -5.258  0.00  0.00    -0.072 A 
ENDROOT
TORSDOF 0
ENDMDL
