MODEL 1
REMARK minimizedAffinity 8.69953251
REMARK minimizedRMSD -1
REMARK  0 active torsions:
REMARK  status: ('A' for Active; 'I' for Inactive)
ROOT
ATOM      1  C1  DEN d   1       0.970   0.452   3.360  0.00  0.00     0.130 A 
ATOM      2  C2  DEN d   1      -0.100   0.164   2.410  0.00  0.00    -0.031 A 
ATOM      3  C3  DEN d   1      -0.416  -1.276   2.501  0.00  0.00     0.027 A 
ATOM      4  C4  DEN d   1       0.640  -3.076   4.016  0.00  0.00     0.027 A 
ATOM      5  C5  DEN d   1       1.593  -3.312   4.982  0.00  0.00    -0.003 A 
ATOM      6  C6  DEN d   1       2.422  -2.326   5.446  0.00  0.00     0.001 A 
ATOM      7  C7  DEN d   1       2.283  -1.046   4.978  0.00  0.00     0.017 A 
ATOM      8  C8  DEN d   1       1.329  -0.801   3.999  0.00  0.00    -0.094 A 
ATOM      9  C9  DEN d   1       0.492  -1.810   3.551  0.00  0.00    -0.072 A 
ENDROOT
TORSDOF 0
ENDMDL
