MODEL 1
REMARK minimizedAffinity 10.2277203
REMARK minimizedRMSD -1
REMARK  0 active torsions:
REMARK  status: ('A' for Active; 'I' for Inactive)
ROOT
ATOM      1  C1  DEN d   1       1.758  -2.289   5.184  0.00  0.00     0.130 A 
ATOM      2  C2  DEN d   1       1.101  -3.589   5.085  0.00  0.00    -0.031 A 
ATOM      3  C3  DEN d   1       0.169  -3.543   3.940  0.00  0.00     0.027 A 
ATOM      4  C4  DEN d   1      -0.314  -1.597   2.318  0.00  0.00     0.027 A 
ATOM      5  C5  DEN d   1      -0.008  -0.290   2.010  0.00  0.00    -0.003 A 
ATOM      6  C6  DEN d   1       0.875   0.447   2.753  0.00  0.00     0.001 A 
ATOM      7  C7  DEN d   1       1.519  -0.132   3.815  0.00  0.00     0.017 A 
ATOM      8  C8  DEN d   1       1.210  -1.447   4.136  0.00  0.00    -0.094 A 
ATOM      9  C9  DEN d   1       0.323  -2.180   3.365  0.00  0.00    -0.072 A 
ENDROOT
TORSDOF 0
ENDMDL
