MODEL 1
REMARK minimizedAffinity 14.3662357
REMARK minimizedRMSD -1
REMARK  0 active torsions:
REMARK  status: ('A' for Active; 'I' for Inactive)
ROOT
ATOM      1  C1  DEN d   1       0.838  -0.627   3.959  0.00  0.00     0.130 A 
ATOM      2  C2  DEN d   1       0.245  -1.022   2.685  0.00  0.00    -0.031 A 
ATOM      3  C3  DEN d   1      -0.660   0.060   2.247  0.00  0.00     0.027 A 
ATOM      4  C4  DEN d   1      -1.192   2.299   3.411  0.00  0.00     0.027 A 
ATOM      5  C5  DEN d   1      -0.940   3.076   4.521  0.00  0.00    -0.003 A 
ATOM      6  C6  DEN d   1      -0.110   2.661   5.529  0.00  0.00     0.001 A 
ATOM      7  C7  DEN d   1       0.532   1.455   5.426  0.00  0.00     0.017 A 
ATOM      8  C8  DEN d   1       0.277   0.664   4.314  0.00  0.00    -0.094 A 
ATOM      9  C9  DEN d   1      -0.555   1.106   3.300  0.00  0.00    -0.072 A 
ENDROOT
TORSDOF 0
ENDMDL
