MODEL 1
REMARK minimizedAffinity 7.60735321
REMARK minimizedRMSD -1
REMARK  0 active torsions:
REMARK  status: ('A' for Active; 'I' for Inactive)
ROOT
ATOM      1  C1  DEN d   1      -1.345  -1.029   2.489  0.00  0.00     0.130 A 
ATOM      2  C2  DEN d   1      -1.552   0.372   2.134  0.00  0.00    -0.031 A 
ATOM      3  C3  DEN d   1      -0.348   1.127   2.536  0.00  0.00     0.027 A 
ATOM      4  C4  DEN d   1       1.806   0.265   3.664  0.00  0.00     0.027 A 
ATOM      5  C5  DEN d   1       2.440  -0.848   4.170  0.00  0.00    -0.003 A 
ATOM      6  C6  DEN d   1       1.848  -2.083   4.182  0.00  0.00     0.001 A 
ATOM      7  C7  DEN d   1       0.601  -2.244   3.637  0.00  0.00     0.017 A 
ATOM      8  C8  DEN d   1      -0.047  -1.124   3.132  0.00  0.00    -0.094 A 
ATOM      9  C9  DEN d   1       0.573   0.113   3.117  0.00  0.00    -0.072 A 
ENDROOT
TORSDOF 0
ENDMDL
