MODEL 1
REMARK minimizedAffinity 6.88841486
REMARK minimizedRMSD -1
REMARK  0 active torsions:
REMARK  status: ('A' for Active; 'I' for Inactive)
ROOT
ATOM      1  N1  IND d   1      -1.461  -1.941   3.841  0.00  0.00    -0.196 N 
ATOM      2  C2  IND d   1      -2.712  -1.724   4.348  0.00  0.00     0.054 A 
ATOM      3  C3  IND d   1      -3.028  -0.411   4.275  0.00  0.00    -0.031 A 
ATOM      4  C4  IND d   1      -1.685   1.541   3.269  0.00  0.00     0.051 A 
ATOM      5  C5  IND d   1      -0.471   1.843   2.720  0.00  0.00    -0.031 A 
ATOM      6  C6  IND d   1       0.494   0.879   2.509  0.00  0.00     0.015 A 
ATOM      7  C7  IND d   1       0.275  -0.430   2.831  0.00  0.00    -0.016 A 
ATOM      8  C8  IND d   1      -0.954  -0.739   3.396  0.00  0.00    -0.047 A 
ATOM      9  C9  IND d   1      -1.921   0.242   3.651  0.00  0.00    -0.096 A 
ATOM     10  HN1 IND d   1      -1.058  -2.699   3.807  0.00  0.00     0.298 HD
ENDROOT
TORSDOF 0
ENDMDL
