MODEL 1
REMARK minimizedAffinity 5.29669523
REMARK minimizedRMSD -1
REMARK  0 active torsions:
REMARK  status: ('A' for Active; 'I' for Inactive)
ROOT
ATOM      1  N1  IND d   1       2.122  -0.832   2.118  0.00  0.00    -0.196 N 
ATOM      2  C2  IND d   1       3.177  -0.157   2.666  0.00  0.00     0.054 A 
ATOM      3  C3  IND d   1       2.757   1.004   3.218  0.00  0.00    -0.031 A 
ATOM      4  C4  IND d   1       0.370   1.945   3.428  0.00  0.00     0.051 A 
ATOM      5  C5  IND d   1      -0.920   1.705   3.048  0.00  0.00    -0.031 A 
ATOM      6  C6  IND d   1      -1.270   0.582   2.326  0.00  0.00     0.015 A 
ATOM      7  C7  IND d   1      -0.340  -0.352   1.965  0.00  0.00    -0.016 A 
ATOM      8  C8  IND d   1       0.973  -0.107   2.344  0.00  0.00    -0.047 A 
ATOM      9  C9  IND d   1       1.340   1.052   3.040  0.00  0.00    -0.096 A 
ATOM     10  HN1 IND d   1       2.169  -1.583   1.701  0.00  0.00     0.298 HD
ENDROOT
TORSDOF 0
ENDMDL
