MODEL 1
REMARK minimizedAffinity 17.6563148
REMARK minimizedRMSD -1
REMARK  0 active torsions:
REMARK  status: ('A' for Active; 'I' for Inactive)
ROOT
ATOM      1  N1  IND d   1       1.084  -2.046   3.201  0.00  0.00    -0.196 N 
ATOM      2  C2  IND d   1       2.183  -1.643   3.908  0.00  0.00     0.054 A 
ATOM      3  C3  IND d   1       2.237  -0.293   3.963  0.00  0.00    -0.031 A 
ATOM      4  C4  IND d   1       0.576   1.449   3.051  0.00  0.00     0.051 A 
ATOM      5  C5  IND d   1      -0.561   1.565   2.302  0.00  0.00    -0.031 A 
ATOM      6  C6  IND d   1      -1.222   0.460   1.806  0.00  0.00     0.015 A 
ATOM      7  C7  IND d   1      -0.776  -0.807   2.051  0.00  0.00    -0.016 A 
ATOM      8  C8  IND d   1       0.382  -0.928   2.806  0.00  0.00    -0.047 A 
ATOM      9  C9  IND d   1       1.082   0.191   3.277  0.00  0.00    -0.096 A 
ATOM     10  HN1 IND d   1       0.868  -2.861   3.031  0.00  0.00     0.298 HD
ENDROOT
TORSDOF 0
ENDMDL
