MODEL 1
REMARK minimizedAffinity 9.68867588
REMARK minimizedRMSD -1
REMARK  0 active torsions:
REMARK  status: ('A' for Active; 'I' for Inactive)
ROOT
ATOM      1  N1  IND d   1       0.588  -2.542   4.554  0.00  0.00    -0.196 N 
ATOM      2  C2  IND d   1       1.898  -2.610   4.938  0.00  0.00     0.054 A 
ATOM      3  C3  IND d   1       2.572  -1.520   4.506  0.00  0.00    -0.031 A 
ATOM      4  C4  IND d   1       1.702   0.546   3.242  0.00  0.00     0.051 A 
ATOM      5  C5  IND d   1       0.582   1.049   2.640  0.00  0.00    -0.031 A 
ATOM      6  C6  IND d   1      -0.618   0.367   2.648  0.00  0.00     0.015 A 
ATOM      7  C7  IND d   1      -0.746  -0.842   3.271  0.00  0.00    -0.016 A 
ATOM      8  C8  IND d   1       0.390  -1.358   3.877  0.00  0.00    -0.047 A 
ATOM      9  C9  IND d   1       1.622  -0.691   3.835  0.00  0.00    -0.096 A 
ATOM     10  HN1 IND d   1      -0.012  -3.137   4.710  0.00  0.00     0.298 HD
ENDROOT
TORSDOF 0
ENDMDL
