MODEL 1
REMARK minimizedAffinity 6.08253908
REMARK minimizedRMSD -1
REMARK  0 active torsions:
REMARK  status: ('A' for Active; 'I' for Inactive)
ROOT
ATOM      1  N1  IND d   1       1.439  -0.647   1.178  0.00  0.00    -0.196 N 
ATOM      2  C2  IND d   1       2.685  -0.093   1.273  0.00  0.00     0.054 A 
ATOM      3  C3  IND d   1       2.653   1.007   2.058  0.00  0.00    -0.031 A 
ATOM      4  C4  IND d   1       0.684   2.023   3.370  0.00  0.00     0.051 A 
ATOM      5  C5  IND d   1      -0.662   1.890   3.567  0.00  0.00    -0.031 A 
ATOM      6  C6  IND d   1      -1.390   0.882   2.968  0.00  0.00     0.015 A 
ATOM      7  C7  IND d   1      -0.795  -0.040   2.155  0.00  0.00    -0.016 A 
ATOM      8  C8  IND d   1       0.570   0.096   1.947  0.00  0.00    -0.047 A 
ATOM      9  C9  IND d   1       1.307   1.141   2.518  0.00  0.00    -0.096 A 
ATOM     10  HN1 IND d   1       1.233  -1.341   0.716  0.00  0.00     0.298 HD
ENDROOT
TORSDOF 0
ENDMDL
