MODEL 1
REMARK minimizedAffinity 9.97329426
REMARK minimizedRMSD -1
REMARK  0 active torsions:
REMARK  status: ('A' for Active; 'I' for Inactive)
ROOT
ATOM      1  N1  IND d   1       1.174  -0.800   1.321  0.00  0.00    -0.196 N 
ATOM      2  C2  IND d   1       2.423  -0.247   1.269  0.00  0.00     0.054 A 
ATOM      3  C3  IND d   1       2.467   0.886   2.006  0.00  0.00    -0.031 A 
ATOM      4  C4  IND d   1       0.638   1.962   3.462  0.00  0.00     0.051 A 
ATOM      5  C5  IND d   1      -0.681   1.842   3.797  0.00  0.00    -0.031 A 
ATOM      6  C6  IND d   1      -1.465   0.813   3.317  0.00  0.00     0.015 A 
ATOM      7  C7  IND d   1      -0.953  -0.145   2.488  0.00  0.00    -0.016 A 
ATOM      8  C8  IND d   1       0.384  -0.022   2.140  0.00  0.00    -0.047 A 
ATOM      9  C9  IND d   1       1.174   1.044   2.590  0.00  0.00    -0.096 A 
ATOM     10  HN1 IND d   1       0.923  -1.513   0.911  0.00  0.00     0.298 HD
ENDROOT
TORSDOF 0
ENDMDL
