MODEL 1
REMARK minimizedAffinity 9.80150509
REMARK minimizedRMSD -1
REMARK  0 active torsions:
REMARK  status: ('A' for Active; 'I' for Inactive)
ROOT
ATOM      1  N1  IND d   1       2.691  -0.556   2.804  0.00  0.00    -0.196 N 
ATOM      2  C2  IND d   1       1.410  -0.141   3.041  0.00  0.00     0.054 A 
ATOM      3  C3  IND d   1       0.839   0.298   1.896  0.00  0.00    -0.031 A 
ATOM      4  C4  IND d   1       1.787   0.330  -0.497  0.00  0.00     0.051 A 
ATOM      5  C5  IND d   1       2.929   0.085  -1.206  0.00  0.00    -0.031 A 
ATOM      6  C6  IND d   1       4.073  -0.398  -0.604  0.00  0.00     0.015 A 
ATOM      7  C7  IND d   1       4.113  -0.667   0.735  0.00  0.00    -0.016 A 
ATOM      8  C8  IND d   1       2.957  -0.413   1.460  0.00  0.00    -0.047 A 
ATOM      9  C9  IND d   1       1.808   0.118   0.861  0.00  0.00    -0.096 A 
ATOM     10  HN1 IND d   1       3.239  -0.856   3.395  0.00  0.00     0.298 HD
ENDROOT
TORSDOF 0
ENDMDL
