MODEL 1
REMARK minimizedAffinity 4.94895744
REMARK minimizedRMSD -1
REMARK  0 active torsions:
REMARK  status: ('A' for Active; 'I' for Inactive)
ROOT
ATOM      1  N1  IND d   1      -0.970  -3.720  -2.415  0.00  0.00    -0.196 N 
ATOM      2  C2  IND d   1      -0.651  -4.995  -2.792  0.00  0.00     0.054 A 
ATOM      3  C3  IND d   1      -0.037  -4.989  -3.997  0.00  0.00    -0.031 A 
ATOM      4  C4  IND d   1       0.636  -2.994  -5.479  0.00  0.00     0.051 A 
ATOM      5  C5  IND d   1       0.524  -1.636  -5.573  0.00  0.00    -0.031 A 
ATOM      6  C6  IND d   1      -0.102  -0.887  -4.597  0.00  0.00     0.015 A 
ATOM      7  C7  IND d   1      -0.632  -1.470  -3.482  0.00  0.00    -0.016 A 
ATOM      8  C8  IND d   1      -0.526  -2.851  -3.387  0.00  0.00    -0.047 A 
ATOM      9  C9  IND d   1       0.071  -3.620  -4.393  0.00  0.00    -0.096 A 
ATOM     10  HN1 IND d   1      -1.380  -3.499  -1.692  0.00  0.00     0.298 HD
ENDROOT
TORSDOF 0
ENDMDL
