MODEL 1
REMARK minimizedAffinity 17.5501213
REMARK minimizedRMSD -1
REMARK  0 active torsions:
REMARK  status: ('A' for Active; 'I' for Inactive)
ROOT
ATOM      1  N1  IND d   1      -1.166  -4.389  -1.105  0.00  0.00    -0.196 N 
ATOM      2  C2  IND d   1      -1.660  -3.119  -0.993  0.00  0.00     0.054 A 
ATOM      3  C3  IND d   1      -1.977  -2.629  -2.212  0.00  0.00    -0.031 A 
ATOM      4  C4  IND d   1      -1.863  -3.773  -4.516  0.00  0.00     0.051 A 
ATOM      5  C5  IND d   1      -1.444  -4.921  -5.129  0.00  0.00    -0.031 A 
ATOM      6  C6  IND d   1      -0.903  -5.972  -4.417  0.00  0.00     0.015 A 
ATOM      7  C7  IND d   1      -0.770  -5.919  -3.059  0.00  0.00    -0.016 A 
ATOM      8  C8  IND d   1      -1.188  -4.753  -2.433  0.00  0.00    -0.047 A 
ATOM      9  C9  IND d   1      -1.699  -3.666  -3.155  0.00  0.00    -0.096 A 
ATOM     10  HN1 IND d   1      -0.889  -4.879  -0.454  0.00  0.00     0.298 HD
ENDROOT
TORSDOF 0
ENDMDL
