MODEL 1
REMARK minimizedAffinity 17.7625275
REMARK minimizedRMSD -1
REMARK  0 active torsions:
REMARK  status: ('A' for Active; 'I' for Inactive)
ROOT
ATOM      1  N1  IND d   1       2.945   2.414   0.904  0.00  0.00    -0.196 N 
ATOM      2  C2  IND d   1       2.433   2.950  -0.245  0.00  0.00     0.054 A 
ATOM      3  C3  IND d   1       1.825   1.993  -0.981  0.00  0.00    -0.031 A 
ATOM      4  C4  IND d   1       1.463  -0.499  -0.445  0.00  0.00     0.051 A 
ATOM      5  C5  IND d   1       1.783  -1.461   0.472  0.00  0.00    -0.031 A 
ATOM      6  C6  IND d   1       2.519  -1.174   1.603  0.00  0.00     0.015 A 
ATOM      7  C7  IND d   1       2.955   0.093   1.867  0.00  0.00    -0.016 A 
ATOM      8  C8  IND d   1       2.638   1.071   0.935  0.00  0.00    -0.047 A 
ATOM      9  C9  IND d   1       1.928   0.778  -0.236  0.00  0.00    -0.096 A 
ATOM     10  HN1 IND d   1       3.385   2.843   1.505  0.00  0.00     0.298 HD
ENDROOT
TORSDOF 0
ENDMDL
