MODEL 1
REMARK minimizedAffinity 11.846776
REMARK minimizedRMSD -1
REMARK  0 active torsions:
REMARK  status: ('A' for Active; 'I' for Inactive)
ROOT
ATOM      1  N1  IND d   1       0.794  -0.904   0.623  0.00  0.00    -0.196 N 
ATOM      2  C2  IND d   1       2.025  -0.507   1.067  0.00  0.00     0.054 A 
ATOM      3  C3  IND d   1       1.896   0.414   2.048  0.00  0.00    -0.031 A 
ATOM      4  C4  IND d   1      -0.237   1.341   3.152  0.00  0.00     0.051 A 
ATOM      5  C5  IND d   1      -1.600   1.306   3.060  0.00  0.00    -0.031 A 
ATOM      6  C6  IND d   1      -2.248   0.514   2.134  0.00  0.00     0.015 A 
ATOM      7  C7  IND d   1      -1.554  -0.284   1.269  0.00  0.00    -0.016 A 
ATOM      8  C8  IND d   1      -0.169  -0.246   1.355  0.00  0.00    -0.047 A 
ATOM      9  C9  IND d   1       0.495   0.588   2.264  0.00  0.00    -0.096 A 
ATOM     10  HN1 IND d   1       0.646  -1.470  -0.007  0.00  0.00     0.298 HD
ENDROOT
TORSDOF 0
ENDMDL
