MODEL 1
REMARK minimizedAffinity -3.99034333
REMARK minimizedRMSD -1
REMARK  2 active torsions:
REMARK  status: ('A' for Active; 'I' for Inactive)
REMARK    1  A    between atoms: C1_2  and  C2_3 
REMARK    2  A    between atoms: C2_3  and  C3_4 
ROOT
ATOM      1  C3  UNL d   1      -3.525   2.308   3.490  0.00  0.00    -0.075 A 
ATOM      2  C4  UNL d   1      -2.684   1.225   3.784  0.00  0.00     0.002 A 
ATOM      3  C5  UNL d   1      -2.716   0.070   3.002  0.00  0.00     0.002 A 
ATOM      4  C6  UNL d   1      -3.594  -0.021   1.925  0.00  0.00    -0.004 A 
ATOM      5  C7  UNL d   1      -4.446   1.042   1.633  0.00  0.00     0.002 A 
ATOM      6  C8  UNL d   1      -4.413   2.201   2.411  0.00  0.00     0.002 A 
ENDROOT
BRANCH   1   7
ATOM      7  C2  UNL d   1      -3.475   3.572   4.314  0.00  0.00     0.056 C 
BRANCH   7   8
ATOM      8  C1  UNL d   1      -2.640   3.450   5.593  0.00  0.00     0.007 C 
ATOM      9  C   UNL d   1      -1.924   4.740   5.969  0.00  0.00     0.009 C 
ENDBRANCH   7   8
ENDBRANCH   1   7
TORSDOF 2
ENDMDL
