MODEL 1
REMARK minimizedAffinity -4.95791769
REMARK minimizedRMSD -1
REMARK  2 active torsions:
REMARK  status: ('A' for Active; 'I' for Inactive)
REMARK    1  A    between atoms: C1_2  and  C2_3 
REMARK    2  A    between atoms: C2_3  and  C3_4 
ROOT
ATOM      1  C3  UNL d   1       1.257   1.429  -1.070  0.00  0.00    -0.075 A 
ATOM      2  C4  UNL d   1       1.552   1.046  -2.387  0.00  0.00     0.002 A 
ATOM      3  C5  UNL d   1       0.891  -0.032  -2.976  0.00  0.00     0.002 A 
ATOM      4  C6  UNL d   1      -0.063  -0.747  -2.255  0.00  0.00    -0.004 A 
ATOM      5  C7  UNL d   1      -0.352  -0.386  -0.941  0.00  0.00     0.002 A 
ATOM      6  C8  UNL d   1       0.304   0.695  -0.350  0.00  0.00     0.002 A 
ENDROOT
BRANCH   1   7
ATOM      7  C2  UNL d   1       1.947   2.613  -0.437  0.00  0.00     0.056 C 
BRANCH   7   8
ATOM      8  C1  UNL d   1       1.935   2.596   1.095  0.00  0.00     0.007 C 
ATOM      9  C   UNL d   1       2.182   3.966   1.713  0.00  0.00     0.009 C 
ENDBRANCH   7   8
ENDBRANCH   1   7
TORSDOF 2
ENDMDL
