MODEL 1
REMARK minimizedAffinity -1.96155572
REMARK minimizedRMSD -1
REMARK  2 active torsions:
REMARK  status: ('A' for Active; 'I' for Inactive)
REMARK    1  A    between atoms: C1_2  and  C2_3 
REMARK    2  A    between atoms: C2_3  and  C3_4 
ROOT
ATOM      1  C3  UNL d   1       0.006   0.374   0.361  0.00  0.00    -0.075 A 
ATOM      2  C4  UNL d   1      -0.195  -0.694  -0.526  0.00  0.00     0.002 A 
ATOM      3  C5  UNL d   1       0.707  -0.933  -1.563  0.00  0.00     0.002 A 
ATOM      4  C6  UNL d   1       1.813  -0.104  -1.733  0.00  0.00    -0.004 A 
ATOM      5  C7  UNL d   1       2.013   0.970  -0.869  0.00  0.00     0.002 A 
ATOM      6  C8  UNL d   1       1.115   1.209   0.173  0.00  0.00     0.002 A 
ENDROOT
BRANCH   1   7
ATOM      7  C2  UNL d   1      -0.950   0.620   1.503  0.00  0.00     0.056 C 
BRANCH   7   8
ATOM      8  C1  UNL d   1      -2.426   0.637   1.089  0.00  0.00     0.007 C 
ATOM      9  C   UNL d   1      -3.343   1.210   2.161  0.00  0.00     0.009 C 
ENDBRANCH   7   8
ENDBRANCH   1   7
TORSDOF 2
ENDMDL
