MODEL 1
REMARK minimizedAffinity -2.92073655
REMARK minimizedRMSD -1
REMARK  2 active torsions:
REMARK  status: ('A' for Active; 'I' for Inactive)
REMARK    1  A    between atoms: C1_2  and  C2_3 
REMARK    2  A    between atoms: C2_3  and  C3_4 
ROOT
ATOM      1  C3  UNL d   1      -1.157  -0.047   0.598  0.00  0.00    -0.075 A 
ATOM      2  C4  UNL d   1      -2.475  -0.316   0.200  0.00  0.00     0.002 A 
ATOM      3  C5  UNL d   1      -3.552   0.153   0.954  0.00  0.00     0.002 A 
ATOM      4  C6  UNL d   1      -3.326   0.884   2.118  0.00  0.00    -0.004 A 
ATOM      5  C7  UNL d   1      -2.021   1.142   2.532  0.00  0.00     0.002 A 
ATOM      6  C8  UNL d   1      -0.942   0.679   1.777  0.00  0.00     0.002 A 
ENDROOT
BRANCH   1   7
ATOM      7  C2  UNL d   1       0.012  -0.526  -0.228  0.00  0.00     0.056 C 
BRANCH   7   8
ATOM      8  C1  UNL d   1       0.695   0.579  -1.041  0.00  0.00     0.007 C 
ATOM      9  C   UNL d   1       1.883   0.080  -1.853  0.00  0.00     0.009 C 
ENDBRANCH   7   8
ENDBRANCH   1   7
TORSDOF 2
ENDMDL
