MODEL 1
REMARK minimizedAffinity -4.64648819
REMARK minimizedRMSD -1
REMARK  2 active torsions:
REMARK  status: ('A' for Active; 'I' for Inactive)
REMARK    1  A    between atoms: C1_2  and  C2_3 
REMARK    2  A    between atoms: C2_3  and  C3_4 
ROOT
ATOM      1  C3  UNL d   1       0.180   0.658  -0.014  0.00  0.00    -0.075 A 
ATOM      2  C4  UNL d   1      -0.046   0.032   1.220  0.00  0.00     0.002 A 
ATOM      3  C5  UNL d   1      -0.070  -1.360   1.315  0.00  0.00     0.002 A 
ATOM      4  C6  UNL d   1       0.122  -2.142   0.177  0.00  0.00    -0.004 A 
ATOM      5  C7  UNL d   1       0.331  -1.530  -1.057  0.00  0.00     0.002 A 
ATOM      6  C8  UNL d   1       0.359  -0.138  -1.153  0.00  0.00     0.002 A 
ENDROOT
BRANCH   1   7
ATOM      7  C2  UNL d   1       0.236   2.163  -0.118  0.00  0.00     0.056 C 
BRANCH   7   8
ATOM      8  C1  UNL d   1       1.653   2.741  -0.041  0.00  0.00     0.007 C 
ATOM      9  C   UNL d   1       1.677   4.236   0.250  0.00  0.00     0.009 C 
ENDBRANCH   7   8
ENDBRANCH   1   7
TORSDOF 2
ENDMDL
