MODEL 1
REMARK minimizedAffinity -4.62625885
REMARK minimizedRMSD -1
REMARK  2 active torsions:
REMARK  status: ('A' for Active; 'I' for Inactive)
REMARK    1  A    between atoms: C1_2  and  C2_3 
REMARK    2  A    between atoms: C2_3  and  C3_4 
ROOT
ATOM      1  C3  UNL d   1       0.128   0.401   0.266  0.00  0.00    -0.075 A 
ATOM      2  C4  UNL d   1       0.743   1.574  -0.195  0.00  0.00     0.002 A 
ATOM      3  C5  UNL d   1       1.807   1.510  -1.095  0.00  0.00     0.002 A 
ATOM      4  C6  UNL d   1       2.276   0.275  -1.537  0.00  0.00    -0.004 A 
ATOM      5  C7  UNL d   1       1.683  -0.898  -1.073  0.00  0.00     0.002 A 
ATOM      6  C8  UNL d   1       0.616  -0.837  -0.176  0.00  0.00     0.002 A 
ENDROOT
BRANCH   1   7
ATOM      7  C2  UNL d   1      -1.043   0.464   1.217  0.00  0.00     0.056 C 
BRANCH   7   8
ATOM      8  C1  UNL d   1      -2.370   0.002   0.605  0.00  0.00     0.007 C 
ATOM      9  C   UNL d   1      -3.576   0.757   1.146  0.00  0.00     0.009 C 
ENDBRANCH   7   8
ENDBRANCH   1   7
TORSDOF 2
ENDMDL
