MODEL 1
REMARK minimizedAffinity -3.68972659
REMARK minimizedRMSD -1
REMARK  2 active torsions:
REMARK  status: ('A' for Active; 'I' for Inactive)
REMARK    1  A    between atoms: C1_2  and  C2_3 
REMARK    2  A    between atoms: C2_3  and  C3_4 
ROOT
ATOM      1  C3  UNL d   1       0.218   0.369   0.026  0.00  0.00    -0.075 A 
ATOM      2  C4  UNL d   1       0.710  -0.832  -0.506  0.00  0.00     0.002 A 
ATOM      3  C5  UNL d   1       1.697  -0.818  -1.492  0.00  0.00     0.002 A 
ATOM      4  C6  UNL d   1       2.197   0.393  -1.964  0.00  0.00    -0.004 A 
ATOM      5  C7  UNL d   1       1.704   1.592  -1.455  0.00  0.00     0.002 A 
ATOM      6  C8  UNL d   1       0.720   1.582  -0.465  0.00  0.00     0.002 A 
ENDROOT
BRANCH   1   7
ATOM      7  C2  UNL d   1      -0.829   0.360   1.114  0.00  0.00     0.056 C 
BRANCH   7   8
ATOM      8  C1  UNL d   1      -2.270   0.326   0.593  0.00  0.00     0.007 C 
ATOM      9  C   UNL d   1      -3.251   1.065   1.491  0.00  0.00     0.009 C 
ENDBRANCH   7   8
ENDBRANCH   1   7
TORSDOF 2
ENDMDL
