MODEL 1
REMARK minimizedAffinity -4.82737446
REMARK minimizedRMSD -1
REMARK  2 active torsions:
REMARK  status: ('A' for Active; 'I' for Inactive)
REMARK    1  A    between atoms: C1_2  and  C2_3 
REMARK    2  A    between atoms: C2_3  and  C3_4 
ROOT
ATOM      1  C3  UNL d   1      -0.527  -0.181   0.495  0.00  0.00    -0.075 A 
ATOM      2  C4  UNL d   1      -0.543  -0.271   1.895  0.00  0.00     0.002 A 
ATOM      3  C5  UNL d   1      -1.694   0.058   2.612  0.00  0.00     0.002 A 
ATOM      4  C6  UNL d   1      -2.837   0.489   1.943  0.00  0.00    -0.004 A 
ATOM      5  C7  UNL d   1      -2.827   0.597   0.554  0.00  0.00     0.002 A 
ATOM      6  C8  UNL d   1      -1.679   0.265  -0.167  0.00  0.00     0.002 A 
ENDROOT
BRANCH   1   7
ATOM      7  C2  UNL d   1       0.705  -0.563  -0.290  0.00  0.00     0.056 C 
BRANCH   7   8
ATOM      8  C1  UNL d   1       1.447   0.628  -0.905  0.00  0.00     0.007 C 
ATOM      9  C   UNL d   1       2.245   0.261  -2.149  0.00  0.00     0.009 C 
ENDBRANCH   7   8
ENDBRANCH   1   7
TORSDOF 2
ENDMDL
