MODEL 1
REMARK minimizedAffinity -3.14351177
REMARK minimizedRMSD -1
REMARK  2 active torsions:
REMARK  status: ('A' for Active; 'I' for Inactive)
REMARK    1  A    between atoms: C1_2  and  C2_3 
REMARK    2  A    between atoms: C2_3  and  C3_4 
ROOT
ATOM      1  C3  UNL d   1      -0.330  -0.074   0.240  0.00  0.00    -0.075 A 
ATOM      2  C4  UNL d   1      -1.566   0.277  -0.322  0.00  0.00     0.002 A 
ATOM      3  C5  UNL d   1      -2.658   0.571   0.495  0.00  0.00     0.002 A 
ATOM      4  C6  UNL d   1      -2.532   0.507   1.881  0.00  0.00    -0.004 A 
ATOM      5  C7  UNL d   1      -1.313   0.144   2.450  0.00  0.00     0.002 A 
ATOM      6  C8  UNL d   1      -0.217  -0.146   1.635  0.00  0.00     0.002 A 
ENDROOT
BRANCH   1   7
ATOM      7  C2  UNL d   1       0.864  -0.364  -0.639  0.00  0.00     0.056 C 
BRANCH   7   8
ATOM      8  C1  UNL d   1       1.939   0.728  -0.611  0.00  0.00     0.007 C 
ATOM      9  C   UNL d   1       1.657   1.873  -1.575  0.00  0.00     0.009 C 
ENDBRANCH   7   8
ENDBRANCH   1   7
TORSDOF 2
ENDMDL
