MODEL 1
REMARK minimizedAffinity -5.41180944
REMARK minimizedRMSD -1
REMARK  2 active torsions:
REMARK  status: ('A' for Active; 'I' for Inactive)
REMARK    1  A    between atoms: C1_2  and  C2_3 
REMARK    2  A    between atoms: C2_3  and  C3_4 
ROOT
ATOM      1  C3  UNL d   1      -1.190   0.087   0.501  0.00  0.00    -0.075 A 
ATOM      2  C4  UNL d   1      -2.430  -0.099  -0.128  0.00  0.00     0.002 A 
ATOM      3  C5  UNL d   1      -3.616   0.015   0.597  0.00  0.00     0.002 A 
ATOM      4  C6  UNL d   1      -3.578   0.304   1.960  0.00  0.00    -0.004 A 
ATOM      5  C7  UNL d   1      -2.352   0.474   2.598  0.00  0.00     0.002 A 
ATOM      6  C8  UNL d   1      -1.163   0.366   1.873  0.00  0.00     0.002 A 
ENDROOT
BRANCH   1   7
ATOM      7  C2  UNL d   1       0.096  -0.005  -0.285  0.00  0.00     0.056 C 
BRANCH   7   8
ATOM      8  C1  UNL d   1       1.039   1.185  -0.081  0.00  0.00     0.007 C 
ATOM      9  C   UNL d   1       1.814   1.560  -1.337  0.00  0.00     0.009 C 
ENDBRANCH   7   8
ENDBRANCH   1   7
TORSDOF 2
ENDMDL
