MODEL 1
REMARK minimizedAffinity -1.9052788
REMARK minimizedRMSD -1
REMARK  1 active torsions:
REMARK  status: ('A' for Active; 'I' for Inactive)
REMARK    1  A    between atoms: C1_2  and  C2_3 
ROOT
ATOM      1  C2  UNL d   1       1.338  -0.131  -0.298  0.00  0.00    -0.081 A 
ATOM      2  C3  UNL d   1       0.190  -0.597  -0.951  0.00  0.00     0.006 A 
ATOM      3  C4  UNL d   1      -0.119  -0.157  -2.240  0.00  0.00     0.002 A 
ATOM      4  C5  UNL d   1       0.717   0.749  -2.901  0.00  0.00    -0.080 A 
ATOM      5  C6  UNL d   1       0.413   1.206  -4.296  0.00  0.00     0.076 C 
ATOM      6  C7  UNL d   1       1.854   1.228  -2.242  0.00  0.00     0.002 A 
ATOM      7  C8  UNL d   1       2.164   0.789  -0.953  0.00  0.00     0.006 A 
ENDROOT
BRANCH   1   8
ATOM      8  C1  UNL d   1       1.709  -0.653   1.066  0.00  0.00     0.054 C 
ATOM      9  C   UNL d   1       3.139  -1.173   1.090  0.00  0.00     0.018 C 
ENDBRANCH   1   8
TORSDOF 1
ENDMDL
