MODEL 1
REMARK minimizedAffinity -5.77751589
REMARK minimizedRMSD -1
REMARK  1 active torsions:
REMARK  status: ('A' for Active; 'I' for Inactive)
REMARK    1  A    between atoms: C1_2  and  C2_3 
ROOT
ATOM      1  C2  UNL d   1      -0.017  -0.272  -0.893  0.00  0.00    -0.081 A 
ATOM      2  C3  UNL d   1      -1.316  -0.008  -0.443  0.00  0.00     0.006 A 
ATOM      3  C4  UNL d   1      -1.530   0.520   0.832  0.00  0.00     0.002 A 
ATOM      4  C5  UNL d   1      -0.449   0.799   1.675  0.00  0.00    -0.080 A 
ATOM      5  C6  UNL d   1      -0.663   1.394   3.035  0.00  0.00     0.076 C 
ATOM      6  C7  UNL d   1       0.848   0.518   1.232  0.00  0.00     0.002 A 
ATOM      7  C8  UNL d   1       1.062  -0.010  -0.043  0.00  0.00     0.006 A 
ENDROOT
BRANCH   1   8
ATOM      8  C1  UNL d   1       0.220  -0.781  -2.292  0.00  0.00     0.054 C 
ATOM      9  C   UNL d   1       0.977   0.239  -3.131  0.00  0.00     0.018 C 
ENDBRANCH   1   8
TORSDOF 1
ENDMDL
