MODEL 1
REMARK minimizedAffinity -1.39156866
REMARK minimizedRMSD -1
REMARK  1 active torsions:
REMARK  status: ('A' for Active; 'I' for Inactive)
REMARK    1  A    between atoms: C1_2  and  C2_3 
ROOT
ATOM      1  C2  UNL d   1      -0.148  -0.224   0.330  0.00  0.00    -0.081 A 
ATOM      2  C3  UNL d   1      -1.084   0.235   1.264  0.00  0.00     0.006 A 
ATOM      3  C4  UNL d   1      -0.779   0.247   2.627  0.00  0.00     0.002 A 
ATOM      4  C5  UNL d   1       0.471  -0.193   3.078  0.00  0.00    -0.080 A 
ATOM      5  C6  UNL d   1       0.823  -0.158   4.536  0.00  0.00     0.076 C 
ATOM      6  C7  UNL d   1       1.400  -0.668   2.147  0.00  0.00     0.002 A 
ATOM      7  C8  UNL d   1       1.095  -0.680   0.784  0.00  0.00     0.006 A 
ENDROOT
BRANCH   1   8
ATOM      8  C1  UNL d   1      -0.450  -0.177  -1.146  0.00  0.00     0.054 C 
ATOM      9  C   UNL d   1       0.616   0.599  -1.905  0.00  0.00     0.018 C 
ENDBRANCH   1   8
TORSDOF 1
ENDMDL
