MODEL 1
REMARK minimizedAffinity -3.5423882
REMARK minimizedRMSD -1
REMARK  1 active torsions:
REMARK  status: ('A' for Active; 'I' for Inactive)
REMARK    1  A    between atoms: C1_2  and  C2_3 
ROOT
ATOM      1  C2  UNL d   1       0.350  -0.762  -0.712  0.00  0.00    -0.081 A 
ATOM      2  C3  UNL d   1      -0.747  -0.171  -0.074  0.00  0.00     0.006 A 
ATOM      3  C4  UNL d   1      -0.788  -0.073   1.319  0.00  0.00     0.002 A 
ATOM      4  C5  UNL d   1       0.270  -0.556   2.096  0.00  0.00    -0.080 A 
ATOM      5  C6  UNL d   1       0.252  -0.430   3.590  0.00  0.00     0.076 C 
ATOM      6  C7  UNL d   1       1.358  -1.163   1.460  0.00  0.00     0.002 A 
ATOM      7  C8  UNL d   1       1.400  -1.262   0.067  0.00  0.00     0.006 A 
ENDROOT
BRANCH   1   8
ATOM      8  C1  UNL d   1       0.427  -0.812  -2.217  0.00  0.00     0.054 C 
ATOM      9  C   UNL d   1       1.070   0.448  -2.779  0.00  0.00     0.018 C 
ENDBRANCH   1   8
TORSDOF 1
ENDMDL
