MODEL 1
REMARK minimizedAffinity -2.67532134
REMARK minimizedRMSD -1
REMARK  0 active torsions:
REMARK  status: ('A' for Active; 'I' for Inactive)
ROOT
ATOM      1  C   UNL d   1      -1.770   0.264   2.826  0.00  0.00     0.077 C 
ATOM      2  C1  UNL d   1      -0.931  -0.164   1.659  0.00  0.00    -0.074 A 
ATOM      3  C2  UNL d   1      -1.480  -0.258   0.376  0.00  0.00    -0.005 A 
ATOM      4  C3  UNL d   1      -0.685  -0.649  -0.702  0.00  0.00     0.006 A 
ATOM      5  C4  UNL d   1       0.664  -0.948  -0.508  0.00  0.00    -0.005 A 
ATOM      6  C5  UNL d   1       1.230  -0.858   0.768  0.00  0.00    -0.074 A 
ATOM      7  C6  UNL d   1       2.681  -1.167   0.992  0.00  0.00     0.077 C 
ATOM      8  C7  UNL d   1       0.427  -0.459   1.844  0.00  0.00    -0.001 A 
ENDROOT
TORSDOF 0
ENDMDL
