MODEL 1
REMARK minimizedAffinity -3.91599679
REMARK minimizedRMSD -1
REMARK  0 active torsions:
REMARK  status: ('A' for Active; 'I' for Inactive)
ROOT
ATOM      1  C   UNL d   1      -0.760   1.813   2.531  0.00  0.00     0.077 C 
ATOM      2  C1  UNL d   1      -0.709   1.027   1.254  0.00  0.00    -0.074 A 
ATOM      3  C2  UNL d   1      -1.759   0.178   0.891  0.00  0.00    -0.005 A 
ATOM      4  C3  UNL d   1      -1.702  -0.539  -0.304  0.00  0.00     0.006 A 
ATOM      5  C4  UNL d   1      -0.596  -0.414  -1.146  0.00  0.00    -0.005 A 
ATOM      6  C5  UNL d   1       0.463   0.431  -0.800  0.00  0.00    -0.074 A 
ATOM      7  C6  UNL d   1       1.654   0.583  -1.698  0.00  0.00     0.077 C 
ATOM      8  C7  UNL d   1       0.395   1.153   0.400  0.00  0.00    -0.001 A 
ENDROOT
TORSDOF 0
ENDMDL
