MODEL 1
REMARK minimizedAffinity -6.15295219
REMARK minimizedRMSD -1
REMARK  0 active torsions:
REMARK  status: ('A' for Active; 'I' for Inactive)
ROOT
ATOM      1  C   UNL d   1      -1.805   0.138  -0.153  0.00  0.00     0.077 C 
ATOM      2  C1  UNL d   1      -0.922   0.391   1.033  0.00  0.00    -0.074 A 
ATOM      3  C2  UNL d   1      -1.353   1.199   2.090  0.00  0.00    -0.005 A 
ATOM      4  C3  UNL d   1      -0.524   1.418   3.190  0.00  0.00     0.006 A 
ATOM      5  C4  UNL d   1       0.742   0.832   3.244  0.00  0.00    -0.005 A 
ATOM      6  C5  UNL d   1       1.189   0.021   2.197  0.00  0.00    -0.074 A 
ATOM      7  C6  UNL d   1       2.542  -0.624   2.244  0.00  0.00     0.077 C 
ATOM      8  C7  UNL d   1       0.348  -0.200   1.098  0.00  0.00    -0.001 A 
ENDROOT
TORSDOF 0
ENDMDL
