MODEL 1
REMARK minimizedAffinity -4.27665377
REMARK minimizedRMSD -1
REMARK  0 active torsions:
REMARK  status: ('A' for Active; 'I' for Inactive)
ROOT
ATOM      1  C   UNL d   1       2.086  -0.382   3.082  0.00  0.00     0.077 C 
ATOM      2  C1  UNL d   1       0.869  -0.183   2.228  0.00  0.00    -0.074 A 
ATOM      3  C2  UNL d   1      -0.340   0.242   2.788  0.00  0.00    -0.005 A 
ATOM      4  C3  UNL d   1      -1.461   0.432   1.979  0.00  0.00     0.006 A 
ATOM      5  C4  UNL d   1      -1.383   0.201   0.605  0.00  0.00    -0.005 A 
ATOM      6  C5  UNL d   1      -0.182  -0.223   0.028  0.00  0.00    -0.074 A 
ATOM      7  C6  UNL d   1      -0.079  -0.467  -1.449  0.00  0.00     0.077 C 
ATOM      8  C7  UNL d   1       0.941  -0.406   0.846  0.00  0.00    -0.001 A 
ENDROOT
TORSDOF 0
ENDMDL
