MODEL 1
REMARK minimizedAffinity -4.30966711
REMARK minimizedRMSD -1
REMARK  0 active torsions:
REMARK  status: ('A' for Active; 'I' for Inactive)
ROOT
ATOM      1  C   UNL d   1       0.737  -1.075  -1.270  0.00  0.00     0.077 C 
ATOM      2  C1  UNL d   1       0.217  -0.834   0.116  0.00  0.00    -0.074 A 
ATOM      3  C2  UNL d   1      -1.066  -0.319   0.323  0.00  0.00    -0.005 A 
ATOM      4  C3  UNL d   1      -1.539  -0.108   1.618  0.00  0.00     0.006 A 
ATOM      5  C4  UNL d   1      -0.735  -0.411   2.718  0.00  0.00    -0.005 A 
ATOM      6  C5  UNL d   1       0.551  -0.928   2.531  0.00  0.00    -0.074 A 
ATOM      7  C6  UNL d   1       1.424  -1.267   3.701  0.00  0.00     0.077 C 
ATOM      8  C7  UNL d   1       1.016  -1.143   1.226  0.00  0.00    -0.001 A 
ENDROOT
TORSDOF 0
ENDMDL
