MODEL 1
REMARK minimizedAffinity 5.89478111
REMARK minimizedRMSD -1
REMARK  1 active torsions:
REMARK  status: ('A' for Active; 'I' for Inactive)
REMARK    1  A    between atoms: C1_2  and  C2_3 
ROOT
ATOM      1  C2  UNL d   1      -4.249  -3.795  -5.921  0.00  0.00    -0.076 A 
ATOM      2  C3  UNL d   1      -2.960  -3.233  -5.922  0.00  0.00     0.004 A 
ATOM      3  C4  UNL d   1      -1.825  -4.041  -5.952  0.00  0.00    -0.003 A 
ATOM      4  C5  UNL d   1      -1.960  -5.425  -5.982  0.00  0.00     0.000 A 
ATOM      5  C6  UNL d   1      -3.230  -5.999  -5.999  0.00  0.00     0.000 A 
ATOM      6  C7  UNL d   1      -4.385  -5.199  -5.986  0.00  0.00    -0.073 A 
ATOM      7  C8  UNL d   1      -5.730  -5.871  -5.999  0.00  0.00     0.078 C 
ENDROOT
BRANCH   1   8
ATOM      8  C1  UNL d   1      -5.443  -2.870  -5.859  0.00  0.00     0.053 C 
ATOM      9  C   UNL d   1      -5.264  -1.755  -4.840  0.00  0.00     0.018 C 
ENDBRANCH   1   8
TORSDOF 1
ENDMDL
