MODEL 1
REMARK minimizedAffinity 0.419242382
REMARK minimizedRMSD -1
REMARK  1 active torsions:
REMARK  status: ('A' for Active; 'I' for Inactive)
REMARK    1  A    between atoms: C1_2  and  C2_3 
ROOT
ATOM      1  C2  UNL d   1      -4.602  -3.823  -5.708  0.00  0.00    -0.076 A 
ATOM      2  C3  UNL d   1      -3.358  -3.224  -5.443  0.00  0.00     0.004 A 
ATOM      3  C4  UNL d   1      -2.239  -3.999  -5.144  0.00  0.00    -0.003 A 
ATOM      4  C5  UNL d   1      -2.345  -5.385  -5.105  0.00  0.00     0.000 A 
ATOM      5  C6  UNL d   1      -3.568  -5.996  -5.383  0.00  0.00     0.000 A 
ATOM      6  C7  UNL d   1      -4.702  -5.230  -5.702  0.00  0.00    -0.073 A 
ATOM      7  C8  UNL d   1      -5.997  -5.941  -5.987  0.00  0.00     0.078 C 
ENDROOT
BRANCH   1   8
ATOM      8  C1  UNL d   1      -5.787  -2.930  -6.000  0.00  0.00     0.053 C 
ATOM      9  C   UNL d   1      -5.730  -1.617  -5.235  0.00  0.00     0.018 C 
ENDBRANCH   1   8
TORSDOF 1
ENDMDL
