MODEL 1
REMARK minimizedAffinity 2.02914715
REMARK minimizedRMSD -1
REMARK  1 active torsions:
REMARK  status: ('A' for Active; 'I' for Inactive)
REMARK    1  A    between atoms: C1_2  and  C2_3 
ROOT
ATOM      1  C2  UNL d   1      -3.860  -3.616  -5.241  0.00  0.00    -0.076 A 
ATOM      2  C3  UNL d   1      -4.883  -3.020  -5.999  0.00  0.00     0.004 A 
ATOM      3  C4  UNL d   1      -5.944  -2.363  -5.380  0.00  0.00    -0.003 A 
ATOM      4  C5  UNL d   1      -6.000  -2.289  -3.993  0.00  0.00     0.000 A 
ATOM      5  C6  UNL d   1      -4.985  -2.859  -3.225  0.00  0.00     0.000 A 
ATOM      6  C7  UNL d   1      -3.899  -3.511  -3.834  0.00  0.00    -0.073 A 
ATOM      7  C8  UNL d   1      -2.835  -4.113  -2.957  0.00  0.00     0.078 C 
ENDROOT
BRANCH   1   8
ATOM      8  C1  UNL d   1      -2.748  -4.339  -5.966  0.00  0.00     0.053 C 
ATOM      9  C   UNL d   1      -2.689  -5.818  -5.617  0.00  0.00     0.018 C 
ENDBRANCH   1   8
TORSDOF 1
ENDMDL
