MODEL 1
REMARK minimizedAffinity -0.470540494
REMARK minimizedRMSD -1
REMARK  1 active torsions:
REMARK  status: ('A' for Active; 'I' for Inactive)
REMARK    1  A    between atoms: C1_2  and  C2_3 
ROOT
ATOM      1  C2  UNL d   1      -3.154  -0.388  -0.461  0.00  0.00    -0.076 A 
ATOM      2  C3  UNL d   1      -3.355  -1.652   0.121  0.00  0.00     0.004 A 
ATOM      3  C4  UNL d   1      -2.804  -1.966   1.362  0.00  0.00    -0.003 A 
ATOM      4  C5  UNL d   1      -2.043  -1.022   2.042  0.00  0.00     0.000 A 
ATOM      5  C6  UNL d   1      -1.847   0.243   1.487  0.00  0.00     0.000 A 
ATOM      6  C7  UNL d   1      -2.410   0.581   0.245  0.00  0.00    -0.073 A 
ATOM      7  C8  UNL d   1      -2.161   1.958  -0.309  0.00  0.00     0.078 C 
ENDROOT
BRANCH   1   8
ATOM      8  C1  UNL d   1      -3.753  -0.114  -1.822  0.00  0.00     0.053 C 
ATOM      9  C   UNL d   1      -4.490  -1.318  -2.388  0.00  0.00     0.018 C 
ENDBRANCH   1   8
TORSDOF 1
ENDMDL
