MODEL 1
REMARK minimizedAffinity -2.28599
REMARK minimizedRMSD -1
REMARK  1 active torsions:
REMARK  status: ('A' for Active; 'I' for Inactive)
REMARK    1  A    between atoms: C1_2  and  C2_3 
ROOT
ATOM      1  C2  UNL d   1      -2.932  -5.174  -4.869  0.00  0.00    -0.076 A 
ATOM      2  C3  UNL d   1      -3.604  -5.669  -6.000  0.00  0.00     0.004 A 
ATOM      3  C4  UNL d   1      -4.967  -5.957  -5.955  0.00  0.00    -0.003 A 
ATOM      4  C5  UNL d   1      -5.680  -5.754  -4.779  0.00  0.00     0.000 A 
ATOM      5  C6  UNL d   1      -5.033  -5.247  -3.653  0.00  0.00     0.000 A 
ATOM      6  C7  UNL d   1      -3.663  -4.937  -3.685  0.00  0.00    -0.073 A 
ATOM      7  C8  UNL d   1      -3.015  -4.398  -2.439  0.00  0.00     0.078 C 
ENDROOT
BRANCH   1   8
ATOM      8  C1  UNL d   1      -1.447  -4.906  -4.968  0.00  0.00     0.053 C 
ATOM      9  C   UNL d   1      -0.716  -5.969  -5.774  0.00  0.00     0.018 C 
ENDBRANCH   1   8
TORSDOF 1
ENDMDL
