MODEL 1
REMARK minimizedAffinity 0.153219968
REMARK minimizedRMSD -1
REMARK  1 active torsions:
REMARK  status: ('A' for Active; 'I' for Inactive)
REMARK    1  A    between atoms: C1_2  and  C2_3 
ROOT
ATOM      1  C2  UNL d   1      -4.157  -4.473  -4.491  0.00  0.00    -0.076 A 
ATOM      2  C3  UNL d   1      -4.040  -5.239  -5.663  0.00  0.00     0.004 A 
ATOM      3  C4  UNL d   1      -2.883  -5.969  -5.931  0.00  0.00    -0.003 A 
ATOM      4  C5  UNL d   1      -1.825  -5.945  -5.029  0.00  0.00     0.000 A 
ATOM      5  C6  UNL d   1      -1.931  -5.205  -3.852  0.00  0.00     0.000 A 
ATOM      6  C7  UNL d   1      -3.097  -4.476  -3.560  0.00  0.00    -0.073 A 
ATOM      7  C8  UNL d   1      -3.155  -3.690  -2.279  0.00  0.00     0.078 C 
ENDROOT
BRANCH   1   8
ATOM      8  C1  UNL d   1      -5.425  -3.680  -4.267  0.00  0.00     0.053 C 
ATOM      9  C   UNL d   1      -5.757  -2.770  -5.440  0.00  0.00     0.018 C 
ENDBRANCH   1   8
TORSDOF 1
ENDMDL
