MODEL 1
REMARK minimizedAffinity 7.44011402
REMARK minimizedRMSD -1
REMARK  1 active torsions:
REMARK  status: ('A' for Active; 'I' for Inactive)
REMARK    1  A    between atoms: C1_2  and  C2_3 
ROOT
ATOM      1  C2  UNL d   1      -4.845  -3.522  -5.243  0.00  0.00    -0.076 A 
ATOM      2  C3  UNL d   1      -3.917  -4.289  -5.968  0.00  0.00     0.004 A 
ATOM      3  C4  UNL d   1      -2.821  -4.875  -5.336  0.00  0.00    -0.003 A 
ATOM      4  C5  UNL d   1      -2.638  -4.705  -3.968  0.00  0.00     0.000 A 
ATOM      5  C6  UNL d   1      -3.559  -3.963  -3.230  0.00  0.00     0.000 A 
ATOM      6  C7  UNL d   1      -4.677  -3.378  -3.849  0.00  0.00    -0.073 A 
ATOM      7  C8  UNL d   1      -5.635  -2.583  -3.006  0.00  0.00     0.078 C 
ENDROOT
BRANCH   1   8
ATOM      8  C1  UNL d   1      -5.999  -2.888  -5.987  0.00  0.00     0.053 C 
ATOM      9  C   UNL d   1      -5.986  -1.370  -5.897  0.00  0.00     0.018 C 
ENDBRANCH   1   8
TORSDOF 1
ENDMDL
