MODEL 1
REMARK minimizedAffinity -0.681832969
REMARK minimizedRMSD -1
REMARK  1 active torsions:
REMARK  status: ('A' for Active; 'I' for Inactive)
REMARK    1  A    between atoms: C1_2  and  C2_3 
ROOT
ATOM      1  C2  UNL d   1      -4.314  -3.959  -4.701  0.00  0.00    -0.076 A 
ATOM      2  C3  UNL d   1      -4.676  -4.952  -5.628  0.00  0.00     0.004 A 
ATOM      3  C4  UNL d   1      -3.780  -5.955  -5.992  0.00  0.00    -0.003 A 
ATOM      4  C5  UNL d   1      -2.507  -5.983  -5.433  0.00  0.00     0.000 A 
ATOM      5  C6  UNL d   1      -2.137  -5.017  -4.499  0.00  0.00     0.000 A 
ATOM      6  C7  UNL d   1      -3.034  -4.008  -4.109  0.00  0.00    -0.073 A 
ATOM      7  C8  UNL d   1      -2.579  -2.988  -3.101  0.00  0.00     0.078 C 
ENDROOT
BRANCH   1   8
ATOM      8  C1  UNL d   1      -5.318  -2.880  -4.366  0.00  0.00     0.053 C 
ATOM      9  C   UNL d   1      -5.997  -2.311  -5.602  0.00  0.00     0.018 C 
ENDBRANCH   1   8
TORSDOF 1
ENDMDL
