MODEL 1
REMARK minimizedAffinity 0.106966689
REMARK minimizedRMSD -1
REMARK  1 active torsions:
REMARK  status: ('A' for Active; 'I' for Inactive)
REMARK    1  A    between atoms: C1_2  and  C2_3 
ROOT
ATOM      1  C2  UNL d   1      -4.596  -3.693  -5.242  0.00  0.00    -0.076 A 
ATOM      2  C3  UNL d   1      -3.410  -3.763  -5.993  0.00  0.00     0.004 A 
ATOM      3  C4  UNL d   1      -2.384  -4.635  -5.634  0.00  0.00    -0.003 A 
ATOM      4  C5  UNL d   1      -2.527  -5.451  -4.518  0.00  0.00     0.000 A 
ATOM      5  C6  UNL d   1      -3.704  -5.408  -3.771  0.00  0.00     0.000 A 
ATOM      6  C7  UNL d   1      -4.755  -4.546  -4.129  0.00  0.00    -0.073 A 
ATOM      7  C8  UNL d   1      -6.000  -4.536  -3.285  0.00  0.00     0.078 C 
ENDROOT
BRANCH   1   8
ATOM      8  C1  UNL d   1      -5.664  -2.708  -5.664  0.00  0.00     0.053 C 
ATOM      9  C   UNL d   1      -5.646  -1.437  -4.829  0.00  0.00     0.018 C 
ENDBRANCH   1   8
TORSDOF 1
ENDMDL
