MODEL 1
REMARK minimizedAffinity 4.343575
REMARK minimizedRMSD -1
REMARK  0 active torsions:
REMARK  status: ('A' for Active; 'I' for Inactive)
ROOT
ATOM      1  C   UNL d   1       2.803  -0.703   2.761  0.00  0.00    -0.002 A 
ATOM      2  C1  UNL d   1       2.552  -1.858   2.035  0.00  0.00     0.010 A 
ATOM      3  C2  UNL d   1       1.250  -2.191   1.657  0.00  0.00     0.041 A 
ATOM      4  C3  UNL d   1       0.194  -1.333   2.022  0.00  0.00    -0.075 A 
ATOM      5  S   UNL d   1      -1.481  -1.537   1.668  0.00  0.00     0.015 SA
ATOM      6  C4  UNL d   1      -1.903  -0.094   2.471  0.00  0.00     0.022 A 
ATOM      7  C5  UNL d   1      -0.805   0.540   3.003  0.00  0.00     0.026 A 
ATOM      8  C6  UNL d   1       0.421  -0.163   2.752  0.00  0.00    -0.082 A 
ATOM      9  C7  UNL d   1       1.753   0.146   3.121  0.00  0.00     0.045 A 
ENDROOT
TORSDOF 0
ENDMDL
