MODEL 1
REMARK minimizedAffinity 6.23371983
REMARK minimizedRMSD -1
REMARK  0 active torsions:
REMARK  status: ('A' for Active; 'I' for Inactive)
ROOT
ATOM      1  C   UNL d   1      -0.448  -0.363   3.244  0.00  0.00    -0.002 A 
ATOM      2  C1  UNL d   1      -1.155  -1.008   2.239  0.00  0.00     0.010 A 
ATOM      3  C2  UNL d   1      -0.483  -1.713   1.238  0.00  0.00     0.041 A 
ATOM      4  C3  UNL d   1       0.925  -1.761   1.266  0.00  0.00    -0.075 A 
ATOM      5  S   UNL d   1       1.960  -2.565   0.146  0.00  0.00     0.015 SA
ATOM      6  C4  UNL d   1       3.365  -2.071   0.975  0.00  0.00     0.022 A 
ATOM      7  C5  UNL d   1       3.070  -1.311   2.082  0.00  0.00     0.026 A 
ATOM      8  C6  UNL d   1       1.659  -1.120   2.268  0.00  0.00    -0.082 A 
ATOM      9  C7  UNL d   1       0.949  -0.412   3.268  0.00  0.00     0.045 A 
ENDROOT
TORSDOF 0
ENDMDL
