MODEL 1
REMARK minimizedAffinity 7.7238698
REMARK minimizedRMSD -1
REMARK  0 active torsions:
REMARK  status: ('A' for Active; 'I' for Inactive)
ROOT
ATOM      1  C   UNL d   1       2.986   2.806  -0.532  0.00  0.00    -0.002 A 
ATOM      2  C1  UNL d   1       2.563   2.735  -1.852  0.00  0.00     0.010 A 
ATOM      3  C2  UNL d   1       2.346   1.498  -2.462  0.00  0.00     0.041 A 
ATOM      4  C3  UNL d   1       2.560   0.323  -1.716  0.00  0.00    -0.075 A 
ATOM      5  S   UNL d   1       2.357  -1.302  -2.256  0.00  0.00     0.015 SA
ATOM      6  C4  UNL d   1       2.826  -1.940  -0.746  0.00  0.00     0.022 A 
ATOM      7  C5  UNL d   1       3.133  -0.952   0.159  0.00  0.00     0.026 A 
ATOM      8  C6  UNL d   1       2.985   0.369  -0.385  0.00  0.00    -0.082 A 
ATOM      9  C7  UNL d   1       3.197   1.638   0.205  0.00  0.00     0.045 A 
ENDROOT
TORSDOF 0
ENDMDL
