MODEL 1
REMARK minimizedAffinity 10.2198048
REMARK minimizedRMSD -1
REMARK  0 active torsions:
REMARK  status: ('A' for Active; 'I' for Inactive)
ROOT
ATOM      1  C   UNL d   1      -1.094  -1.750   0.269  0.00  0.00    -0.002 A 
ATOM      2  C1  UNL d   1      -0.261  -1.600   1.369  0.00  0.00     0.010 A 
ATOM      3  C2  UNL d   1       0.895  -0.822   1.283  0.00  0.00     0.041 A 
ATOM      4  C3  UNL d   1       1.203  -0.190   0.062  0.00  0.00    -0.075 A 
ATOM      5  S   UNL d   1       2.565   0.812  -0.276  0.00  0.00     0.015 SA
ATOM      6  C4  UNL d   1       2.073   1.064  -1.888  0.00  0.00     0.022 A 
ATOM      7  C5  UNL d   1       0.901   0.407  -2.179  0.00  0.00     0.026 A 
ATOM      8  C6  UNL d   1       0.380  -0.326  -1.059  0.00  0.00    -0.082 A 
ATOM      9  C7  UNL d   1      -0.785  -1.122  -0.941  0.00  0.00     0.045 A 
ENDROOT
TORSDOF 0
ENDMDL
