MODEL 1
REMARK minimizedAffinity 12.4113512
REMARK minimizedRMSD -1
REMARK  0 active torsions:
REMARK  status: ('A' for Active; 'I' for Inactive)
ROOT
ATOM      1  C   UNL d   1       3.085  -1.788  -0.910  0.00  0.00    -0.002 A 
ATOM      2  C1  UNL d   1       1.970  -1.612  -1.717  0.00  0.00     0.010 A 
ATOM      3  C2  UNL d   1       0.708  -1.419  -1.152  0.00  0.00     0.041 A 
ATOM      4  C3  UNL d   1       0.585  -1.404   0.252  0.00  0.00    -0.075 A 
ATOM      5  S   UNL d   1      -0.860  -1.184   1.166  0.00  0.00     0.015 SA
ATOM      6  C4  UNL d   1      -0.030  -1.317   2.649  0.00  0.00     0.022 A 
ATOM      7  C5  UNL d   1       1.317  -1.525   2.470  0.00  0.00     0.026 A 
ATOM      8  C6  UNL d   1       1.694  -1.578   1.085  0.00  0.00    -0.082 A 
ATOM      9  C7  UNL d   1       2.959  -1.772   0.481  0.00  0.00     0.045 A 
ENDROOT
TORSDOF 0
ENDMDL
