MODEL 1
REMARK minimizedAffinity 8.126091
REMARK minimizedRMSD -1
REMARK  0 active torsions:
REMARK  status: ('A' for Active; 'I' for Inactive)
ROOT
ATOM      1  C   UNL d   1       3.644  -2.120   2.125  0.00  0.00    -0.002 A 
ATOM      2  C1  UNL d   1       3.378  -2.091   0.763  0.00  0.00     0.010 A 
ATOM      3  C2  UNL d   1       2.092  -1.814   0.296  0.00  0.00     0.041 A 
ATOM      4  C3  UNL d   1       1.068  -1.560   1.229  0.00  0.00    -0.075 A 
ATOM      5  S   UNL d   1      -0.583  -1.197   0.888  0.00  0.00     0.015 SA
ATOM      6  C4  UNL d   1      -0.974  -1.070   2.542  0.00  0.00     0.022 A 
ATOM      7  C5  UNL d   1       0.115  -1.296   3.349  0.00  0.00     0.026 A 
ATOM      8  C6  UNL d   1       1.310  -1.583   2.606  0.00  0.00    -0.082 A 
ATOM      9  C7  UNL d   1       2.625  -1.868   3.048  0.00  0.00     0.045 A 
ENDROOT
TORSDOF 0
ENDMDL
