MODEL 1
REMARK minimizedAffinity 2.68954206
REMARK minimizedRMSD -1
REMARK  0 active torsions:
REMARK  status: ('A' for Active; 'I' for Inactive)
ROOT
ATOM      1  C   UNL d   1       2.286   2.687  -1.490  0.00  0.00    -0.002 A 
ATOM      2  C1  UNL d   1       2.427   2.174  -2.771  0.00  0.00     0.010 A 
ATOM      3  C2  UNL d   1       2.602   0.803  -2.972  0.00  0.00     0.041 A 
ATOM      4  C3  UNL d   1       2.630  -0.052  -1.853  0.00  0.00    -0.075 A 
ATOM      5  S   UNL d   1       2.831  -1.764  -1.857  0.00  0.00     0.015 SA
ATOM      6  C4  UNL d   1       2.733  -1.855  -0.158  0.00  0.00     0.022 A 
ATOM      7  C5  UNL d   1       2.551  -0.618   0.415  0.00  0.00     0.026 A 
ATOM      8  C6  UNL d   1       2.489   0.441  -0.552  0.00  0.00    -0.082 A 
ATOM      9  C7  UNL d   1       2.314   1.836  -0.382  0.00  0.00     0.045 A 
ENDROOT
TORSDOF 0
ENDMDL
