MODEL 1
REMARK minimizedAffinity 0.173754096
REMARK minimizedRMSD -1
REMARK  0 active torsions:
REMARK  status: ('A' for Active; 'I' for Inactive)
ROOT
ATOM      1  C   UNL d   1       2.654  -2.209   2.210  0.00  0.00    -0.002 A 
ATOM      2  C1  UNL d   1       3.037  -2.038   0.887  0.00  0.00     0.010 A 
ATOM      3  C2  UNL d   1       3.180  -0.758   0.349  0.00  0.00     0.041 A 
ATOM      4  C3  UNL d   1       2.931   0.359   1.171  0.00  0.00    -0.075 A 
ATOM      5  S   UNL d   1       3.044   2.021   0.728  0.00  0.00     0.015 SA
ATOM      6  C4  UNL d   1       2.587   2.544   2.284  0.00  0.00     0.022 A 
ATOM      7  C5  UNL d   1       2.350   1.489   3.134  0.00  0.00     0.026 A 
ATOM      8  C6  UNL d   1       2.545   0.212   2.506  0.00  0.00    -0.082 A 
ATOM      9  C7  UNL d   1       2.408  -1.099   3.022  0.00  0.00     0.045 A 
ENDROOT
TORSDOF 0
ENDMDL
