MODEL 1
REMARK minimizedAffinity 7.46201134
REMARK minimizedRMSD -1
REMARK  0 active torsions:
REMARK  status: ('A' for Active; 'I' for Inactive)
ROOT
ATOM      1  C   UNL d   1       5.287   5.595   5.378  0.00  0.00     0.020 A 
ATOM      2  C1  UNL d   1       4.129   5.129   5.999  0.00  0.00     0.020 A 
ATOM      3  C2  UNL d   1       3.243   4.307   5.300  0.00  0.00     0.034 A 
ATOM      4  C3  UNL d   1       3.514   3.947   3.975  0.00  0.00     0.017 A 
ATOM      5  C4  UNL d   1       4.677   4.415   3.351  0.00  0.00     0.017 A 
ATOM      6  C5  UNL d   1       5.560   5.238   4.056  0.00  0.00     0.034 A 
ATOM      7 Cl   UNL d   1       5.079   4.014   1.719  0.00  0.00    -0.070 Cl
ATOM      8 Cl1  UNL d   1       2.375   2.926   3.170  0.00  0.00    -0.070 Cl
ENDROOT
TORSDOF 0
ENDMDL
