MODEL 1
REMARK minimizedAffinity 7.92946863
REMARK minimizedRMSD -1
REMARK  0 active torsions:
REMARK  status: ('A' for Active; 'I' for Inactive)
ROOT
ATOM      1  C   UNL d   1       3.932   4.907   5.999  0.00  0.00     0.020 A 
ATOM      2  C1  UNL d   1       5.056   5.410   5.347  0.00  0.00     0.020 A 
ATOM      3  C2  UNL d   1       5.259   5.136   3.992  0.00  0.00     0.034 A 
ATOM      4  C3  UNL d   1       4.335   4.356   3.287  0.00  0.00     0.017 A 
ATOM      5  C4  UNL d   1       3.207   3.851   3.943  0.00  0.00     0.017 A 
ATOM      6  C5  UNL d   1       3.009   4.129   5.299  0.00  0.00     0.034 A 
ATOM      7 Cl   UNL d   1       2.023   2.882   3.139  0.00  0.00    -0.070 Cl
ATOM      8 Cl1  UNL d   1       4.648   4.056   1.614  0.00  0.00    -0.070 Cl
ENDROOT
TORSDOF 0
ENDMDL
