MODEL 1
REMARK minimizedAffinity 5.50035143
REMARK minimizedRMSD -1
REMARK  0 active torsions:
REMARK  status: ('A' for Active; 'I' for Inactive)
ROOT
ATOM      1  C   UNL d   1      -5.290   1.837  -2.269  0.00  0.00     0.020 A 
ATOM      2  C1  UNL d   1      -5.871   1.882  -3.536  0.00  0.00     0.020 A 
ATOM      3  C2  UNL d   1      -5.166   1.409  -4.645  0.00  0.00     0.034 A 
ATOM      4  C3  UNL d   1      -3.875   0.890  -4.489  0.00  0.00     0.017 A 
ATOM      5  C4  UNL d   1      -3.293   0.846  -3.217  0.00  0.00     0.017 A 
ATOM      6  C5  UNL d   1      -4.004   1.320  -2.110  0.00  0.00     0.034 A 
ATOM      7 Cl   UNL d   1      -1.705   0.219  -2.947  0.00  0.00    -0.070 Cl
ATOM      8 Cl1  UNL d   1      -3.062   0.324  -5.904  0.00  0.00    -0.070 Cl
ENDROOT
TORSDOF 0
ENDMDL
