MODEL 1
REMARK minimizedAffinity 6.48517656
REMARK minimizedRMSD -1
REMARK  0 active torsions:
REMARK  status: ('A' for Active; 'I' for Inactive)
ROOT
ATOM      1  C   UNL d   1      -5.541   0.812  -4.215  0.00  0.00     0.020 A 
ATOM      2  C1  UNL d   1      -4.399   1.072  -4.972  0.00  0.00     0.020 A 
ATOM      3  C2  UNL d   1      -3.145   1.090  -4.360  0.00  0.00     0.034 A 
ATOM      4  C3  UNL d   1      -3.029   0.849  -2.986  0.00  0.00     0.017 A 
ATOM      5  C4  UNL d   1      -4.176   0.589  -2.227  0.00  0.00     0.017 A 
ATOM      6  C5  UNL d   1      -5.429   0.571  -2.846  0.00  0.00     0.034 A 
ATOM      7 Cl   UNL d   1      -4.112   0.282  -0.527  0.00  0.00    -0.070 Cl
ATOM      8 Cl1  UNL d   1      -1.446   0.888  -2.294  0.00  0.00    -0.070 Cl
ENDROOT
TORSDOF 0
ENDMDL
