MODEL 1
REMARK minimizedAffinity 14.7599401
REMARK minimizedRMSD -1
REMARK  0 active torsions:
REMARK  status: ('A' for Active; 'I' for Inactive)
ROOT
ATOM      1  C   UNL d   1       0.311   1.846   4.318  0.00  0.00     0.020 A 
ATOM      2  C1  UNL d   1       1.341   1.910   3.380  0.00  0.00     0.020 A 
ATOM      3  C2  UNL d   1       1.068   2.308   2.070  0.00  0.00     0.034 A 
ATOM      4  C3  UNL d   1      -0.238   2.643   1.694  0.00  0.00     0.017 A 
ATOM      5  C4  UNL d   1      -1.271   2.579   2.636  0.00  0.00     0.017 A 
ATOM      6  C5  UNL d   1      -0.992   2.180   3.947  0.00  0.00     0.034 A 
ATOM      7 Cl   UNL d   1      -2.907   2.978   2.247  0.00  0.00    -0.070 Cl
ATOM      8 Cl1  UNL d   1      -0.503   3.127   0.056  0.00  0.00    -0.070 Cl
ENDROOT
TORSDOF 0
ENDMDL
