MODEL 1
REMARK minimizedAffinity 2.1375103
REMARK minimizedRMSD -1
REMARK  0 active torsions:
REMARK  status: ('A' for Active; 'I' for Inactive)
ROOT
ATOM      1  C   UNL d   1       4.951   4.518   4.464  0.00  0.00     0.020 A 
ATOM      2  C1  UNL d   1       4.464   4.384   5.763  0.00  0.00     0.020 A 
ATOM      3  C2  UNL d   1       3.294   3.660   5.999  0.00  0.00     0.034 A 
ATOM      4  C3  UNL d   1       2.606   3.067   4.934  0.00  0.00     0.017 A 
ATOM      5  C4  UNL d   1       3.096   3.202   3.630  0.00  0.00     0.017 A 
ATOM      6  C5  UNL d   1       4.268   3.928   3.399  0.00  0.00     0.034 A 
ATOM      7 Cl   UNL d   1       2.302   2.499   2.265  0.00  0.00    -0.070 Cl
ATOM      8 Cl1  UNL d   1       1.166   2.185   5.299  0.00  0.00    -0.070 Cl
ENDROOT
TORSDOF 0
ENDMDL
