MODEL 1
REMARK minimizedAffinity 10.4103918
REMARK minimizedRMSD -1
REMARK  0 active torsions:
REMARK  status: ('A' for Active; 'I' for Inactive)
ROOT
ATOM      1  C   UNL d   1       2.563  -0.810  -0.622  0.00  0.00     0.020 A 
ATOM      2  C1  UNL d   1       3.176   0.247   0.050  0.00  0.00     0.020 A 
ATOM      3  C2  UNL d   1       4.139   1.023  -0.599  0.00  0.00     0.034 A 
ATOM      4  C3  UNL d   1       4.493   0.742  -1.924  0.00  0.00     0.017 A 
ATOM      5  C4  UNL d   1       3.878  -0.319  -2.598  0.00  0.00     0.017 A 
ATOM      6  C5  UNL d   1       2.914  -1.092  -1.943  0.00  0.00     0.034 A 
ATOM      7 Cl   UNL d   1       4.262  -0.726  -4.233  0.00  0.00    -0.070 Cl
ATOM      8 Cl1  UNL d   1       5.692   1.742  -2.664  0.00  0.00    -0.070 Cl
ENDROOT
TORSDOF 0
ENDMDL
