MODEL 1
REMARK minimizedAffinity 8.81393433
REMARK minimizedRMSD -1
REMARK  0 active torsions:
REMARK  status: ('A' for Active; 'I' for Inactive)
ROOT
ATOM      1  C   UNL d   1       2.446  -0.317  -0.811  0.00  0.00     0.020 A 
ATOM      2  C1  UNL d   1       3.225   0.650  -0.178  0.00  0.00     0.020 A 
ATOM      3  C2  UNL d   1       4.318   1.211  -0.842  0.00  0.00     0.034 A 
ATOM      4  C3  UNL d   1       4.635   0.804  -2.143  0.00  0.00     0.017 A 
ATOM      5  C4  UNL d   1       3.852  -0.167  -2.778  0.00  0.00     0.017 A 
ATOM      6  C5  UNL d   1       2.759  -0.725  -2.108  0.00  0.00     0.034 A 
ATOM      7 Cl   UNL d   1       4.180  -0.719  -4.383  0.00  0.00    -0.070 Cl
ATOM      8 Cl1  UNL d   1       6.000   1.540  -2.905  0.00  0.00    -0.070 Cl
ENDROOT
TORSDOF 0
ENDMDL
