MODEL 1
REMARK minimizedAffinity 6.25030375
REMARK minimizedRMSD -1
REMARK  0 active torsions:
REMARK  status: ('A' for Active; 'I' for Inactive)
ROOT
ATOM      1  C   UNL d   1       0.330  -2.753  -1.383  0.00  0.00     0.020 A 
ATOM      2  C1  UNL d   1      -0.478  -1.617  -1.384  0.00  0.00     0.020 A 
ATOM      3  C2  UNL d   1      -0.053  -0.457  -0.733  0.00  0.00     0.034 A 
ATOM      4  C3  UNL d   1       1.183  -0.431  -0.078  0.00  0.00     0.017 A 
ATOM      5  C4  UNL d   1       1.994  -1.572  -0.077  0.00  0.00     0.017 A 
ATOM      6  C5  UNL d   1       1.563  -2.730  -0.730  0.00  0.00     0.034 A 
ATOM      7 Cl   UNL d   1       3.532  -1.615   0.710  0.00  0.00    -0.070 Cl
ATOM      8 Cl1  UNL d   1       1.646   1.038   0.706  0.00  0.00    -0.070 Cl
ENDROOT
TORSDOF 0
ENDMDL
