MODEL 1
REMARK minimizedAffinity -4.96368313
REMARK minimizedRMSD -1
REMARK  0 active torsions:
REMARK  status: ('A' for Active; 'I' for Inactive)
ROOT
ATOM      1  C   UNL d   1      -1.310   0.337   0.899  0.00  0.00     0.020 A 
ATOM      2  C1  UNL d   1      -0.416  -0.732   0.944  0.00  0.00     0.020 A 
ATOM      3  C2  UNL d   1       0.926  -0.534   0.613  0.00  0.00     0.034 A 
ATOM      4  C3  UNL d   1       1.378   0.735   0.235  0.00  0.00     0.017 A 
ATOM      5  C4  UNL d   1       0.479   1.807   0.189  0.00  0.00     0.017 A 
ATOM      6  C5  UNL d   1      -0.863   1.604   0.522  0.00  0.00     0.034 A 
ATOM      7 Cl   UNL d   1       0.963   3.403  -0.268  0.00  0.00    -0.070 Cl
ATOM      8 Cl1  UNL d   1       3.051   0.907  -0.162  0.00  0.00    -0.070 Cl
ENDROOT
TORSDOF 0
ENDMDL
