MODEL 1
REMARK minimizedAffinity -0.0223050416
REMARK minimizedRMSD -1
REMARK  0 active torsions:
REMARK  status: ('A' for Active; 'I' for Inactive)
ROOT
ATOM      1  C   UNL d   1      -0.016  -0.954  -0.152  0.00  0.00     0.020 A 
ATOM      2  C1  UNL d   1       1.361  -1.132  -0.028  0.00  0.00     0.020 A 
ATOM      3  C2  UNL d   1       2.164  -0.077   0.411  0.00  0.00     0.034 A 
ATOM      4  C3  UNL d   1       1.591   1.160   0.727  0.00  0.00     0.017 A 
ATOM      5  C4  UNL d   1       0.208   1.337   0.602  0.00  0.00     0.017 A 
ATOM      6  C5  UNL d   1      -0.591   0.277   0.163  0.00  0.00     0.034 A 
ATOM      7 Cl   UNL d   1      -0.571   2.834   0.974  0.00  0.00    -0.070 Cl
ATOM      8 Cl1  UNL d   1       2.644   2.420   1.264  0.00  0.00    -0.070 Cl
ENDROOT
TORSDOF 0
ENDMDL
