MODEL 1
REMARK minimizedAffinity -1.97644031
REMARK minimizedRMSD -1
REMARK  0 active torsions:
REMARK  status: ('A' for Active; 'I' for Inactive)
ROOT
ATOM      1  C   UNL d   1      -0.786   0.320   0.226  0.00  0.00     0.020 A 
ATOM      2  C1  UNL d   1      -0.996   1.636   0.635  0.00  0.00     0.020 A 
ATOM      3  C2  UNL d   1       0.086   2.426   1.029  0.00  0.00     0.034 A 
ATOM      4  C3  UNL d   1       1.383   1.900   1.015  0.00  0.00     0.017 A 
ATOM      5  C4  UNL d   1       1.593   0.579   0.605  0.00  0.00     0.017 A 
ATOM      6  C5  UNL d   1       0.506  -0.208   0.211  0.00  0.00     0.034 A 
ATOM      7 Cl   UNL d   1       3.165  -0.140   0.561  0.00  0.00    -0.070 Cl
ATOM      8 Cl1  UNL d   1       2.675   2.934   1.515  0.00  0.00    -0.070 Cl
ENDROOT
TORSDOF 0
ENDMDL
