MODEL 1
REMARK minimizedAffinity -2.87785554
REMARK minimizedRMSD -1
REMARK  0 active torsions:
REMARK  status: ('A' for Active; 'I' for Inactive)
ROOT
ATOM      1  C   UNL d   1      -1.136  -3.167  -1.715  0.00  0.00     0.020 A 
ATOM      2  C1  UNL d   1      -1.851  -2.009  -2.017  0.00  0.00     0.020 A 
ATOM      3  C2  UNL d   1      -1.479  -0.789  -1.447  0.00  0.00     0.034 A 
ATOM      4  C3  UNL d   1      -0.389  -0.725  -0.571  0.00  0.00     0.017 A 
ATOM      5  C4  UNL d   1       0.328  -1.888  -0.268  0.00  0.00     0.017 A 
ATOM      6  C5  UNL d   1      -0.049  -3.106  -0.842  0.00  0.00     0.034 A 
ATOM      7 Cl   UNL d   1       1.684  -1.888   0.803  0.00  0.00    -0.070 Cl
ATOM      8 Cl1  UNL d   1       0.015   0.816   0.097  0.00  0.00    -0.070 Cl
ENDROOT
TORSDOF 0
ENDMDL
