MODEL 1
REMARK minimizedAffinity -2.2202189
REMARK minimizedRMSD -1
REMARK  0 active torsions:
REMARK  status: ('A' for Active; 'I' for Inactive)
ROOT
ATOM      1  C   UNL d   1      -1.803   0.357  -0.668  0.00  0.00     0.020 A 
ATOM      2  C1  UNL d   1      -1.130   0.867   0.441  0.00  0.00     0.020 A 
ATOM      3  C2  UNL d   1       0.005   0.216   0.930  0.00  0.00     0.034 A 
ATOM      4  C3  UNL d   1       0.470  -0.949   0.310  0.00  0.00     0.017 A 
ATOM      5  C4  UNL d   1      -0.207  -1.461  -0.803  0.00  0.00     0.017 A 
ATOM      6  C5  UNL d   1      -1.342  -0.805  -1.289  0.00  0.00     0.034 A 
ATOM      7 Cl   UNL d   1       0.307  -2.894  -1.621  0.00  0.00    -0.070 Cl
ATOM      8 Cl1  UNL d   1       1.879  -1.702   0.968  0.00  0.00    -0.070 Cl
ENDROOT
TORSDOF 0
ENDMDL
