MODEL 1
REMARK minimizedAffinity -3.45833945
REMARK minimizedRMSD -1
REMARK  0 active torsions:
REMARK  status: ('A' for Active; 'I' for Inactive)
ROOT
ATOM      1  C   UNL d   1      -0.964   2.690   0.653  0.00  0.00     0.020 A 
ATOM      2  C1  UNL d   1      -1.952   1.708   0.602  0.00  0.00     0.020 A 
ATOM      3  C2  UNL d   1      -1.605   0.381   0.340  0.00  0.00     0.034 A 
ATOM      4  C3  UNL d   1      -0.266   0.033   0.128  0.00  0.00     0.017 A 
ATOM      5  C4  UNL d   1       0.725   1.019   0.180  0.00  0.00     0.017 A 
ATOM      6  C5  UNL d   1       0.372   2.346   0.443  0.00  0.00     0.034 A 
ATOM      7 Cl   UNL d   1       2.398   0.665  -0.071  0.00  0.00    -0.070 Cl
ATOM      8 Cl1  UNL d   1       0.091  -1.628  -0.191  0.00  0.00    -0.070 Cl
ENDROOT
TORSDOF 0
ENDMDL
