MODEL 1
REMARK minimizedAffinity -1.79940367
REMARK minimizedRMSD -1
REMARK  0 active torsions:
REMARK  status: ('A' for Active; 'I' for Inactive)
ROOT
ATOM      1  C   UNL d   1      -0.270  -0.748   0.089  0.00  0.00     0.020 A 
ATOM      2  C1  UNL d   1       1.051  -1.184   0.180  0.00  0.00     0.020 A 
ATOM      3  C2  UNL d   1       2.061  -0.285   0.531  0.00  0.00     0.034 A 
ATOM      4  C3  UNL d   1       1.750   1.055   0.791  0.00  0.00     0.017 A 
ATOM      5  C4  UNL d   1       0.424   1.492   0.698  0.00  0.00     0.017 A 
ATOM      6  C5  UNL d   1      -0.583   0.587   0.347  0.00  0.00     0.034 A 
ATOM      7 Cl   UNL d   1      -0.036   3.129   1.005  0.00  0.00    -0.070 Cl
ATOM      8 Cl1  UNL d   1       3.049   2.112   1.219  0.00  0.00    -0.070 Cl
ENDROOT
TORSDOF 0
ENDMDL
