MODEL 1
REMARK minimizedAffinity -0.430175602
REMARK minimizedRMSD -1
REMARK  0 active torsions:
REMARK  status: ('A' for Active; 'I' for Inactive)
ROOT
ATOM      1  C   UNL d   1       0.293   0.333  -0.483  0.00  0.00     0.020 A 
ATOM      2  C1  UNL d   1      -0.603   0.011   0.536  0.00  0.00     0.020 A 
ATOM      3  C2  UNL d   1      -1.178  -1.261   0.584  0.00  0.00     0.034 A 
ATOM      4  C3  UNL d   1      -0.859  -2.215  -0.388  0.00  0.00     0.017 A 
ATOM      5  C4  UNL d   1       0.041  -1.891  -1.410  0.00  0.00     0.017 A 
ATOM      6  C5  UNL d   1       0.614  -0.617  -1.454  0.00  0.00     0.034 A 
ATOM      7 Cl   UNL d   1       0.484  -3.016  -2.645  0.00  0.00    -0.070 Cl
ATOM      8 Cl1  UNL d   1      -1.607  -3.768  -0.266  0.00  0.00    -0.070 Cl
ENDROOT
TORSDOF 0
ENDMDL
