MODEL 1
REMARK minimizedAffinity -3.70957327
REMARK minimizedRMSD -1
REMARK  0 active torsions:
REMARK  status: ('A' for Active; 'I' for Inactive)
ROOT
ATOM      1  C   UNL d   1      -3.154  -4.783   0.520  0.00  0.00     0.020 A 
ATOM      2  C1  UNL d   1      -3.819  -4.973  -0.691  0.00  0.00     0.020 A 
ATOM      3  C2  UNL d   1      -3.226  -4.560  -1.886  0.00  0.00     0.034 A 
ATOM      4  C3  UNL d   1      -1.963  -3.955  -1.873  0.00  0.00     0.017 A 
ATOM      5  C4  UNL d   1      -1.297  -3.765  -0.657  0.00  0.00     0.017 A 
ATOM      6  C5  UNL d   1      -1.895  -4.180   0.537  0.00  0.00     0.034 A 
ATOM      7 Cl   UNL d   1       0.263  -3.026  -0.561  0.00  0.00    -0.070 Cl
ATOM      8 Cl1  UNL d   1      -1.289  -3.470  -3.388  0.00  0.00    -0.070 Cl
ENDROOT
TORSDOF 0
ENDMDL
