MODEL 1
REMARK minimizedAffinity -1.58049428
REMARK minimizedRMSD -1
REMARK  0 active torsions:
REMARK  status: ('A' for Active; 'I' for Inactive)
ROOT
ATOM      1  C   UNL d   1       0.400  -1.619   0.639  0.00  0.00     0.020 A 
ATOM      2  C1  UNL d   1       0.093  -0.302   0.978  0.00  0.00     0.020 A 
ATOM      3  C2  UNL d   1      -0.636   0.495   0.093  0.00  0.00     0.034 A 
ATOM      4  C3  UNL d   1      -1.061  -0.025  -1.136  0.00  0.00     0.017 A 
ATOM      5  C4  UNL d   1      -0.752  -1.347  -1.475  0.00  0.00     0.017 A 
ATOM      6  C5  UNL d   1      -0.022  -2.140  -0.585  0.00  0.00     0.034 A 
ATOM      7 Cl   UNL d   1      -1.242  -2.058  -2.972  0.00  0.00    -0.070 Cl
ATOM      8 Cl1  UNL d   1      -1.960   1.017  -2.181  0.00  0.00    -0.070 Cl
ENDROOT
TORSDOF 0
ENDMDL
