MODEL 1
REMARK minimizedAffinity -0.956696689
REMARK minimizedRMSD -1
REMARK  0 active torsions:
REMARK  status: ('A' for Active; 'I' for Inactive)
ROOT
ATOM      1  C   UNL d   1       0.078   2.031   0.588  0.00  0.00     0.020 A 
ATOM      2  C1  UNL d   1      -1.082   1.511   0.016  0.00  0.00     0.020 A 
ATOM      3  C2  UNL d   1      -1.132   0.168  -0.362  0.00  0.00     0.034 A 
ATOM      4  C3  UNL d   1      -0.020  -0.660  -0.168  0.00  0.00     0.017 A 
ATOM      5  C4  UNL d   1       1.144  -0.137   0.406  0.00  0.00     0.017 A 
ATOM      6  C5  UNL d   1       1.189   1.209   0.783  0.00  0.00     0.034 A 
ATOM      7 Cl   UNL d   1       2.556  -1.096   0.677  0.00  0.00    -0.070 Cl
ATOM      8 Cl1  UNL d   1      -0.153  -2.311  -0.659  0.00  0.00    -0.070 Cl
ENDROOT
TORSDOF 0
ENDMDL
