MODEL 1
REMARK minimizedAffinity -4.69214153
REMARK minimizedRMSD -1
REMARK  0 active torsions:
REMARK  status: ('A' for Active; 'I' for Inactive)
ROOT
ATOM      1  C   UNL d   1       1.855   1.882  -0.508  0.00  0.00     0.020 A 
ATOM      2  C1  UNL d   1       0.905   2.895  -0.626  0.00  0.00     0.020 A 
ATOM      3  C2  UNL d   1      -0.421   2.656  -0.258  0.00  0.00     0.034 A 
ATOM      4  C3  UNL d   1      -0.800   1.401   0.231  0.00  0.00     0.017 A 
ATOM      5  C4  UNL d   1       0.154   0.384   0.350  0.00  0.00     0.017 A 
ATOM      6  C5  UNL d   1       1.480   0.629  -0.020  0.00  0.00     0.034 A 
ATOM      7 Cl   UNL d   1      -0.238  -1.190   0.946  0.00  0.00    -0.070 Cl
ATOM      8 Cl1  UNL d   1      -2.456   1.176   0.669  0.00  0.00    -0.070 Cl
ENDROOT
TORSDOF 0
ENDMDL
