MODEL 1
REMARK minimizedAffinity 0.14245297
REMARK minimizedRMSD -1
REMARK  0 active torsions:
REMARK  status: ('A' for Active; 'I' for Inactive)
ROOT
ATOM      1  C   UNL d   1      -1.496   1.607   0.766  0.00  0.00     0.020 A 
ATOM      2  C1  UNL d   1      -0.488   2.523   1.062  0.00  0.00     0.020 A 
ATOM      3  C2  UNL d   1       0.852   2.143   0.963  0.00  0.00     0.034 A 
ATOM      4  C3  UNL d   1       1.187   0.843   0.567  0.00  0.00     0.017 A 
ATOM      5  C4  UNL d   1       0.174  -0.076   0.270  0.00  0.00     0.017 A 
ATOM      6  C5  UNL d   1      -1.166   0.311   0.371  0.00  0.00     0.034 A 
ATOM      7 Cl   UNL d   1       0.510  -1.697  -0.226  0.00  0.00    -0.070 Cl
ATOM      8 Cl1  UNL d   1       2.865   0.442   0.465  0.00  0.00    -0.070 Cl
ENDROOT
TORSDOF 0
ENDMDL
