MODEL 1
REMARK minimizedAffinity -3.3833847
REMARK minimizedRMSD -1
REMARK  0 active torsions:
REMARK  status: ('A' for Active; 'I' for Inactive)
ROOT
ATOM      1  C   UNL d   1       0.151   2.579   0.501  0.00  0.00     0.020 A 
ATOM      2  C1  UNL d   1       1.118   1.716  -0.012  0.00  0.00     0.020 A 
ATOM      3  C2  UNL d   1       0.805   0.374  -0.239  0.00  0.00     0.034 A 
ATOM      4  C3  UNL d   1      -0.477  -0.109   0.047  0.00  0.00     0.017 A 
ATOM      5  C4  UNL d   1      -1.447   0.759   0.562  0.00  0.00     0.017 A 
ATOM      6  C5  UNL d   1      -1.129   2.102   0.787  0.00  0.00     0.034 A 
ATOM      7 Cl   UNL d   1      -3.051   0.237   0.940  0.00  0.00    -0.070 Cl
ATOM      8 Cl1  UNL d   1      -0.794  -1.780  -0.258  0.00  0.00    -0.070 Cl
ENDROOT
TORSDOF 0
ENDMDL
