MODEL 1
REMARK minimizedAffinity 4.28503084
REMARK minimizedRMSD -1
REMARK  1 active torsions:
REMARK  status: ('A' for Active; 'I' for Inactive)
REMARK    1  A    between atoms: C1_2  and  C2_3 
ROOT
ATOM      1  C2  UNL d   1       3.082  -1.145  -0.061  0.00  0.00    -0.081 A 
ATOM      2  C3  UNL d   1       2.448   0.101   0.020  0.00  0.00     0.006 A 
ATOM      3  C4  UNL d   1       3.191   1.280  -0.071  0.00  0.00     0.002 A 
ATOM      4  C5  UNL d   1       4.578   1.234  -0.252  0.00  0.00    -0.080 A 
ATOM      5  C6  UNL d   1       5.383   2.492  -0.382  0.00  0.00     0.076 C 
ATOM      6  C7  UNL d   1       5.213  -0.011  -0.316  0.00  0.00     0.002 A 
ATOM      7  C8  UNL d   1       4.471  -1.191  -0.225  0.00  0.00     0.006 A 
ENDROOT
BRANCH   1   8
ATOM      8  C1  UNL d   1       2.276  -2.419  -0.028  0.00  0.00     0.054 C 
ATOM      9  C   UNL d   1       2.021  -2.949  -1.432  0.00  0.00     0.018 C 
ENDBRANCH   1   8
TORSDOF 1
ENDMDL
