MODEL 1
REMARK minimizedAffinity 10.809783
REMARK minimizedRMSD -1
REMARK  1 active torsions:
REMARK  status: ('A' for Active; 'I' for Inactive)
REMARK    1  A    between atoms: C1_2  and  C2_3 
ROOT
ATOM      1  C2  UNL d   1      -0.538  -2.559  -2.054  0.00  0.00    -0.081 A 
ATOM      2  C3  UNL d   1       0.578  -3.010  -1.338  0.00  0.00     0.006 A 
ATOM      3  C4  UNL d   1       1.221  -2.171  -0.426  0.00  0.00     0.002 A 
ATOM      4  C5  UNL d   1       0.755  -0.870  -0.208  0.00  0.00    -0.080 A 
ATOM      5  C6  UNL d   1       1.418   0.032   0.791  0.00  0.00     0.076 C 
ATOM      6  C7  UNL d   1      -0.349  -0.412  -0.936  0.00  0.00     0.002 A 
ATOM      7  C8  UNL d   1      -0.992  -1.251  -1.849  0.00  0.00     0.006 A 
ENDROOT
BRANCH   1   8
ATOM      8  C1  UNL d   1      -1.273  -3.483  -2.991  0.00  0.00     0.054 C 
ATOM      9  C   UNL d   1      -0.981  -3.142  -4.446  0.00  0.00     0.018 C 
ENDBRANCH   1   8
TORSDOF 1
ENDMDL
