MODEL 1
REMARK minimizedAffinity 10.2537584
REMARK minimizedRMSD -1
REMARK  1 active torsions:
REMARK  status: ('A' for Active; 'I' for Inactive)
REMARK    1  A    between atoms: C1_2  and  C2_3 
ROOT
ATOM      1  C2  UNL d   1      -1.854  -1.008   0.803  0.00  0.00    -0.081 A 
ATOM      2  C3  UNL d   1      -1.231  -1.284  -0.420  0.00  0.00     0.006 A 
ATOM      3  C4  UNL d   1       0.153  -1.150  -0.555  0.00  0.00     0.002 A 
ATOM      4  C5  UNL d   1       0.936  -0.744   0.530  0.00  0.00    -0.080 A 
ATOM      5  C6  UNL d   1       2.426  -0.625   0.407  0.00  0.00     0.076 C 
ATOM      6  C7  UNL d   1       0.311  -0.451   1.747  0.00  0.00     0.002 A 
ATOM      7  C8  UNL d   1      -1.072  -0.585   1.883  0.00  0.00     0.006 A 
ENDROOT
BRANCH   1   8
ATOM      8  C1  UNL d   1      -3.338  -1.214   0.971  0.00  0.00     0.054 C 
ATOM      9  C   UNL d   1      -4.003   0.014   1.576  0.00  0.00     0.018 C 
ENDBRANCH   1   8
TORSDOF 1
ENDMDL
