MODEL 1
REMARK minimizedAffinity 6.74696684
REMARK minimizedRMSD -1
REMARK  1 active torsions:
REMARK  status: ('A' for Active; 'I' for Inactive)
REMARK    1  A    between atoms: C1_2  and  C2_3 
ROOT
ATOM      1  C2  UNL d   1      -0.040   3.406   3.474  0.00  0.00    -0.081 A 
ATOM      2  C3  UNL d   1       0.360   2.081   3.684  0.00  0.00     0.006 A 
ATOM      3  C4  UNL d   1       0.341   1.161   2.634  0.00  0.00     0.002 A 
ATOM      4  C5  UNL d   1      -0.071   1.551   1.355  0.00  0.00    -0.080 A 
ATOM      5  C6  UNL d   1      -0.068   0.581   0.212  0.00  0.00     0.076 C 
ATOM      6  C7  UNL d   1      -0.488   2.871   1.149  0.00  0.00     0.002 A 
ATOM      7  C8  UNL d   1      -0.469   3.792   2.199  0.00  0.00     0.006 A 
ENDROOT
BRANCH   1   8
ATOM      8  C1  UNL d   1       0.041   4.417   4.589  0.00  0.00     0.054 C 
ATOM      9  C   UNL d   1       1.182   5.399   4.364  0.00  0.00     0.018 C 
ENDBRANCH   1   8
TORSDOF 1
ENDMDL
