MODEL 1
REMARK minimizedAffinity 18.328476
REMARK minimizedRMSD -1
REMARK  1 active torsions:
REMARK  status: ('A' for Active; 'I' for Inactive)
REMARK    1  A    between atoms: C1_2  and  C2_3 
ROOT
ATOM      1  C2  UNL d   1      -0.020  -2.835  -2.645  0.00  0.00    -0.081 A 
ATOM      2  C3  UNL d   1      -0.848  -3.253  -1.596  0.00  0.00     0.006 A 
ATOM      3  C4  UNL d   1      -0.346  -3.363  -0.297  0.00  0.00     0.002 A 
ATOM      4  C5  UNL d   1       0.990  -3.049  -0.024  0.00  0.00    -0.080 A 
ATOM      5  C6  UNL d   1       1.534  -3.134   1.371  0.00  0.00     0.076 C 
ATOM      6  C7  UNL d   1       1.822  -2.648  -1.075  0.00  0.00     0.002 A 
ATOM      7  C8  UNL d   1       1.320  -2.539  -2.373  0.00  0.00     0.006 A 
ENDROOT
BRANCH   1   8
ATOM      8  C1  UNL d   1      -0.575  -2.654  -4.034  0.00  0.00     0.054 C 
ATOM      9  C   UNL d   1      -1.298  -3.906  -4.509  0.00  0.00     0.018 C 
ENDBRANCH   1   8
TORSDOF 1
ENDMDL
