MODEL 1
REMARK minimizedAffinity 11.6479759
REMARK minimizedRMSD -1
REMARK  1 active torsions:
REMARK  status: ('A' for Active; 'I' for Inactive)
REMARK    1  A    between atoms: C1_2  and  C2_3 
ROOT
ATOM      1  C2  UNL d   1       3.666   5.068   5.645  0.00  0.00    -0.081 A 
ATOM      2  C3  UNL d   1       3.919   3.732   5.311  0.00  0.00     0.006 A 
ATOM      3  C4  UNL d   1       2.874   2.887   4.930  0.00  0.00     0.002 A 
ATOM      4  C5  UNL d   1       1.561   3.365   4.870  0.00  0.00    -0.080 A 
ATOM      5  C6  UNL d   1       0.434   2.476   4.434  0.00  0.00     0.076 C 
ATOM      6  C7  UNL d   1       1.305   4.695   5.221  0.00  0.00     0.002 A 
ATOM      7  C8  UNL d   1       2.349   5.540   5.602  0.00  0.00     0.006 A 
ENDROOT
BRANCH   1   8
ATOM      8  C1  UNL d   1       4.799   5.999   5.993  0.00  0.00     0.054 C 
ATOM      9  C   UNL d   1       5.870   5.995   4.912  0.00  0.00     0.018 C 
ENDBRANCH   1   8
TORSDOF 1
ENDMDL
