MODEL 1
REMARK minimizedAffinity 7.12838364
REMARK minimizedRMSD -1
REMARK  1 active torsions:
REMARK  status: ('A' for Active; 'I' for Inactive)
REMARK    1  A    between atoms: C1_2  and  C2_3 
ROOT
ATOM      1  C2  UNL d   1      -0.506   1.013  -0.395  0.00  0.00    -0.081 A 
ATOM      2  C3  UNL d   1      -1.365   0.674  -1.448  0.00  0.00     0.006 A 
ATOM      3  C4  UNL d   1      -1.332  -0.607  -2.004  0.00  0.00     0.002 A 
ATOM      4  C5  UNL d   1      -0.447  -1.572  -1.512  0.00  0.00    -0.080 A 
ATOM      5  C6  UNL d   1      -0.422  -2.960  -2.080  0.00  0.00     0.076 C 
ATOM      6  C7  UNL d   1       0.423  -1.228  -0.472  0.00  0.00     0.002 A 
ATOM      7  C8  UNL d   1       0.391   0.052   0.084  0.00  0.00     0.006 A 
ENDROOT
BRANCH   1   8
ATOM      8  C1  UNL d   1      -0.584   2.373   0.250  0.00  0.00     0.054 C 
ATOM      9  C   UNL d   1      -1.140   2.284   1.664  0.00  0.00     0.018 C 
ENDBRANCH   1   8
TORSDOF 1
ENDMDL
