MODEL 1
REMARK minimizedAffinity 6.77754545
REMARK minimizedRMSD -1
REMARK  1 active torsions:
REMARK  status: ('A' for Active; 'I' for Inactive)
REMARK    1  A    between atoms: C1_2  and  C2_3 
ROOT
ATOM      1  C2  UNL d   1      -0.118  -0.778  -0.679  0.00  0.00    -0.081 A 
ATOM      2  C3  UNL d   1       0.314  -2.107  -0.763  0.00  0.00     0.006 A 
ATOM      3  C4  UNL d   1      -0.179  -2.949  -1.763  0.00  0.00     0.002 A 
ATOM      4  C5  UNL d   1      -1.104  -2.474  -2.699  0.00  0.00    -0.080 A 
ATOM      5  C6  UNL d   1      -1.617  -3.359  -3.796  0.00  0.00     0.076 C 
ATOM      6  C7  UNL d   1      -1.548  -1.151  -2.604  0.00  0.00     0.002 A 
ATOM      7  C8  UNL d   1      -1.056  -0.309  -1.604  0.00  0.00     0.006 A 
ENDROOT
BRANCH   1   8
ATOM      8  C1  UNL d   1       0.460   0.151   0.358  0.00  0.00     0.054 C 
ATOM      9  C   UNL d   1       1.864  -0.275   0.762  0.00  0.00     0.018 C 
ENDBRANCH   1   8
TORSDOF 1
ENDMDL
