MODEL 1
REMARK minimizedAffinity -3.861238
REMARK minimizedRMSD -1
REMARK  0 active torsions:
REMARK  status: ('A' for Active; 'I' for Inactive)
ROOT
ATOM      1  C2' OXE d   1       2.831   1.156   0.645  0.00  0.00     0.078 C 
ATOM      2  C1' OXE d   1       0.979   3.244   0.947  0.00  0.00     0.078 C 
ATOM      3  C1  OXE d   1       0.441   1.848   0.762  0.00  0.00    -0.078 A 
ATOM      4  C2  OXE d   1       1.353   0.839   0.568  0.00  0.00    -0.078 A 
ATOM      5  C3  OXE d   1       0.912  -0.476   0.448  0.00  0.00     0.003 A 
ATOM      6  C4  OXE d   1      -0.457  -0.760   0.368  0.00  0.00    -0.002 A 
ATOM      7  C5  OXE d   1      -1.403   0.258   0.523  0.00  0.00    -0.002 A 
ATOM      8  C6  OXE d   1      -0.972   1.558   0.763  0.00  0.00     0.003 A 
ENDROOT
TORSDOF 0
ENDMDL
