MODEL 1
REMARK minimizedAffinity -3.78970718
REMARK minimizedRMSD -1
REMARK  0 active torsions:
REMARK  status: ('A' for Active; 'I' for Inactive)
ROOT
ATOM      1  C2' OXE d   1      -1.605   1.568  -0.057  0.00  0.00     0.078 C 
ATOM      2  C1' OXE d   1      -0.040  -0.718  -0.510  0.00  0.00     0.078 C 
ATOM      3  C1  OXE d   1       0.630   0.481   0.113  0.00  0.00    -0.078 A 
ATOM      4  C2  OXE d   1      -0.132   1.611   0.288  0.00  0.00    -0.078 A 
ATOM      5  C3  OXE d   1       0.422   2.727   0.909  0.00  0.00     0.003 A 
ATOM      6  C4  OXE d   1       1.788   2.762   1.216  0.00  0.00    -0.002 A 
ATOM      7  C5  OXE d   1       2.591   1.635   1.010  0.00  0.00    -0.002 A 
ATOM      8  C6  OXE d   1       2.019   0.475   0.499  0.00  0.00     0.003 A 
ENDROOT
TORSDOF 0
ENDMDL
