MODEL 1
REMARK minimizedAffinity -2.40674996
REMARK minimizedRMSD -1
REMARK  0 active torsions:
REMARK  status: ('A' for Active; 'I' for Inactive)
ROOT
ATOM      1  C2' OXE d   1       0.210  -1.420  -0.084  0.00  0.00     0.078 C 
ATOM      2  C1' OXE d   1       2.523   0.076   0.453  0.00  0.00     0.078 C 
ATOM      3  C1  OXE d   1       1.197   0.793   0.491  0.00  0.00    -0.078 A 
ATOM      4  C2  OXE d   1       0.075   0.064   0.181  0.00  0.00    -0.078 A 
ATOM      5  C3  OXE d   1      -1.179   0.663   0.254  0.00  0.00     0.003 A 
ATOM      6  C4  OXE d   1      -1.295   2.038   0.490  0.00  0.00    -0.002 A 
ATOM      7  C5  OXE d   1      -0.161   2.808   0.769  0.00  0.00    -0.002 A 
ATOM      8  C6  OXE d   1       1.086   2.194   0.815  0.00  0.00     0.003 A 
ENDROOT
TORSDOF 0
ENDMDL
