MODEL 1
REMARK minimizedAffinity -1.44967222
REMARK minimizedRMSD -1
REMARK  0 active torsions:
REMARK  status: ('A' for Active; 'I' for Inactive)
ROOT
ATOM      1  C2' OXE d   1      -0.516   1.191   0.383  0.00  0.00     0.078 C 
ATOM      2  C1' OXE d   1       1.048  -1.024   1.108  0.00  0.00     0.078 C 
ATOM      3  C1  OXE d   1       0.129  -1.171  -0.079  0.00  0.00    -0.078 A 
ATOM      4  C2  OXE d   1      -0.667  -0.097  -0.398  0.00  0.00    -0.078 A 
ATOM      5  C3  OXE d   1      -1.493  -0.160  -1.516  0.00  0.00     0.003 A 
ATOM      6  C4  OXE d   1      -1.635  -1.359  -2.227  0.00  0.00    -0.002 A 
ATOM      7  C5  OXE d   1      -0.862  -2.476  -1.894  0.00  0.00    -0.002 A 
ATOM      8  C6  OXE d   1       0.053  -2.386  -0.851  0.00  0.00     0.003 A 
ENDROOT
TORSDOF 0
ENDMDL
