MODEL 1
REMARK minimizedAffinity -2.30542231
REMARK minimizedRMSD -1
REMARK  0 active torsions:
REMARK  status: ('A' for Active; 'I' for Inactive)
ROOT
ATOM      1  C2' OXE d   1       0.483  -3.378  -0.307  0.00  0.00     0.078 C 
ATOM      2  C1' OXE d   1      -1.863  -3.053  -1.814  0.00  0.00     0.078 C 
ATOM      3  C1  OXE d   1      -1.308  -1.842  -1.106  0.00  0.00    -0.078 A 
ATOM      4  C2  OXE d   1      -0.186  -2.021  -0.333  0.00  0.00    -0.078 A 
ATOM      5  C3  OXE d   1       0.398  -0.926   0.297  0.00  0.00     0.003 A 
ATOM      6  C4  OXE d   1      -0.233   0.324   0.276  0.00  0.00    -0.002 A 
ATOM      7  C5  OXE d   1      -1.399   0.518  -0.473  0.00  0.00    -0.002 A 
ATOM      8  C6  OXE d   1      -1.924  -0.542  -1.203  0.00  0.00     0.003 A 
ENDROOT
TORSDOF 0
ENDMDL
