MODEL 1
REMARK minimizedAffinity -3.18650556
REMARK minimizedRMSD -1
REMARK  0 active torsions:
REMARK  status: ('A' for Active; 'I' for Inactive)
ROOT
ATOM      1  C2' OXE d   1       1.543  -1.093   0.396  0.00  0.00     0.078 C 
ATOM      2  C1' OXE d   1       2.605   1.478   0.772  0.00  0.00     0.078 C 
ATOM      3  C1  OXE d   1       1.113   1.353   0.589  0.00  0.00    -0.078 A 
ATOM      4  C2  OXE d   1       0.607   0.096   0.359  0.00  0.00    -0.078 A 
ATOM      5  C3  OXE d   1      -0.768  -0.083   0.238  0.00  0.00     0.003 A 
ATOM      6  C4  OXE d   1      -1.625   1.023   0.195  0.00  0.00    -0.002 A 
ATOM      7  C5  OXE d   1      -1.127   2.316   0.387  0.00  0.00    -0.002 A 
ATOM      8  C6  OXE d   1       0.232   2.494   0.628  0.00  0.00     0.003 A 
ENDROOT
TORSDOF 0
ENDMDL
