MODEL 1
REMARK minimizedAffinity -2.48684025
REMARK minimizedRMSD -1
REMARK  0 active torsions:
REMARK  status: ('A' for Active; 'I' for Inactive)
ROOT
ATOM      1  C2' OXE d   1       1.586  -1.562   0.446  0.00  0.00     0.078 C 
ATOM      2  C1' OXE d   1      -0.662  -2.502  -0.947  0.00  0.00     0.078 C 
ATOM      3  C1  OXE d   1      -0.653  -1.055  -0.521  0.00  0.00    -0.078 A 
ATOM      4  C2  OXE d   1       0.431  -0.616   0.201  0.00  0.00    -0.078 A 
ATOM      5  C3  OXE d   1       0.515   0.723   0.571  0.00  0.00     0.003 A 
ATOM      6  C4  OXE d   1      -0.563   1.589   0.349  0.00  0.00    -0.002 A 
ATOM      7  C5  OXE d   1      -1.693   1.151  -0.349  0.00  0.00    -0.002 A 
ATOM      8  C6  OXE d   1      -1.736  -0.154  -0.827  0.00  0.00     0.003 A 
ENDROOT
TORSDOF 0
ENDMDL
