MODEL 1
REMARK minimizedAffinity -1.69062245
REMARK minimizedRMSD -1
REMARK  0 active torsions:
REMARK  status: ('A' for Active; 'I' for Inactive)
ROOT
ATOM      1  C2' OXE d   1      -0.118  -1.872   0.046  0.00  0.00     0.078 C 
ATOM      2  C1' OXE d   1       2.112  -0.219   0.463  0.00  0.00     0.078 C 
ATOM      3  C1  OXE d   1       0.746   0.421   0.493  0.00  0.00    -0.078 A 
ATOM      4  C2  OXE d   1      -0.336  -0.388   0.242  0.00  0.00    -0.078 A 
ATOM      5  C3  OXE d   1      -1.622   0.140   0.312  0.00  0.00     0.003 A 
ATOM      6  C4  OXE d   1      -1.815   1.517   0.484  0.00  0.00    -0.002 A 
ATOM      7  C5  OXE d   1      -0.724   2.364   0.702  0.00  0.00    -0.002 A 
ATOM      8  C6  OXE d   1       0.558   1.827   0.752  0.00  0.00     0.003 A 
ENDROOT
TORSDOF 0
ENDMDL
