MODEL 1
REMARK minimizedAffinity -2.00966883
REMARK minimizedRMSD -1
REMARK  0 active torsions:
REMARK  status: ('A' for Active; 'I' for Inactive)
ROOT
ATOM      1  C2' OXE d   1      -1.931   0.786   0.041  0.00  0.00     0.078 C 
ATOM      2  C1' OXE d   1       0.011  -1.235  -0.115  0.00  0.00     0.078 C 
ATOM      3  C1  OXE d   1       0.462   0.144   0.297  0.00  0.00    -0.078 A 
ATOM      4  C2  OXE d   1      -0.487   1.138   0.326  0.00  0.00    -0.078 A 
ATOM      5  C3  OXE d   1      -0.135   2.415   0.752  0.00  0.00     0.003 A 
ATOM      6  C4  OXE d   1       1.205   2.734   1.003  0.00  0.00    -0.002 A 
ATOM      7  C5  OXE d   1       2.194   1.747   0.941  0.00  0.00    -0.002 A 
ATOM      8  C6  OXE d   1       1.833   0.440   0.632  0.00  0.00     0.003 A 
ENDROOT
TORSDOF 0
ENDMDL
