MODEL 1
REMARK minimizedAffinity -1.41328609
REMARK minimizedRMSD -1
REMARK  0 active torsions:
REMARK  status: ('A' for Active; 'I' for Inactive)
ROOT
ATOM      1  C2' OXE d   1      -0.799   1.726   0.400  0.00  0.00     0.078 C 
ATOM      2  C1' OXE d   1       1.446   0.042   0.419  0.00  0.00     0.078 C 
ATOM      3  C1  OXE d   1       0.187  -0.472  -0.232  0.00  0.00    -0.078 A 
ATOM      4  C2  OXE d   1      -0.921   0.340  -0.196  0.00  0.00    -0.078 A 
ATOM      5  C3  OXE d   1      -2.093  -0.063  -0.830  0.00  0.00     0.003 A 
ATOM      6  C4  OXE d   1      -2.200  -1.350  -1.370  0.00  0.00    -0.002 A 
ATOM      7  C5  OXE d   1      -1.095  -2.209  -1.382  0.00  0.00    -0.002 A 
ATOM      8  C6  OXE d   1       0.115  -1.770  -0.857  0.00  0.00     0.003 A 
ENDROOT
TORSDOF 0
ENDMDL
