MODEL 1
REMARK minimizedAffinity -3.9950366
REMARK minimizedRMSD -1
REMARK  0 active torsions:
REMARK  status: ('A' for Active; 'I' for Inactive)
ROOT
ATOM      1  C2' OXE d   1      -0.366  -1.257   0.132  0.00  0.00     0.078 C 
ATOM      2  C1' OXE d   1      -2.490   0.569   0.317  0.00  0.00     0.078 C 
ATOM      3  C1  OXE d   1      -1.087   1.108   0.439  0.00  0.00    -0.078 A 
ATOM      4  C2  OXE d   1      -0.055   0.201   0.394  0.00  0.00    -0.078 A 
ATOM      5  C3  OXE d   1       1.261   0.651   0.447  0.00  0.00     0.003 A 
ATOM      6  C4  OXE d   1       1.540   1.999   0.699  0.00  0.00    -0.002 A 
ATOM      7  C5  OXE d   1       0.502   2.934   0.788  0.00  0.00    -0.002 A 
ATOM      8  C6  OXE d   1      -0.812   2.512   0.618  0.00  0.00     0.003 A 
ENDROOT
TORSDOF 0
ENDMDL
