MODEL 1
REMARK minimizedAffinity -3.02336717
REMARK minimizedRMSD -1
REMARK  0 active torsions:
REMARK  status: ('A' for Active; 'I' for Inactive)
ROOT
ATOM      1  C2' OXE d   1      -0.042  -2.697  -1.731  0.00  0.00     0.078 C 
ATOM      2  C1' OXE d   1       0.790  -2.225   0.909  0.00  0.00     0.078 C 
ATOM      3  C1  OXE d   1      -0.006  -1.146   0.218  0.00  0.00    -0.078 A 
ATOM      4  C2  OXE d   1      -0.369  -1.366  -1.088  0.00  0.00    -0.078 A 
ATOM      5  C3  OXE d   1      -1.151  -0.427  -1.754  0.00  0.00     0.003 A 
ATOM      6  C4  OXE d   1      -1.440   0.806  -1.157  0.00  0.00    -0.002 A 
ATOM      7  C5  OXE d   1      -1.046   1.067   0.160  0.00  0.00    -0.002 A 
ATOM      8  C6  OXE d   1      -0.366   0.086   0.875  0.00  0.00     0.003 A 
ENDROOT
TORSDOF 0
ENDMDL
