MODEL 1
REMARK minimizedAffinity -3.91133952
REMARK minimizedRMSD -1
REMARK  0 active torsions:
REMARK  status: ('A' for Active; 'I' for Inactive)
ROOT
ATOM      1  C2' OXE d   1      -0.193  -0.552   0.668  0.00  0.00     0.078 C 
ATOM      2  C1' OXE d   1      -1.333   0.329  -1.742  0.00  0.00     0.078 C 
ATOM      3  C1  OXE d   1      -0.911  -1.116  -1.650  0.00  0.00    -0.078 A 
ATOM      4  C2  OXE d   1      -0.312  -1.527  -0.483  0.00  0.00    -0.078 A 
ATOM      5  C3  OXE d   1       0.046  -2.863  -0.326  0.00  0.00     0.003 A 
ATOM      6  C4  OXE d   1      -0.058  -3.756  -1.399  0.00  0.00    -0.002 A 
ATOM      7  C5  OXE d   1      -0.629  -3.349  -2.609  0.00  0.00    -0.002 A 
ATOM      8  C6  OXE d   1      -1.099  -2.046  -2.736  0.00  0.00     0.003 A 
ENDROOT
TORSDOF 0
ENDMDL
