MODEL 1
REMARK minimizedAffinity -0.323002934
REMARK minimizedRMSD -1
REMARK  0 active torsions:
REMARK  status: ('A' for Active; 'I' for Inactive)
ROOT
ATOM      1  C2' OXE d   1      -0.458  -2.404  -0.965  0.00  0.00     0.078 C 
ATOM      2  C1' OXE d   1       1.350  -1.558   1.009  0.00  0.00     0.078 C 
ATOM      3  C1  OXE d   1       0.286  -0.585   0.565  0.00  0.00    -0.078 A 
ATOM      4  C2  OXE d   1      -0.565  -0.991  -0.434  0.00  0.00    -0.078 A 
ATOM      5  C3  OXE d   1      -1.598  -0.152  -0.842  0.00  0.00     0.003 A 
ATOM      6  C4  OXE d   1      -1.684   1.157  -0.353  0.00  0.00    -0.002 A 
ATOM      7  C5  OXE d   1      -0.803   1.604   0.636  0.00  0.00    -0.002 A 
ATOM      8  C6  OXE d   1       0.160   0.734   1.136  0.00  0.00     0.003 A 
ENDROOT
TORSDOF 0
ENDMDL
