MODEL 1
REMARK minimizedAffinity -1.42897308
REMARK minimizedRMSD -1
REMARK  0 active torsions:
REMARK  status: ('A' for Active; 'I' for Inactive)
ROOT
ATOM      1  C2' OXE d   1      -1.091  -3.517  -2.665  0.00  0.00     0.078 C 
ATOM      2  C1' OXE d   1      -0.577  -4.339  -0.030  0.00  0.00     0.078 C 
ATOM      3  C1  OXE d   1      -0.463  -2.868  -0.343  0.00  0.00    -0.078 A 
ATOM      4  C2  OXE d   1      -0.671  -2.481  -1.645  0.00  0.00    -0.078 A 
ATOM      5  C3  OXE d   1      -0.633  -1.129  -1.977  0.00  0.00     0.003 A 
ATOM      6  C4  OXE d   1      -0.234  -0.178  -1.030  0.00  0.00    -0.002 A 
ATOM      7  C5  OXE d   1       0.021  -0.556   0.293  0.00  0.00    -0.002 A 
ATOM      8  C6  OXE d   1      -0.130  -1.889   0.661  0.00  0.00     0.003 A 
ENDROOT
TORSDOF 0
ENDMDL
