MODEL 1
REMARK minimizedAffinity -2.5004456
REMARK minimizedRMSD -1
REMARK  0 active torsions:
REMARK  status: ('A' for Active; 'I' for Inactive)
ROOT
ATOM      1  C2' OXE d   1       1.661  -0.838   0.652  0.00  0.00     0.078 C 
ATOM      2  C1' OXE d   1      -0.252  -1.662  -1.230  0.00  0.00     0.078 C 
ATOM      3  C1  OXE d   1      -0.410  -0.292  -0.620  0.00  0.00    -0.078 A 
ATOM      4  C2  OXE d   1       0.504   0.085   0.334  0.00  0.00    -0.078 A 
ATOM      5  C3  OXE d   1       0.436   1.360   0.889  0.00  0.00     0.003 A 
ATOM      6  C4  OXE d   1      -0.643   2.203   0.597  0.00  0.00    -0.002 A 
ATOM      7  C5  OXE d   1      -1.607   1.823  -0.343  0.00  0.00    -0.002 A 
ATOM      8  C6  OXE d   1      -1.482   0.599  -0.991  0.00  0.00     0.003 A 
ENDROOT
TORSDOF 0
ENDMDL
