MODEL 1
REMARK minimizedAffinity 6.47172308
REMARK minimizedRMSD -1
REMARK  1 active torsions:
REMARK  status: ('A' for Active; 'I' for Inactive)
REMARK    1  A    between atoms: C1_2  and  C2_3 
ROOT
ATOM      1  C2  UNL d   1       5.232   5.260   0.911  0.00  0.00    -0.073 A 
ATOM      2  C3  UNL d   1       5.675   3.937   1.016  0.00  0.00    -0.002 A 
ATOM      3  C4  UNL d   1       5.671   3.288   2.252  0.00  0.00     0.004 A 
ATOM      4  C5  UNL d   1       5.217   3.952   3.392  0.00  0.00    -0.004 A 
ATOM      5  C6  UNL d   1       4.760   5.271   3.305  0.00  0.00    -0.075 A 
ATOM      6  C7  UNL d   1       4.271   6.000   4.522  0.00  0.00     0.076 C 
ATOM      7  C8  UNL d   1       4.770   5.916   2.061  0.00  0.00     0.001 A 
ENDROOT
BRANCH   1   8
ATOM      8  C1  UNL d   1       5.229   5.963  -0.422  0.00  0.00     0.053 C 
ATOM      9  C   UNL d   1       5.665   5.043  -1.552  0.00  0.00     0.018 C 
ENDBRANCH   1   8
TORSDOF 1
ENDMDL
