MODEL 1
REMARK minimizedAffinity 11.2771397
REMARK minimizedRMSD -1
REMARK  1 active torsions:
REMARK  status: ('A' for Active; 'I' for Inactive)
REMARK    1  A    between atoms: C1_2  and  C2_3 
ROOT
ATOM      1  C2  UNL d   1       2.857   3.201  -5.679  0.00  0.00    -0.073 A 
ATOM      2  C3  UNL d   1       1.748   4.050  -5.770  0.00  0.00    -0.002 A 
ATOM      3  C4  UNL d   1       1.924   5.427  -5.912  0.00  0.00     0.004 A 
ATOM      4  C5  UNL d   1       3.208   5.968  -5.973  0.00  0.00    -0.004 A 
ATOM      5  C6  UNL d   1       4.329   5.135  -5.896  0.00  0.00    -0.075 A 
ATOM      6  C7  UNL d   1       5.717   5.701  -5.958  0.00  0.00     0.076 C 
ATOM      7  C8  UNL d   1       4.144   3.753  -5.751  0.00  0.00     0.001 A 
ENDROOT
BRANCH   1   8
ATOM      8  C1  UNL d   1       2.671   1.713  -5.532  0.00  0.00     0.053 C 
ATOM      9  C   UNL d   1       2.089   1.343  -4.177  0.00  0.00     0.018 C 
ENDBRANCH   1   8
TORSDOF 1
ENDMDL
