MODEL 1
REMARK minimizedAffinity 7.59946632
REMARK minimizedRMSD -1
REMARK  1 active torsions:
REMARK  status: ('A' for Active; 'I' for Inactive)
REMARK    1  A    between atoms: C1_2  and  C2_3 
ROOT
ATOM      1  C2  UNL d   1       0.927   2.543  -4.192  0.00  0.00    -0.073 A 
ATOM      2  C3  UNL d   1       2.107   1.852  -4.492  0.00  0.00    -0.002 A 
ATOM      3  C4  UNL d   1       2.783   1.147  -3.495  0.00  0.00     0.004 A 
ATOM      4  C5  UNL d   1       2.284   1.119  -2.193  0.00  0.00    -0.004 A 
ATOM      5  C6  UNL d   1       1.100   1.793  -1.877  0.00  0.00    -0.075 A 
ATOM      6  C7  UNL d   1       0.552   1.774  -0.480  0.00  0.00     0.076 C 
ATOM      7  C8  UNL d   1       0.428   2.501  -2.882  0.00  0.00     0.001 A 
ENDROOT
BRANCH   1   8
ATOM      8  C1  UNL d   1       0.190   3.301  -5.266  0.00  0.00     0.053 C 
ATOM      9  C   UNL d   1       1.093   4.287  -5.989  0.00  0.00     0.018 C 
ENDBRANCH   1   8
TORSDOF 1
ENDMDL
