MODEL 1
REMARK minimizedAffinity 17.4580021
REMARK minimizedRMSD -1
REMARK  1 active torsions:
REMARK  status: ('A' for Active; 'I' for Inactive)
REMARK    1  A    between atoms: C1_2  and  C2_3 
ROOT
ATOM      1  C2  UNL d   1       4.720   4.723  -0.976  0.00  0.00    -0.073 A 
ATOM      2  C3  UNL d   1       3.336   4.521  -1.033  0.00  0.00    -0.002 A 
ATOM      3  C4  UNL d   1       2.818   3.335  -1.554  0.00  0.00     0.004 A 
ATOM      4  C5  UNL d   1       3.676   2.338  -2.017  0.00  0.00    -0.004 A 
ATOM      5  C6  UNL d   1       5.062   2.516  -1.957  0.00  0.00    -0.075 A 
ATOM      6  C7  UNL d   1       5.998   1.453  -2.452  0.00  0.00     0.076 C 
ATOM      7  C8  UNL d   1       5.575   3.711  -1.435  0.00  0.00     0.001 A 
ENDROOT
BRANCH   1   8
ATOM      8  C1  UNL d   1       5.285   5.999  -0.407  0.00  0.00     0.053 C 
ATOM      9  C   UNL d   1       5.994   5.769   0.917  0.00  0.00     0.018 C 
ENDBRANCH   1   8
TORSDOF 1
ENDMDL
