MODEL 1
REMARK minimizedAffinity 5.49641752
REMARK minimizedRMSD -1
REMARK  1 active torsions:
REMARK  status: ('A' for Active; 'I' for Inactive)
REMARK    1  A    between atoms: C1_2  and  C2_3 
ROOT
ATOM      1  C2  UNL d   1       0.114   2.498  -4.533  0.00  0.00    -0.073 A 
ATOM      2  C3  UNL d   1      -1.083   1.886  -4.922  0.00  0.00    -0.002 A 
ATOM      3  C4  UNL d   1      -2.037   2.600  -5.648  0.00  0.00     0.004 A 
ATOM      4  C5  UNL d   1      -1.801   3.929  -6.000  0.00  0.00    -0.004 A 
ATOM      5  C6  UNL d   1      -0.605   4.555  -5.631  0.00  0.00    -0.075 A 
ATOM      6  C7  UNL d   1      -0.337   5.984  -6.000  0.00  0.00     0.076 C 
ATOM      7  C8  UNL d   1       0.346   3.831  -4.899  0.00  0.00     0.001 A 
ENDROOT
BRANCH   1   8
ATOM      8  C1  UNL d   1       1.149   1.729  -3.754  0.00  0.00     0.053 C 
ATOM      9  C   UNL d   1       2.417   1.500  -4.562  0.00  0.00     0.018 C 
ENDBRANCH   1   8
TORSDOF 1
ENDMDL
