MODEL 1
REMARK minimizedAffinity 11.7271757
REMARK minimizedRMSD -1
REMARK  1 active torsions:
REMARK  status: ('A' for Active; 'I' for Inactive)
REMARK    1  A    between atoms: C1_2  and  C2_3 
ROOT
ATOM      1  C2  UNL d   1      -0.047   3.938  -4.613  0.00  0.00    -0.073 A 
ATOM      2  C3  UNL d   1       0.028   5.290  -4.966  0.00  0.00    -0.002 A 
ATOM      3  C4  UNL d   1      -1.023   5.897  -5.655  0.00  0.00     0.004 A 
ATOM      4  C5  UNL d   1      -2.159   5.162  -5.993  0.00  0.00    -0.004 A 
ATOM      5  C6  UNL d   1      -2.257   3.813  -5.639  0.00  0.00    -0.075 A 
ATOM      6  C7  UNL d   1      -3.471   3.007  -5.997  0.00  0.00     0.076 C 
ATOM      7  C8  UNL d   1      -1.197   3.209  -4.949  0.00  0.00     0.001 A 
ENDROOT
BRANCH   1   8
ATOM      8  C1  UNL d   1       1.082   3.279  -3.863  0.00  0.00     0.053 C 
ATOM      9  C   UNL d   1       0.929   1.767  -3.815  0.00  0.00     0.018 C 
ENDBRANCH   1   8
TORSDOF 1
ENDMDL
