MODEL 1
REMARK minimizedAffinity 6.93461037
REMARK minimizedRMSD -1
REMARK  1 active torsions:
REMARK  status: ('A' for Active; 'I' for Inactive)
REMARK    1  A    between atoms: C1_2  and  C2_3 
ROOT
ATOM      1  C2  UNL d   1      -3.881   3.465  -5.313  0.00  0.00    -0.073 A 
ATOM      2  C3  UNL d   1      -4.397   4.577  -5.989  0.00  0.00    -0.002 A 
ATOM      3  C4  UNL d   1      -5.431   5.326  -5.428  0.00  0.00     0.004 A 
ATOM      4  C5  UNL d   1      -5.955   4.977  -4.183  0.00  0.00    -0.004 A 
ATOM      5  C6  UNL d   1      -5.445   3.877  -3.486  0.00  0.00    -0.075 A 
ATOM      6  C7  UNL d   1      -5.999   3.487  -2.147  0.00  0.00     0.076 C 
ATOM      7  C8  UNL d   1      -4.408   3.128  -4.058  0.00  0.00     0.001 A 
ENDROOT
BRANCH   1   8
ATOM      8  C1  UNL d   1      -2.760   2.657  -5.913  0.00  0.00     0.053 C 
ATOM      9  C   UNL d   1      -1.748   2.221  -4.865  0.00  0.00     0.018 C 
ENDBRANCH   1   8
TORSDOF 1
ENDMDL
