MODEL 1
REMARK minimizedAffinity 4.17659378
REMARK minimizedRMSD -1
REMARK  1 active torsions:
REMARK  status: ('A' for Active; 'I' for Inactive)
REMARK    1  A    between atoms: C1_2  and  C2_3 
ROOT
ATOM      1  C2  UNL d   1       0.758   2.713  -4.189  0.00  0.00    -0.073 A 
ATOM      2  C3  UNL d   1      -0.309   1.933  -4.647  0.00  0.00    -0.002 A 
ATOM      3  C4  UNL d   1      -1.246   2.469  -5.532  0.00  0.00     0.004 A 
ATOM      4  C5  UNL d   1      -1.121   3.786  -5.973  0.00  0.00    -0.004 A 
ATOM      5  C6  UNL d   1      -0.054   4.578  -5.536  0.00  0.00    -0.075 A 
ATOM      6  C7  UNL d   1       0.093   5.998  -5.999  0.00  0.00     0.076 C 
ATOM      7  C8  UNL d   1       0.880   4.033  -4.645  0.00  0.00     0.001 A 
ENDROOT
BRANCH   1   8
ATOM      8  C1  UNL d   1       1.775   2.136  -3.239  0.00  0.00     0.053 C 
ATOM      9  C   UNL d   1       2.266   0.770  -3.689  0.00  0.00     0.018 C 
ENDBRANCH   1   8
TORSDOF 1
ENDMDL
