MODEL 1
REMARK minimizedAffinity 7.33468056
REMARK minimizedRMSD -1
REMARK  1 active torsions:
REMARK  status: ('A' for Active; 'I' for Inactive)
REMARK    1  A    between atoms: C1_2  and  C2_3 
ROOT
ATOM      1  C2  UNL d   1      -2.670  -3.279   4.598  0.00  0.00    -0.073 A 
ATOM      2  C3  UNL d   1      -3.095  -2.253   3.746  0.00  0.00    -0.002 A 
ATOM      3  C4  UNL d   1      -2.383  -1.963   2.582  0.00  0.00     0.004 A 
ATOM      4  C5  UNL d   1      -1.244  -2.699   2.254  0.00  0.00    -0.004 A 
ATOM      5  C6  UNL d   1      -0.810  -3.735   3.086  0.00  0.00    -0.075 A 
ATOM      6  C7  UNL d   1       0.414  -4.535   2.749  0.00  0.00     0.076 C 
ATOM      7  C8  UNL d   1      -1.529  -4.019   4.255  0.00  0.00     0.001 A 
ENDROOT
BRANCH   1   8
ATOM      8  C1  UNL d   1      -3.439  -3.600   5.853  0.00  0.00     0.053 C 
ATOM      9  C   UNL d   1      -4.845  -4.094   5.550  0.00  0.00     0.018 C 
ENDBRANCH   1   8
TORSDOF 1
ENDMDL
