MODEL 1
REMARK minimizedAffinity -0.269087851
REMARK minimizedRMSD -1
REMARK  1 active torsions:
REMARK  status: ('A' for Active; 'I' for Inactive)
REMARK    1  A    between atoms: C1_2  and  C2_3 
ROOT
ATOM      1  C2  UNL d   1       1.368   4.173  -4.595  0.00  0.00    -0.073 A 
ATOM      2  C3  UNL d   1       0.807   2.997  -4.084  0.00  0.00    -0.002 A 
ATOM      3  C4  UNL d   1       1.363   2.381  -2.962  0.00  0.00     0.004 A 
ATOM      4  C5  UNL d   1       2.479   2.936  -2.337  0.00  0.00    -0.004 A 
ATOM      5  C6  UNL d   1       3.047   4.117  -2.825  0.00  0.00    -0.075 A 
ATOM      6  C7  UNL d   1       4.249   4.726  -2.165  0.00  0.00     0.076 C 
ATOM      7  C8  UNL d   1       2.485   4.729  -3.954  0.00  0.00     0.001 A 
ENDROOT
BRANCH   1   8
ATOM      8  C1  UNL d   1       0.768   4.846  -5.802  0.00  0.00     0.053 C 
ATOM      9  C   UNL d   1      -0.699   4.490  -5.982  0.00  0.00     0.018 C 
ENDBRANCH   1   8
TORSDOF 1
ENDMDL
