MODEL 1
REMARK minimizedAffinity 15.8037519
REMARK minimizedRMSD -1
REMARK  1 active torsions:
REMARK  status: ('A' for Active; 'I' for Inactive)
REMARK    1  A    between atoms: C1_2  and  C2_3 
ROOT
ATOM      1  C2  UNL d   1       2.789   1.917  -4.592  0.00  0.00    -0.073 A 
ATOM      2  C3  UNL d   1       2.755   0.529  -4.414  0.00  0.00    -0.002 A 
ATOM      3  C4  UNL d   1       2.334  -0.016  -3.201  0.00  0.00     0.004 A 
ATOM      4  C5  UNL d   1       1.937   0.819  -2.157  0.00  0.00    -0.004 A 
ATOM      5  C6  UNL d   1       1.952   2.208  -2.319  0.00  0.00    -0.075 A 
ATOM      6  C7  UNL d   1       1.530   3.120  -1.205  0.00  0.00     0.076 C 
ATOM      7  C8  UNL d   1       2.379   2.748  -3.540  0.00  0.00     0.001 A 
ENDROOT
BRANCH   1   8
ATOM      8  C1  UNL d   1       3.237   2.510  -5.903  0.00  0.00     0.053 C 
ATOM      9  C   UNL d   1       4.407   3.465  -5.727  0.00  0.00     0.018 C 
ENDBRANCH   1   8
TORSDOF 1
ENDMDL
