MODEL 1
REMARK minimizedAffinity 12.0492935
REMARK minimizedRMSD -1
REMARK  1 active torsions:
REMARK  status: ('A' for Active; 'I' for Inactive)
REMARK    1  A    between atoms: C1_2  and  C2_3 
ROOT
ATOM      1  C2  UNL d   1      -3.417  -5.355  -1.652  0.00  0.00    -0.073 A 
ATOM      2  C3  UNL d   1      -2.825  -4.174  -1.189  0.00  0.00    -0.002 A 
ATOM      3  C4  UNL d   1      -3.264  -3.584  -0.003  0.00  0.00     0.004 A 
ATOM      4  C5  UNL d   1      -4.291  -4.171   0.735  0.00  0.00    -0.004 A 
ATOM      5  C6  UNL d   1      -4.887  -5.357   0.295  0.00  0.00    -0.075 A 
ATOM      6  C7  UNL d   1      -5.996  -6.000   1.076  0.00  0.00     0.076 C 
ATOM      7  C8  UNL d   1      -4.443  -5.943  -0.898  0.00  0.00     0.001 A 
ENDROOT
BRANCH   1   8
ATOM      8  C1  UNL d   1      -2.943  -6.000  -2.929  0.00  0.00     0.053 C 
ATOM      9  C   UNL d   1      -1.427  -5.989  -3.044  0.00  0.00     0.018 C 
ENDBRANCH   1   8
TORSDOF 1
ENDMDL
