MODEL 1
REMARK minimizedAffinity 1.69479489
REMARK minimizedRMSD -1
REMARK  1 active torsions:
REMARK  status: ('A' for Active; 'I' for Inactive)
REMARK    1  A    between atoms: C1_2  and  C2_3 
ROOT
ATOM      1  C2  UNL d   1      -3.358   4.544  -5.652  0.00  0.00    -0.073 A 
ATOM      2  C3  UNL d   1      -2.604   5.672  -5.992  0.00  0.00    -0.002 A 
ATOM      3  C4  UNL d   1      -1.210   5.629  -5.943  0.00  0.00     0.004 A 
ATOM      4  C5  UNL d   1      -0.556   4.458  -5.561  0.00  0.00    -0.004 A 
ATOM      5  C6  UNL d   1      -1.292   3.316  -5.229  0.00  0.00    -0.075 A 
ATOM      6  C7  UNL d   1      -0.604   2.049  -4.814  0.00  0.00     0.076 C 
ATOM      7  C8  UNL d   1      -2.692   3.368  -5.278  0.00  0.00     0.001 A 
ENDROOT
BRANCH   1   8
ATOM      8  C1  UNL d   1      -4.863   4.583  -5.709  0.00  0.00     0.053 C 
ATOM      9  C   UNL d   1      -5.402   5.999  -5.575  0.00  0.00     0.018 C 
ENDBRANCH   1   8
TORSDOF 1
ENDMDL
