MODEL 1
REMARK minimizedAffinity -3.12907815
REMARK minimizedRMSD -1
REMARK  0 active torsions:
REMARK  status: ('A' for Active; 'I' for Inactive)
ROOT
ATOM      1  C   UNL d   1      -0.032   1.280   0.454  0.00  0.00     0.078 C 
ATOM      2  C1  UNL d   1      -0.016  -0.217   0.373  0.00  0.00    -0.077 A 
ATOM      3  C2  UNL d   1      -1.178  -0.964   0.600  0.00  0.00    -0.001 A 
ATOM      4  C3  UNL d   1      -1.147  -2.358   0.531  0.00  0.00     0.003 A 
ATOM      5  C4  UNL d   1       0.045  -3.017   0.236  0.00  0.00    -0.005 A 
ATOM      6  C5  UNL d   1       1.208  -2.282   0.011  0.00  0.00     0.003 A 
ATOM      7  C6  UNL d   1       1.178  -0.889   0.080  0.00  0.00    -0.001 A 
ENDROOT
TORSDOF 0
ENDMDL
