MODEL 1
REMARK minimizedAffinity -4.4511466
REMARK minimizedRMSD -1
REMARK  0 active torsions:
REMARK  status: ('A' for Active; 'I' for Inactive)
ROOT
ATOM      1  C   UNL d   1      -0.817   0.105   1.749  0.00  0.00     0.078 C 
ATOM      2  C1  UNL d   1      -0.229  -0.930   0.838  0.00  0.00    -0.077 A 
ATOM      3  C2  UNL d   1       0.550  -0.562  -0.265  0.00  0.00    -0.001 A 
ATOM      4  C3  UNL d   1       1.083  -1.536  -1.110  0.00  0.00     0.003 A 
ATOM      5  C4  UNL d   1       0.841  -2.886  -0.863  0.00  0.00    -0.005 A 
ATOM      6  C5  UNL d   1       0.064  -3.262   0.231  0.00  0.00     0.003 A 
ATOM      7  C6  UNL d   1      -0.469  -2.289   1.078  0.00  0.00    -0.001 A 
ENDROOT
TORSDOF 0
ENDMDL
