MODEL 1
REMARK minimizedAffinity -3.15975547
REMARK minimizedRMSD -1
REMARK  0 active torsions:
REMARK  status: ('A' for Active; 'I' for Inactive)
ROOT
ATOM      1  C   UNL d   1       0.699   1.285   0.005  0.00  0.00     0.078 C 
ATOM      2  C1  UNL d   1       0.130  -0.058   0.354  0.00  0.00    -0.077 A 
ATOM      3  C2  UNL d   1       0.916  -1.214   0.286  0.00  0.00    -0.001 A 
ATOM      4  C3  UNL d   1       0.371  -2.459   0.605  0.00  0.00     0.003 A 
ATOM      5  C4  UNL d   1      -0.964  -2.559   0.993  0.00  0.00    -0.005 A 
ATOM      6  C5  UNL d   1      -1.755  -1.414   1.061  0.00  0.00     0.003 A 
ATOM      7  C6  UNL d   1      -1.211  -0.169   0.743  0.00  0.00    -0.001 A 
ENDROOT
TORSDOF 0
ENDMDL
