MODEL 1
REMARK minimizedAffinity -5.2341609
REMARK minimizedRMSD -1
REMARK  0 active torsions:
REMARK  status: ('A' for Active; 'I' for Inactive)
ROOT
ATOM      1  C   UNL d   1       0.091   1.838   0.245  0.00  0.00     0.078 C 
ATOM      2  C1  UNL d   1      -0.009   0.342   0.293  0.00  0.00    -0.077 A 
ATOM      3  C2  UNL d   1       0.958  -0.465  -0.319  0.00  0.00    -0.001 A 
ATOM      4  C3  UNL d   1       0.847  -1.856  -0.274  0.00  0.00     0.003 A 
ATOM      5  C4  UNL d   1      -0.230  -2.451   0.380  0.00  0.00    -0.005 A 
ATOM      6  C5  UNL d   1      -1.198  -1.656   0.990  0.00  0.00     0.003 A 
ATOM      7  C6  UNL d   1      -1.088  -0.265   0.947  0.00  0.00    -0.001 A 
ENDROOT
TORSDOF 0
ENDMDL
