MODEL 1
REMARK minimizedAffinity -2.68374348
REMARK minimizedRMSD -1
REMARK  0 active torsions:
REMARK  status: ('A' for Active; 'I' for Inactive)
ROOT
ATOM      1  C   UNL d   1      -0.014  -2.963   0.639  0.00  0.00     0.078 C 
ATOM      2  C1  UNL d   1       0.104  -1.512   0.276  0.00  0.00    -0.077 A 
ATOM      3  C2  UNL d   1      -0.412  -0.516   1.113  0.00  0.00    -0.001 A 
ATOM      4  C3  UNL d   1      -0.304   0.830   0.759  0.00  0.00     0.003 A 
ATOM      5  C4  UNL d   1       0.320   1.191  -0.434  0.00  0.00    -0.005 A 
ATOM      6  C5  UNL d   1       0.835   0.206  -1.274  0.00  0.00     0.003 A 
ATOM      7  C6  UNL d   1       0.727  -1.140  -0.921  0.00  0.00    -0.001 A 
ENDROOT
TORSDOF 0
ENDMDL
