MODEL 1
REMARK minimizedAffinity -4.11883545
REMARK minimizedRMSD -1
REMARK  0 active torsions:
REMARK  status: ('A' for Active; 'I' for Inactive)
ROOT
ATOM      1  C   UNL d   1       0.359   1.034  -0.100  0.00  0.00     0.078 C 
ATOM      2  C1  UNL d   1       0.190  -0.442   0.103  0.00  0.00    -0.077 A 
ATOM      3  C2  UNL d   1       1.279  -1.315  -0.006  0.00  0.00    -0.001 A 
ATOM      4  C3  UNL d   1       1.105  -2.687   0.176  0.00  0.00     0.003 A 
ATOM      5  C4  UNL d   1      -0.158  -3.200   0.467  0.00  0.00    -0.005 A 
ATOM      6  C5  UNL d   1      -1.248  -2.339   0.575  0.00  0.00     0.003 A 
ATOM      7  C6  UNL d   1      -1.076  -0.966   0.394  0.00  0.00    -0.001 A 
ENDROOT
TORSDOF 0
ENDMDL
