MODEL 1
REMARK minimizedAffinity -4.62350941
REMARK minimizedRMSD -1
REMARK  0 active torsions:
REMARK  status: ('A' for Active; 'I' for Inactive)
ROOT
ATOM      1  C   UNL d   1      -0.765  -0.401   1.106  0.00  0.00     0.078 C 
ATOM      2  C1  UNL d   1      -0.276  -1.172  -0.084  0.00  0.00    -0.077 A 
ATOM      3  C2  UNL d   1       0.229  -0.513  -1.212  0.00  0.00    -0.001 A 
ATOM      4  C3  UNL d   1       0.673  -1.243  -2.316  0.00  0.00     0.003 A 
ATOM      5  C4  UNL d   1       0.614  -2.635  -2.304  0.00  0.00    -0.005 A 
ATOM      6  C5  UNL d   1       0.110  -3.299  -1.187  0.00  0.00     0.003 A 
ATOM      7  C6  UNL d   1      -0.333  -2.571  -0.082  0.00  0.00    -0.001 A 
ENDROOT
TORSDOF 0
ENDMDL
