MODEL 1
REMARK minimizedAffinity -5.15590429
REMARK minimizedRMSD -1
REMARK  0 active torsions:
REMARK  status: ('A' for Active; 'I' for Inactive)
ROOT
ATOM      1  C   UNL d   1       0.185  -2.758   0.662  0.00  0.00     0.078 C 
ATOM      2  C1  UNL d   1      -0.059  -1.463  -0.055  0.00  0.00    -0.077 A 
ATOM      3  C2  UNL d   1      -0.617  -0.365   0.611  0.00  0.00    -0.001 A 
ATOM      4  C3  UNL d   1      -0.847   0.831  -0.071  0.00  0.00     0.003 A 
ATOM      5  C4  UNL d   1      -0.524   0.939  -1.422  0.00  0.00    -0.005 A 
ATOM      6  C5  UNL d   1       0.030  -0.149  -2.093  0.00  0.00     0.003 A 
ATOM      7  C6  UNL d   1       0.261  -1.346  -1.413  0.00  0.00    -0.001 A 
ENDROOT
TORSDOF 0
ENDMDL
