MODEL 1
REMARK minimizedAffinity 0.2742998
REMARK minimizedRMSD -1
REMARK  0 active torsions:
REMARK  status: ('A' for Active; 'I' for Inactive)
ROOT
ATOM      1  C   UNL d   1       0.035   0.758  -1.115  0.00  0.00     0.078 C 
ATOM      2  C1  UNL d   1       0.836   1.907  -0.579  0.00  0.00    -0.077 A 
ATOM      3  C2  UNL d   1       2.077   2.242  -1.135  0.00  0.00    -0.001 A 
ATOM      4  C3  UNL d   1       2.816   3.308  -0.620  0.00  0.00     0.003 A 
ATOM      5  C4  UNL d   1       2.324   4.046   0.454  0.00  0.00    -0.005 A 
ATOM      6  C5  UNL d   1       1.091   3.719   1.015  0.00  0.00     0.003 A 
ATOM      7  C6  UNL d   1       0.351   2.653   0.502  0.00  0.00    -0.001 A 
ENDROOT
TORSDOF 0
ENDMDL
