MODEL 1
REMARK minimizedAffinity -5.64534569
REMARK minimizedRMSD -1
REMARK  0 active torsions:
REMARK  status: ('A' for Active; 'I' for Inactive)
ROOT
ATOM      1  C   UNL d   1      -0.271   0.022   0.216  0.00  0.00     0.078 C 
ATOM      2  C1  UNL d   1      -0.028  -1.272  -0.502  0.00  0.00    -0.077 A 
ATOM      3  C2  UNL d   1       0.303  -2.436   0.203  0.00  0.00    -0.001 A 
ATOM      4  C3  UNL d   1       0.537  -3.631  -0.478  0.00  0.00     0.003 A 
ATOM      5  C4  UNL d   1       0.443  -3.674  -1.868  0.00  0.00    -0.005 A 
ATOM      6  C5  UNL d   1       0.116  -2.521  -2.578  0.00  0.00     0.003 A 
ATOM      7  C6  UNL d   1      -0.117  -1.324  -1.898  0.00  0.00    -0.001 A 
ENDROOT
TORSDOF 0
ENDMDL
