MODEL 1
REMARK minimizedAffinity -5.26000738
REMARK minimizedRMSD -1
REMARK  0 active torsions:
REMARK  status: ('A' for Active; 'I' for Inactive)
ROOT
ATOM      1  C   UNL d   1      -0.048   1.252  -0.778  0.00  0.00     0.078 C 
ATOM      2  C1  UNL d   1      -0.059  -0.194  -0.381  0.00  0.00    -0.077 A 
ATOM      3  C2  UNL d   1       0.565  -1.164  -1.175  0.00  0.00    -0.001 A 
ATOM      4  C3  UNL d   1       0.539  -2.508  -0.798  0.00  0.00     0.003 A 
ATOM      5  C4  UNL d   1      -0.112  -2.894   0.372  0.00  0.00    -0.005 A 
ATOM      6  C5  UNL d   1      -0.737  -1.936   1.167  0.00  0.00     0.003 A 
ATOM      7  C6  UNL d   1      -0.712  -0.592   0.792  0.00  0.00    -0.001 A 
ENDROOT
TORSDOF 0
ENDMDL
