MODEL 1
REMARK minimizedAffinity -2.93303537
REMARK minimizedRMSD -1
REMARK  0 active torsions:
REMARK  status: ('A' for Active; 'I' for Inactive)
ROOT
ATOM      1  C   UNL d   1      -2.021  -3.001   0.598  0.00  0.00     0.078 C 
ATOM      2  C1  UNL d   1      -0.833  -2.108   0.399  0.00  0.00    -0.077 A 
ATOM      3  C2  UNL d   1      -0.977  -0.716   0.348  0.00  0.00    -0.001 A 
ATOM      4  C3  UNL d   1       0.137   0.102   0.153  0.00  0.00     0.003 A 
ATOM      5  C4  UNL d   1       1.403  -0.462   0.006  0.00  0.00    -0.005 A 
ATOM      6  C5  UNL d   1       1.555  -1.846   0.053  0.00  0.00     0.003 A 
ATOM      7  C6  UNL d   1       0.443  -2.666   0.248  0.00  0.00    -0.001 A 
ENDROOT
TORSDOF 0
ENDMDL
