MODEL 1
REMARK minimizedAffinity -5.93905497
REMARK minimizedRMSD -1
REMARK  0 active torsions:
REMARK  status: ('A' for Active; 'I' for Inactive)
ROOT
ATOM      1  C   UNL d   1       0.541  -2.227  -3.040  0.00  0.00     0.078 C 
ATOM      2  C1  UNL d   1       0.169  -1.833  -1.642  0.00  0.00    -0.077 A 
ATOM      3  C2  UNL d   1      -0.098  -2.801  -0.666  0.00  0.00    -0.001 A 
ATOM      4  C3  UNL d   1      -0.453  -2.419   0.628  0.00  0.00     0.003 A 
ATOM      5  C4  UNL d   1      -0.546  -1.069   0.959  0.00  0.00    -0.005 A 
ATOM      6  C5  UNL d   1      -0.284  -0.098  -0.006  0.00  0.00     0.003 A 
ATOM      7  C6  UNL d   1       0.071  -0.478  -1.301  0.00  0.00    -0.001 A 
ENDROOT
TORSDOF 0
ENDMDL
