MODEL 1
REMARK minimizedAffinity -2.94103646
REMARK minimizedRMSD -1
REMARK  0 active torsions:
REMARK  status: ('A' for Active; 'I' for Inactive)
ROOT
ATOM      1  C   UNL d   1       0.687   1.024  -0.231  0.00  0.00     0.078 C 
ATOM      2  C1  UNL d   1       0.368  -0.416   0.039  0.00  0.00    -0.077 A 
ATOM      3  C2  UNL d   1       1.327  -1.417  -0.158  0.00  0.00    -0.001 A 
ATOM      4  C3  UNL d   1       1.012  -2.754   0.088  0.00  0.00     0.003 A 
ATOM      5  C4  UNL d   1      -0.262  -3.103   0.532  0.00  0.00    -0.005 A 
ATOM      6  C5  UNL d   1      -1.223  -2.115   0.729  0.00  0.00     0.003 A 
ATOM      7  C6  UNL d   1      -0.911  -0.777   0.483  0.00  0.00    -0.001 A 
ENDROOT
TORSDOF 0
ENDMDL
