MODEL 1
REMARK minimizedAffinity -5.39987993
REMARK minimizedRMSD -1
REMARK  0 active torsions:
REMARK  status: ('A' for Active; 'I' for Inactive)
ROOT
ATOM      1  C   UNL d   1       0.238  -3.062   0.733  0.00  0.00     0.078 C 
ATOM      2  C1  UNL d   1      -0.086  -1.611   0.537  0.00  0.00    -0.077 A 
ATOM      3  C2  UNL d   1       0.473  -0.883  -0.521  0.00  0.00    -0.001 A 
ATOM      4  C3  UNL d   1       0.169   0.469  -0.686  0.00  0.00     0.003 A 
ATOM      5  C4  UNL d   1      -0.694   1.106   0.204  0.00  0.00    -0.005 A 
ATOM      6  C5  UNL d   1      -1.253   0.391   1.261  0.00  0.00     0.003 A 
ATOM      7  C6  UNL d   1      -0.951  -0.962   1.427  0.00  0.00    -0.001 A 
ENDROOT
TORSDOF 0
ENDMDL
