MODEL 1
REMARK minimizedAffinity -4.95641947
REMARK minimizedRMSD -1
REMARK  0 active torsions:
REMARK  status: ('A' for Active; 'I' for Inactive)
ROOT
ATOM      1  C   UNL d   1       0.320  -3.342   0.278  0.00  0.00     0.078 C 
ATOM      2  C1  UNL d   1      -0.081  -1.918   0.519  0.00  0.00    -0.077 A 
ATOM      3  C2  UNL d   1      -1.105  -1.600   1.420  0.00  0.00    -0.001 A 
ATOM      4  C3  UNL d   1      -1.475  -0.270   1.628  0.00  0.00     0.003 A 
ATOM      5  C4  UNL d   1      -0.826   0.752   0.938  0.00  0.00    -0.005 A 
ATOM      6  C5  UNL d   1       0.192   0.446   0.038  0.00  0.00     0.003 A 
ATOM      7  C6  UNL d   1       0.563  -0.883  -0.171  0.00  0.00    -0.001 A 
ENDROOT
TORSDOF 0
ENDMDL
