MODEL 1
REMARK minimizedAffinity 17.9588909
REMARK minimizedRMSD -1
REMARK  0 active torsions:
REMARK  status: ('A' for Active; 'I' for Inactive)
ROOT
ATOM      1  C   UNL d   1      -0.276   0.561   1.851  0.00  0.00     0.020 A 
ATOM      2  C1  UNL d   1      -0.601  -0.780   1.654  0.00  0.00     0.020 A 
ATOM      3  C2  UNL d   1      -0.055  -1.760   2.485  0.00  0.00     0.034 A 
ATOM      4  C3  UNL d   1       0.819  -1.400   3.517  0.00  0.00     0.017 A 
ATOM      5  C4  UNL d   1       1.145  -0.054   3.714  0.00  0.00     0.017 A 
ATOM      6  C5  UNL d   1       0.595   0.924   2.879  0.00  0.00     0.034 A 
ATOM      7 Cl   UNL d   1       2.216   0.467   4.966  0.00  0.00    -0.070 Cl
ATOM      8 Cl1  UNL d   1       1.457  -2.665   4.507  0.00  0.00    -0.070 Cl
ENDROOT
TORSDOF 0
ENDMDL
