MODEL 1
REMARK minimizedAffinity 9.99026299
REMARK minimizedRMSD -1
REMARK  0 active torsions:
REMARK  status: ('A' for Active; 'I' for Inactive)
ROOT
ATOM      1  C   UNL d   1      -0.014  -0.653  -5.851  0.00  0.00     0.020 A 
ATOM      2  C1  UNL d   1       0.057  -2.038  -5.998  0.00  0.00     0.020 A 
ATOM      3  C2  UNL d   1       1.294  -2.683  -5.943  0.00  0.00     0.034 A 
ATOM      4  C3  UNL d   1       2.465  -1.944  -5.740  0.00  0.00     0.017 A 
ATOM      5  C4  UNL d   1       2.392  -0.554  -5.592  0.00  0.00     0.017 A 
ATOM      6  C5  UNL d   1       1.151   0.087  -5.648  0.00  0.00     0.034 A 
ATOM      7 Cl   UNL d   1       3.794   0.426  -5.338  0.00  0.00    -0.070 Cl
ATOM      8 Cl1  UNL d   1       3.961  -2.807  -5.682  0.00  0.00    -0.070 Cl
ENDROOT
TORSDOF 0
ENDMDL
