MODEL 1
REMARK minimizedAffinity 11.90833
REMARK minimizedRMSD -1
REMARK  0 active torsions:
REMARK  status: ('A' for Active; 'I' for Inactive)
ROOT
ATOM      1  C   UNL d   1      -0.970  -0.673   2.959  0.00  0.00     0.020 A 
ATOM      2  C1  UNL d   1      -0.685   0.668   2.703  0.00  0.00     0.020 A 
ATOM      3  C2  UNL d   1       0.580   1.182   2.997  0.00  0.00     0.034 A 
ATOM      4  C3  UNL d   1       1.564   0.354   3.549  0.00  0.00     0.017 A 
ATOM      5  C4  UNL d   1       1.278  -0.992   3.805  0.00  0.00     0.017 A 
ATOM      6  C5  UNL d   1       0.009  -1.501   3.508  0.00  0.00     0.034 A 
ATOM      7 Cl   UNL d   1       2.441  -2.074   4.484  0.00  0.00    -0.070 Cl
ATOM      8 Cl1  UNL d   1       3.107   1.056   3.887  0.00  0.00    -0.070 Cl
ENDROOT
TORSDOF 0
ENDMDL
