MODEL 1
REMARK minimizedAffinity 13.4814415
REMARK minimizedRMSD -1
REMARK  0 active torsions:
REMARK  status: ('A' for Active; 'I' for Inactive)
ROOT
ATOM      1  C   UNL d   1       0.832  -1.896  -5.995  0.00  0.00     0.020 A 
ATOM      2  C1  UNL d   1       0.804  -1.013  -4.916  0.00  0.00     0.020 A 
ATOM      3  C2  UNL d   1      -0.055  -1.251  -3.842  0.00  0.00     0.034 A 
ATOM      4  C3  UNL d   1      -0.890  -2.374  -3.843  0.00  0.00     0.017 A 
ATOM      5  C4  UNL d   1      -0.861  -3.260  -4.926  0.00  0.00     0.017 A 
ATOM      6  C5  UNL d   1       0.001  -3.017  -6.000  0.00  0.00     0.034 A 
ATOM      7 Cl   UNL d   1      -1.861  -4.667  -5.000  0.00  0.00    -0.070 Cl
ATOM      8 Cl1  UNL d   1      -1.927  -2.606  -2.481  0.00  0.00    -0.070 Cl
ENDROOT
TORSDOF 0
ENDMDL
