MODEL 1
REMARK minimizedAffinity 18.1655731
REMARK minimizedRMSD -1
REMARK  0 active torsions:
REMARK  status: ('A' for Active; 'I' for Inactive)
ROOT
ATOM      1  C   UNL d   1       0.954  -0.693  -5.999  0.00  0.00     0.020 A 
ATOM      2  C1  UNL d   1       1.144   0.042  -4.830  0.00  0.00     0.020 A 
ATOM      3  C2  UNL d   1       0.473  -0.321  -3.660  0.00  0.00     0.034 A 
ATOM      4  C3  UNL d   1      -0.391  -1.422  -3.657  0.00  0.00     0.017 A 
ATOM      5  C4  UNL d   1      -0.582  -2.159  -4.831  0.00  0.00     0.017 A 
ATOM      6  C5  UNL d   1       0.093  -1.791  -6.000  0.00  0.00     0.034 A 
ATOM      7 Cl   UNL d   1      -1.632  -3.530  -4.905  0.00  0.00    -0.070 Cl
ATOM      8 Cl1  UNL d   1      -1.188  -1.814  -2.174  0.00  0.00    -0.070 Cl
ENDROOT
TORSDOF 0
ENDMDL
