MODEL 1
REMARK minimizedAffinity 7.93897152
REMARK minimizedRMSD -1
REMARK  0 active torsions:
REMARK  status: ('A' for Active; 'I' for Inactive)
ROOT
ATOM      1  C   UNL d   1       2.754  -0.254  -5.231  0.00  0.00     0.020 A 
ATOM      2  C1  UNL d   1       1.383  -0.001  -5.231  0.00  0.00     0.020 A 
ATOM      3  C2  UNL d   1       0.481  -1.040  -5.471  0.00  0.00     0.034 A 
ATOM      4  C3  UNL d   1       0.949  -2.337  -5.711  0.00  0.00     0.017 A 
ATOM      5  C4  UNL d   1       2.326  -2.590  -5.711  0.00  0.00     0.017 A 
ATOM      6  C5  UNL d   1       3.224  -1.545  -5.471  0.00  0.00     0.034 A 
ATOM      7 Cl   UNL d   1       2.979  -4.163  -6.000  0.00  0.00    -0.070 Cl
ATOM      8 Cl1  UNL d   1      -0.223  -3.573  -6.000  0.00  0.00    -0.070 Cl
ENDROOT
TORSDOF 0
ENDMDL
