MODEL 1
REMARK minimizedAffinity 16.1251583
REMARK minimizedRMSD -1
REMARK  0 active torsions:
REMARK  status: ('A' for Active; 'I' for Inactive)
ROOT
ATOM      1  C   UNL d   1       0.601  -0.843   2.150  0.00  0.00     0.020 A 
ATOM      2  C1  UNL d   1       1.412  -0.804   3.284  0.00  0.00     0.020 A 
ATOM      3  C2  UNL d   1       1.191   0.163   4.267  0.00  0.00     0.034 A 
ATOM      4  C3  UNL d   1       0.158   1.095   4.118  0.00  0.00     0.017 A 
ATOM      5  C4  UNL d   1      -0.655   1.055   2.979  0.00  0.00     0.017 A 
ATOM      6  C5  UNL d   1      -0.430   0.085   1.998  0.00  0.00     0.034 A 
ATOM      7 Cl   UNL d   1      -1.949   2.172   2.725  0.00  0.00    -0.070 Cl
ATOM      8 Cl1  UNL d   1      -0.057   2.263   5.373  0.00  0.00    -0.070 Cl
ENDROOT
TORSDOF 0
ENDMDL
