MODEL 1
REMARK minimizedAffinity 6.12910318
REMARK minimizedRMSD -1
REMARK  0 active torsions:
REMARK  status: ('A' for Active; 'I' for Inactive)
ROOT
ATOM      1  C   UNL d   1       1.577  -0.572   3.807  0.00  0.00     0.020 A 
ATOM      2  C1  UNL d   1       0.886  -1.781   3.873  0.00  0.00     0.020 A 
ATOM      3  C2  UNL d   1      -0.456  -1.840   3.495  0.00  0.00     0.034 A 
ATOM      4  C3  UNL d   1      -1.113  -0.687   3.048  0.00  0.00     0.017 A 
ATOM      5  C4  UNL d   1      -0.419   0.526   2.982  0.00  0.00     0.017 A 
ATOM      6  C5  UNL d   1       0.926   0.579   3.362  0.00  0.00     0.034 A 
ATOM      7 Cl   UNL d   1      -1.161   1.991   2.442  0.00  0.00    -0.070 Cl
ATOM      8 Cl1  UNL d   1      -2.774  -0.833   2.596  0.00  0.00    -0.070 Cl
ENDROOT
TORSDOF 0
ENDMDL
