MODEL 1
REMARK minimizedAffinity 14.1188011
REMARK minimizedRMSD -1
REMARK  0 active torsions:
REMARK  status: ('A' for Active; 'I' for Inactive)
ROOT
ATOM      1  C   UNL d   1       4.497  -2.074   6.000  0.00  0.00     0.020 A 
ATOM      2  C1  UNL d   1       3.360  -2.749   5.560  0.00  0.00     0.020 A 
ATOM      3  C2  UNL d   1       2.437  -2.099   4.737  0.00  0.00     0.034 A 
ATOM      4  C3  UNL d   1       2.650  -0.771   4.352  0.00  0.00     0.017 A 
ATOM      5  C4  UNL d   1       3.793  -0.094   4.795  0.00  0.00     0.017 A 
ATOM      6  C5  UNL d   1       4.714  -0.750   5.618  0.00  0.00     0.034 A 
ATOM      7 Cl   UNL d   1       4.125   1.546   4.362  0.00  0.00    -0.070 Cl
ATOM      8 Cl1  UNL d   1       1.468  -0.030   3.333  0.00  0.00    -0.070 Cl
ENDROOT
TORSDOF 0
ENDMDL
