MODEL 1
REMARK minimizedAffinity 9.20668983
REMARK minimizedRMSD -1
REMARK  0 active torsions:
REMARK  status: ('A' for Active; 'I' for Inactive)
ROOT
ATOM      1  C   UNL d   1       1.656  -1.360  -5.815  0.00  0.00     0.020 A 
ATOM      2  C1  UNL d   1       1.404  -0.360  -4.876  0.00  0.00     0.020 A 
ATOM      3  C2  UNL d   1       0.230  -0.392  -4.121  0.00  0.00     0.034 A 
ATOM      4  C3  UNL d   1      -0.697  -1.425  -4.303  0.00  0.00     0.017 A 
ATOM      5  C4  UNL d   1      -0.443  -2.428  -5.246  0.00  0.00     0.017 A 
ATOM      6  C5  UNL d   1       0.734  -2.391  -6.000  0.00  0.00     0.034 A 
ATOM      7 Cl   UNL d   1      -1.539  -3.734  -5.528  0.00  0.00    -0.070 Cl
ATOM      8 Cl1  UNL d   1      -2.127  -1.402  -3.335  0.00  0.00    -0.070 Cl
ENDROOT
TORSDOF 0
ENDMDL
