MODEL 1
REMARK minimizedAffinity -2.35166502
REMARK minimizedRMSD -1
REMARK  0 active torsions:
REMARK  status: ('A' for Active; 'I' for Inactive)
ROOT
ATOM      1  C   UNL d   1       0.631   0.347  -1.567  0.00  0.00    -0.002 A 
ATOM      2  C1  UNL d   1      -0.173  -0.777  -1.448  0.00  0.00     0.010 A 
ATOM      3  C2  UNL d   1      -0.892  -1.016  -0.275  0.00  0.00     0.041 A 
ATOM      4  C3  UNL d   1      -0.789  -0.095   0.786  0.00  0.00    -0.075 A 
ATOM      5  S   UNL d   1      -1.579  -0.180   2.317  0.00  0.00     0.015 SA
ATOM      6  C4  UNL d   1      -0.868   1.275   2.848  0.00  0.00     0.022 A 
ATOM      7  C5  UNL d   1      -0.045   1.825   1.894  0.00  0.00     0.026 A 
ATOM      8  C6  UNL d   1       0.013   1.045   0.690  0.00  0.00    -0.082 A 
ATOM      9  C7  UNL d   1       0.730   1.258  -0.512  0.00  0.00     0.045 A 
ENDROOT
TORSDOF 0
ENDMDL
