MODEL 1
REMARK minimizedAffinity -3.49138212
REMARK minimizedRMSD -1
REMARK  0 active torsions:
REMARK  status: ('A' for Active; 'I' for Inactive)
ROOT
ATOM      1  C   UNL d   1      -1.734   0.812   2.230  0.00  0.00    -0.002 A 
ATOM      2  C1  UNL d   1      -2.331   0.762   0.978  0.00  0.00     0.010 A 
ATOM      3  C2  UNL d   1      -1.665   0.186  -0.105  0.00  0.00     0.041 A 
ATOM      4  C3  UNL d   1      -0.375  -0.345   0.093  0.00  0.00    -0.075 A 
ATOM      5  S   UNL d   1       0.631  -1.100  -1.086  0.00  0.00     0.015 SA
ATOM      6  C4  UNL d   1       1.878  -1.374   0.043  0.00  0.00     0.022 A 
ATOM      7  C5  UNL d   1       1.551  -0.907   1.295  0.00  0.00     0.026 A 
ATOM      8  C6  UNL d   1       0.248  -0.307   1.344  0.00  0.00    -0.082 A 
ATOM      9  C7  UNL d   1      -0.454   0.284   2.422  0.00  0.00     0.045 A 
ENDROOT
TORSDOF 0
ENDMDL
