MODEL 1
REMARK minimizedAffinity 0.602684259
REMARK minimizedRMSD -1
REMARK  0 active torsions:
REMARK  status: ('A' for Active; 'I' for Inactive)
ROOT
ATOM      1  C   UNL d   1      -0.877   0.334  -0.988  0.00  0.00    -0.002 A 
ATOM      2  C1  UNL d   1       0.387  -0.201  -0.783  0.00  0.00     0.010 A 
ATOM      3  C2  UNL d   1       0.912  -0.307   0.507  0.00  0.00     0.041 A 
ATOM      4  C3  UNL d   1       0.138   0.136   1.597  0.00  0.00    -0.075 A 
ATOM      5  S   UNL d   1       0.575   0.104   3.264  0.00  0.00     0.015 SA
ATOM      6  C4  UNL d   1      -0.906   0.799   3.743  0.00  0.00     0.022 A 
ATOM      7  C5  UNL d   1      -1.726   1.056   2.670  0.00  0.00     0.026 A 
ATOM      8  C6  UNL d   1      -1.138   0.677   1.415  0.00  0.00    -0.082 A 
ATOM      9  C7  UNL d   1      -1.642   0.772   0.096  0.00  0.00     0.045 A 
ENDROOT
TORSDOF 0
ENDMDL
