MODEL 1
REMARK minimizedAffinity 0.971276522
REMARK minimizedRMSD -1
REMARK  0 active torsions:
REMARK  status: ('A' for Active; 'I' for Inactive)
ROOT
ATOM      1  C   UNL d   1       0.186   0.190   2.270  0.00  0.00    -0.002 A 
ATOM      2  C1  UNL d   1       1.339  -0.447   1.835  0.00  0.00     0.010 A 
ATOM      3  C2  UNL d   1       1.618  -0.558   0.471  0.00  0.00     0.041 A 
ATOM      4  C3  UNL d   1       0.711  -0.009  -0.457  0.00  0.00    -0.075 A 
ATOM      5  S   UNL d   1       0.846  -0.024  -2.176  0.00  0.00     0.015 SA
ATOM      6  C4  UNL d   1      -0.624   0.816  -2.373  0.00  0.00     0.022 A 
ATOM      7  C5  UNL d   1      -1.216   1.108  -1.167  0.00  0.00     0.026 A 
ATOM      8  C6  UNL d   1      -0.457   0.638  -0.043  0.00  0.00    -0.082 A 
ATOM      9  C7  UNL d   1      -0.712   0.733   1.346  0.00  0.00     0.045 A 
ENDROOT
TORSDOF 0
ENDMDL
