MODEL 1
REMARK minimizedAffinity 14.1696129
REMARK minimizedRMSD -1
REMARK  1 active torsions:
REMARK  status: ('A' for Active; 'I' for Inactive)
REMARK    1  A    between atoms: C1_2  and  C2_3 
ROOT
ATOM      1  C2  UNL d   1       4.509   2.138   1.445  0.00  0.00    -0.081 A 
ATOM      2  C3  UNL d   1       4.081   3.257   0.720  0.00  0.00     0.006 A 
ATOM      3  C4  UNL d   1       3.982   4.506   1.339  0.00  0.00     0.002 A 
ATOM      4  C5  UNL d   1       4.317   4.658   2.689  0.00  0.00    -0.080 A 
ATOM      5  C6  UNL d   1       4.245   5.999   3.357  0.00  0.00     0.076 C 
ATOM      6  C7  UNL d   1       4.728   3.536   3.417  0.00  0.00     0.002 A 
ATOM      7  C8  UNL d   1       4.826   2.287   2.800  0.00  0.00     0.006 A 
ENDROOT
BRANCH   1   8
ATOM      8  C1  UNL d   1       4.678   0.803   0.765  0.00  0.00     0.054 C 
ATOM      9  C   UNL d   1       5.999   0.729   0.013  0.00  0.00     0.018 C 
ENDBRANCH   1   8
TORSDOF 1
ENDMDL
