MODEL 1
REMARK minimizedAffinity 14.6013403
REMARK minimizedRMSD -1
REMARK  1 active torsions:
REMARK  status: ('A' for Active; 'I' for Inactive)
REMARK    1  A    between atoms: C1_2  and  C2_3 
ROOT
ATOM      1  C2  UNL d   1       2.255   0.321   4.082  0.00  0.00    -0.081 A 
ATOM      2  C3  UNL d   1       1.228   0.932   4.812  0.00  0.00     0.006 A 
ATOM      3  C4  UNL d   1      -0.091   0.881   4.355  0.00  0.00     0.002 A 
ATOM      4  C5  UNL d   1      -0.406   0.213   3.168  0.00  0.00    -0.080 A 
ATOM      5  C6  UNL d   1      -1.823   0.125   2.682  0.00  0.00     0.076 C 
ATOM      6  C7  UNL d   1       0.623  -0.383   2.430  0.00  0.00     0.002 A 
ATOM      7  C8  UNL d   1       1.942  -0.332   2.885  0.00  0.00     0.006 A 
ENDROOT
BRANCH   1   8
ATOM      8  C1  UNL d   1       3.669   0.319   4.605  0.00  0.00     0.054 C 
ATOM      9  C   UNL d   1       4.544   1.299   3.837  0.00  0.00     0.018 C 
ENDBRANCH   1   8
TORSDOF 1
ENDMDL
