MODEL 1
REMARK minimizedAffinity 18.1724281
REMARK minimizedRMSD -1
REMARK  1 active torsions:
REMARK  status: ('A' for Active; 'I' for Inactive)
REMARK    1  A    between atoms: C1_2  and  C2_3 
ROOT
ATOM      1  C2  UNL d   1      -0.787  -0.461   2.663  0.00  0.00    -0.081 A 
ATOM      2  C3  UNL d   1      -0.908  -1.356   3.733  0.00  0.00     0.006 A 
ATOM      3  C4  UNL d   1       0.222  -1.774   4.439  0.00  0.00     0.002 A 
ATOM      4  C5  UNL d   1       1.492  -1.298   4.093  0.00  0.00    -0.080 A 
ATOM      5  C6  UNL d   1       2.710  -1.716   4.861  0.00  0.00     0.076 C 
ATOM      6  C7  UNL d   1       1.615  -0.418   3.013  0.00  0.00     0.002 A 
ATOM      7  C8  UNL d   1       0.485  -0.000   2.306  0.00  0.00     0.006 A 
ENDROOT
BRANCH   1   8
ATOM      8  C1  UNL d   1      -2.011   0.042   1.942  0.00  0.00     0.054 C 
ATOM      9  C   UNL d   1      -3.240  -0.784   2.295  0.00  0.00     0.018 C 
ENDBRANCH   1   8
TORSDOF 1
ENDMDL
