MODEL 1
REMARK minimizedAffinity 6.94395542
REMARK minimizedRMSD -1
REMARK  1 active torsions:
REMARK  status: ('A' for Active; 'I' for Inactive)
REMARK    1  A    between atoms: C1_2  and  C2_3 
ROOT
ATOM      1  C2  UNL d   1       0.449  -3.729  -5.730  0.00  0.00    -0.081 A 
ATOM      2  C3  UNL d   1       1.831  -3.904  -5.588  0.00  0.00     0.006 A 
ATOM      3  C4  UNL d   1       2.654  -2.820  -5.278  0.00  0.00     0.002 A 
ATOM      4  C5  UNL d   1       2.110  -1.544  -5.097  0.00  0.00    -0.080 A 
ATOM      5  C6  UNL d   1       2.979  -0.376  -4.735  0.00  0.00     0.076 C 
ATOM      6  C7  UNL d   1       0.731  -1.365  -5.256  0.00  0.00     0.002 A 
ATOM      7  C8  UNL d   1      -0.093  -2.449  -5.567  0.00  0.00     0.006 A 
ENDROOT
BRANCH   1   8
ATOM      8  C1  UNL d   1      -0.450  -4.908  -6.000  0.00  0.00     0.054 C 
ATOM      9  C   UNL d   1      -1.916  -4.501  -5.990  0.00  0.00     0.018 C 
ENDBRANCH   1   8
TORSDOF 1
ENDMDL
