MODEL 1
REMARK minimizedAffinity 18.7805023
REMARK minimizedRMSD -1
REMARK  1 active torsions:
REMARK  status: ('A' for Active; 'I' for Inactive)
REMARK    1  A    between atoms: C1_2  and  C2_3 
ROOT
ATOM      1  C2  UNL d   1       5.210   4.336   2.574  0.00  0.00    -0.081 A 
ATOM      2  C3  UNL d   1       5.182   3.316   3.532  0.00  0.00     0.006 A 
ATOM      3  C4  UNL d   1       5.423   1.990   3.163  0.00  0.00     0.002 A 
ATOM      4  C5  UNL d   1       5.703   1.664   1.832  0.00  0.00    -0.080 A 
ATOM      5  C6  UNL d   1       5.994   0.250   1.427  0.00  0.00     0.076 C 
ATOM      6  C7  UNL d   1       5.714   2.681   0.871  0.00  0.00     0.002 A 
ATOM      7  C8  UNL d   1       5.472   4.007   1.240  0.00  0.00     0.006 A 
ENDROOT
BRANCH   1   8
ATOM      8  C1  UNL d   1       5.014   5.775   2.980  0.00  0.00     0.054 C 
ATOM      9  C   UNL d   1       5.388   5.994   4.439  0.00  0.00     0.018 C 
ENDBRANCH   1   8
TORSDOF 1
ENDMDL
