MODEL 1
REMARK minimizedAffinity 19.5201683
REMARK minimizedRMSD -1
REMARK  1 active torsions:
REMARK  status: ('A' for Active; 'I' for Inactive)
REMARK    1  A    between atoms: C1_2  and  C2_3 
ROOT
ATOM      1  C2  UNL d   1       2.347   1.036   4.457  0.00  0.00    -0.081 A 
ATOM      2  C3  UNL d   1       2.280   0.358   3.234  0.00  0.00     0.006 A 
ATOM      3  C4  UNL d   1       1.044   0.018   2.678  0.00  0.00     0.002 A 
ATOM      4  C5  UNL d   1      -0.145   0.357   3.332  0.00  0.00    -0.080 A 
ATOM      5  C6  UNL d   1      -1.479   0.025   2.732  0.00  0.00     0.076 C 
ATOM      6  C7  UNL d   1      -0.078   1.019   4.563  0.00  0.00     0.002 A 
ATOM      7  C8  UNL d   1       1.157   1.358   5.119  0.00  0.00     0.006 A 
ENDROOT
BRANCH   1   8
ATOM      8  C1  UNL d   1       3.676   1.461   5.027  0.00  0.00     0.054 C 
ATOM      9  C   UNL d   1       4.644   1.872   3.926  0.00  0.00     0.018 C 
ENDBRANCH   1   8
TORSDOF 1
ENDMDL
