MODEL 1
REMARK minimizedAffinity 12.1910868
REMARK minimizedRMSD -1
REMARK  1 active torsions:
REMARK  status: ('A' for Active; 'I' for Inactive)
REMARK    1  A    between atoms: C1_2  and  C2_3 
ROOT
ATOM      1  C2  UNL d   1       0.491  -0.968   2.412  0.00  0.00    -0.081 A 
ATOM      2  C3  UNL d   1       0.671  -1.602   3.648  0.00  0.00     0.006 A 
ATOM      3  C4  UNL d   1       1.660  -1.164   4.531  0.00  0.00     0.002 A 
ATOM      4  C5  UNL d   1       2.481  -0.081   4.198  0.00  0.00    -0.080 A 
ATOM      5  C6  UNL d   1       3.527   0.418   5.149  0.00  0.00     0.076 C 
ATOM      6  C7  UNL d   1       2.313   0.541   2.956  0.00  0.00     0.002 A 
ATOM      7  C8  UNL d   1       1.324   0.103   2.072  0.00  0.00     0.006 A 
ENDROOT
BRANCH   1   8
ATOM      8  C1  UNL d   1      -0.618  -1.397   1.485  0.00  0.00     0.054 C 
ATOM      9  C   UNL d   1      -1.946  -0.772   1.886  0.00  0.00     0.018 C 
ENDBRANCH   1   8
TORSDOF 1
ENDMDL
