MODEL 1
REMARK minimizedAffinity 8.10219288
REMARK minimizedRMSD -1
REMARK  2 active torsions:
REMARK  status: ('A' for Active; 'I' for Inactive)
REMARK    1  A    between atoms: C2'_3  and  C1'_4 
REMARK    2  A    between atoms: C1'_4  and  C1_5 
ROOT
ATOM      1  C1  I4B d   1       3.478   2.296  -0.658  0.00  0.00    -0.075 A 
ATOM      2  C2  I4B d   1       4.050   2.275  -1.906  0.00  0.00     0.003 A 
ATOM      3  C3  I4B d   1       5.243   2.996  -2.155  0.00  0.00     0.002 A 
ATOM      4  C4  I4B d   1       5.798   3.760  -1.149  0.00  0.00    -0.004 A 
ATOM      5  C5  I4B d   1       5.229   3.762   0.121  0.00  0.00     0.002 A 
ATOM      6  C6  I4B d   1       4.068   3.016   0.372  0.00  0.00     0.003 A 
ENDROOT
BRANCH   1   7
ATOM      7  C1' I4B d   1       2.200   1.549  -0.439  0.00  0.00     0.060 C 
BRANCH   7   8
ATOM      8  C2' I4B d   1       2.551   0.121  -0.075  0.00  0.00    -0.013 C 
ATOM      9  C4' I4B d   1       2.189  -0.182   1.355  0.00  0.00     0.013 C 
ATOM     10  C3' I4B d   1       1.826  -0.789  -1.021  0.00  0.00     0.013 C 
ENDBRANCH   7   8
ENDBRANCH   1   7
TORSDOF 2
ENDMDL
