MODEL 1
REMARK minimizedAffinity 15.5011806
REMARK minimizedRMSD -1
REMARK  2 active torsions:
REMARK  status: ('A' for Active; 'I' for Inactive)
REMARK    1  A    between atoms: C2'_3  and  C1'_4 
REMARK    2  A    between atoms: C1'_4  and  C1_5 
ROOT
ATOM      1  C1  I4B d   1      -4.937   3.910   3.408  0.00  0.00    -0.075 A 
ATOM      2  C2  I4B d   1      -5.934   3.950   4.351  0.00  0.00     0.003 A 
ATOM      3  C3  I4B d   1      -6.000   5.021   5.274  0.00  0.00     0.002 A 
ATOM      4  C4  I4B d   1      -5.026   5.999   5.251  0.00  0.00    -0.004 A 
ATOM      5  C5  I4B d   1      -4.030   5.970   4.280  0.00  0.00     0.002 A 
ATOM      6  C6  I4B d   1      -3.992   4.926   3.344  0.00  0.00     0.003 A 
ENDROOT
BRANCH   1   7
ATOM      7  C1' I4B d   1      -4.878   2.747   2.470  0.00  0.00     0.060 C 
BRANCH   7   8
ATOM      8  C2' I4B d   1      -5.349   3.220   1.109  0.00  0.00    -0.013 C 
ATOM      9  C4' I4B d   1      -4.356   4.167   0.488  0.00  0.00     0.013 C 
ATOM     10  C3' I4B d   1      -5.558   2.012   0.246  0.00  0.00     0.013 C 
ENDBRANCH   7   8
ENDBRANCH   1   7
TORSDOF 2
ENDMDL
