MODEL 1
REMARK minimizedAffinity 4.11681747
REMARK minimizedRMSD -1
REMARK  2 active torsions:
REMARK  status: ('A' for Active; 'I' for Inactive)
REMARK    1  A    between atoms: C2'_3  and  C1'_4 
REMARK    2  A    between atoms: C1'_4  and  C1_5 
ROOT
ATOM      1  C1  I4B d   1       4.121   4.305   3.695  0.00  0.00    -0.075 A 
ATOM      2  C2  I4B d   1       4.844   5.432   3.395  0.00  0.00     0.003 A 
ATOM      3  C3  I4B d   1       5.713   5.999   4.359  0.00  0.00     0.002 A 
ATOM      4  C4  I4B d   1       5.791   5.439   5.618  0.00  0.00    -0.004 A 
ATOM      5  C5  I4B d   1       5.075   4.282   5.912  0.00  0.00     0.002 A 
ATOM      6  C6  I4B d   1       4.244   3.704   4.942  0.00  0.00     0.003 A 
ENDROOT
BRANCH   1   7
ATOM      7  C1' I4B d   1       3.188   3.752   2.666  0.00  0.00     0.060 C 
BRANCH   7   8
ATOM      8  C2' I4B d   1       2.541   2.508   3.241  0.00  0.00    -0.013 C 
ATOM      9  C4' I4B d   1       1.360   2.859   4.108  0.00  0.00     0.013 C 
ATOM     10  C3' I4B d   1       2.132   1.628   2.099  0.00  0.00     0.013 C 
ENDBRANCH   7   8
ENDBRANCH   1   7
TORSDOF 2
ENDMDL
