MODEL 1
REMARK minimizedAffinity 14.3589935
REMARK minimizedRMSD -1
REMARK  2 active torsions:
REMARK  status: ('A' for Active; 'I' for Inactive)
REMARK    1  A    between atoms: C2'_3  and  C1'_4 
REMARK    2  A    between atoms: C1'_4  and  C1_5 
ROOT
ATOM      1  C1  I4B d   1       2.007   1.461  -0.212  0.00  0.00    -0.075 A 
ATOM      2  C2  I4B d   1       1.804   0.211  -0.742  0.00  0.00     0.003 A 
ATOM      3  C3  I4B d   1       2.605  -0.246  -1.817  0.00  0.00     0.002 A 
ATOM      4  C4  I4B d   1       3.556   0.593  -2.360  0.00  0.00    -0.004 A 
ATOM      5  C5  I4B d   1       3.775   1.851  -1.807  0.00  0.00     0.002 A 
ATOM      6  C6  I4B d   1       3.005   2.284  -0.719  0.00  0.00     0.003 A 
ENDROOT
BRANCH   1   7
ATOM      7  C1' I4B d   1       1.122   1.924   0.901  0.00  0.00     0.060 C 
BRANCH   7   8
ATOM      8  C2' I4B d   1       1.673   1.368   2.198  0.00  0.00    -0.013 C 
ATOM      9  C4' I4B d   1       1.736   2.431   3.264  0.00  0.00     0.013 C 
ATOM     10  C3' I4B d   1       0.796   0.228   2.622  0.00  0.00     0.013 C 
ENDBRANCH   7   8
ENDBRANCH   1   7
TORSDOF 2
ENDMDL
