MODEL 1
REMARK minimizedAffinity 23.9158554
REMARK minimizedRMSD -1
REMARK  2 active torsions:
REMARK  status: ('A' for Active; 'I' for Inactive)
REMARK    1  A    between atoms: C2'_3  and  C1'_4 
REMARK    2  A    between atoms: C1'_4  and  C1_5 
ROOT
ATOM      1  C1  I4B d   1       2.527  -2.126  -0.998  0.00  0.00    -0.075 A 
ATOM      2  C2  I4B d   1       1.926  -1.423  -2.012  0.00  0.00     0.003 A 
ATOM      3  C3  I4B d   1       2.142  -1.793  -3.362  0.00  0.00     0.002 A 
ATOM      4  C4  I4B d   1       3.001  -2.833  -3.652  0.00  0.00    -0.004 A 
ATOM      5  C5  I4B d   1       3.592  -3.559  -2.622  0.00  0.00     0.002 A 
ATOM      6  C6  I4B d   1       3.344  -3.212  -1.286  0.00  0.00     0.003 A 
ENDROOT
BRANCH   1   7
ATOM      7  C1' I4B d   1       2.303  -1.688   0.414  0.00  0.00     0.060 C 
BRANCH   7   8
ATOM      8  C2' I4B d   1       2.959  -2.704   1.328  0.00  0.00    -0.013 C 
ATOM      9  C4' I4B d   1       4.160  -2.117   2.022  0.00  0.00     0.013 C 
ATOM     10  C3' I4B d   1       1.933  -3.166   2.318  0.00  0.00     0.013 C 
ENDBRANCH   7   8
ENDBRANCH   1   7
TORSDOF 2
ENDMDL
