MODEL 1
REMARK minimizedAffinity 8.70822144
REMARK minimizedRMSD -1
REMARK  2 active torsions:
REMARK  status: ('A' for Active; 'I' for Inactive)
REMARK    1  A    between atoms: C2'_3  and  C1'_4 
REMARK    2  A    between atoms: C1'_4  and  C1_5 
ROOT
ATOM      1  C1  I4B d   1       3.362   0.020  -0.317  0.00  0.00    -0.075 A 
ATOM      2  C2  I4B d   1       2.990   1.309  -0.029  0.00  0.00     0.003 A 
ATOM      3  C3  I4B d   1       3.971   2.282   0.281  0.00  0.00     0.002 A 
ATOM      4  C4  I4B d   1       5.299   1.913   0.339  0.00  0.00    -0.004 A 
ATOM      5  C5  I4B d   1       5.677   0.611   0.024  0.00  0.00     0.002 A 
ATOM      6  C6  I4B d   1       4.704  -0.339  -0.319  0.00  0.00     0.003 A 
ENDROOT
BRANCH   1   7
ATOM      7  C1' I4B d   1       2.297  -0.990  -0.607  0.00  0.00     0.060 C 
BRANCH   7   8
ATOM      8  C2' I4B d   1       2.770  -2.330  -0.082  0.00  0.00    -0.013 C 
ATOM      9  C4' I4B d   1       2.699  -2.382   1.422  0.00  0.00     0.013 C 
ATOM     10  C3' I4B d   1       1.916  -3.397  -0.701  0.00  0.00     0.013 C 
ENDBRANCH   7   8
ENDBRANCH   1   7
TORSDOF 2
ENDMDL
