MODEL 1
REMARK minimizedAffinity 18.7448521
REMARK minimizedRMSD -1
REMARK  2 active torsions:
REMARK  status: ('A' for Active; 'I' for Inactive)
REMARK    1  A    between atoms: C2'_3  and  C1'_4 
REMARK    2  A    between atoms: C1'_4  and  C1_5 
ROOT
ATOM      1  C1  I4B d   1       0.671   0.190   3.241  0.00  0.00    -0.075 A 
ATOM      2  C2  I4B d   1       0.755   1.107   4.259  0.00  0.00     0.003 A 
ATOM      3  C3  I4B d   1       1.556   2.265   4.111  0.00  0.00     0.002 A 
ATOM      4  C4  I4B d   1       2.291   2.440   2.957  0.00  0.00    -0.004 A 
ATOM      5  C5  I4B d   1       2.188   1.521   1.916  0.00  0.00     0.002 A 
ATOM      6  C6  I4B d   1       1.363   0.395   2.054  0.00  0.00     0.003 A 
ENDROOT
BRANCH   1   7
ATOM      7  C1' I4B d   1      -0.158  -1.038   3.443  0.00  0.00     0.060 C 
BRANCH   7   8
ATOM      8  C2' I4B d   1       0.723  -2.098   4.072  0.00  0.00    -0.013 C 
ATOM      9  C4' I4B d   1      -0.102  -3.192   4.697  0.00  0.00     0.013 C 
ATOM     10  C3' I4B d   1       1.625  -2.643   3.005  0.00  0.00     0.013 C 
ENDBRANCH   7   8
ENDBRANCH   1   7
TORSDOF 2
ENDMDL
