MODEL 1
REMARK minimizedAffinity 19.9392643
REMARK minimizedRMSD -1
REMARK  0 active torsions:
REMARK  status: ('A' for Active; 'I' for Inactive)
ROOT
ATOM      1  C   UNL d   1       1.565  -0.950   1.760  0.00  0.00     0.124 A 
ATOM      2  C1  UNL d   1       1.269  -0.252   2.922  0.00  0.00     0.062 A 
ATOM      3  C2  UNL d   1       1.155  -0.927   4.134  0.00  0.00     0.162 A 
ATOM      4  C3  UNL d   1       1.337  -2.309   4.190  0.00  0.00    -0.034 A 
ATOM      5  C4  UNL d   1       1.634  -3.004   3.016  0.00  0.00     0.162 A 
ATOM      6  C5  UNL d   1       1.747  -2.325   1.808  0.00  0.00     0.062 A 
ATOM      7  F   UNL d   1       2.033  -3.001   0.685  0.00  0.00    -0.097 F 
ATOM      8  F1  UNL d   1       1.815  -4.333   3.034  0.00  0.00    -0.096 F 
ATOM      9  I   UNL d   1       1.166  -3.322   6.000  0.00  0.00    -0.060 I 
ATOM     10  F2  UNL d   1       0.868  -0.227   5.242  0.00  0.00    -0.096 F 
ATOM     11  F3  UNL d   1       1.092   1.076   2.878  0.00  0.00    -0.097 F 
ATOM     12  F4  UNL d   1       1.674  -0.298   0.595  0.00  0.00    -0.092 F 
ENDROOT
TORSDOF 0
ENDMDL
