MODEL 1
REMARK minimizedAffinity 17.6967964
REMARK minimizedRMSD -1
REMARK  0 active torsions:
REMARK  status: ('A' for Active; 'I' for Inactive)
ROOT
ATOM      1  C   UNL d   1      -1.108  -4.829   0.199  0.00  0.00     0.124 A 
ATOM      2  C1  UNL d   1       0.232  -4.914   0.554  0.00  0.00     0.062 A 
ATOM      3  C2  UNL d   1       0.815  -3.916   1.329  0.00  0.00     0.162 A 
ATOM      4  C3  UNL d   1       0.060  -2.824   1.756  0.00  0.00    -0.034 A 
ATOM      5  C4  UNL d   1      -1.287  -2.745   1.394  0.00  0.00     0.162 A 
ATOM      6  C5  UNL d   1      -1.865  -3.745   0.620  0.00  0.00     0.062 A 
ATOM      7  F   UNL d   1      -3.159  -3.661   0.278  0.00  0.00    -0.097 F 
ATOM      8  F1  UNL d   1      -2.042  -1.709   1.788  0.00  0.00    -0.096 F 
ATOM      9  I   UNL d   1       0.929  -1.329   2.914  0.00  0.00    -0.060 I 
ATOM     10  F2  UNL d   1       2.112  -4.024   1.656  0.00  0.00    -0.096 F 
ATOM     11  F3  UNL d   1       0.966  -5.960   0.148  0.00  0.00    -0.097 F 
ATOM     12  F4  UNL d   1      -1.666  -5.790  -0.547  0.00  0.00    -0.092 F 
ENDROOT
TORSDOF 0
ENDMDL
