MODEL 1
REMARK minimizedAffinity 15.0093374
REMARK minimizedRMSD -1
REMARK  0 active torsions:
REMARK  status: ('A' for Active; 'I' for Inactive)
ROOT
ATOM      1  C   UNL d   1       2.312  -2.058   1.444  0.00  0.00     0.124 A 
ATOM      2  C1  UNL d   1       1.738  -1.165   2.338  0.00  0.00     0.062 A 
ATOM      3  C2  UNL d   1       1.430  -1.570   3.633  0.00  0.00     0.162 A 
ATOM      4  C3  UNL d   1       1.697  -2.877   4.044  0.00  0.00    -0.034 A 
ATOM      5  C4  UNL d   1       2.274  -3.770   3.139  0.00  0.00     0.162 A 
ATOM      6  C5  UNL d   1       2.579  -3.360   1.846  0.00  0.00     0.062 A 
ATOM      7  F   UNL d   1       3.133  -4.224   0.984  0.00  0.00    -0.097 F 
ATOM      8  F1  UNL d   1       2.543  -5.033   3.501  0.00  0.00    -0.096 F 
ATOM      9  I   UNL d   1       1.239  -3.487   5.980  0.00  0.00    -0.060 I 
ATOM     10  F2  UNL d   1       0.876  -0.686   4.476  0.00  0.00    -0.096 F 
ATOM     11  F3  UNL d   1       1.477   0.093   1.953  0.00  0.00    -0.097 F 
ATOM     12  F4  UNL d   1       2.606  -1.666   0.198  0.00  0.00    -0.092 F 
ENDROOT
TORSDOF 0
ENDMDL
