MODEL 1
REMARK minimizedAffinity 16.968008
REMARK minimizedRMSD -1
REMARK  0 active torsions:
REMARK  status: ('A' for Active; 'I' for Inactive)
ROOT
ATOM      1  C   UNL d   1      -0.935  -4.884   0.372  0.00  0.00     0.124 A 
ATOM      2  C1  UNL d   1      -1.690  -3.726   0.495  0.00  0.00     0.062 A 
ATOM      3  C2  UNL d   1      -1.114  -2.565   1.002  0.00  0.00     0.162 A 
ATOM      4  C3  UNL d   1       0.225  -2.555   1.390  0.00  0.00    -0.034 A 
ATOM      5  C4  UNL d   1       0.978  -3.724   1.265  0.00  0.00     0.162 A 
ATOM      6  C5  UNL d   1       0.398  -4.882   0.757  0.00  0.00     0.062 A 
ATOM      7  F   UNL d   1       1.129  -6.000   0.640  0.00  0.00    -0.097 F 
ATOM      8  F1  UNL d   1       2.269  -3.750   1.628  0.00  0.00    -0.096 F 
ATOM      9  I   UNL d   1       1.091  -0.821   2.148  0.00  0.00    -0.060 I 
ATOM     10  F2  UNL d   1      -1.868  -1.460   1.109  0.00  0.00    -0.096 F 
ATOM     11  F3  UNL d   1      -2.979  -3.725   0.124  0.00  0.00    -0.097 F 
ATOM     12  F4  UNL d   1      -1.492  -6.000  -0.115  0.00  0.00    -0.092 F 
ENDROOT
TORSDOF 0
ENDMDL
