MODEL 1
REMARK minimizedAffinity 14.6091757
REMARK minimizedRMSD -1
REMARK  0 active torsions:
REMARK  status: ('A' for Active; 'I' for Inactive)
ROOT
ATOM      1  C   UNL d   1       2.187  -1.669   0.914  0.00  0.00     0.124 A 
ATOM      2  C1  UNL d   1       1.441  -0.861   1.761  0.00  0.00     0.062 A 
ATOM      3  C2  UNL d   1       1.225  -1.243   3.082  0.00  0.00     0.162 A 
ATOM      4  C3  UNL d   1       1.757  -2.439   3.564  0.00  0.00    -0.034 A 
ATOM      5  C4  UNL d   1       2.505  -3.246   2.706  0.00  0.00     0.162 A 
ATOM      6  C5  UNL d   1       2.719  -2.860   1.387  0.00  0.00     0.062 A 
ATOM      7  F   UNL d   1       3.440  -3.642   0.570  0.00  0.00    -0.097 F 
ATOM      8  F1  UNL d   1       3.031  -4.403   3.138  0.00  0.00    -0.096 F 
ATOM      9  I   UNL d   1       1.436  -3.014   5.539  0.00  0.00    -0.060 I 
ATOM     10  F2  UNL d   1       0.500  -0.443   3.878  0.00  0.00    -0.096 F 
ATOM     11  F3  UNL d   1       0.926   0.290   1.306  0.00  0.00    -0.097 F 
ATOM     12  F4  UNL d   1       2.393  -1.299  -0.357  0.00  0.00    -0.092 F 
ENDROOT
TORSDOF 0
ENDMDL
