MODEL 1
REMARK minimizedAffinity -4.28766966
REMARK minimizedRMSD -1
REMARK  0 active torsions:
REMARK  status: ('A' for Active; 'I' for Inactive)
ROOT
ATOM      1  C   UNL d   1       3.317  -1.009   1.484  0.00  0.00    -0.002 A 
ATOM      2  C1  UNL d   1       2.661  -2.226   1.603  0.00  0.00     0.010 A 
ATOM      3  C2  UNL d   1       1.313  -2.342   1.255  0.00  0.00     0.041 A 
ATOM      4  C3  UNL d   1       0.631  -1.205   0.779  0.00  0.00    -0.075 A 
ATOM      5  S   UNL d   1      -1.020  -1.112   0.292  0.00  0.00     0.015 SA
ATOM      6  C4  UNL d   1      -0.892   0.545  -0.087  0.00  0.00     0.022 A 
ATOM      7  C5  UNL d   1       0.373   1.031   0.147  0.00  0.00     0.026 A 
ATOM      8  C6  UNL d   1       1.272   0.030   0.649  0.00  0.00    -0.082 A 
ATOM      9  C7  UNL d   1       2.637   0.117   1.012  0.00  0.00     0.045 A 
ENDROOT
TORSDOF 0
ENDMDL
