MODEL 1
REMARK minimizedAffinity -2.23342228
REMARK minimizedRMSD -1
REMARK  0 active torsions:
REMARK  status: ('A' for Active; 'I' for Inactive)
ROOT
ATOM      1  C   UNL d   1       2.640  -1.148   2.715  0.00  0.00    -0.002 A 
ATOM      2  C1  UNL d   1       1.579  -2.042   2.709  0.00  0.00     0.010 A 
ATOM      3  C2  UNL d   1       0.450  -1.800   1.923  0.00  0.00     0.041 A 
ATOM      4  C3  UNL d   1       0.406  -0.633   1.135  0.00  0.00    -0.075 A 
ATOM      5  S   UNL d   1      -0.872  -0.129   0.094  0.00  0.00     0.015 SA
ATOM      6  C4  UNL d   1      -0.040   1.285  -0.367  0.00  0.00     0.022 A 
ATOM      7  C5  UNL d   1       1.185   1.386   0.249  0.00  0.00     0.026 A 
ATOM      8  C6  UNL d   1       1.463   0.282   1.124  0.00  0.00    -0.082 A 
ATOM      9  C7  UNL d   1       2.593   0.009   1.932  0.00  0.00     0.045 A 
ENDROOT
TORSDOF 0
ENDMDL
