MODEL 1
REMARK minimizedAffinity -5.42005873
REMARK minimizedRMSD -1
REMARK  0 active torsions:
REMARK  status: ('A' for Active; 'I' for Inactive)
ROOT
ATOM      1  C   UNL d   1       2.514  -2.278   1.590  0.00  0.00    -0.002 A 
ATOM      2  C1  UNL d   1       3.352  -1.186   1.418  0.00  0.00     0.010 A 
ATOM      3  C2  UNL d   1       2.868   0.000   0.862  0.00  0.00     0.041 A 
ATOM      4  C3  UNL d   1       1.514   0.071   0.481  0.00  0.00    -0.075 A 
ATOM      5  S   UNL d   1       0.700   1.421  -0.218  0.00  0.00     0.015 SA
ATOM      6  C4  UNL d   1      -0.779   0.579  -0.304  0.00  0.00     0.022 A 
ATOM      7  C5  UNL d   1      -0.673  -0.701   0.185  0.00  0.00     0.026 A 
ATOM      8  C6  UNL d   1       0.650  -1.015   0.646  0.00  0.00    -0.082 A 
ATOM      9  C7  UNL d   1       1.171  -2.204   1.211  0.00  0.00     0.045 A 
ENDROOT
TORSDOF 0
ENDMDL
