MODEL 1
REMARK minimizedAffinity -2.27211499
REMARK minimizedRMSD -1
REMARK  0 active torsions:
REMARK  status: ('A' for Active; 'I' for Inactive)
ROOT
ATOM      1  C   UNL d   1      -2.657   1.251  -2.783  0.00  0.00    -0.002 A 
ATOM      2  C1  UNL d   1      -2.894  -0.110  -2.658  0.00  0.00     0.010 A 
ATOM      3  C2  UNL d   1      -2.171  -0.876  -1.741  0.00  0.00     0.041 A 
ATOM      4  C3  UNL d   1      -1.198  -0.243  -0.942  0.00  0.00    -0.075 A 
ATOM      5  S   UNL d   1      -0.193  -0.979   0.250  0.00  0.00     0.015 SA
ATOM      6  C4  UNL d   1       0.575   0.496   0.621  0.00  0.00     0.022 A 
ATOM      7  C5  UNL d   1       0.088   1.536  -0.136  0.00  0.00     0.026 A 
ATOM      8  C6  UNL d   1      -0.942   1.127  -1.049  0.00  0.00    -0.082 A 
ATOM      9  C7  UNL d   1      -1.690   1.875  -1.989  0.00  0.00     0.045 A 
ENDROOT
TORSDOF 0
ENDMDL
