MODEL 1
REMARK minimizedAffinity -3.90980101
REMARK minimizedRMSD -1
REMARK  0 active torsions:
REMARK  status: ('A' for Active; 'I' for Inactive)
ROOT
ATOM      1  C   UNL d   1       1.609   1.707   0.254  0.00  0.00    -0.002 A 
ATOM      2  C1  UNL d   1       2.508   0.762   0.727  0.00  0.00     0.010 A 
ATOM      3  C2  UNL d   1       2.057  -0.461   1.226  0.00  0.00     0.041 A 
ATOM      4  C3  UNL d   1       0.672  -0.722   1.240  0.00  0.00    -0.075 A 
ATOM      5  S   UNL d   1      -0.110  -2.152   1.803  0.00  0.00     0.015 SA
ATOM      6  C4  UNL d   1      -1.657  -1.542   1.428  0.00  0.00     0.022 A 
ATOM      7  C5  UNL d   1      -1.597  -0.280   0.886  0.00  0.00     0.026 A 
ATOM      8  C6  UNL d   1      -0.253   0.213   0.768  0.00  0.00    -0.082 A 
ATOM      9  C7  UNL d   1       0.236   1.444   0.270  0.00  0.00     0.045 A 
ENDROOT
TORSDOF 0
ENDMDL
