MODEL 1
REMARK minimizedAffinity -4.45633364
REMARK minimizedRMSD -1
REMARK  1 active torsions:
REMARK  status: ('A' for Active; 'I' for Inactive)
REMARK    1  A    between atoms: C1_2  and  C2_3 
ROOT
ATOM      1  C2  UNL d   1      -0.296  -1.406   0.202  0.00  0.00    -0.077 A 
ATOM      2  C3  UNL d   1       0.010  -1.321  -1.163  0.00  0.00     0.002 A 
ATOM      3  C4  UNL d   1      -0.039  -2.460  -1.970  0.00  0.00     0.002 A 
ATOM      4  C5  UNL d   1      -0.399  -3.689  -1.422  0.00  0.00    -0.004 A 
ATOM      5  C6  UNL d   1      -0.704  -3.784  -0.064  0.00  0.00     0.002 A 
ATOM      6  C7  UNL d   1      -0.654  -2.647   0.744  0.00  0.00     0.002 A 
ENDROOT
BRANCH   1   7
ATOM      7  C1  UNL d   1      -0.291  -0.170   1.064  0.00  0.00     0.055 C 
ATOM      8  C   UNL d   1       0.077   1.066   0.256  0.00  0.00     0.019 C 
ENDBRANCH   1   7
TORSDOF 1
ENDMDL
