MODEL 1
REMARK minimizedAffinity -3.68422675
REMARK minimizedRMSD -1
REMARK  1 active torsions:
REMARK  status: ('A' for Active; 'I' for Inactive)
REMARK    1  A    between atoms: C1_2  and  C2_3 
ROOT
ATOM      1  C2  UNL d   1      -0.048  -1.667   0.285  0.00  0.00    -0.077 A 
ATOM      2  C3  UNL d   1      -0.741  -0.880   1.217  0.00  0.00     0.002 A 
ATOM      3  C4  UNL d   1      -0.788   0.508   1.073  0.00  0.00     0.002 A 
ATOM      4  C5  UNL d   1      -0.150   1.120  -0.004  0.00  0.00    -0.004 A 
ATOM      5  C6  UNL d   1       0.543   0.347  -0.934  0.00  0.00     0.002 A 
ATOM      6  C7  UNL d   1       0.593  -1.040  -0.791  0.00  0.00     0.002 A 
ENDROOT
BRANCH   1   7
ATOM      7  C1  UNL d   1      -0.037  -3.168   0.412  0.00  0.00     0.055 C 
ATOM      8  C   UNL d   1      -1.423  -3.753   0.182  0.00  0.00     0.019 C 
ENDBRANCH   1   7
TORSDOF 1
ENDMDL
