MODEL 1
REMARK minimizedAffinity -6.12403631
REMARK minimizedRMSD -1
REMARK  1 active torsions:
REMARK  status: ('A' for Active; 'I' for Inactive)
REMARK    1  A    between atoms: C1_2  and  C2_3 
ROOT
ATOM      1  C2  UNL d   1      -0.099  -1.180   0.076  0.00  0.00    -0.077 A 
ATOM      2  C3  UNL d   1       0.261  -0.950  -1.259  0.00  0.00     0.002 A 
ATOM      3  C4  UNL d   1       0.276  -2.002  -2.178  0.00  0.00     0.002 A 
ATOM      4  C5  UNL d   1      -0.073  -3.288  -1.772  0.00  0.00    -0.004 A 
ATOM      5  C6  UNL d   1      -0.431  -3.527  -0.446  0.00  0.00     0.002 A 
ATOM      6  C7  UNL d   1      -0.445  -2.478   0.474  0.00  0.00     0.002 A 
ENDROOT
BRANCH   1   7
ATOM      7  C1  UNL d   1      -0.163  -0.039   1.057  0.00  0.00     0.055 C 
ATOM      8  C   UNL d   1      -0.010   1.303   0.356  0.00  0.00     0.019 C 
ENDBRANCH   1   7
TORSDOF 1
ENDMDL
