MODEL 1
REMARK minimizedAffinity -4.63081121
REMARK minimizedRMSD -1
REMARK  1 active torsions:
REMARK  status: ('A' for Active; 'I' for Inactive)
REMARK    1  A    between atoms: C1_2  and  C2_3 
ROOT
ATOM      1  C2  UNL d   1       0.266  -0.401  -0.819  0.00  0.00    -0.077 A 
ATOM      2  C3  UNL d   1       0.538  -0.942  -2.083  0.00  0.00     0.002 A 
ATOM      3  C4  UNL d   1       0.379  -2.310  -2.315  0.00  0.00     0.002 A 
ATOM      4  C5  UNL d   1      -0.057  -3.146  -1.290  0.00  0.00    -0.004 A 
ATOM      5  C6  UNL d   1      -0.328  -2.618  -0.028  0.00  0.00     0.002 A 
ATOM      6  C7  UNL d   1      -0.168  -1.251   0.206  0.00  0.00     0.002 A 
ENDROOT
BRANCH   1   7
ATOM      7  C1  UNL d   1       0.390   1.081  -0.580  0.00  0.00     0.055 C 
ATOM      8  C   UNL d   1       1.684   1.418   0.146  0.00  0.00     0.019 C 
ENDBRANCH   1   7
TORSDOF 1
ENDMDL
