MODEL 1
REMARK minimizedAffinity -6.19176531
REMARK minimizedRMSD -1
REMARK  1 active torsions:
REMARK  status: ('A' for Active; 'I' for Inactive)
REMARK    1  A    between atoms: C1_2  and  C2_3 
ROOT
ATOM      1  C2  UNL d   1       0.276  -0.699  -0.885  0.00  0.00    -0.077 A 
ATOM      2  C3  UNL d   1       0.492  -1.708  -1.834  0.00  0.00     0.002 A 
ATOM      3  C4  UNL d   1       0.421  -3.053  -1.464  0.00  0.00     0.002 A 
ATOM      4  C5  UNL d   1       0.129  -3.400  -0.147  0.00  0.00    -0.004 A 
ATOM      5  C6  UNL d   1      -0.086  -2.404   0.805  0.00  0.00     0.002 A 
ATOM      6  C7  UNL d   1      -0.014  -1.059   0.437  0.00  0.00     0.002 A 
ENDROOT
BRANCH   1   7
ATOM      7  C1  UNL d   1       0.303   0.751  -1.293  0.00  0.00     0.055 C 
ATOM      8  C   UNL d   1       0.671   1.649  -0.120  0.00  0.00     0.019 C 
ENDBRANCH   1   7
TORSDOF 1
ENDMDL
