MODEL 1
REMARK minimizedAffinity -2.47782898
REMARK minimizedRMSD -1
REMARK  1 active torsions:
REMARK  status: ('A' for Active; 'I' for Inactive)
REMARK    1  A    between atoms: C1_2  and  C2_3 
ROOT
ATOM      1  C2  UNL d   1       0.315   0.628   0.026  0.00  0.00    -0.077 A 
ATOM      2  C3  UNL d   1       0.571  -0.594  -0.611  0.00  0.00     0.002 A 
ATOM      3  C4  UNL d   1       0.028  -1.779  -0.110  0.00  0.00     0.002 A 
ATOM      4  C5  UNL d   1      -0.777  -1.752   1.027  0.00  0.00    -0.004 A 
ATOM      5  C6  UNL d   1      -1.036  -0.541   1.668  0.00  0.00     0.002 A 
ATOM      6  C7  UNL d   1      -0.493   0.644   1.170  0.00  0.00     0.002 A 
ENDROOT
BRANCH   1   7
ATOM      7  C1  UNL d   1       0.860   1.913  -0.542  0.00  0.00     0.055 C 
ATOM      8  C   UNL d   1       1.010   2.975   0.538  0.00  0.00     0.019 C 
ENDBRANCH   1   7
TORSDOF 1
ENDMDL
