MODEL 1
REMARK minimizedAffinity -6.22196293
REMARK minimizedRMSD -1
REMARK  1 active torsions:
REMARK  status: ('A' for Active; 'I' for Inactive)
REMARK    1  A    between atoms: C1_2  and  C2_3 
ROOT
ATOM      1  C2  UNL d   1       0.105  -0.778   0.116  0.00  0.00    -0.077 A 
ATOM      2  C3  UNL d   1       0.210  -1.350  -1.160  0.00  0.00     0.002 A 
ATOM      3  C4  UNL d   1       0.207  -2.738  -1.314  0.00  0.00     0.002 A 
ATOM      4  C5  UNL d   1       0.095  -3.564  -0.198  0.00  0.00    -0.004 A 
ATOM      5  C6  UNL d   1      -0.008  -3.005   1.075  0.00  0.00     0.002 A 
ATOM      6  C7  UNL d   1      -0.004  -1.618   1.231  0.00  0.00     0.002 A 
ENDROOT
BRANCH   1   7
ATOM      7  C1  UNL d   1       0.058   0.719   0.280  0.00  0.00     0.055 C 
ATOM      8  C   UNL d   1      -0.299   1.408  -1.029  0.00  0.00     0.019 C 
ENDBRANCH   1   7
TORSDOF 1
ENDMDL
