MODEL 1
REMARK minimizedAffinity -6.05851173
REMARK minimizedRMSD -1
REMARK  1 active torsions:
REMARK  status: ('A' for Active; 'I' for Inactive)
REMARK    1  A    between atoms: C1_2  and  C2_3 
ROOT
ATOM      1  C2  UNL d   1       0.389  -1.129  -0.036  0.00  0.00    -0.077 A 
ATOM      2  C3  UNL d   1       0.349  -1.659  -1.333  0.00  0.00     0.002 A 
ATOM      3  C4  UNL d   1      -0.074  -2.973  -1.546  0.00  0.00     0.002 A 
ATOM      4  C5  UNL d   1      -0.463  -3.765  -0.468  0.00  0.00    -0.004 A 
ATOM      5  C6  UNL d   1      -0.425  -3.247   0.826  0.00  0.00     0.002 A 
ATOM      6  C7  UNL d   1      -0.002  -1.935   1.041  0.00  0.00     0.002 A 
ENDROOT
BRANCH   1   7
ATOM      7  C1  UNL d   1       0.797   0.303   0.191  0.00  0.00     0.055 C 
ATOM      8  C   UNL d   1      -0.171   1.268  -0.478  0.00  0.00     0.019 C 
ENDBRANCH   1   7
TORSDOF 1
ENDMDL
