MODEL 1
REMARK minimizedAffinity -4.69366217
REMARK minimizedRMSD -1
REMARK  1 active torsions:
REMARK  status: ('A' for Active; 'I' for Inactive)
REMARK    1  A    between atoms: C1_2  and  C2_3 
ROOT
ATOM      1  C2  UNL d   1      -0.089  -2.247  -0.396  0.00  0.00    -0.077 A 
ATOM      2  C3  UNL d   1      -0.398  -2.519   0.944  0.00  0.00     0.002 A 
ATOM      3  C4  UNL d   1      -0.589  -1.475   1.851  0.00  0.00     0.002 A 
ATOM      4  C5  UNL d   1      -0.476  -0.152   1.427  0.00  0.00    -0.004 A 
ATOM      5  C6  UNL d   1      -0.167   0.129   0.097  0.00  0.00     0.002 A 
ATOM      6  C7  UNL d   1       0.025  -0.914  -0.811  0.00  0.00     0.002 A 
ENDROOT
BRANCH   1   7
ATOM      7  C1  UNL d   1       0.068  -3.371  -1.387  0.00  0.00     0.055 C 
ATOM      8  C   UNL d   1       0.462  -2.847  -2.761  0.00  0.00     0.019 C 
ENDBRANCH   1   7
TORSDOF 1
ENDMDL
