MODEL 1
REMARK minimizedAffinity -4.64557171
REMARK minimizedRMSD -1
REMARK  1 active torsions:
REMARK  status: ('A' for Active; 'I' for Inactive)
REMARK    1  A    between atoms: C1_2  and  C2_3 
ROOT
ATOM      1  C2  UNL d   1       0.062   0.021  -0.258  0.00  0.00    -0.077 A 
ATOM      2  C3  UNL d   1      -0.854  -0.110   0.795  0.00  0.00     0.002 A 
ATOM      3  C4  UNL d   1      -1.080  -1.356   1.384  0.00  0.00     0.002 A 
ATOM      4  C5  UNL d   1      -0.392  -2.479   0.929  0.00  0.00    -0.004 A 
ATOM      5  C6  UNL d   1       0.520  -2.359  -0.119  0.00  0.00     0.002 A 
ATOM      6  C7  UNL d   1       0.747  -1.115  -0.710  0.00  0.00     0.002 A 
ENDROOT
BRANCH   1   7
ATOM      7  C1  UNL d   1       0.344   1.372  -0.861  0.00  0.00     0.055 C 
ATOM      8  C   UNL d   1       0.667   2.401   0.213  0.00  0.00     0.019 C 
ENDBRANCH   1   7
TORSDOF 1
ENDMDL
