MODEL 1
REMARK minimizedAffinity -5.57824802
REMARK minimizedRMSD -1
REMARK  1 active torsions:
REMARK  status: ('A' for Active; 'I' for Inactive)
REMARK    1  A    between atoms: C1_2  and  C2_3 
ROOT
ATOM      1  C2  UNL d   1      -0.118  -2.130  -0.528  0.00  0.00    -0.077 A 
ATOM      2  C3  UNL d   1      -0.846  -2.629   0.561  0.00  0.00     0.002 A 
ATOM      3  C4  UNL d   1      -1.349  -1.761   1.532  0.00  0.00     0.002 A 
ATOM      4  C5  UNL d   1      -1.132  -0.389   1.422  0.00  0.00    -0.004 A 
ATOM      5  C6  UNL d   1      -0.407   0.117   0.344  0.00  0.00     0.002 A 
ATOM      6  C7  UNL d   1       0.097  -0.749  -0.627  0.00  0.00     0.002 A 
ENDROOT
BRANCH   1   7
ATOM      7  C1  UNL d   1       0.383  -3.059  -1.602  0.00  0.00     0.055 C 
ATOM      8  C   UNL d   1       0.366  -2.387  -2.968  0.00  0.00     0.019 C 
ENDBRANCH   1   7
TORSDOF 1
ENDMDL
