MODEL 1
REMARK minimizedAffinity -5.860291
REMARK minimizedRMSD -1
REMARK  1 active torsions:
REMARK  status: ('A' for Active; 'I' for Inactive)
REMARK    1  A    between atoms: C1_2  and  C2_3 
ROOT
ATOM      1  C2  UNL d   1      -0.108  -1.529  -0.097  0.00  0.00    -0.077 A 
ATOM      2  C3  UNL d   1       0.398  -1.454  -1.402  0.00  0.00     0.002 A 
ATOM      3  C4  UNL d   1       0.504  -2.605  -2.186  0.00  0.00     0.002 A 
ATOM      4  C5  UNL d   1       0.102  -3.837  -1.675  0.00  0.00    -0.004 A 
ATOM      5  C6  UNL d   1      -0.401  -3.923  -0.378  0.00  0.00     0.002 A 
ATOM      6  C7  UNL d   1      -0.506  -2.774   0.408  0.00  0.00     0.002 A 
ENDROOT
BRANCH   1   7
ATOM      7  C1  UNL d   1      -0.269  -0.282   0.733  0.00  0.00     0.055 C 
ATOM      8  C   UNL d   1       0.187   0.953  -0.031  0.00  0.00     0.019 C 
ENDBRANCH   1   7
TORSDOF 1
ENDMDL
