MODEL 1
REMARK minimizedAffinity -6.04064369
REMARK minimizedRMSD -1
REMARK  1 active torsions:
REMARK  status: ('A' for Active; 'I' for Inactive)
REMARK    1  A    between atoms: C1_2  and  C2_3 
ROOT
ATOM      1  C2  UNL d   1      -0.290  -2.069  -0.477  0.00  0.00    -0.077 A 
ATOM      2  C3  UNL d   1      -0.453  -2.447   0.863  0.00  0.00     0.002 A 
ATOM      3  C4  UNL d   1      -0.483  -1.481   1.870  0.00  0.00     0.002 A 
ATOM      4  C5  UNL d   1      -0.356  -0.132   1.548  0.00  0.00    -0.004 A 
ATOM      5  C6  UNL d   1      -0.192   0.254   0.218  0.00  0.00     0.002 A 
ATOM      6  C7  UNL d   1      -0.160  -0.710  -0.790  0.00  0.00     0.002 A 
ENDROOT
BRANCH   1   7
ATOM      7  C1  UNL d   1      -0.306  -3.106  -1.570  0.00  0.00     0.055 C 
ATOM      8  C   UNL d   1      -0.016  -2.483  -2.928  0.00  0.00     0.019 C 
ENDBRANCH   1   7
TORSDOF 1
ENDMDL
