MODEL 1
REMARK minimizedAffinity 9.28411961
REMARK minimizedRMSD -1
REMARK  1 active torsions:
REMARK  status: ('A' for Active; 'I' for Inactive)
REMARK    1  A    between atoms: C3_4  and  O_7 
ROOT
ATOM      1  C   UNL d   1       6.000   4.107   0.582  0.00  0.00    -0.033 A 
ATOM      2  C1  UNL d   1       5.757   3.363   1.739  0.00  0.00     0.039 A 
ATOM      3  C2  UNL d   1       4.698   2.454   1.777  0.00  0.00    -0.080 A 
ATOM      4  C3  UNL d   1       3.891   2.297   0.653  0.00  0.00     0.150 A 
ATOM      5  C4  UNL d   1       4.130   3.032  -0.504  0.00  0.00    -0.007 A 
ATOM      6  C5  UNL d   1       5.187   3.940  -0.540  0.00  0.00     0.039 A 
ENDROOT
BRANCH   4   7
ATOM      7  O   UNL d   1       2.843   1.426   0.644  0.00  0.00    -0.526 OA
ATOM      8  H5  UNL d   1       2.782   1.010   1.520  0.00  0.00     0.418 HD
ENDBRANCH   4   7
TORSDOF 1
ENDMDL
