MODEL 1
REMARK minimizedAffinity 7.29425144
REMARK minimizedRMSD -1
REMARK  1 active torsions:
REMARK  status: ('A' for Active; 'I' for Inactive)
REMARK    1  A    between atoms: C3_4  and  O_7 
ROOT
ATOM      1  C   UNL d   1       4.787  -6.000   0.028  0.00  0.00    -0.033 A 
ATOM      2  C1  UNL d   1       3.597  -5.366  -0.337  0.00  0.00     0.039 A 
ATOM      3  C2  UNL d   1       3.607  -4.020  -0.710  0.00  0.00    -0.080 A 
ATOM      4  C3  UNL d   1       4.811  -3.322  -0.715  0.00  0.00     0.150 A 
ATOM      5  C4  UNL d   1       6.000  -3.948  -0.357  0.00  0.00    -0.007 A 
ATOM      6  C5  UNL d   1       5.988  -5.291   0.016  0.00  0.00     0.039 A 
ENDROOT
BRANCH   4   7
ATOM      7  O   UNL d   1       4.869  -2.006  -1.067  0.00  0.00    -0.526 OA
ATOM      8  H5  UNL d   1       3.968  -1.699  -1.262  0.00  0.00     0.418 HD
ENDBRANCH   4   7
TORSDOF 1
ENDMDL
