MODEL 1
REMARK minimizedAffinity 5.36731052
REMARK minimizedRMSD -1
REMARK  1 active torsions:
REMARK  status: ('A' for Active; 'I' for Inactive)
REMARK    1  A    between atoms: C3_4  and  O_7 
ROOT
ATOM      1  C   UNL d   1      -0.022   6.000  -1.823  0.00  0.00    -0.033 A 
ATOM      2  C1  UNL d   1      -1.418   5.999  -1.802  0.00  0.00     0.039 A 
ATOM      3  C2  UNL d   1      -2.135   5.580  -2.925  0.00  0.00    -0.080 A 
ATOM      4  C3  UNL d   1      -1.445   5.164  -4.060  0.00  0.00     0.150 A 
ATOM      5  C4  UNL d   1      -0.055   5.158  -4.086  0.00  0.00    -0.007 A 
ATOM      6  C5  UNL d   1       0.660   5.578  -2.965  0.00  0.00     0.039 A 
ENDROOT
BRANCH   4   7
ATOM      7  O   UNL d   1      -2.102   4.751  -5.181  0.00  0.00    -0.526 OA
ATOM      8  H5  UNL d   1      -3.057   4.835  -5.027  0.00  0.00     0.418 HD
ENDBRANCH   4   7
TORSDOF 1
ENDMDL
