MODEL 1
REMARK minimizedAffinity 7.63558578
REMARK minimizedRMSD -1
REMARK  1 active torsions:
REMARK  status: ('A' for Active; 'I' for Inactive)
REMARK    1  A    between atoms: C3_4  and  O_7 
ROOT
ATOM      1  C   UNL d   1       4.512   5.888  -1.292  0.00  0.00    -0.033 A 
ATOM      2  C1  UNL d   1       5.489   4.941  -1.605  0.00  0.00     0.039 A 
ATOM      3  C2  UNL d   1       6.000   4.107  -0.609  0.00  0.00    -0.080 A 
ATOM      4  C3  UNL d   1       5.525   4.229   0.694  0.00  0.00     0.150 A 
ATOM      5  C4  UNL d   1       4.549   5.167   1.013  0.00  0.00    -0.007 A 
ATOM      6  C5  UNL d   1       4.041   6.000   0.017  0.00  0.00     0.039 A 
ENDROOT
BRANCH   4   7
ATOM      7  O   UNL d   1       5.997   3.440   1.701  0.00  0.00    -0.526 OA
ATOM      8  H5  UNL d   1       6.687   2.859   1.340  0.00  0.00     0.418 HD
ENDBRANCH   4   7
TORSDOF 1
ENDMDL
