MODEL 1
REMARK minimizedAffinity 8.18696117
REMARK minimizedRMSD -1
REMARK  1 active torsions:
REMARK  status: ('A' for Active; 'I' for Inactive)
REMARK    1  A    between atoms: C3_4  and  O_7 
ROOT
ATOM      1  C   UNL d   1      -5.259   1.141   0.662  0.00  0.00    -0.033 A 
ATOM      2  C1  UNL d   1      -4.931  -0.159   0.272  0.00  0.00     0.039 A 
ATOM      3  C2  UNL d   1      -5.119  -0.562  -1.051  0.00  0.00    -0.080 A 
ATOM      4  C3  UNL d   1      -5.633   0.344  -1.975  0.00  0.00     0.150 A 
ATOM      5  C4  UNL d   1      -5.958   1.642  -1.595  0.00  0.00    -0.007 A 
ATOM      6  C5  UNL d   1      -5.771   2.042  -0.272  0.00  0.00     0.039 A 
ENDROOT
BRANCH   4   7
ATOM      7  O   UNL d   1      -5.838  -0.004  -3.277  0.00  0.00    -0.526 OA
ATOM      8  H5  UNL d   1      -5.595  -0.939  -3.387  0.00  0.00     0.418 HD
ENDBRANCH   4   7
TORSDOF 1
ENDMDL
