MODEL 1
REMARK minimizedAffinity 1.77649021
REMARK minimizedRMSD -1
REMARK  1 active torsions:
REMARK  status: ('A' for Active; 'I' for Inactive)
REMARK    1  A    between atoms: C3_4  and  O_7 
ROOT
ATOM      1  C   UNL d   1      -2.832  -0.100   1.048  0.00  0.00    -0.033 A 
ATOM      2  C1  UNL d   1      -2.085  -0.789   2.006  0.00  0.00     0.039 A 
ATOM      3  C2  UNL d   1      -2.727  -1.595   2.948  0.00  0.00    -0.080 A 
ATOM      4  C3  UNL d   1      -4.115  -1.704   2.921  0.00  0.00     0.150 A 
ATOM      5  C4  UNL d   1      -4.865  -1.023   1.967  0.00  0.00    -0.007 A 
ATOM      6  C5  UNL d   1      -4.222  -0.218   1.028  0.00  0.00     0.039 A 
ENDROOT
BRANCH   4   7
ATOM      7  O   UNL d   1      -4.786  -2.475   3.822  0.00  0.00    -0.526 OA
ATOM      8  H5  UNL d   1      -4.141  -2.862   4.437  0.00  0.00     0.418 HD
ENDBRANCH   4   7
TORSDOF 1
ENDMDL
