MODEL 1
REMARK minimizedAffinity 5.99587107
REMARK minimizedRMSD -1
REMARK  1 active torsions:
REMARK  status: ('A' for Active; 'I' for Inactive)
REMARK    1  A    between atoms: C3_4  and  O_7 
ROOT
ATOM      1  C   UNL d   1       2.371   2.241  -2.144  0.00  0.00    -0.033 A 
ATOM      2  C1  UNL d   1       1.100   1.740  -1.858  0.00  0.00     0.039 A 
ATOM      3  C2  UNL d   1      -0.015   2.228  -2.543  0.00  0.00    -0.080 A 
ATOM      4  C3  UNL d   1       0.155   3.214  -3.511  0.00  0.00     0.150 A 
ATOM      5  C4  UNL d   1       1.420   3.715  -3.803  0.00  0.00    -0.007 A 
ATOM      6  C5  UNL d   1       2.531   3.228  -3.118  0.00  0.00     0.039 A 
ENDROOT
BRANCH   4   7
ATOM      7  O   UNL d   1      -0.903   3.724  -4.202  0.00  0.00    -0.526 OA
ATOM      8  H5  UNL d   1      -1.716   3.304  -3.874  0.00  0.00     0.418 HD
ENDBRANCH   4   7
TORSDOF 1
ENDMDL
