MODEL 1
REMARK minimizedAffinity 9.5088129
REMARK minimizedRMSD -1
REMARK  1 active torsions:
REMARK  status: ('A' for Active; 'I' for Inactive)
REMARK    1  A    between atoms: C3_4  and  O_7 
ROOT
ATOM      1  C   UNL d   1       5.846   4.808  -4.706  0.00  0.00    -0.033 A 
ATOM      2  C1  UNL d   1       5.493   4.968  -3.364  0.00  0.00     0.039 A 
ATOM      3  C2  UNL d   1       4.345   4.350  -2.864  0.00  0.00    -0.080 A 
ATOM      4  C3  UNL d   1       3.560   3.576  -3.714  0.00  0.00     0.150 A 
ATOM      5  C4  UNL d   1       3.908   3.410  -5.051  0.00  0.00    -0.007 A 
ATOM      6  C5  UNL d   1       5.054   4.028  -5.549  0.00  0.00     0.039 A 
ENDROOT
BRANCH   4   7
ATOM      7  O   UNL d   1       2.428   2.958  -3.273  0.00  0.00    -0.526 OA
ATOM      8  H5  UNL d   1       2.298   3.186  -2.337  0.00  0.00     0.418 HD
ENDBRANCH   4   7
TORSDOF 1
ENDMDL
