MODEL 1
REMARK minimizedAffinity 6.70657158
REMARK minimizedRMSD -1
REMARK  1 active torsions:
REMARK  status: ('A' for Active; 'I' for Inactive)
REMARK    1  A    between atoms: C3_4  and  O_7 
ROOT
ATOM      1  C   UNL d   1      -4.075  -0.621   0.825  0.00  0.00    -0.033 A 
ATOM      2  C1  UNL d   1      -4.602   0.516   1.441  0.00  0.00     0.039 A 
ATOM      3  C2  UNL d   1      -3.939   1.096   2.524  0.00  0.00    -0.080 A 
ATOM      4  C3  UNL d   1      -2.752   0.530   2.981  0.00  0.00     0.150 A 
ATOM      5  C4  UNL d   1      -2.220  -0.601   2.371  0.00  0.00    -0.007 A 
ATOM      6  C5  UNL d   1      -2.884  -1.179   1.289  0.00  0.00     0.039 A 
ENDROOT
BRANCH   4   7
ATOM      7  O   UNL d   1      -2.072   1.057   4.039  0.00  0.00    -0.526 OA
ATOM      8  H5  UNL d   1      -2.573   1.818   4.378  0.00  0.00     0.418 HD
ENDBRANCH   4   7
TORSDOF 1
ENDMDL
