MODEL 1
REMARK minimizedAffinity 11.3380318
REMARK minimizedRMSD -1
REMARK  1 active torsions:
REMARK  status: ('A' for Active; 'I' for Inactive)
REMARK    1  A    between atoms: C3_4  and  O_7 
ROOT
ATOM      1  C   UNL d   1      -2.021   0.528   3.121  0.00  0.00    -0.033 A 
ATOM      2  C1  UNL d   1      -3.091   1.423   3.072  0.00  0.00     0.039 A 
ATOM      3  C2  UNL d   1      -4.228   1.114   2.324  0.00  0.00    -0.080 A 
ATOM      4  C3  UNL d   1      -4.283  -0.092   1.630  0.00  0.00     0.150 A 
ATOM      5  C4  UNL d   1      -3.222  -0.990   1.677  0.00  0.00    -0.007 A 
ATOM      6  C5  UNL d   1      -2.087  -0.679   2.424  0.00  0.00     0.039 A 
ENDROOT
BRANCH   4   7
ATOM      7  O   UNL d   1      -5.370  -0.435   0.882  0.00  0.00    -0.526 OA
ATOM      8  H5  UNL d   1      -6.012   0.294   0.920  0.00  0.00     0.418 HD
ENDBRANCH   4   7
TORSDOF 1
ENDMDL
