MODEL 1
REMARK minimizedAffinity -2.86822534
REMARK minimizedRMSD -1
REMARK  1 active torsions:
REMARK  status: ('A' for Active; 'I' for Inactive)
REMARK    1  A    between atoms: C3_4  and  O_7 
ROOT
ATOM      1  C   UNL d   1      -2.330  -0.533   2.004  0.00  0.00    -0.033 A 
ATOM      2  C1  UNL d   1      -3.637  -0.670   1.533  0.00  0.00     0.039 A 
ATOM      3  C2  UNL d   1      -4.691  -0.047   2.204  0.00  0.00    -0.080 A 
ATOM      4  C3  UNL d   1      -4.425   0.710   3.342  0.00  0.00     0.150 A 
ATOM      5  C4  UNL d   1      -3.125   0.854   3.814  0.00  0.00    -0.007 A 
ATOM      6  C5  UNL d   1      -2.073   0.230   3.143  0.00  0.00     0.039 A 
ENDROOT
BRANCH   4   7
ATOM      7  O   UNL d   1      -5.422   1.333   4.032  0.00  0.00    -0.526 OA
ATOM      8  H5  UNL d   1      -6.270   1.121   3.607  0.00  0.00     0.418 HD
ENDBRANCH   4   7
TORSDOF 1
ENDMDL
