MODEL 1
REMARK minimizedAffinity 7.72376871
REMARK minimizedRMSD -1
REMARK  1 active torsions:
REMARK  status: ('A' for Active; 'I' for Inactive)
REMARK    1  A    between atoms: C3_4  and  O_7 
ROOT
ATOM      1  C   UNL d   1      -4.432   1.508   4.502  0.00  0.00    -0.033 A 
ATOM      2  C1  UNL d   1      -3.379   1.121   3.671  0.00  0.00     0.039 A 
ATOM      3  C2  UNL d   1      -3.633   0.725   2.357  0.00  0.00    -0.080 A 
ATOM      4  C3  UNL d   1      -4.943   0.723   1.885  0.00  0.00     0.150 A 
ATOM      5  C4  UNL d   1      -5.997   1.111   2.706  0.00  0.00    -0.007 A 
ATOM      6  C5  UNL d   1      -5.741   1.505   4.019  0.00  0.00     0.039 A 
ENDROOT
BRANCH   4   7
ATOM      7  O   UNL d   1      -5.241   0.340   0.611  0.00  0.00    -0.526 OA
ATOM      8  H5  UNL d   1      -4.418   0.071   0.170  0.00  0.00     0.418 HD
ENDBRANCH   4   7
TORSDOF 1
ENDMDL
