MODEL 1
REMARK minimizedAffinity 5.40545511
REMARK minimizedRMSD -1
REMARK  1 active torsions:
REMARK  status: ('A' for Active; 'I' for Inactive)
REMARK    1  A    between atoms: C3_4  and  O_7 
ROOT
ATOM      1  C   UNL d   1      -2.171  -2.475   1.608  0.00  0.00    -0.033 A 
ATOM      2  C1  UNL d   1      -0.949  -1.863   1.895  0.00  0.00     0.039 A 
ATOM      3  C2  UNL d   1      -0.903  -0.754   2.742  0.00  0.00    -0.080 A 
ATOM      4  C3  UNL d   1      -2.084  -0.268   3.296  0.00  0.00     0.150 A 
ATOM      5  C4  UNL d   1      -3.304  -0.875   3.019  0.00  0.00    -0.007 A 
ATOM      6  C5  UNL d   1      -3.349  -1.982   2.172  0.00  0.00     0.039 A 
ENDROOT
BRANCH   4   7
ATOM      7  O   UNL d   1      -2.090   0.814   4.125  0.00  0.00    -0.526 OA
ATOM      8  H5  UNL d   1      -1.180   1.147   4.203  0.00  0.00     0.418 HD
ENDBRANCH   4   7
TORSDOF 1
ENDMDL
