MODEL 1
REMARK minimizedAffinity 6.07399797
REMARK minimizedRMSD -1
REMARK  1 active torsions:
REMARK  status: ('A' for Active; 'I' for Inactive)
REMARK    1  A    between atoms: C3_4  and  O_7 
ROOT
ATOM      1  C   UNL d   1       5.987   4.699   0.618  0.00  0.00    -0.033 A 
ATOM      2  C1  UNL d   1       5.994   3.522  -0.132  0.00  0.00     0.039 A 
ATOM      3  C2  UNL d   1       5.999   3.581  -1.527  0.00  0.00    -0.080 A 
ATOM      4  C3  UNL d   1       5.998   4.822  -2.158  0.00  0.00     0.150 A 
ATOM      5  C4  UNL d   1       5.996   5.999  -1.417  0.00  0.00    -0.007 A 
ATOM      6  C5  UNL d   1       5.990   5.937  -0.024  0.00  0.00     0.039 A 
ENDROOT
BRANCH   4   7
ATOM      7  O   UNL d   1       5.998   4.930  -3.517  0.00  0.00    -0.526 OA
ATOM      8  H5  UNL d   1       5.971   4.036  -3.897  0.00  0.00     0.418 HD
ENDBRANCH   4   7
TORSDOF 1
ENDMDL
