MODEL 1
REMARK minimizedAffinity 1.91910994
REMARK minimizedRMSD -1
REMARK  1 active torsions:
REMARK  status: ('A' for Active; 'I' for Inactive)
REMARK    1  A    between atoms: C3_4  and  O_7 
ROOT
ATOM      1  C   UNL d   1       5.946   4.118   1.131  0.00  0.00    -0.033 A 
ATOM      2  C1  UNL d   1       6.000   2.941   0.383  0.00  0.00     0.039 A 
ATOM      3  C2  UNL d   1       4.820   2.286   0.023  0.00  0.00    -0.080 A 
ATOM      4  C3  UNL d   1       3.596   2.819   0.416  0.00  0.00     0.150 A 
ATOM      5  C4  UNL d   1       3.535   3.994   1.158  0.00  0.00    -0.007 A 
ATOM      6  C5  UNL d   1       4.714   4.646   1.517  0.00  0.00     0.039 A 
ENDROOT
BRANCH   4   7
ATOM      7  O   UNL d   1       2.418   2.213   0.092  0.00  0.00    -0.526 OA
ATOM      8  H5  UNL d   1       2.616   1.397  -0.396  0.00  0.00     0.418 HD
ENDBRANCH   4   7
TORSDOF 1
ENDMDL
