MODEL 1
REMARK minimizedAffinity 8.22862625
REMARK minimizedRMSD -1
REMARK  1 active torsions:
REMARK  status: ('A' for Active; 'I' for Inactive)
REMARK    1  A    between atoms: C3_4  and  O_7 
ROOT
ATOM      1  C   UNL d   1       0.106   3.421  -1.786  0.00  0.00    -0.033 A 
ATOM      2  C1  UNL d   1       0.459   4.422  -2.692  0.00  0.00     0.039 A 
ATOM      3  C2  UNL d   1       1.613   4.290  -3.468  0.00  0.00    -0.080 A 
ATOM      4  C3  UNL d   1       2.402   3.152  -3.329  0.00  0.00     0.150 A 
ATOM      5  C4  UNL d   1       2.055   2.148  -2.431  0.00  0.00    -0.007 A 
ATOM      6  C5  UNL d   1       0.903   2.283  -1.657  0.00  0.00     0.039 A 
ENDROOT
BRANCH   4   7
ATOM      7  O   UNL d   1       3.540   2.980  -4.061  0.00  0.00    -0.526 OA
ATOM      8  H5  UNL d   1       3.669   3.766  -4.618  0.00  0.00     0.418 HD
ENDBRANCH   4   7
TORSDOF 1
ENDMDL
