MODEL 1
REMARK minimizedAffinity 9.99035645
REMARK minimizedRMSD -1
REMARK  1 active torsions:
REMARK  status: ('A' for Active; 'I' for Inactive)
REMARK    1  A    between atoms: C3_4  and  O_7 
ROOT
ATOM      1  C   UNL d   1       6.000   4.139   1.306  0.00  0.00    -0.033 A 
ATOM      2  C1  UNL d   1       6.000   3.360   0.147  0.00  0.00     0.039 A 
ATOM      3  C2  UNL d   1       4.991   2.418  -0.063  0.00  0.00    -0.080 A 
ATOM      4  C3  UNL d   1       3.990   2.265   0.891  0.00  0.00     0.150 A 
ATOM      5  C4  UNL d   1       3.981   3.039   2.047  0.00  0.00    -0.007 A 
ATOM      6  C5  UNL d   1       4.990   3.979   2.255  0.00  0.00     0.039 A 
ENDROOT
BRANCH   4   7
ATOM      7  O   UNL d   1       2.987   1.355   0.733  0.00  0.00    -0.526 OA
ATOM      8  H5  UNL d   1       3.138   0.872  -0.097  0.00  0.00     0.418 HD
ENDBRANCH   4   7
TORSDOF 1
ENDMDL
