MODEL 1
REMARK minimizedAffinity -3.24027824
REMARK minimizedRMSD -1
REMARK  1 active torsions:
REMARK  status: ('A' for Active; 'I' for Inactive)
REMARK    1  A    between atoms: N_2  and  C1_3 
ROOT
ATOM      1  C1  UNL d   1       1.464   0.642   0.282  0.00  0.00     0.143 A 
ATOM      2  C2  UNL d   1       0.835  -0.602   0.170  0.00  0.00    -0.057 A 
ATOM      3  C3  UNL d   1      -0.519  -0.704  -0.171  0.00  0.00     0.033 A 
ATOM      4  C4  UNL d   1      -1.278   0.444  -0.376  0.00  0.00    -0.042 A 
ATOM      5  C5  UNL d   1      -0.680   1.692  -0.245  0.00  0.00     0.033 A 
ATOM      6  C6  UNL d   1       0.674   1.786   0.088  0.00  0.00    -0.057 A 
ENDROOT
BRANCH   1   7
ATOM      7  N   UNL d   1       2.782   0.812   0.713  0.00  0.00    -0.732 N 
ATOM      8  C   UNL d   1       3.351  -0.070   1.710  0.00  0.00     0.284 C 
ATOM      9  H3  UNL d   1       3.415   1.038  -0.051  0.00  0.00     0.395 HD
ENDBRANCH   1   7
TORSDOF 1
ENDMDL
