MODEL 1
REMARK minimizedAffinity -3.94471288
REMARK minimizedRMSD -1
REMARK  1 active torsions:
REMARK  status: ('A' for Active; 'I' for Inactive)
REMARK    1  A    between atoms: N_2  and  C1_3 
ROOT
ATOM      1  C1  UNL d   1      -0.660   0.404  -0.517  0.00  0.00     0.143 A 
ATOM      2  C2  UNL d   1      -0.031  -0.699   0.070  0.00  0.00    -0.057 A 
ATOM      3  C3  UNL d   1       1.232  -0.585   0.662  0.00  0.00     0.033 A 
ATOM      4  C4  UNL d   1       1.905   0.633   0.651  0.00  0.00    -0.042 A 
ATOM      5  C5  UNL d   1       1.310   1.737   0.051  0.00  0.00     0.033 A 
ATOM      6  C6  UNL d   1       0.045   1.618  -0.533  0.00  0.00    -0.057 A 
ENDROOT
BRANCH   1   7
ATOM      7  N   UNL d   1      -1.872   0.333  -1.209  0.00  0.00    -0.732 N 
ATOM      8  C   UNL d   1      -2.049  -0.614  -2.289  0.00  0.00     0.284 C 
ATOM      9  H3  UNL d   1      -2.676   0.415  -0.591  0.00  0.00     0.395 HD
ENDBRANCH   1   7
TORSDOF 1
ENDMDL
