MODEL 1
REMARK minimizedAffinity -2.61971235
REMARK minimizedRMSD -1
REMARK  1 active torsions:
REMARK  status: ('A' for Active; 'I' for Inactive)
REMARK    1  A    between atoms: N_2  and  C1_3 
ROOT
ATOM      1  C1  UNL d   1      -1.450  -0.114  -0.752  0.00  0.00     0.143 A 
ATOM      2  C2  UNL d   1      -2.109   1.013  -1.255  0.00  0.00    -0.057 A 
ATOM      3  C3  UNL d   1      -2.881   0.944  -2.421  0.00  0.00     0.033 A 
ATOM      4  C4  UNL d   1      -2.983  -0.252  -3.124  0.00  0.00    -0.042 A 
ATOM      5  C5  UNL d   1      -2.316  -1.379  -2.657  0.00  0.00     0.033 A 
ATOM      6  C6  UNL d   1      -1.553  -1.305  -1.488  0.00  0.00    -0.057 A 
ENDROOT
BRANCH   1   7
ATOM      7  N   UNL d   1      -0.589  -0.086   0.347  0.00  0.00    -0.732 N 
ATOM      8  C   UNL d   1       0.022  -1.303   0.837  0.00  0.00     0.284 C 
ATOM      9  H3  UNL d   1       0.038   0.716   0.329  0.00  0.00     0.395 HD
ENDBRANCH   1   7
TORSDOF 1
ENDMDL
