MODEL 1
REMARK minimizedAffinity -1.78102827
REMARK minimizedRMSD -1
REMARK  1 active torsions:
REMARK  status: ('A' for Active; 'I' for Inactive)
REMARK    1  A    between atoms: N_2  and  C1_3 
ROOT
ATOM      1  C1  UNL d   1      -1.755   0.105  -1.221  0.00  0.00     0.143 A 
ATOM      2  C2  UNL d   1      -2.546   1.165  -1.678  0.00  0.00    -0.057 A 
ATOM      3  C3  UNL d   1      -3.056   1.180  -2.981  0.00  0.00     0.033 A 
ATOM      4  C4  UNL d   1      -2.759   0.147  -3.863  0.00  0.00    -0.042 A 
ATOM      5  C5  UNL d   1      -1.954  -0.904  -3.439  0.00  0.00     0.033 A 
ATOM      6  C6  UNL d   1      -1.453  -0.918  -2.134  0.00  0.00    -0.057 A 
ENDROOT
BRANCH   1   7
ATOM      7  N   UNL d   1      -1.138   0.079   0.032  0.00  0.00    -0.732 N 
ATOM      8  C   UNL d   1       0.127   0.751   0.244  0.00  0.00     0.284 C 
ATOM      9  H3  UNL d   1      -1.801   0.192   0.795  0.00  0.00     0.395 HD
ENDBRANCH   1   7
TORSDOF 1
ENDMDL
