MODEL 1
REMARK minimizedAffinity -3.96121526
REMARK minimizedRMSD -1
REMARK  1 active torsions:
REMARK  status: ('A' for Active; 'I' for Inactive)
REMARK    1  A    between atoms: N_2  and  C1_3 
ROOT
ATOM      1  C1  UNL d   1      -0.356   0.114   0.242  0.00  0.00     0.143 A 
ATOM      2  C2  UNL d   1       0.507   1.182  -0.026  0.00  0.00    -0.057 A 
ATOM      3  C3  UNL d   1       1.810   1.208   0.486  0.00  0.00     0.033 A 
ATOM      4  C4  UNL d   1       2.264   0.177   1.302  0.00  0.00    -0.042 A 
ATOM      5  C5  UNL d   1       1.415  -0.882   1.602  0.00  0.00     0.033 A 
ATOM      6  C6  UNL d   1       0.117  -0.906   1.082  0.00  0.00    -0.057 A 
ENDROOT
BRANCH   1   7
ATOM      7  N   UNL d   1      -1.694   0.077  -0.157  0.00  0.00    -0.732 N 
ATOM      8  C   UNL d   1      -2.046  -0.200  -1.533  0.00  0.00     0.284 C 
ATOM      9  H3  UNL d   1      -2.291  -0.385   0.526  0.00  0.00     0.395 HD
ENDBRANCH   1   7
TORSDOF 1
ENDMDL
