MODEL 1
REMARK minimizedAffinity -3.56370544
REMARK minimizedRMSD -1
REMARK  1 active torsions:
REMARK  status: ('A' for Active; 'I' for Inactive)
REMARK    1  A    between atoms: N_2  and  C1_3 
ROOT
ATOM      1  C1  UNL d   1       1.386   0.477   0.733  0.00  0.00     0.143 A 
ATOM      2  C2  UNL d   1       0.695   1.414  -0.043  0.00  0.00    -0.057 A 
ATOM      3  C3  UNL d   1      -0.608   1.167  -0.491  0.00  0.00     0.033 A 
ATOM      4  C4  UNL d   1      -1.235  -0.039  -0.194  0.00  0.00    -0.042 A 
ATOM      5  C5  UNL d   1      -0.558  -0.995   0.555  0.00  0.00     0.033 A 
ATOM      6  C6  UNL d   1       0.741  -0.739   1.005  0.00  0.00    -0.057 A 
ENDROOT
BRANCH   1   7
ATOM      7  N   UNL d   1       2.719   0.624   1.125  0.00  0.00    -0.732 N 
ATOM      8  C   UNL d   1       3.430  -0.475   1.743  0.00  0.00     0.284 C 
ATOM      9  H3  UNL d   1       3.268   1.146   0.447  0.00  0.00     0.395 HD
ENDBRANCH   1   7
TORSDOF 1
ENDMDL
