MODEL 1
REMARK minimizedAffinity 1.42831898
REMARK minimizedRMSD -1
REMARK  1 active torsions:
REMARK  status: ('A' for Active; 'I' for Inactive)
REMARK    1  A    between atoms: N_2  and  C1_3 
ROOT
ATOM      1  C1  UNL d   1       0.007   0.461   0.190  0.00  0.00     0.143 A 
ATOM      2  C2  UNL d   1       0.813   1.192  -0.690  0.00  0.00    -0.057 A 
ATOM      3  C3  UNL d   1       2.173   1.397  -0.429  0.00  0.00     0.033 A 
ATOM      4  C4  UNL d   1       2.747   0.899   0.736  0.00  0.00    -0.042 A 
ATOM      5  C5  UNL d   1       1.959   0.191   1.638  0.00  0.00     0.033 A 
ATOM      6  C6  UNL d   1       0.603  -0.017   1.368  0.00  0.00    -0.057 A 
ENDROOT
BRANCH   1   7
ATOM      7  N   UNL d   1      -1.372   0.306   0.035  0.00  0.00    -0.732 N 
ATOM      8  C   UNL d   1      -1.971   0.309  -1.282  0.00  0.00     0.284 C 
ATOM      9  H3  UNL d   1      -1.758  -0.393   0.666  0.00  0.00     0.395 HD
ENDBRANCH   1   7
TORSDOF 1
ENDMDL
