MODEL 1
REMARK minimizedAffinity -3.05156207
REMARK minimizedRMSD -1
REMARK  1 active torsions:
REMARK  status: ('A' for Active; 'I' for Inactive)
REMARK    1  A    between atoms: N_2  and  C1_3 
ROOT
ATOM      1  C1  UNL d   1       0.600  -1.208   1.250  0.00  0.00     0.143 A 
ATOM      2  C2  UNL d   1      -0.631  -1.147   0.588  0.00  0.00    -0.057 A 
ATOM      3  C3  UNL d   1      -0.936  -0.092  -0.281  0.00  0.00     0.033 A 
ATOM      4  C4  UNL d   1      -0.024   0.939  -0.481  0.00  0.00    -0.042 A 
ATOM      5  C5  UNL d   1       1.196   0.911   0.185  0.00  0.00     0.033 A 
ATOM      6  C6  UNL d   1       1.498  -0.148   1.046  0.00  0.00    -0.057 A 
ENDROOT
BRANCH   1   7
ATOM      7  N   UNL d   1       0.925  -2.178   2.201  0.00  0.00    -0.732 N 
ATOM      8  C   UNL d   1       2.029  -1.976   3.114  0.00  0.00     0.284 C 
ATOM      9  H3  UNL d   1       0.100  -2.591   2.631  0.00  0.00     0.395 HD
ENDBRANCH   1   7
TORSDOF 1
ENDMDL
