MODEL 1
REMARK minimizedAffinity -1.52670586
REMARK minimizedRMSD -1
REMARK  1 active torsions:
REMARK  status: ('A' for Active; 'I' for Inactive)
REMARK    1  A    between atoms: N_2  and  C1_3 
ROOT
ATOM      1  C1  UNL d   1       1.911   0.302   1.415  0.00  0.00     0.143 A 
ATOM      2  C2  UNL d   1       1.104   1.158   0.657  0.00  0.00    -0.057 A 
ATOM      3  C3  UNL d   1      -0.154   0.752   0.195  0.00  0.00     0.033 A 
ATOM      4  C4  UNL d   1      -0.616  -0.533   0.460  0.00  0.00    -0.042 A 
ATOM      5  C5  UNL d   1       0.180  -1.410   1.190  0.00  0.00     0.033 A 
ATOM      6  C6  UNL d   1       1.432  -0.995   1.654  0.00  0.00    -0.057 A 
ENDROOT
BRANCH   1   7
ATOM      7  N   UNL d   1       3.211   0.614   1.818  0.00  0.00    -0.732 N 
ATOM      8  C   UNL d   1       4.265  -0.374   1.736  0.00  0.00     0.284 C 
ATOM      9  H3  UNL d   1       3.494   1.548   1.531  0.00  0.00     0.395 HD
ENDBRANCH   1   7
TORSDOF 1
ENDMDL
