MODEL 1
REMARK minimizedAffinity -4.19039297
REMARK minimizedRMSD -1
REMARK  1 active torsions:
REMARK  status: ('A' for Active; 'I' for Inactive)
REMARK    1  A    between atoms: N_2  and  C1_3 
ROOT
ATOM      1  C1  UNL d   1       0.340  -0.776   0.815  0.00  0.00     0.143 A 
ATOM      2  C2  UNL d   1       1.127   0.351   0.554  0.00  0.00    -0.057 A 
ATOM      3  C3  UNL d   1       2.402   0.494   1.116  0.00  0.00     0.033 A 
ATOM      4  C4  UNL d   1       2.902  -0.479   1.976  0.00  0.00    -0.042 A 
ATOM      5  C5  UNL d   1       2.127  -1.595   2.270  0.00  0.00     0.033 A 
ATOM      6  C6  UNL d   1       0.858  -1.735   1.700  0.00  0.00    -0.057 A 
ENDROOT
BRANCH   1   7
ATOM      7  N   UNL d   1      -0.973  -0.929   0.366  0.00  0.00    -0.732 N 
ATOM      8  C   UNL d   1      -1.597   0.092  -0.449  0.00  0.00     0.284 C 
ATOM      9  H3  UNL d   1      -1.173  -1.880   0.065  0.00  0.00     0.395 HD
ENDBRANCH   1   7
TORSDOF 1
ENDMDL
