MODEL 1
REMARK minimizedAffinity -5.22375488
REMARK minimizedRMSD -1
REMARK  1 active torsions:
REMARK  status: ('A' for Active; 'I' for Inactive)
REMARK    1  A    between atoms: N_2  and  C1_3 
ROOT
ATOM      1  C1  UNL d   1       1.612  -0.047   0.158  0.00  0.00     0.143 A 
ATOM      2  C2  UNL d   1       2.902   0.367   0.507  0.00  0.00    -0.057 A 
ATOM      3  C3  UNL d   1       3.668  -0.348   1.435  0.00  0.00     0.033 A 
ATOM      4  C4  UNL d   1       3.144  -1.478   2.055  0.00  0.00    -0.042 A 
ATOM      5  C5  UNL d   1       1.855  -1.894   1.742  0.00  0.00     0.033 A 
ATOM      6  C6  UNL d   1       1.098  -1.179   0.809  0.00  0.00    -0.057 A 
ENDROOT
BRANCH   1   7
ATOM      7  N   UNL d   1       0.764   0.676  -0.685  0.00  0.00    -0.732 N 
ATOM      8  C   UNL d   1      -0.635   0.324  -0.800  0.00  0.00     0.284 C 
ATOM      9  H3  UNL d   1       0.939   1.677  -0.645  0.00  0.00     0.395 HD
ENDBRANCH   1   7
TORSDOF 1
ENDMDL
