MODEL 1
REMARK minimizedAffinity -3.79767132
REMARK minimizedRMSD -1
REMARK  0 active torsions:
REMARK  status: ('A' for Active; 'I' for Inactive)
ROOT
ATOM      1  C   UNL d   1      -0.587   0.014  -0.717  0.00  0.00     0.172 C 
ATOM      2  N   UNL d   1       0.207  -0.238   0.463  0.00  0.00    -0.070 N 
ATOM      3  C1  UNL d   1       1.574  -0.206   0.527  0.00  0.00    -0.004 A 
ATOM      4  C2  UNL d   1       1.943  -0.500   1.822  0.00  0.00    -0.047 A 
ATOM      5  C3  UNL d   1       0.756  -0.718   2.561  0.00  0.00    -0.047 A 
ATOM      6  C4  UNL d   1      -0.304  -0.550   1.695  0.00  0.00    -0.004 A 
ENDROOT
TORSDOF 0
ENDMDL
