MODEL 1
REMARK minimizedAffinity -1.67731965
REMARK minimizedRMSD -1
REMARK  0 active torsions:
REMARK  status: ('A' for Active; 'I' for Inactive)
ROOT
ATOM      1  C   UNL d   1      -0.205   0.169  -0.954  0.00  0.00     0.172 C 
ATOM      2  N   UNL d   1      -0.099  -0.484   0.329  0.00  0.00    -0.070 N 
ATOM      3  C1  UNL d   1       0.831  -1.431   0.669  0.00  0.00    -0.004 A 
ATOM      4  C2  UNL d   1       0.598  -1.801   1.976  0.00  0.00    -0.047 A 
ATOM      5  C3  UNL d   1      -0.510  -1.052   2.437  0.00  0.00    -0.047 A 
ATOM      6  C4  UNL d   1      -0.922  -0.244   1.398  0.00  0.00    -0.004 A 
ENDROOT
TORSDOF 0
ENDMDL
