MODEL 1
REMARK minimizedAffinity -2.35589242
REMARK minimizedRMSD -1
REMARK  0 active torsions:
REMARK  status: ('A' for Active; 'I' for Inactive)
ROOT
ATOM      1  C   UNL d   1      -0.395   0.130  -0.582  0.00  0.00     0.172 C 
ATOM      2  N   UNL d   1      -0.223  -0.401   0.750  0.00  0.00    -0.070 N 
ATOM      3  C1  UNL d   1      -0.953  -0.043   1.852  0.00  0.00    -0.004 A 
ATOM      4  C2  UNL d   1      -0.485  -0.772   2.924  0.00  0.00    -0.047 A 
ATOM      5  C3  UNL d   1       0.563  -1.597   2.449  0.00  0.00    -0.047 A 
ATOM      6  C4  UNL d   1       0.704  -1.346   1.101  0.00  0.00    -0.004 A 
ENDROOT
TORSDOF 0
ENDMDL
