MODEL 1
REMARK minimizedAffinity -4.2472415
REMARK minimizedRMSD -1
REMARK  0 active torsions:
REMARK  status: ('A' for Active; 'I' for Inactive)
ROOT
ATOM      1  C   UNL d   1       0.034  -0.298  -1.002  0.00  0.00     0.172 C 
ATOM      2  N   UNL d   1       0.623  -0.655   0.268  0.00  0.00    -0.070 N 
ATOM      3  C1  UNL d   1       1.807  -1.321   0.439  0.00  0.00    -0.004 A 
ATOM      4  C2  UNL d   1       2.017  -1.467   1.794  0.00  0.00    -0.047 A 
ATOM      5  C3  UNL d   1       0.921  -0.868   2.459  0.00  0.00    -0.047 A 
ATOM      6  C4  UNL d   1       0.073  -0.373   1.490  0.00  0.00    -0.004 A 
ENDROOT
TORSDOF 0
ENDMDL
