MODEL 1
REMARK minimizedAffinity -3.11690307
REMARK minimizedRMSD -1
REMARK  0 active torsions:
REMARK  status: ('A' for Active; 'I' for Inactive)
ROOT
ATOM      1  C   UNL d   1       0.276   0.209  -0.920  0.00  0.00     0.172 C 
ATOM      2  N   UNL d   1      -0.387   1.222  -1.708  0.00  0.00    -0.070 N 
ATOM      3  C1  UNL d   1       0.218   2.303  -2.291  0.00  0.00    -0.004 A 
ATOM      4  C2  UNL d   1      -0.754   3.025  -2.951  0.00  0.00    -0.047 A 
ATOM      5  C3  UNL d   1      -1.985   2.355  -2.756  0.00  0.00    -0.047 A 
ATOM      6  C4  UNL d   1      -1.729   1.242  -1.983  0.00  0.00    -0.004 A 
ENDROOT
TORSDOF 0
ENDMDL
