MODEL 1
REMARK minimizedAffinity -3.88250995
REMARK minimizedRMSD -1
REMARK  0 active torsions:
REMARK  status: ('A' for Active; 'I' for Inactive)
ROOT
ATOM      1  C   UNL d   1      -0.180  -0.099  -0.959  0.00  0.00     0.172 C 
ATOM      2  N   UNL d   1       0.082  -0.131   0.461  0.00  0.00    -0.070 N 
ATOM      3  C1  UNL d   1       1.313  -0.273   1.043  0.00  0.00    -0.004 A 
ATOM      4  C2  UNL d   1       1.139  -0.254   2.410  0.00  0.00    -0.047 A 
ATOM      5  C3  UNL d   1      -0.246  -0.097   2.658  0.00  0.00    -0.047 A 
ATOM      6  C4  UNL d   1      -0.876  -0.023   1.434  0.00  0.00    -0.004 A 
ENDROOT
TORSDOF 0
ENDMDL
