MODEL 1
REMARK minimizedAffinity -1.04120696
REMARK minimizedRMSD -1
REMARK  0 active torsions:
REMARK  status: ('A' for Active; 'I' for Inactive)
ROOT
ATOM      1  C   UNL d   1      -0.722  -0.272   1.288  0.00  0.00     0.172 C 
ATOM      2  N   UNL d   1      -0.168  -0.429  -0.036  0.00  0.00    -0.070 N 
ATOM      3  C1  UNL d   1       1.093  -0.879  -0.326  0.00  0.00    -0.004 A 
ATOM      4  C2  UNL d   1       1.234  -0.884  -1.696  0.00  0.00    -0.047 A 
ATOM      5  C3  UNL d   1       0.017  -0.420  -2.250  0.00  0.00    -0.047 A 
ATOM      6  C4  UNL d   1      -0.833  -0.145  -1.199  0.00  0.00    -0.004 A 
ENDROOT
TORSDOF 0
ENDMDL
