MODEL 1
REMARK minimizedAffinity 11.3367605
REMARK minimizedRMSD -1
REMARK  0 active torsions:
REMARK  status: ('A' for Active; 'I' for Inactive)
ROOT
ATOM      1  C   UNL d   1       0.000   0.177   3.398  0.00  0.00     0.124 A 
ATOM      2  C1  UNL d   1       0.356  -0.773   4.346  0.00  0.00     0.062 A 
ATOM      3  C2  UNL d   1      -0.625  -1.420   5.090  0.00  0.00     0.162 A 
ATOM      4  C3  UNL d   1      -1.973  -1.122   4.889  0.00  0.00    -0.034 A 
ATOM      5  C4  UNL d   1      -2.323  -0.165   3.934  0.00  0.00     0.162 A 
ATOM      6  C5  UNL d   1      -1.338   0.479   3.193  0.00  0.00     0.062 A 
ATOM      7  F   UNL d   1      -1.684   1.396   2.277  0.00  0.00    -0.097 F 
ATOM      8  F1  UNL d   1      -3.609   0.146   3.715  0.00  0.00    -0.096 F 
ATOM      9  I   UNL d   1      -3.444  -2.088   6.000  0.00  0.00    -0.060 I 
ATOM     10  F2  UNL d   1      -0.253  -2.333   5.999  0.00  0.00    -0.096 F 
ATOM     11  F3  UNL d   1       1.649  -1.066   4.546  0.00  0.00    -0.097 F 
ATOM     12  F4  UNL d   1       0.947   0.799   2.684  0.00  0.00    -0.092 F 
ENDROOT
TORSDOF 0
ENDMDL
