MODEL 1
REMARK minimizedAffinity 1.79111135
REMARK minimizedRMSD -1
REMARK  0 active torsions:
REMARK  status: ('A' for Active; 'I' for Inactive)
ROOT
ATOM      1  C   UNL d   1       0.553   2.015  -0.314  0.00  0.00     0.124 A 
ATOM      2  C1  UNL d   1       0.470   1.094  -1.348  0.00  0.00     0.062 A 
ATOM      3  C2  UNL d   1       0.229  -0.249  -1.072  0.00  0.00     0.162 A 
ATOM      4  C3  UNL d   1       0.069  -0.679   0.246  0.00  0.00    -0.034 A 
ATOM      5  C4  UNL d   1       0.155   0.254   1.281  0.00  0.00     0.162 A 
ATOM      6  C5  UNL d   1       0.395   1.595   0.999  0.00  0.00     0.062 A 
ATOM      7  F   UNL d   1       0.476   2.484   2.000  0.00  0.00    -0.097 F 
ATOM      8  F1  UNL d   1       0.005  -0.125   2.559  0.00  0.00    -0.096 F 
ATOM      9  I   UNL d   1      -0.292  -2.685   0.663  0.00  0.00    -0.060 I 
ATOM     10  F2  UNL d   1       0.154  -1.118  -2.091  0.00  0.00    -0.096 F 
ATOM     11  F3  UNL d   1       0.623   1.497  -2.618  0.00  0.00    -0.097 F 
ATOM     12  F4  UNL d   1       0.786   3.306  -0.583  0.00  0.00    -0.092 F 
ENDROOT
TORSDOF 0
ENDMDL
