MODEL 1
REMARK minimizedAffinity -2.86466932
REMARK minimizedRMSD -1
REMARK  0 active torsions:
REMARK  status: ('A' for Active; 'I' for Inactive)
ROOT
ATOM      1  C   UNL d   1      -1.537  -1.837   1.304  0.00  0.00     0.124 A 
ATOM      2  C1  UNL d   1      -1.305  -0.681   2.038  0.00  0.00     0.062 A 
ATOM      3  C2  UNL d   1      -0.304   0.204   1.650  0.00  0.00     0.162 A 
ATOM      4  C3  UNL d   1       0.473  -0.061   0.522  0.00  0.00    -0.034 A 
ATOM      5  C4  UNL d   1       0.234  -1.226  -0.210  0.00  0.00     0.162 A 
ATOM      6  C5  UNL d   1      -0.768  -2.108   0.182  0.00  0.00     0.062 A 
ATOM      7  F   UNL d   1      -0.991  -3.224  -0.528  0.00  0.00    -0.097 F 
ATOM      8  F1  UNL d   1       0.962  -1.512  -1.299  0.00  0.00    -0.096 F 
ATOM      9  I   UNL d   1       1.971   1.261  -0.061  0.00  0.00    -0.060 I 
ATOM     10  F2  UNL d   1      -0.101   1.313   2.377  0.00  0.00    -0.096 F 
ATOM     11  F3  UNL d   1      -2.046  -0.418   3.123  0.00  0.00    -0.097 F 
ATOM     12  F4  UNL d   1      -2.501  -2.688   1.680  0.00  0.00    -0.092 F 
ENDROOT
TORSDOF 0
ENDMDL
