MODEL 1
REMARK minimizedAffinity -3.73143578
REMARK minimizedRMSD -1
REMARK  0 active torsions:
REMARK  status: ('A' for Active; 'I' for Inactive)
ROOT
ATOM      1  C   UNL d   1       0.923  -1.533  -1.236  0.00  0.00     0.124 A 
ATOM      2  C1  UNL d   1       0.564  -2.486  -0.293  0.00  0.00     0.062 A 
ATOM      3  C2  UNL d   1      -0.455  -2.221   0.617  0.00  0.00     0.162 A 
ATOM      4  C3  UNL d   1      -1.123  -0.997   0.588  0.00  0.00    -0.034 A 
ATOM      5  C4  UNL d   1      -0.756  -0.043  -0.362  0.00  0.00     0.162 A 
ATOM      6  C5  UNL d   1       0.263  -0.313  -1.270  0.00  0.00     0.062 A 
ATOM      7  F   UNL d   1       0.609   0.609  -2.180  0.00  0.00    -0.097 F 
ATOM      8  F1  UNL d   1      -1.378   1.144  -0.418  0.00  0.00    -0.096 F 
ATOM      9  I   UNL d   1      -2.648  -0.597   1.948  0.00  0.00    -0.060 I 
ATOM     10  F2  UNL d   1      -0.781  -3.161   1.517  0.00  0.00    -0.096 F 
ATOM     11  F3  UNL d   1       1.201  -3.666  -0.258  0.00  0.00    -0.097 F 
ATOM     12  F4  UNL d   1       1.905  -1.790  -2.110  0.00  0.00    -0.092 F 
ENDROOT
TORSDOF 0
ENDMDL
