MODEL 1
REMARK minimizedAffinity 5.54928017
REMARK minimizedRMSD -1
REMARK  0 active torsions:
REMARK  status: ('A' for Active; 'I' for Inactive)
ROOT
ATOM      1  C   UNL d   1      -2.618  -3.215   0.779  0.00  0.00     0.124 A 
ATOM      2  C1  UNL d   1      -3.313  -2.014   0.818  0.00  0.00     0.062 A 
ATOM      3  C2  UNL d   1      -2.622  -0.806   0.815  0.00  0.00     0.162 A 
ATOM      4  C3  UNL d   1      -1.228  -0.792   0.773  0.00  0.00    -0.034 A 
ATOM      5  C4  UNL d   1      -0.536  -2.004   0.735  0.00  0.00     0.162 A 
ATOM      6  C5  UNL d   1      -1.231  -3.209   0.738  0.00  0.00     0.062 A 
ATOM      7  F   UNL d   1      -0.559  -4.369   0.700  0.00  0.00    -0.097 F 
ATOM      8  F1  UNL d   1       0.804  -2.027   0.694  0.00  0.00    -0.096 F 
ATOM      9  I   UNL d   1      -0.191   1.013   0.769  0.00  0.00    -0.060 I 
ATOM     10  F2  UNL d   1      -3.319   0.340   0.853  0.00  0.00    -0.096 F 
ATOM     11  F3  UNL d   1      -4.653  -2.017   0.858  0.00  0.00    -0.097 F 
ATOM     12  F4  UNL d   1      -3.285  -4.376   0.782  0.00  0.00    -0.092 F 
ENDROOT
TORSDOF 0
ENDMDL
