MODEL 1
REMARK minimizedAffinity -2.8523314
REMARK minimizedRMSD -1
REMARK  0 active torsions:
REMARK  status: ('A' for Active; 'I' for Inactive)
ROOT
ATOM      1  C   UNL d   1       0.859  -1.714  -1.732  0.00  0.00     0.124 A 
ATOM      2  C1  UNL d   1       0.369  -0.418  -1.650  0.00  0.00     0.062 A 
ATOM      3  C2  UNL d   1      -0.435  -0.040  -0.579  0.00  0.00     0.162 A 
ATOM      4  C3  UNL d   1      -0.754  -0.959   0.421  0.00  0.00    -0.034 A 
ATOM      5  C4  UNL d   1      -0.258  -2.261   0.331  0.00  0.00     0.162 A 
ATOM      6  C5  UNL d   1       0.545  -2.634  -0.742  0.00  0.00     0.062 A 
ATOM      7  F   UNL d   1       1.018  -3.887  -0.819  0.00  0.00    -0.097 F 
ATOM      8  F1  UNL d   1      -0.544  -3.170   1.275  0.00  0.00    -0.096 F 
ATOM      9  I   UNL d   1      -1.955  -0.398   2.025  0.00  0.00    -0.060 I 
ATOM     10  F2  UNL d   1      -0.895   1.219  -0.525  0.00  0.00    -0.096 F 
ATOM     11  F3  UNL d   1       0.669   0.473  -2.606  0.00  0.00    -0.097 F 
ATOM     12  F4  UNL d   1       1.631  -2.075  -2.765  0.00  0.00    -0.092 F 
ENDROOT
TORSDOF 0
ENDMDL
