MODEL 1
REMARK minimizedAffinity -4.32345724
REMARK minimizedRMSD -1
REMARK  0 active torsions:
REMARK  status: ('A' for Active; 'I' for Inactive)
ROOT
ATOM      1  C   UNL d   1       0.884   1.795   1.383  0.00  0.00     0.124 A 
ATOM      2  C1  UNL d   1       0.555   0.981   2.458  0.00  0.00     0.062 A 
ATOM      3  C2  UNL d   1      -0.003  -0.275   2.239  0.00  0.00     0.162 A 
ATOM      4  C3  UNL d   1      -0.234  -0.726   0.939  0.00  0.00    -0.034 A 
ATOM      5  C4  UNL d   1       0.099   0.099  -0.137  0.00  0.00     0.162 A 
ATOM      6  C5  UNL d   1       0.657   1.354   0.088  0.00  0.00     0.062 A 
ATOM      7  F   UNL d   1       0.974   2.139  -0.952  0.00  0.00    -0.097 F 
ATOM      8  F1  UNL d   1      -0.109  -0.303  -1.399  0.00  0.00    -0.096 F 
ATOM      9  I   UNL d   1      -1.068  -2.604   0.607  0.00  0.00    -0.060 I 
ATOM     10  F2  UNL d   1      -0.312  -1.041   3.296  0.00  0.00    -0.096 F 
ATOM     11  F3  UNL d   1       0.773   1.405   3.711  0.00  0.00    -0.097 F 
ATOM     12  F4  UNL d   1       1.420   3.004   1.597  0.00  0.00    -0.092 F 
ENDROOT
TORSDOF 0
ENDMDL
