MODEL 1
REMARK minimizedAffinity -2.21200728
REMARK minimizedRMSD -1
REMARK  0 active torsions:
REMARK  status: ('A' for Active; 'I' for Inactive)
ROOT
ATOM      1  C   UNL d   1       2.029   3.186   0.831  0.00  0.00     0.124 A 
ATOM      2  C1  UNL d   1       2.534   2.067   1.479  0.00  0.00     0.062 A 
ATOM      3  C2  UNL d   1       1.781   0.899   1.550  0.00  0.00     0.162 A 
ATOM      4  C3  UNL d   1       0.514   0.843   0.969  0.00  0.00    -0.034 A 
ATOM      5  C4  UNL d   1       0.012   1.972   0.320  0.00  0.00     0.162 A 
ATOM      6  C5  UNL d   1       0.769   3.137   0.252  0.00  0.00     0.062 A 
ATOM      7  F   UNL d   1       0.279   4.217  -0.375  0.00  0.00    -0.097 F 
ATOM      8  F1  UNL d   1      -1.203   1.952  -0.249  0.00  0.00    -0.096 F 
ATOM      9  I   UNL d   1      -0.616  -0.902   1.072  0.00  0.00    -0.060 I 
ATOM     10  F2  UNL d   1       2.294  -0.167   2.182  0.00  0.00    -0.096 F 
ATOM     11  F3  UNL d   1       3.751   2.112   2.040  0.00  0.00    -0.097 F 
ATOM     12  F4  UNL d   1       2.756   4.309   0.766  0.00  0.00    -0.092 F 
ENDROOT
TORSDOF 0
ENDMDL
