MODEL 1
REMARK minimizedAffinity 0.634388924
REMARK minimizedRMSD -1
REMARK  0 active torsions:
REMARK  status: ('A' for Active; 'I' for Inactive)
ROOT
ATOM      1  C   UNL d   1      -0.065  -1.321  -1.867  0.00  0.00     0.124 A 
ATOM      2  C1  UNL d   1       0.270  -0.158  -1.187  0.00  0.00     0.062 A 
ATOM      3  C2  UNL d   1      -0.147   0.029   0.127  0.00  0.00     0.162 A 
ATOM      4  C3  UNL d   1      -0.903  -0.951   0.772  0.00  0.00    -0.034 A 
ATOM      5  C4  UNL d   1      -1.236  -2.117   0.081  0.00  0.00     0.162 A 
ATOM      6  C5  UNL d   1      -0.817  -2.299  -1.233  0.00  0.00     0.062 A 
ATOM      7  F   UNL d   1      -1.141  -3.423  -1.888  0.00  0.00    -0.097 F 
ATOM      8  F1  UNL d   1      -1.961  -3.079   0.671  0.00  0.00    -0.096 F 
ATOM      9  I   UNL d   1      -1.528  -0.675   2.738  0.00  0.00    -0.060 I 
ATOM     10  F2  UNL d   1       0.191   1.162   0.760  0.00  0.00    -0.096 F 
ATOM     11  F3  UNL d   1       0.996   0.789  -1.799  0.00  0.00    -0.097 F 
ATOM     12  F4  UNL d   1       0.337  -1.497  -3.133  0.00  0.00    -0.092 F 
ENDROOT
TORSDOF 0
ENDMDL
