MODEL 1
REMARK minimizedAffinity -0.966987669
REMARK minimizedRMSD -1
REMARK  0 active torsions:
REMARK  status: ('A' for Active; 'I' for Inactive)
ROOT
ATOM      1  C   UNL d   1      -0.728  -2.410  -0.312  0.00  0.00     0.124 A 
ATOM      2  C1  UNL d   1      -0.336  -1.638  -1.396  0.00  0.00     0.062 A 
ATOM      3  C2  UNL d   1      -0.065  -0.283  -1.229  0.00  0.00     0.162 A 
ATOM      4  C3  UNL d   1      -0.184   0.309   0.028  0.00  0.00    -0.034 A 
ATOM      5  C4  UNL d   1      -0.580  -0.474   1.114  0.00  0.00     0.162 A 
ATOM      6  C5  UNL d   1      -0.850  -1.827   0.942  0.00  0.00     0.062 A 
ATOM      7  F   UNL d   1      -1.229  -2.572   1.991  0.00  0.00    -0.097 F 
ATOM      8  F1  UNL d   1      -0.705   0.063   2.337  0.00  0.00    -0.096 F 
ATOM      9  I   UNL d   1       0.220   2.335   0.282  0.00  0.00    -0.060 I 
ATOM     10  F2  UNL d   1       0.313   0.439  -2.295  0.00  0.00    -0.096 F 
ATOM     11  F3  UNL d   1      -0.218  -2.198  -2.609  0.00  0.00    -0.097 F 
ATOM     12  F4  UNL d   1      -0.989  -3.713  -0.475  0.00  0.00    -0.092 F 
ENDROOT
TORSDOF 0
ENDMDL
