MODEL 1
REMARK minimizedAffinity 1.06442213
REMARK minimizedRMSD -1
REMARK  0 active torsions:
REMARK  status: ('A' for Active; 'I' for Inactive)
ROOT
ATOM      1  C   UNL d   1      -0.571  -1.870  -0.660  0.00  0.00     0.124 A 
ATOM      2  C1  UNL d   1      -0.792  -1.437   0.640  0.00  0.00     0.062 A 
ATOM      3  C2  UNL d   1      -0.505  -0.124   1.000  0.00  0.00     0.162 A 
ATOM      4  C3  UNL d   1       0.006   0.768   0.057  0.00  0.00    -0.034 A 
ATOM      5  C4  UNL d   1       0.227   0.326  -1.249  0.00  0.00     0.162 A 
ATOM      6  C5  UNL d   1      -0.062  -0.988  -1.603  0.00  0.00     0.062 A 
ATOM      7  F   UNL d   1       0.152  -1.404  -2.860  0.00  0.00    -0.097 F 
ATOM      8  F1  UNL d   1       0.717   1.157  -2.181  0.00  0.00    -0.096 F 
ATOM      9  I   UNL d   1       0.437   2.733   0.590  0.00  0.00    -0.060 I 
ATOM     10  F2  UNL d   1      -0.728   0.267   2.263  0.00  0.00    -0.096 F 
ATOM     11  F3  UNL d   1      -1.283  -2.287   1.554  0.00  0.00    -0.097 F 
ATOM     12  F4  UNL d   1      -0.848  -3.134  -1.003  0.00  0.00    -0.092 F 
ENDROOT
TORSDOF 0
ENDMDL
