MODEL 1
REMARK minimizedAffinity 1.08654785
REMARK minimizedRMSD -1
REMARK  0 active torsions:
REMARK  status: ('A' for Active; 'I' for Inactive)
ROOT
ATOM      1  C   UNL d   1      -1.001  -2.496  -1.868  0.00  0.00     0.020 A 
ATOM      2  C1  UNL d   1      -0.630  -1.157  -1.748  0.00  0.00     0.020 A 
ATOM      3  C2  UNL d   1      -1.319  -0.319  -0.869  0.00  0.00     0.034 A 
ATOM      4  C3  UNL d   1      -2.382  -0.818  -0.107  0.00  0.00     0.017 A 
ATOM      5  C4  UNL d   1      -2.753  -2.162  -0.229  0.00  0.00     0.017 A 
ATOM      6  C5  UNL d   1      -2.059  -2.997  -1.110  0.00  0.00     0.034 A 
ATOM      7 Cl   UNL d   1      -4.053  -2.850   0.678  0.00  0.00    -0.070 Cl
ATOM      8 Cl1  UNL d   1      -3.189   0.276   0.960  0.00  0.00    -0.070 Cl
ENDROOT
TORSDOF 0
ENDMDL
