MODEL 1
REMARK minimizedAffinity 4.50172424
REMARK minimizedRMSD -1
REMARK  0 active torsions:
REMARK  status: ('A' for Active; 'I' for Inactive)
ROOT
ATOM      1  C   UNL d   1      -3.676  -1.730   0.426  0.00  0.00     0.020 A 
ATOM      2  C1  UNL d   1      -2.873  -0.777   1.053  0.00  0.00     0.020 A 
ATOM      3  C2  UNL d   1      -1.650  -0.414   0.487  0.00  0.00     0.034 A 
ATOM      4  C3  UNL d   1      -1.225  -1.003  -0.709  0.00  0.00     0.017 A 
ATOM      5  C4  UNL d   1      -2.030  -1.960  -1.337  0.00  0.00     0.017 A 
ATOM      6  C5  UNL d   1      -3.255  -2.320  -0.766  0.00  0.00     0.034 A 
ATOM      7 Cl   UNL d   1      -1.573  -2.731  -2.815  0.00  0.00    -0.070 Cl
ATOM      8 Cl1  UNL d   1       0.300  -0.506  -1.353  0.00  0.00    -0.070 Cl
ENDROOT
TORSDOF 0
ENDMDL
