MODEL 1
REMARK minimizedAffinity -3.72298431
REMARK minimizedRMSD -1
REMARK  0 active torsions:
REMARK  status: ('A' for Active; 'I' for Inactive)
ROOT
ATOM      1  C   UNL d   1      -4.770   2.251   5.818  0.00  0.00     0.020 A 
ATOM      2  C1  UNL d   1      -4.408   1.816   4.544  0.00  0.00     0.020 A 
ATOM      3  C2  UNL d   1      -4.534   2.676   3.451  0.00  0.00     0.034 A 
ATOM      4  C3  UNL d   1      -5.023   3.975   3.629  0.00  0.00     0.017 A 
ATOM      5  C4  UNL d   1      -5.386   4.411   4.909  0.00  0.00     0.017 A 
ATOM      6  C5  UNL d   1      -5.258   3.546   6.000  0.00  0.00     0.034 A 
ATOM      7 Cl   UNL d   1      -5.998   6.000   5.208  0.00  0.00    -0.070 Cl
ATOM      8 Cl1  UNL d   1      -5.152   4.984   2.233  0.00  0.00    -0.070 Cl
ENDROOT
TORSDOF 0
ENDMDL
