MODEL 1
REMARK minimizedAffinity 0.474901438
REMARK minimizedRMSD -1
REMARK  0 active torsions:
REMARK  status: ('A' for Active; 'I' for Inactive)
ROOT
ATOM      1  C   UNL d   1      -0.720  -0.418  -0.353  0.00  0.00     0.020 A 
ATOM      2  C1  UNL d   1      -1.790  -0.030   0.453  0.00  0.00     0.020 A 
ATOM      3  C2  UNL d   1      -2.960  -0.791   0.475  0.00  0.00     0.034 A 
ATOM      4  C3  UNL d   1      -3.064  -1.945  -0.310  0.00  0.00     0.017 A 
ATOM      5  C4  UNL d   1      -1.990  -2.334  -1.119  0.00  0.00     0.017 A 
ATOM      6  C5  UNL d   1      -0.820  -1.568  -1.138  0.00  0.00     0.034 A 
ATOM      7 Cl   UNL d   1      -2.043  -3.745  -2.116  0.00  0.00    -0.070 Cl
ATOM      8 Cl1  UNL d   1      -4.540  -2.840  -0.233  0.00  0.00    -0.070 Cl
ENDROOT
TORSDOF 0
ENDMDL
