MODEL 1
REMARK minimizedAffinity 1.02209687
REMARK minimizedRMSD -1
REMARK  0 active torsions:
REMARK  status: ('A' for Active; 'I' for Inactive)
ROOT
ATOM      1  C   UNL d   1      -2.033  -3.305  -1.104  0.00  0.00     0.020 A 
ATOM      2  C1  UNL d   1      -1.538  -2.871   0.126  0.00  0.00     0.020 A 
ATOM      3  C2  UNL d   1      -0.927  -1.620   0.229  0.00  0.00     0.034 A 
ATOM      4  C3  UNL d   1      -0.808  -0.798  -0.898  0.00  0.00     0.017 A 
ATOM      5  C4  UNL d   1      -1.305  -1.235  -2.131  0.00  0.00     0.017 A 
ATOM      6  C5  UNL d   1      -1.916  -2.489  -2.229  0.00  0.00     0.034 A 
ATOM      7 Cl   UNL d   1      -1.196  -0.278  -3.566  0.00  0.00    -0.070 Cl
ATOM      8 Cl1  UNL d   1      -0.041   0.737  -0.697  0.00  0.00    -0.070 Cl
ENDROOT
TORSDOF 0
ENDMDL
