MODEL 1
REMARK minimizedAffinity 3.41633487
REMARK minimizedRMSD -1
REMARK  0 active torsions:
REMARK  status: ('A' for Active; 'I' for Inactive)
ROOT
ATOM      1  C   UNL d   1      -2.331  -3.656  -1.270  0.00  0.00     0.020 A 
ATOM      2  C1  UNL d   1      -3.237  -3.298  -0.271  0.00  0.00     0.020 A 
ATOM      3  C2  UNL d   1      -3.088  -2.085   0.404  0.00  0.00     0.034 A 
ATOM      4  C3  UNL d   1      -2.032  -1.225   0.082  0.00  0.00     0.017 A 
ATOM      5  C4  UNL d   1      -1.124  -1.585  -0.920  0.00  0.00     0.017 A 
ATOM      6  C5  UNL d   1      -1.277  -2.800  -1.594  0.00  0.00     0.034 A 
ATOM      7 Cl   UNL d   1       0.205  -0.575  -1.373  0.00  0.00    -0.070 Cl
ATOM      8 Cl1  UNL d   1      -1.909   0.259   0.958  0.00  0.00    -0.070 Cl
ENDROOT
TORSDOF 0
ENDMDL
