MODEL 1
REMARK minimizedAffinity -1.97228718
REMARK minimizedRMSD -1
REMARK  0 active torsions:
REMARK  status: ('A' for Active; 'I' for Inactive)
ROOT
ATOM      1  C   UNL d   1      -3.134  -0.675   1.246  0.00  0.00     0.020 A 
ATOM      2  C1  UNL d   1      -3.895  -1.654   0.611  0.00  0.00     0.020 A 
ATOM      3  C2  UNL d   1      -3.386  -2.318  -0.508  0.00  0.00     0.034 A 
ATOM      4  C3  UNL d   1      -2.112  -2.003  -0.994  0.00  0.00     0.017 A 
ATOM      5  C4  UNL d   1      -1.348  -1.020  -0.355  0.00  0.00     0.017 A 
ATOM      6  C5  UNL d   1      -1.863  -0.358   0.764  0.00  0.00     0.034 A 
ATOM      7 Cl   UNL d   1       0.232  -0.576  -0.897  0.00  0.00    -0.070 Cl
ATOM      8 Cl1  UNL d   1      -1.546  -2.864  -2.381  0.00  0.00    -0.070 Cl
ENDROOT
TORSDOF 0
ENDMDL
