MODEL 1
REMARK minimizedAffinity -2.321105
REMARK minimizedRMSD -1
REMARK  0 active torsions:
REMARK  status: ('A' for Active; 'I' for Inactive)
ROOT
ATOM      1  C   UNL d   1      -3.929  -2.101   0.175  0.00  0.00     0.020 A 
ATOM      2  C1  UNL d   1      -3.181  -1.193   0.924  0.00  0.00     0.020 A 
ATOM      3  C2  UNL d   1      -1.893  -0.843   0.513  0.00  0.00     0.034 A 
ATOM      4  C3  UNL d   1      -1.348  -1.402  -0.649  0.00  0.00     0.017 A 
ATOM      5  C4  UNL d   1      -2.100  -2.313  -1.400  0.00  0.00     0.017 A 
ATOM      6  C5  UNL d   1      -3.389  -2.659  -0.985  0.00  0.00     0.034 A 
ATOM      7 Cl   UNL d   1      -1.496  -3.044  -2.845  0.00  0.00    -0.070 Cl
ATOM      8 Cl1  UNL d   1       0.251  -0.924  -1.097  0.00  0.00    -0.070 Cl
ENDROOT
TORSDOF 0
ENDMDL
