MODEL 1
REMARK minimizedAffinity -3.20754838
REMARK minimizedRMSD -1
REMARK  0 active torsions:
REMARK  status: ('A' for Active; 'I' for Inactive)
ROOT
ATOM      1  C   UNL d   1      -4.660   5.312   2.621  0.00  0.00     0.020 A 
ATOM      2  C1  UNL d   1      -5.710   4.453   2.298  0.00  0.00     0.020 A 
ATOM      3  C2  UNL d   1      -5.999   3.363   3.121  0.00  0.00     0.034 A 
ATOM      4  C3  UNL d   1      -5.238   3.128   4.272  0.00  0.00     0.017 A 
ATOM      5  C4  UNL d   1      -4.184   3.991   4.596  0.00  0.00     0.017 A 
ATOM      6  C5  UNL d   1      -3.899   5.081   3.768  0.00  0.00     0.034 A 
ATOM      7 Cl   UNL d   1      -3.201   3.766   5.999  0.00  0.00    -0.070 Cl
ATOM      8 Cl1  UNL d   1      -5.652   1.761   5.244  0.00  0.00    -0.070 Cl
ENDROOT
TORSDOF 0
ENDMDL
