MODEL 1
REMARK minimizedAffinity -3.2611711
REMARK minimizedRMSD -1
REMARK  0 active torsions:
REMARK  status: ('A' for Active; 'I' for Inactive)
ROOT
ATOM      1  C   UNL d   1      -5.412   4.027   1.796  0.00  0.00     0.020 A 
ATOM      2  C1  UNL d   1      -5.267   5.407   1.931  0.00  0.00     0.020 A 
ATOM      3  C2  UNL d   1      -5.335   5.996   3.195  0.00  0.00     0.034 A 
ATOM      4  C3  UNL d   1      -5.549   5.205   4.330  0.00  0.00     0.017 A 
ATOM      5  C4  UNL d   1      -5.694   3.820   4.193  0.00  0.00     0.017 A 
ATOM      6  C5  UNL d   1      -5.625   3.235   2.925  0.00  0.00     0.034 A 
ATOM      7 Cl   UNL d   1      -5.960   2.778   5.546  0.00  0.00    -0.070 Cl
ATOM      8 Cl1  UNL d   1      -5.621   6.000   5.862  0.00  0.00    -0.070 Cl
ENDROOT
TORSDOF 0
ENDMDL
