MODEL 1
REMARK minimizedAffinity 1.62528169
REMARK minimizedRMSD -1
REMARK  0 active torsions:
REMARK  status: ('A' for Active; 'I' for Inactive)
ROOT
ATOM      1  C   UNL d   1      -5.731   6.000   2.709  0.00  0.00     0.020 A 
ATOM      2  C1  UNL d   1      -5.323   4.841   3.368  0.00  0.00     0.020 A 
ATOM      3  C2  UNL d   1      -5.053   3.681   2.639  0.00  0.00     0.034 A 
ATOM      4  C3  UNL d   1      -5.191   3.678   1.246  0.00  0.00     0.017 A 
ATOM      5  C4  UNL d   1      -5.601   4.841   0.585  0.00  0.00     0.017 A 
ATOM      6  C5  UNL d   1      -5.870   6.000   1.320  0.00  0.00     0.034 A 
ATOM      7 Cl   UNL d   1      -5.793   4.914  -1.131  0.00  0.00    -0.070 Cl
ATOM      8 Cl1  UNL d   1      -4.839   2.208   0.407  0.00  0.00    -0.070 Cl
ENDROOT
TORSDOF 0
ENDMDL
