MODEL 1
REMARK minimizedAffinity -1.2911824
REMARK minimizedRMSD -1
REMARK  0 active torsions:
REMARK  status: ('A' for Active; 'I' for Inactive)
ROOT
ATOM      1  C   UNL d   1      -6.000   3.603   5.895  0.00  0.00     0.020 A 
ATOM      2  C1  UNL d   1      -5.556   2.293   5.719  0.00  0.00     0.020 A 
ATOM      3  C2  UNL d   1      -5.103   1.872   4.467  0.00  0.00     0.034 A 
ATOM      4  C3  UNL d   1      -5.093   2.761   3.386  0.00  0.00     0.017 A 
ATOM      5  C4  UNL d   1      -5.539   4.076   3.564  0.00  0.00     0.017 A 
ATOM      6  C5  UNL d   1      -5.991   4.493   4.820  0.00  0.00     0.034 A 
ATOM      7 Cl   UNL d   1      -5.556   5.231   2.278  0.00  0.00    -0.070 Cl
ATOM      8 Cl1  UNL d   1      -4.520   2.173   1.866  0.00  0.00    -0.070 Cl
ENDROOT
TORSDOF 0
ENDMDL
