MODEL 1
REMARK minimizedAffinity -0.304335713
REMARK minimizedRMSD -1
REMARK  0 active torsions:
REMARK  status: ('A' for Active; 'I' for Inactive)
ROOT
ATOM      1  C   UNL d   1      -5.982   5.369   1.968  0.00  0.00     0.020 A 
ATOM      2  C1  UNL d   1      -5.953   3.984   1.809  0.00  0.00     0.020 A 
ATOM      3  C2  UNL d   1      -5.937   3.153   2.931  0.00  0.00     0.034 A 
ATOM      4  C3  UNL d   1      -5.950   3.705   4.217  0.00  0.00     0.017 A 
ATOM      5  C4  UNL d   1      -5.980   5.095   4.376  0.00  0.00     0.017 A 
ATOM      6  C5  UNL d   1      -5.996   5.923   3.249  0.00  0.00     0.034 A 
ATOM      7 Cl   UNL d   1      -5.998   5.850   5.930  0.00  0.00    -0.070 Cl
ATOM      8 Cl1  UNL d   1      -5.930   2.617   5.559  0.00  0.00    -0.070 Cl
ENDROOT
TORSDOF 0
ENDMDL
