MODEL 1
REMARK minimizedAffinity 0.0232486334
REMARK minimizedRMSD -1
REMARK  0 active torsions:
REMARK  status: ('A' for Active; 'I' for Inactive)
ROOT
ATOM      1  C   UNL d   1      -5.214   4.175   0.667  0.00  0.00     0.020 A 
ATOM      2  C1  UNL d   1      -5.750   5.457   0.787  0.00  0.00     0.020 A 
ATOM      3  C2  UNL d   1      -5.985   6.000   2.052  0.00  0.00     0.034 A 
ATOM      4  C3  UNL d   1      -5.684   5.261   3.202  0.00  0.00     0.017 A 
ATOM      5  C4  UNL d   1      -5.146   3.975   3.080  0.00  0.00     0.017 A 
ATOM      6  C5  UNL d   1      -4.913   3.436   1.811  0.00  0.00     0.034 A 
ATOM      7 Cl   UNL d   1      -4.748   3.003   4.453  0.00  0.00    -0.070 Cl
ATOM      8 Cl1  UNL d   1      -5.999   5.995   4.734  0.00  0.00    -0.070 Cl
ENDROOT
TORSDOF 0
ENDMDL
