MODEL 1
REMARK minimizedAffinity -1.93034756
REMARK minimizedRMSD -1
REMARK  0 active torsions:
REMARK  status: ('A' for Active; 'I' for Inactive)
ROOT
ATOM      1  C   UNL d   1      -5.755   5.354   2.063  0.00  0.00     0.020 A 
ATOM      2  C1  UNL d   1      -5.210   4.074   1.977  0.00  0.00     0.020 A 
ATOM      3  C2  UNL d   1      -4.900   3.368   3.141  0.00  0.00     0.034 A 
ATOM      4  C3  UNL d   1      -5.134   3.941   4.396  0.00  0.00     0.017 A 
ATOM      5  C4  UNL d   1      -5.682   5.226   4.481  0.00  0.00     0.017 A 
ATOM      6  C5  UNL d   1      -5.990   5.929   3.313  0.00  0.00     0.034 A 
ATOM      7 Cl   UNL d   1      -6.000   6.000   5.994  0.00  0.00    -0.070 Cl
ATOM      8 Cl1  UNL d   1      -4.727   3.010   5.794  0.00  0.00    -0.070 Cl
ENDROOT
TORSDOF 0
ENDMDL
