MODEL 1
REMARK minimizedAffinity -2.60548711
REMARK minimizedRMSD -1
REMARK  0 active torsions:
REMARK  status: ('A' for Active; 'I' for Inactive)
ROOT
ATOM      1  C   UNL d   1      -4.557   5.257   1.504  0.00  0.00     0.020 A 
ATOM      2  C1  UNL d   1      -5.652   6.000   1.944  0.00  0.00     0.020 A 
ATOM      3  C2  UNL d   1      -6.000   5.997   3.296  0.00  0.00     0.034 A 
ATOM      4  C3  UNL d   1      -5.253   5.249   4.213  0.00  0.00     0.017 A 
ATOM      5  C4  UNL d   1      -4.154   4.504   3.771  0.00  0.00     0.017 A 
ATOM      6  C5  UNL d   1      -3.809   4.511   2.416  0.00  0.00     0.034 A 
ATOM      7 Cl   UNL d   1      -3.183   3.557   4.844  0.00  0.00    -0.070 Cl
ATOM      8 Cl1  UNL d   1      -5.740   5.292   5.871  0.00  0.00    -0.070 Cl
ENDROOT
TORSDOF 0
ENDMDL
