MODEL 1
REMARK minimizedAffinity -2.72702599
REMARK minimizedRMSD -1
REMARK  0 active torsions:
REMARK  status: ('A' for Active; 'I' for Inactive)
ROOT
ATOM      1  C   UNL d   1      -5.762   5.464   1.668  0.00  0.00     0.020 A 
ATOM      2  C1  UNL d   1      -5.207   4.191   1.542  0.00  0.00     0.020 A 
ATOM      3  C2  UNL d   1      -4.888   3.453   2.684  0.00  0.00     0.034 A 
ATOM      4  C3  UNL d   1      -5.123   3.987   3.956  0.00  0.00     0.017 A 
ATOM      5  C4  UNL d   1      -5.680   5.265   4.081  0.00  0.00     0.017 A 
ATOM      6  C5  UNL d   1      -5.998   6.000   2.935  0.00  0.00     0.034 A 
ATOM      7 Cl   UNL d   1      -5.999   5.991   5.617  0.00  0.00    -0.070 Cl
ATOM      8 Cl1  UNL d   1      -4.704   3.018   5.324  0.00  0.00    -0.070 Cl
ENDROOT
TORSDOF 0
ENDMDL
