MODEL 1
REMARK minimizedAffinity -2.2718215
REMARK minimizedRMSD -1
REMARK  0 active torsions:
REMARK  status: ('A' for Active; 'I' for Inactive)
ROOT
ATOM      1  C   UNL d   1      -5.893   4.042   1.886  0.00  0.00     0.020 A 
ATOM      2  C1  UNL d   1      -5.662   5.412   1.999  0.00  0.00     0.020 A 
ATOM      3  C2  UNL d   1      -5.531   5.996   3.260  0.00  0.00     0.034 A 
ATOM      4  C3  UNL d   1      -5.632   5.210   4.414  0.00  0.00     0.017 A 
ATOM      5  C4  UNL d   1      -5.864   3.835   4.300  0.00  0.00     0.017 A 
ATOM      6  C5  UNL d   1      -5.994   3.255   3.034  0.00  0.00     0.034 A 
ATOM      7 Cl   UNL d   1      -6.000   2.800   5.677  0.00  0.00    -0.070 Cl
ATOM      8 Cl1  UNL d   1      -5.459   5.999   5.942  0.00  0.00    -0.070 Cl
ENDROOT
TORSDOF 0
ENDMDL
