MODEL 1
REMARK minimizedAffinity -1.73288167
REMARK minimizedRMSD -1
REMARK  0 active torsions:
REMARK  status: ('A' for Active; 'I' for Inactive)
ROOT
ATOM      1  C   UNL d   1      -0.758   2.065   2.129  0.00  0.00    -0.002 A 
ATOM      2  C1  UNL d   1       0.110   1.082   2.583  0.00  0.00     0.010 A 
ATOM      3  C2  UNL d   1       0.690   0.180   1.689  0.00  0.00     0.041 A 
ATOM      4  C3  UNL d   1       0.383   0.285   0.318  0.00  0.00    -0.075 A 
ATOM      5  S   UNL d   1       0.976  -0.709  -0.960  0.00  0.00     0.015 SA
ATOM      6  C4  UNL d   1       0.092   0.150  -2.138  0.00  0.00     0.022 A 
ATOM      7  C5  UNL d   1      -0.643   1.173  -1.587  0.00  0.00     0.026 A 
ATOM      8  C6  UNL d   1      -0.487   1.268  -0.163  0.00  0.00    -0.082 A 
ATOM      9  C7  UNL d   1      -1.060   2.167   0.769  0.00  0.00     0.045 A 
ENDROOT
TORSDOF 0
ENDMDL
