MODEL 1
REMARK minimizedAffinity 0.727618754
REMARK minimizedRMSD -1
REMARK  0 active torsions:
REMARK  status: ('A' for Active; 'I' for Inactive)
ROOT
ATOM      1  C   UNL d   1      -0.052   1.059   2.970  0.00  0.00    -0.002 A 
ATOM      2  C1  UNL d   1       0.115   2.132   2.106  0.00  0.00     0.010 A 
ATOM      3  C2  UNL d   1       0.364   1.918   0.749  0.00  0.00     0.041 A 
ATOM      4  C3  UNL d   1       0.442   0.596   0.270  0.00  0.00    -0.075 A 
ATOM      5  S   UNL d   1       0.737   0.093  -1.353  0.00  0.00     0.015 SA
ATOM      6  C4  UNL d   1       0.649  -1.557  -0.937  0.00  0.00     0.022 A 
ATOM      7  C5  UNL d   1       0.401  -1.739   0.403  0.00  0.00     0.026 A 
ATOM      8  C6  UNL d   1       0.277  -0.501   1.121  0.00  0.00    -0.082 A 
ATOM      9  C7  UNL d   1       0.026  -0.252   2.491  0.00  0.00     0.045 A 
ENDROOT
TORSDOF 0
ENDMDL
