MODEL 1
REMARK minimizedAffinity -0.641305447
REMARK minimizedRMSD -1
REMARK  0 active torsions:
REMARK  status: ('A' for Active; 'I' for Inactive)
ROOT
ATOM      1  C   UNL d   1       0.341   1.290   2.437  0.00  0.00    -0.002 A 
ATOM      2  C1  UNL d   1      -0.636   1.962   1.716  0.00  0.00     0.010 A 
ATOM      3  C2  UNL d   1      -1.086   1.461   0.492  0.00  0.00     0.041 A 
ATOM      4  C3  UNL d   1      -0.534   0.261   0.002  0.00  0.00    -0.075 A 
ATOM      5  S   UNL d   1      -0.931  -0.540  -1.471  0.00  0.00     0.015 SA
ATOM      6  C4  UNL d   1       0.186  -1.794  -1.178  0.00  0.00     0.022 A 
ATOM      7  C5  UNL d   1       0.854  -1.621   0.011  0.00  0.00     0.026 A 
ATOM      8  C6  UNL d   1       0.450  -0.434   0.711  0.00  0.00    -0.082 A 
ATOM      9  C7  UNL d   1       0.886   0.100   1.948  0.00  0.00     0.045 A 
ENDROOT
TORSDOF 0
ENDMDL
