MODEL 1
REMARK minimizedAffinity -3.3632071
REMARK minimizedRMSD -1
REMARK  0 active torsions:
REMARK  status: ('A' for Active; 'I' for Inactive)
ROOT
ATOM      1  C   UNL d   1      -1.337   3.065   0.747  0.00  0.00    -0.002 A 
ATOM      2  C1  UNL d   1      -0.527   3.257   1.858  0.00  0.00     0.010 A 
ATOM      3  C2  UNL d   1       0.382   2.274   2.252  0.00  0.00     0.041 A 
ATOM      4  C3  UNL d   1       0.465   1.083   1.504  0.00  0.00    -0.075 A 
ATOM      5  S   UNL d   1       1.505  -0.260   1.800  0.00  0.00     0.015 SA
ATOM      6  C4  UNL d   1       0.899  -1.120   0.459  0.00  0.00     0.022 A 
ATOM      7  C5  UNL d   1      -0.074  -0.415  -0.209  0.00  0.00     0.026 A 
ATOM      8  C6  UNL d   1      -0.340   0.867   0.382  0.00  0.00    -0.082 A 
ATOM      9  C7  UNL d   1      -1.252   1.883   0.008  0.00  0.00     0.045 A 
ENDROOT
TORSDOF 0
ENDMDL
