MODEL 1
REMARK minimizedAffinity -2.21395063
REMARK minimizedRMSD -1
REMARK  0 active torsions:
REMARK  status: ('A' for Active; 'I' for Inactive)
ROOT
ATOM      1  C   UNL d   1      -0.181   1.810   2.292  0.00  0.00    -0.002 A 
ATOM      2  C1  UNL d   1      -1.302   2.096   1.525  0.00  0.00     0.010 A 
ATOM      3  C2  UNL d   1      -1.608   1.327   0.400  0.00  0.00     0.041 A 
ATOM      4  C3  UNL d   1      -0.761   0.254   0.057  0.00  0.00    -0.075 A 
ATOM      5  S   UNL d   1      -0.937  -0.825  -1.276  0.00  0.00     0.015 SA
ATOM      6  C4  UNL d   1       0.470  -1.690  -0.858  0.00  0.00     0.022 A 
ATOM      7  C5  UNL d   1       1.073  -1.182   0.268  0.00  0.00     0.026 A 
ATOM      8  C6  UNL d   1       0.373  -0.053   0.815  0.00  0.00    -0.082 A 
ATOM      9  C7  UNL d   1       0.656   0.746   1.948  0.00  0.00     0.045 A 
ENDROOT
TORSDOF 0
ENDMDL
