MODEL 1
REMARK minimizedAffinity -5.4769392
REMARK minimizedRMSD -1
REMARK  0 active torsions:
REMARK  status: ('A' for Active; 'I' for Inactive)
ROOT
ATOM      1  C   UNL d   1      -0.821   1.788   2.651  0.00  0.00    -0.002 A 
ATOM      2  C1  UNL d   1      -1.160   2.821   1.788  0.00  0.00     0.010 A 
ATOM      3  C2  UNL d   1      -0.916   2.710   0.418  0.00  0.00     0.041 A 
ATOM      4  C3  UNL d   1      -0.321   1.533  -0.076  0.00  0.00    -0.075 A 
ATOM      5  S   UNL d   1       0.070   1.175  -1.716  0.00  0.00     0.015 SA
ATOM      6  C4  UNL d   1       0.697  -0.358  -1.310  0.00  0.00     0.022 A 
ATOM      7  C5  UNL d   1       0.617  -0.606   0.040  0.00  0.00     0.026 A 
ATOM      8  C6  UNL d   1       0.028   0.479   0.773  0.00  0.00    -0.082 A 
ATOM      9  C7  UNL d   1      -0.231   0.622   2.158  0.00  0.00     0.045 A 
ENDROOT
TORSDOF 0
ENDMDL
