MODEL 1
REMARK minimizedAffinity -1.99969125
REMARK minimizedRMSD -1
REMARK  0 active torsions:
REMARK  status: ('A' for Active; 'I' for Inactive)
ROOT
ATOM      1  C   UNL d   1       0.881  -1.040  -0.801  0.00  0.00    -0.002 A 
ATOM      2  C1  UNL d   1      -0.102  -0.189  -1.286  0.00  0.00     0.010 A 
ATOM      3  C2  UNL d   1      -0.641   0.810  -0.474  0.00  0.00     0.041 A 
ATOM      4  C3  UNL d   1      -0.169   0.943   0.847  0.00  0.00    -0.075 A 
ATOM      5  S   UNL d   1      -0.681   2.095   2.023  0.00  0.00     0.015 SA
ATOM      6  C4  UNL d   1       0.394   1.486   3.197  0.00  0.00     0.022 A 
ATOM      7  C5  UNL d   1       1.133   0.429   2.721  0.00  0.00     0.026 A 
ATOM      8  C6  UNL d   1       0.821   0.099   1.358  0.00  0.00    -0.082 A 
ATOM      9  C7  UNL d   1       1.347  -0.905   0.510  0.00  0.00     0.045 A 
ENDROOT
TORSDOF 0
ENDMDL
