MODEL 1
REMARK minimizedAffinity -5.02821636
REMARK minimizedRMSD -1
REMARK  0 active torsions:
REMARK  status: ('A' for Active; 'I' for Inactive)
ROOT
ATOM      1  C   UNL d   1      -1.237   2.213   1.104  0.00  0.00    -0.002 A 
ATOM      2  C1  UNL d   1      -0.765   1.247   1.982  0.00  0.00     0.010 A 
ATOM      3  C2  UNL d   1      -0.148   0.091   1.500  0.00  0.00     0.041 A 
ATOM      4  C3  UNL d   1      -0.009  -0.078   0.109  0.00  0.00    -0.075 A 
ATOM      5  S   UNL d   1       0.714  -1.413  -0.709  0.00  0.00     0.015 SA
ATOM      6  C4  UNL d   1       0.415  -0.732  -2.242  0.00  0.00     0.022 A 
ATOM      7  C5  UNL d   1      -0.221   0.484  -2.151  0.00  0.00     0.026 A 
ATOM      8  C6  UNL d   1      -0.476   0.881  -0.795  0.00  0.00    -0.082 A 
ATOM      9  C7  UNL d   1      -1.098   2.041  -0.276  0.00  0.00     0.045 A 
ENDROOT
TORSDOF 0
ENDMDL
