MODEL 1
REMARK minimizedAffinity 10.0239639
REMARK minimizedRMSD -1
REMARK  0 active torsions:
REMARK  status: ('A' for Active; 'I' for Inactive)
ROOT
ATOM      1  C   UNL d   1      -3.668   1.927  -1.543  0.00  0.00    -0.002 A 
ATOM      2  C1  UNL d   1      -3.439   3.226  -1.112  0.00  0.00     0.010 A 
ATOM      3  C2  UNL d   1      -2.178   3.610  -0.651  0.00  0.00     0.041 A 
ATOM      4  C3  UNL d   1      -1.141   2.657  -0.632  0.00  0.00    -0.075 A 
ATOM      5  S   UNL d   1       0.485   2.900  -0.111  0.00  0.00     0.015 SA
ATOM      6  C4  UNL d   1       0.913   1.285  -0.449  0.00  0.00     0.022 A 
ATOM      7  C5  UNL d   1      -0.146   0.564  -0.947  0.00  0.00     0.026 A 
ATOM      8  C6  UNL d   1      -1.347   1.343  -1.062  0.00  0.00    -0.082 A 
ATOM      9  C7  UNL d   1      -2.637   0.985  -1.523  0.00  0.00     0.045 A 
ENDROOT
TORSDOF 0
ENDMDL
