MODEL 1
REMARK minimizedAffinity 9.4269371
REMARK minimizedRMSD -1
REMARK  0 active torsions:
REMARK  status: ('A' for Active; 'I' for Inactive)
ROOT
ATOM      1  C   UNL d   1       2.012  -1.738   0.648  0.00  0.00    -0.002 A 
ATOM      2  C1  UNL d   1       1.958  -0.500   0.023  0.00  0.00     0.010 A 
ATOM      3  C2  UNL d   1       2.950  -0.118  -0.882  0.00  0.00     0.041 A 
ATOM      4  C3  UNL d   1       4.006  -1.010  -1.153  0.00  0.00    -0.075 A 
ATOM      5  S   UNL d   1       5.331  -0.756  -2.226  0.00  0.00     0.015 SA
ATOM      6  C4  UNL d   1       6.000  -2.286  -1.881  0.00  0.00     0.022 A 
ATOM      7  C5  UNL d   1       5.244  -2.986  -0.971  0.00  0.00     0.026 A 
ATOM      8  C6  UNL d   1       4.082  -2.262  -0.537  0.00  0.00    -0.082 A 
ATOM      9  C7  UNL d   1       3.061  -2.620   0.377  0.00  0.00     0.045 A 
ENDROOT
TORSDOF 0
ENDMDL
