MODEL 1
REMARK minimizedAffinity -2.63470793
REMARK minimizedRMSD -1
REMARK  1 active torsions:
REMARK  status: ('A' for Active; 'I' for Inactive)
REMARK    1  A    between atoms: C1_2  and  C2_3 
ROOT
ATOM      1  C2  UNL d   1      -3.350   1.558  -5.997  0.00  0.00    -0.077 A 
ATOM      2  C3  UNL d   1      -2.041   2.060  -5.998  0.00  0.00     0.002 A 
ATOM      3  C4  UNL d   1      -1.812   3.437  -6.000  0.00  0.00     0.002 A 
ATOM      4  C5  UNL d   1      -2.887   4.324  -5.997  0.00  0.00    -0.004 A 
ATOM      5  C6  UNL d   1      -4.193   3.835  -5.998  0.00  0.00     0.002 A 
ATOM      6  C7  UNL d   1      -4.424   2.458  -5.997  0.00  0.00     0.002 A 
ENDROOT
BRANCH   1   7
ATOM      7  C1  UNL d   1      -3.599   0.074  -5.945  0.00  0.00     0.055 C 
ATOM      8  C   UNL d   1      -4.869  -0.248  -5.171  0.00  0.00     0.019 C 
ENDBRANCH   1   7
TORSDOF 1
ENDMDL
