MODEL 1
REMARK minimizedAffinity -0.908694804
REMARK minimizedRMSD -1
REMARK  1 active torsions:
REMARK  status: ('A' for Active; 'I' for Inactive)
REMARK    1  A    between atoms: C1_2  and  C2_3 
ROOT
ATOM      1  C2  UNL d   1      -4.576  -1.944  -5.955  0.00  0.00    -0.077 A 
ATOM      2  C3  UNL d   1      -3.430  -2.751  -5.969  0.00  0.00     0.002 A 
ATOM      3  C4  UNL d   1      -3.546  -4.142  -5.989  0.00  0.00     0.002 A 
ATOM      4  C5  UNL d   1      -4.806  -4.738  -6.000  0.00  0.00    -0.004 A 
ATOM      5  C6  UNL d   1      -5.951  -3.944  -5.984  0.00  0.00     0.002 A 
ATOM      6  C7  UNL d   1      -5.837  -2.553  -5.962  0.00  0.00     0.002 A 
ENDROOT
BRANCH   1   7
ATOM      7  C1  UNL d   1      -4.453  -0.442  -5.982  0.00  0.00     0.055 C 
ATOM      8  C   UNL d   1      -3.066   0.007  -5.549  0.00  0.00     0.019 C 
ENDBRANCH   1   7
TORSDOF 1
ENDMDL
