MODEL 1
REMARK minimizedAffinity 1.40256703
REMARK minimizedRMSD -1
REMARK  1 active torsions:
REMARK  status: ('A' for Active; 'I' for Inactive)
REMARK    1  A    between atoms: C1_2  and  C2_3 
ROOT
ATOM      1  C2  UNL d   1       0.952  -0.750  -2.092  0.00  0.00    -0.077 A 
ATOM      2  C3  UNL d   1       0.791   0.386  -2.897  0.00  0.00     0.002 A 
ATOM      3  C4  UNL d   1       0.340   0.261  -4.213  0.00  0.00     0.002 A 
ATOM      4  C5  UNL d   1       0.043  -0.997  -4.733  0.00  0.00    -0.004 A 
ATOM      5  C6  UNL d   1       0.203  -2.133  -3.940  0.00  0.00     0.002 A 
ATOM      6  C7  UNL d   1       0.654  -2.010  -2.626  0.00  0.00     0.002 A 
ENDROOT
BRANCH   1   7
ATOM      7  C1  UNL d   1       1.391  -0.613  -0.657  0.00  0.00     0.055 C 
ATOM      8  C   UNL d   1       1.782   0.822  -0.333  0.00  0.00     0.019 C 
ENDBRANCH   1   7
TORSDOF 1
ENDMDL
