MODEL 1
REMARK minimizedAffinity 3.72435665
REMARK minimizedRMSD -1
REMARK  1 active torsions:
REMARK  status: ('A' for Active; 'I' for Inactive)
REMARK    1  A    between atoms: C1_2  and  C2_3 
ROOT
ATOM      1  C2  UNL d   1       1.135   0.206  -1.515  0.00  0.00    -0.077 A 
ATOM      2  C3  UNL d   1       0.628   0.015  -0.222  0.00  0.00     0.002 A 
ATOM      3  C4  UNL d   1       0.955   0.905   0.803  0.00  0.00     0.002 A 
ATOM      4  C5  UNL d   1       1.787   1.992   0.545  0.00  0.00    -0.004 A 
ATOM      5  C6  UNL d   1       2.299   2.189  -0.737  0.00  0.00     0.002 A 
ATOM      6  C7  UNL d   1       1.973   1.300  -1.763  0.00  0.00     0.002 A 
ENDROOT
BRANCH   1   7
ATOM      7  C1  UNL d   1       0.744  -0.724  -2.634  0.00  0.00     0.055 C 
ATOM      8  C   UNL d   1       0.229   0.047  -3.840  0.00  0.00     0.019 C 
ENDBRANCH   1   7
TORSDOF 1
ENDMDL
