MODEL 1
REMARK minimizedAffinity 2.79254603
REMARK minimizedRMSD -1
REMARK  1 active torsions:
REMARK  status: ('A' for Active; 'I' for Inactive)
REMARK    1  A    between atoms: C1_2  and  C2_3 
ROOT
ATOM      1  C2  UNL d   1       2.646   0.041  -1.177  0.00  0.00    -0.077 A 
ATOM      2  C3  UNL d   1       2.115  -0.506  -2.353  0.00  0.00     0.002 A 
ATOM      3  C4  UNL d   1       0.733  -0.567  -2.543  0.00  0.00     0.002 A 
ATOM      4  C5  UNL d   1      -0.129  -0.077  -1.563  0.00  0.00    -0.004 A 
ATOM      5  C6  UNL d   1       0.390   0.468  -0.389  0.00  0.00     0.002 A 
ATOM      6  C7  UNL d   1       1.771   0.527  -0.197  0.00  0.00     0.002 A 
ENDROOT
BRANCH   1   7
ATOM      7  C1  UNL d   1       4.137   0.152  -0.992  0.00  0.00     0.055 C 
ATOM      8  C   UNL d   1       4.562   1.597  -0.774  0.00  0.00     0.019 C 
ENDBRANCH   1   7
TORSDOF 1
ENDMDL
