MODEL 1
REMARK minimizedAffinity 8.53483963
REMARK minimizedRMSD -1
REMARK  1 active torsions:
REMARK  status: ('A' for Active; 'I' for Inactive)
REMARK    1  A    between atoms: C1_2  and  C2_3 
ROOT
ATOM      1  C2  UNL d   1       1.145  -0.193  -1.992  0.00  0.00    -0.077 A 
ATOM      2  C3  UNL d   1       0.758  -0.649  -0.724  0.00  0.00     0.002 A 
ATOM      3  C4  UNL d   1       1.258  -0.040   0.429  0.00  0.00     0.002 A 
ATOM      4  C5  UNL d   1       2.143   1.030   0.326  0.00  0.00    -0.004 A 
ATOM      5  C6  UNL d   1       2.536   1.491  -0.930  0.00  0.00     0.002 A 
ATOM      6  C7  UNL d   1       2.038   0.883  -2.084  0.00  0.00     0.002 A 
ENDROOT
BRANCH   1   7
ATOM      7  C1  UNL d   1       0.570  -0.816  -3.236  0.00  0.00     0.055 C 
ATOM      8  C   UNL d   1      -0.145  -2.122  -2.922  0.00  0.00     0.019 C 
ENDBRANCH   1   7
TORSDOF 1
ENDMDL
