MODEL 1
REMARK minimizedAffinity -2.75763822
REMARK minimizedRMSD -1
REMARK  1 active torsions:
REMARK  status: ('A' for Active; 'I' for Inactive)
REMARK    1  A    between atoms: C1_2  and  C2_3 
ROOT
ATOM      1  C2  UNL d   1      -3.788   0.872  -5.942  0.00  0.00    -0.077 A 
ATOM      2  C3  UNL d   1      -5.030   1.520  -5.998  0.00  0.00     0.002 A 
ATOM      3  C4  UNL d   1      -5.101   2.914  -5.989  0.00  0.00     0.002 A 
ATOM      4  C5  UNL d   1      -3.933   3.672  -5.930  0.00  0.00    -0.004 A 
ATOM      5  C6  UNL d   1      -2.693   3.037  -5.872  0.00  0.00     0.002 A 
ATOM      6  C7  UNL d   1      -2.621   1.644  -5.879  0.00  0.00     0.002 A 
ENDROOT
BRANCH   1   7
ATOM      7  C1  UNL d   1      -3.708  -0.631  -6.000  0.00  0.00     0.055 C 
ATOM      8  C   UNL d   1      -5.093  -1.261  -5.975  0.00  0.00     0.019 C 
ENDBRANCH   1   7
TORSDOF 1
ENDMDL
