MODEL 1
REMARK minimizedAffinity -2.45936799
REMARK minimizedRMSD -1
REMARK  1 active torsions:
REMARK  status: ('A' for Active; 'I' for Inactive)
REMARK    1  A    between atoms: C1_2  and  C2_3 
ROOT
ATOM      1  C2  UNL d   1      -3.552  -4.265  -5.968  0.00  0.00    -0.077 A 
ATOM      2  C3  UNL d   1      -3.568  -2.863  -5.974  0.00  0.00     0.002 A 
ATOM      3  C4  UNL d   1      -4.781  -2.171  -5.992  0.00  0.00     0.002 A 
ATOM      4  C5  UNL d   1      -5.985  -2.872  -6.000  0.00  0.00    -0.004 A 
ATOM      5  C6  UNL d   1      -5.979  -4.266  -5.996  0.00  0.00     0.002 A 
ATOM      6  C7  UNL d   1      -4.768  -4.960  -5.980  0.00  0.00     0.002 A 
ENDROOT
BRANCH   1   7
ATOM      7  C1  UNL d   1      -2.246  -5.013  -5.900  0.00  0.00     0.055 C 
ATOM      8  C   UNL d   1      -1.821  -5.253  -4.458  0.00  0.00     0.019 C 
ENDBRANCH   1   7
TORSDOF 1
ENDMDL
