MODEL 1
REMARK minimizedAffinity 3.57912087
REMARK minimizedRMSD -1
REMARK  1 active torsions:
REMARK  status: ('A' for Active; 'I' for Inactive)
REMARK    1  A    between atoms: C1_2  and  C2_3 
ROOT
ATOM      1  C2  UNL d   1      -4.071  -3.163  -5.958  0.00  0.00    -0.077 A 
ATOM      2  C3  UNL d   1      -5.360  -3.714  -5.991  0.00  0.00     0.002 A 
ATOM      3  C4  UNL d   1      -5.537  -5.099  -5.996  0.00  0.00     0.002 A 
ATOM      4  C5  UNL d   1      -4.430  -5.944  -5.964  0.00  0.00    -0.004 A 
ATOM      5  C6  UNL d   1      -3.144  -5.407  -5.933  0.00  0.00     0.002 A 
ATOM      6  C7  UNL d   1      -2.965  -4.023  -5.929  0.00  0.00     0.002 A 
ENDROOT
BRANCH   1   7
ATOM      7  C1  UNL d   1      -3.880  -1.670  -5.903  0.00  0.00     0.055 C 
ATOM      8  C   UNL d   1      -4.269  -1.112  -4.542  0.00  0.00     0.019 C 
ENDBRANCH   1   7
TORSDOF 1
ENDMDL
