MODEL 1
REMARK minimizedAffinity 3.23977923
REMARK minimizedRMSD -1
REMARK  1 active torsions:
REMARK  status: ('A' for Active; 'I' for Inactive)
REMARK    1  A    between atoms: C1_2  and  C2_3 
ROOT
ATOM      1  C2  UNL d   1      -3.415   2.545  -5.866  0.00  0.00    -0.077 A 
ATOM      2  C3  UNL d   1      -4.805   2.362  -5.905  0.00  0.00     0.002 A 
ATOM      3  C4  UNL d   1      -5.660   3.464  -5.969  0.00  0.00     0.002 A 
ATOM      4  C5  UNL d   1      -5.136   4.754  -6.000  0.00  0.00    -0.004 A 
ATOM      5  C6  UNL d   1      -3.755   4.946  -5.960  0.00  0.00     0.002 A 
ATOM      6  C7  UNL d   1      -2.899   3.847  -5.895  0.00  0.00     0.002 A 
ENDROOT
BRANCH   1   7
ATOM      7  C1  UNL d   1      -2.489   1.357  -5.847  0.00  0.00     0.055 C 
ATOM      8  C   UNL d   1      -2.964   0.301  -4.859  0.00  0.00     0.019 C 
ENDBRANCH   1   7
TORSDOF 1
ENDMDL
