MODEL 1
REMARK minimizedAffinity 0.639858246
REMARK minimizedRMSD -1
REMARK  1 active torsions:
REMARK  status: ('A' for Active; 'I' for Inactive)
REMARK    1  A    between atoms: C1_2  and  C2_3 
ROOT
ATOM      1  C2  UNL d   1      -2.355   3.294  -5.998  0.00  0.00    -0.077 A 
ATOM      2  C3  UNL d   1      -3.750   3.438  -6.000  0.00  0.00     0.002 A 
ATOM      3  C4  UNL d   1      -4.576   2.313  -5.995  0.00  0.00     0.002 A 
ATOM      4  C5  UNL d   1      -4.017   1.036  -5.983  0.00  0.00    -0.004 A 
ATOM      5  C6  UNL d   1      -2.631   0.883  -5.983  0.00  0.00     0.002 A 
ATOM      6  C7  UNL d   1      -1.804   2.007  -5.989  0.00  0.00     0.002 A 
ENDROOT
BRANCH   1   7
ATOM      7  C1  UNL d   1      -1.463   4.507  -5.953  0.00  0.00     0.055 C 
ATOM      8  C   UNL d   1      -2.275   5.794  -5.995  0.00  0.00     0.019 C 
ENDBRANCH   1   7
TORSDOF 1
ENDMDL
