MODEL 1
REMARK minimizedAffinity 6.16285086
REMARK minimizedRMSD -1
REMARK  1 active torsions:
REMARK  status: ('A' for Active; 'I' for Inactive)
REMARK    1  A    between atoms: C1_2  and  C2_3 
ROOT
ATOM      1  C2  UNL d   1       0.138  -0.037  -0.721  0.00  0.00    -0.077 A 
ATOM      2  C3  UNL d   1       1.509  -0.328  -0.728  0.00  0.00     0.002 A 
ATOM      3  C4  UNL d   1       2.104  -0.896  -1.856  0.00  0.00     0.002 A 
ATOM      4  C5  UNL d   1       1.337  -1.174  -2.985  0.00  0.00    -0.004 A 
ATOM      5  C6  UNL d   1      -0.028  -0.890  -2.987  0.00  0.00     0.002 A 
ATOM      6  C7  UNL d   1      -0.625  -0.323  -1.860  0.00  0.00     0.002 A 
ENDROOT
BRANCH   1   7
ATOM      7  C1  UNL d   1      -0.496   0.621   0.477  0.00  0.00     0.055 C 
ATOM      8  C   UNL d   1       0.356   0.439   1.725  0.00  0.00     0.019 C 
ENDBRANCH   1   7
TORSDOF 1
ENDMDL
