MODEL 1
REMARK minimizedAffinity 0.992724359
REMARK minimizedRMSD -1
REMARK  1 active torsions:
REMARK  status: ('A' for Active; 'I' for Inactive)
REMARK    1  A    between atoms: C1_2  and  C2_3 
ROOT
ATOM      1  C2  UNL d   1       2.838  -0.136  -0.876  0.00  0.00    -0.077 A 
ATOM      2  C3  UNL d   1       2.622  -0.890  -2.038  0.00  0.00     0.002 A 
ATOM      3  C4  UNL d   1       1.325  -1.108  -2.507  0.00  0.00     0.002 A 
ATOM      4  C5  UNL d   1       0.236  -0.574  -1.822  0.00  0.00    -0.004 A 
ATOM      5  C6  UNL d   1       0.440   0.175  -0.664  0.00  0.00     0.002 A 
ATOM      6  C7  UNL d   1       1.736   0.394  -0.194  0.00  0.00     0.002 A 
ENDROOT
BRANCH   1   7
ATOM      7  C1  UNL d   1       4.239   0.143  -0.397  0.00  0.00     0.055 C 
ATOM      8  C   UNL d   1       4.644   1.582  -0.679  0.00  0.00     0.019 C 
ENDBRANCH   1   7
TORSDOF 1
ENDMDL
