MODEL 1
REMARK minimizedAffinity 18.2805729
REMARK minimizedRMSD -1
REMARK  2 active torsions:
REMARK  status: ('A' for Active; 'I' for Inactive)
REMARK    1  A    between atoms: C2'_3  and  C1'_4 
REMARK    2  A    between atoms: C1'_4  and  C1_5 
ROOT
ATOM      1  C1  I4B d   1       3.204  -0.140  -4.480  0.00  0.00    -0.075 A 
ATOM      2  C2  I4B d   1       3.233  -1.510  -4.406  0.00  0.00     0.003 A 
ATOM      3  C3  I4B d   1       2.073  -2.265  -4.704  0.00  0.00     0.002 A 
ATOM      4  C4  I4B d   1       0.899  -1.612  -5.021  0.00  0.00    -0.004 A 
ATOM      5  C5  I4B d   1       0.878  -0.223  -5.117  0.00  0.00     0.002 A 
ATOM      6  C6  I4B d   1       2.040   0.517  -4.857  0.00  0.00     0.003 A 
ENDROOT
BRANCH   1   7
ATOM      7  C1' I4B d   1       4.438   0.627  -4.126  0.00  0.00     0.060 C 
BRANCH   7   8
ATOM      8  C2' I4B d   1       4.858   1.424  -5.345  0.00  0.00    -0.013 C 
ATOM      9  C4' I4B d   1       5.246   2.830  -4.970  0.00  0.00     0.013 C 
ATOM     10  C3' I4B d   1       5.998   0.703  -5.999  0.00  0.00     0.013 C 
ENDBRANCH   7   8
ENDBRANCH   1   7
TORSDOF 2
ENDMDL
