MODEL 1
REMARK minimizedAffinity 13.8138475
REMARK minimizedRMSD -1
REMARK  2 active torsions:
REMARK  status: ('A' for Active; 'I' for Inactive)
REMARK    1  A    between atoms: C2'_3  and  C1'_4 
REMARK    2  A    between atoms: C1'_4  and  C1_5 
ROOT
ATOM      1  C1  I4B d   1       3.972  -3.271   4.147  0.00  0.00    -0.075 A 
ATOM      2  C2  I4B d   1       4.497  -2.638   5.245  0.00  0.00     0.003 A 
ATOM      3  C3  I4B d   1       5.545  -3.241   5.982  0.00  0.00     0.002 A 
ATOM      4  C4  I4B d   1       6.000  -4.492   5.618  0.00  0.00    -0.004 A 
ATOM      5  C5  I4B d   1       5.482  -5.122   4.491  0.00  0.00     0.002 A 
ATOM      6  C6  I4B d   1       4.470  -4.503   3.743  0.00  0.00     0.003 A 
ENDROOT
BRANCH   1   7
ATOM      7  C1' I4B d   1       2.844  -2.621   3.411  0.00  0.00     0.060 C 
BRANCH   7   8
ATOM      8  C2' I4B d   1       1.799  -2.208   4.428  0.00  0.00    -0.013 C 
ATOM      9  C4' I4B d   1       1.168  -0.892   4.058  0.00  0.00     0.013 C 
ATOM     10  C3' I4B d   1       0.772  -3.298   4.505  0.00  0.00     0.013 C 
ENDBRANCH   7   8
ENDBRANCH   1   7
TORSDOF 2
ENDMDL
