MODEL 1
REMARK minimizedAffinity 17.0171261
REMARK minimizedRMSD -1
REMARK  2 active torsions:
REMARK  status: ('A' for Active; 'I' for Inactive)
REMARK    1  A    between atoms: C2'_3  and  C1'_4 
REMARK    2  A    between atoms: C1'_4  and  C1_5 
ROOT
ATOM      1  C1  I4B d   1       1.478  -2.640   3.880  0.00  0.00    -0.075 A 
ATOM      2  C2  I4B d   1       2.226  -2.907   5.000  0.00  0.00     0.003 A 
ATOM      3  C3  I4B d   1       1.726  -3.777   6.000  0.00  0.00     0.002 A 
ATOM      4  C4  I4B d   1       0.463  -4.314   5.864  0.00  0.00    -0.004 A 
ATOM      5  C5  I4B d   1      -0.284  -4.061   4.717  0.00  0.00     0.002 A 
ATOM      6  C6  I4B d   1       0.231  -3.228   3.713  0.00  0.00     0.003 A 
ENDROOT
BRANCH   1   7
ATOM      7  C1' I4B d   1       2.022  -1.691   2.860  0.00  0.00     0.060 C 
BRANCH   7   8
ATOM      8  C2' I4B d   1       2.007  -0.300   3.461  0.00  0.00    -0.013 C 
ATOM      9  C4' I4B d   1       3.386   0.305   3.468  0.00  0.00     0.013 C 
ATOM     10  C3' I4B d   1       1.051   0.537   2.664  0.00  0.00     0.013 C 
ENDBRANCH   7   8
ENDBRANCH   1   7
TORSDOF 2
ENDMDL
