MODEL 1
REMARK minimizedAffinity 6.68585157
REMARK minimizedRMSD -1
REMARK  2 active torsions:
REMARK  status: ('A' for Active; 'I' for Inactive)
REMARK    1  A    between atoms: C2'_3  and  C1'_4 
REMARK    2  A    between atoms: C1'_4  and  C1_5 
ROOT
ATOM      1  C1  I4B d   1      -1.596  -3.240  -4.827  0.00  0.00    -0.075 A 
ATOM      2  C2  I4B d   1      -1.875  -3.352  -3.487  0.00  0.00     0.003 A 
ATOM      3  C3  I4B d   1      -1.230  -2.507  -2.552  0.00  0.00     0.002 A 
ATOM      4  C4  I4B d   1      -0.284  -1.604  -2.991  0.00  0.00    -0.004 A 
ATOM      5  C5  I4B d   1      -0.019  -1.476  -4.351  0.00  0.00     0.002 A 
ATOM      6  C6  I4B d   1      -0.689  -2.290  -5.277  0.00  0.00     0.003 A 
ENDROOT
BRANCH   1   7
ATOM      7  C1' I4B d   1      -2.271  -4.170  -5.784  0.00  0.00     0.060 C 
BRANCH   7   8
ATOM      8  C2' I4B d   1      -1.621  -5.532  -5.646  0.00  0.00    -0.013 C 
ATOM      9  C4' I4B d   1      -0.158  -5.477  -5.999  0.00  0.00     0.013 C 
ATOM     10  C3' I4B d   1      -1.821  -6.000  -4.236  0.00  0.00     0.013 C 
ENDBRANCH   7   8
ENDBRANCH   1   7
TORSDOF 2
ENDMDL
