MODEL 1
REMARK minimizedAffinity 7.30912733
REMARK minimizedRMSD -1
REMARK  2 active torsions:
REMARK  status: ('A' for Active; 'I' for Inactive)
REMARK    1  A    between atoms: C2'_3  and  C1'_4 
REMARK    2  A    between atoms: C1'_4  and  C1_5 
ROOT
ATOM      1  C1  I4B d   1      -1.511  -3.075  -4.045  0.00  0.00    -0.075 A 
ATOM      2  C2  I4B d   1      -1.729  -3.780  -2.888  0.00  0.00     0.003 A 
ATOM      3  C3  I4B d   1      -1.791  -5.195  -2.916  0.00  0.00     0.002 A 
ATOM      4  C4  I4B d   1      -1.682  -5.856  -4.123  0.00  0.00    -0.004 A 
ATOM      5  C5  I4B d   1      -1.438  -5.140  -5.291  0.00  0.00     0.002 A 
ATOM      6  C6  I4B d   1      -1.340  -3.742  -5.251  0.00  0.00     0.003 A 
ENDROOT
BRANCH   1   7
ATOM      7  C1' I4B d   1      -1.483  -1.580  -3.984  0.00  0.00     0.060 C 
BRANCH   7   8
ATOM      8  C2' I4B d   1      -0.271  -1.104  -4.758  0.00  0.00    -0.013 C 
ATOM      9  C4' I4B d   1      -0.676  -0.282  -5.953  0.00  0.00     0.013 C 
ATOM     10  C3' I4B d   1       0.592  -0.310  -3.823  0.00  0.00     0.013 C 
ENDBRANCH   7   8
ENDBRANCH   1   7
TORSDOF 2
ENDMDL
