MODEL 1
REMARK minimizedAffinity 10.2055483
REMARK minimizedRMSD -1
REMARK  2 active torsions:
REMARK  status: ('A' for Active; 'I' for Inactive)
REMARK    1  A    between atoms: C2'_3  and  C1'_4 
REMARK    2  A    between atoms: C1'_4  and  C1_5 
ROOT
ATOM      1  C1  I4B d   1       3.927  -2.905   5.212  0.00  0.00    -0.075 A 
ATOM      2  C2  I4B d   1       4.869  -1.930   5.425  0.00  0.00     0.003 A 
ATOM      3  C3  I4B d   1       4.661  -0.618   4.934  0.00  0.00     0.002 A 
ATOM      4  C4  I4B d   1       3.528  -0.340   4.198  0.00  0.00    -0.004 A 
ATOM      5  C5  I4B d   1       2.562  -1.324   4.003  0.00  0.00     0.002 A 
ATOM      6  C6  I4B d   1       2.757  -2.612   4.524  0.00  0.00     0.003 A 
ENDROOT
BRANCH   1   7
ATOM      7  C1' I4B d   1       4.194  -4.288   5.716  0.00  0.00     0.060 C 
BRANCH   7   8
ATOM      8  C2' I4B d   1       5.642  -4.622   5.418  0.00  0.00    -0.013 C 
ATOM      9  C4' I4B d   1       5.996  -6.000   5.911  0.00  0.00     0.013 C 
ATOM     10  C3' I4B d   1       5.848  -4.506   3.937  0.00  0.00     0.013 C 
ENDBRANCH   7   8
ENDBRANCH   1   7
TORSDOF 2
ENDMDL
