MODEL 1
REMARK minimizedAffinity 10.0095377
REMARK minimizedRMSD -1
REMARK  2 active torsions:
REMARK  status: ('A' for Active; 'I' for Inactive)
REMARK    1  A    between atoms: C2'_3  and  C1'_4 
REMARK    2  A    between atoms: C1'_4  and  C1_5 
ROOT
ATOM      1  C1  I4B d   1       0.559  -0.730  -3.259  0.00  0.00    -0.075 A 
ATOM      2  C2  I4B d   1      -0.551  -1.054  -3.997  0.00  0.00     0.003 A 
ATOM      3  C3  I4B d   1      -1.535  -1.921  -3.462  0.00  0.00     0.002 A 
ATOM      4  C4  I4B d   1      -1.345  -2.476  -2.213  0.00  0.00    -0.004 A 
ATOM      5  C5  I4B d   1      -0.229  -2.127  -1.456  0.00  0.00     0.002 A 
ATOM      6  C6  I4B d   1       0.723  -1.239  -1.977  0.00  0.00     0.003 A 
ENDROOT
BRANCH   1   7
ATOM      7  C1' I4B d   1       1.595   0.162  -3.868  0.00  0.00     0.060 C 
BRANCH   7   8
ATOM      8  C2' I4B d   1       2.955  -0.318  -3.405  0.00  0.00    -0.013 C 
ATOM      9  C4' I4B d   1       3.085  -1.811  -3.552  0.00  0.00     0.013 C 
ATOM     10  C3' I4B d   1       3.998   0.398  -4.210  0.00  0.00     0.013 C 
ENDBRANCH   7   8
ENDBRANCH   1   7
TORSDOF 2
ENDMDL
