MODEL 1
REMARK minimizedAffinity -4.77832174
REMARK minimizedRMSD -1
REMARK  1 active torsions:
REMARK  status: ('A' for Active; 'I' for Inactive)
REMARK    1  A    between atoms: C1_2  and  C2_3 
ROOT
ATOM      1  C2  UNL d   1      -0.190  -2.249  -1.305  0.00  0.00    -0.077 A 
ATOM      2  C3  UNL d   1       0.211  -2.316   0.037  0.00  0.00     0.002 A 
ATOM      3  C4  UNL d   1       0.193  -1.173   0.838  0.00  0.00     0.002 A 
ATOM      4  C5  UNL d   1      -0.229   0.045   0.308  0.00  0.00    -0.004 A 
ATOM      5  C6  UNL d   1      -0.628   0.123  -1.026  0.00  0.00     0.002 A 
ATOM      6  C7  UNL d   1      -0.610  -1.019  -1.828  0.00  0.00     0.002 A 
ENDROOT
BRANCH   1   7
ATOM      7  C1  UNL d   1      -0.219  -3.491  -2.157  0.00  0.00     0.055 C 
ATOM      8  C   UNL d   1      -1.589  -3.700  -2.785  0.00  0.00     0.019 C 
ENDBRANCH   1   7
TORSDOF 1
ENDMDL
