MODEL 1
REMARK minimizedAffinity -4.66000843
REMARK minimizedRMSD -1
REMARK  1 active torsions:
REMARK  status: ('A' for Active; 'I' for Inactive)
REMARK    1  A    between atoms: C1_2  and  C2_3 
ROOT
ATOM      1  C2  UNL d   1      -0.089  -0.350  -0.005  0.00  0.00    -0.077 A 
ATOM      2  C3  UNL d   1       0.632   0.720  -0.553  0.00  0.00     0.002 A 
ATOM      3  C4  UNL d   1       0.232   2.036  -0.317  0.00  0.00     0.002 A 
ATOM      4  C5  UNL d   1      -0.888   2.295   0.470  0.00  0.00    -0.004 A 
ATOM      5  C6  UNL d   1      -1.614   1.238   1.018  0.00  0.00     0.002 A 
ATOM      6  C7  UNL d   1      -1.216  -0.079   0.782  0.00  0.00     0.002 A 
ENDROOT
BRANCH   1   7
ATOM      7  C1  UNL d   1       0.370  -1.769  -0.217  0.00  0.00     0.055 C 
ATOM      8  C   UNL d   1      -0.690  -2.592  -0.934  0.00  0.00     0.019 C 
ENDBRANCH   1   7
TORSDOF 1
ENDMDL
