MODEL 1
REMARK minimizedAffinity -3.41720748
REMARK minimizedRMSD -1
REMARK  1 active torsions:
REMARK  status: ('A' for Active; 'I' for Inactive)
REMARK    1  A    between atoms: C1_2  and  C2_3 
ROOT
ATOM      1  C2  UNL d   1       1.185   0.434   0.482  0.00  0.00    -0.077 A 
ATOM      2  C3  UNL d   1       0.685   1.740   0.393  0.00  0.00     0.002 A 
ATOM      3  C4  UNL d   1      -0.693   1.970   0.371  0.00  0.00     0.002 A 
ATOM      4  C5  UNL d   1      -1.580   0.898   0.441  0.00  0.00    -0.004 A 
ATOM      5  C6  UNL d   1      -1.093  -0.406   0.527  0.00  0.00     0.002 A 
ATOM      6  C7  UNL d   1       0.283  -0.637   0.549  0.00  0.00     0.002 A 
ENDROOT
BRANCH   1   7
ATOM      7  C1  UNL d   1       2.669   0.188   0.556  0.00  0.00     0.055 C 
ATOM      8  C   UNL d   1       3.427   1.469   0.869  0.00  0.00     0.019 C 
ENDBRANCH   1   7
TORSDOF 1
ENDMDL
