MODEL 1
REMARK minimizedAffinity -4.48788643
REMARK minimizedRMSD -1
REMARK  1 active torsions:
REMARK  status: ('A' for Active; 'I' for Inactive)
REMARK    1  A    between atoms: C1_2  and  C2_3 
ROOT
ATOM      1  C2  UNL d   1       0.351  -0.119   0.290  0.00  0.00    -0.077 A 
ATOM      2  C3  UNL d   1      -0.915   0.239   0.772  0.00  0.00     0.002 A 
ATOM      3  C4  UNL d   1      -1.340   1.568   0.722  0.00  0.00     0.002 A 
ATOM      4  C5  UNL d   1      -0.507   2.548   0.187  0.00  0.00    -0.004 A 
ATOM      5  C6  UNL d   1       0.756   2.202  -0.293  0.00  0.00     0.002 A 
ATOM      6  C7  UNL d   1       1.183   0.875  -0.243  0.00  0.00     0.002 A 
ENDROOT
BRANCH   1   7
ATOM      7  C1  UNL d   1       0.792  -1.560   0.298  0.00  0.00     0.055 C 
ATOM      8  C   UNL d   1      -0.072  -2.408  -0.623  0.00  0.00     0.019 C 
ENDBRANCH   1   7
TORSDOF 1
ENDMDL
