MODEL 1
REMARK minimizedAffinity -3.82919312
REMARK minimizedRMSD -1
REMARK  1 active torsions:
REMARK  status: ('A' for Active; 'I' for Inactive)
REMARK    1  A    between atoms: C1_2  and  C2_3 
ROOT
ATOM      1  C2  UNL d   1      -0.422   2.529   1.134  0.00  0.00    -0.077 A 
ATOM      2  C3  UNL d   1      -0.641   1.365   0.383  0.00  0.00     0.002 A 
ATOM      3  C4  UNL d   1       0.331   0.907  -0.509  0.00  0.00     0.002 A 
ATOM      4  C5  UNL d   1       1.528   1.603  -0.656  0.00  0.00    -0.004 A 
ATOM      5  C6  UNL d   1       1.755   2.763   0.085  0.00  0.00     0.002 A 
ATOM      6  C7  UNL d   1       0.784   3.224   0.976  0.00  0.00     0.002 A 
ENDROOT
BRANCH   1   7
ATOM      7  C1  UNL d   1      -1.447   2.998   2.132  0.00  0.00     0.055 C 
ATOM      8  C   UNL d   1      -0.882   3.003   3.545  0.00  0.00     0.019 C 
ENDBRANCH   1   7
TORSDOF 1
ENDMDL
