MODEL 1
REMARK minimizedAffinity -3.23613977
REMARK minimizedRMSD -1
REMARK  1 active torsions:
REMARK  status: ('A' for Active; 'I' for Inactive)
REMARK    1  A    between atoms: C1_2  and  C2_3 
ROOT
ATOM      1  C2  UNL d   1      -0.517  -1.428  -1.153  0.00  0.00    -0.077 A 
ATOM      2  C3  UNL d   1       0.634  -1.124  -0.411  0.00  0.00     0.002 A 
ATOM      3  C4  UNL d   1       0.639  -0.045   0.474  0.00  0.00     0.002 A 
ATOM      4  C5  UNL d   1      -0.504   0.737   0.629  0.00  0.00    -0.004 A 
ATOM      5  C6  UNL d   1      -1.653   0.445  -0.106  0.00  0.00     0.002 A 
ATOM      6  C7  UNL d   1      -1.659  -0.633  -0.992  0.00  0.00     0.002 A 
ENDROOT
BRANCH   1   7
ATOM      7  C1  UNL d   1      -0.540  -2.621  -2.072  0.00  0.00     0.055 C 
ATOM      8  C   UNL d   1      -1.952  -2.924  -2.551  0.00  0.00     0.019 C 
ENDBRANCH   1   7
TORSDOF 1
ENDMDL
