MODEL 1
REMARK minimizedAffinity -4.62861156
REMARK minimizedRMSD -1
REMARK  1 active torsions:
REMARK  status: ('A' for Active; 'I' for Inactive)
REMARK    1  A    between atoms: C1_2  and  C2_3 
ROOT
ATOM      1  C2  UNL d   1       0.829   1.014   0.218  0.00  0.00    -0.077 A 
ATOM      2  C3  UNL d   1      -0.258   0.130   0.270  0.00  0.00     0.002 A 
ATOM      3  C4  UNL d   1      -0.054  -1.228   0.524  0.00  0.00     0.002 A 
ATOM      4  C5  UNL d   1       1.236  -1.712   0.733  0.00  0.00    -0.004 A 
ATOM      5  C6  UNL d   1       2.324  -0.842   0.681  0.00  0.00     0.002 A 
ATOM      6  C7  UNL d   1       2.121   0.515   0.426  0.00  0.00     0.002 A 
ENDROOT
BRANCH   1   7
ATOM      7  C1  UNL d   1       0.605   2.486  -0.007  0.00  0.00     0.055 C 
ATOM      8  C   UNL d   1      -0.060   3.136   1.197  0.00  0.00     0.019 C 
ENDBRANCH   1   7
TORSDOF 1
ENDMDL
