MODEL 1
REMARK minimizedAffinity -1.58670831
REMARK minimizedRMSD -1
REMARK  1 active torsions:
REMARK  status: ('A' for Active; 'I' for Inactive)
REMARK    1  A    between atoms: C1_2  and  C2_3 
ROOT
ATOM      1  C2  UNL d   1       0.198   0.440   0.529  0.00  0.00    -0.077 A 
ATOM      2  C3  UNL d   1      -1.172   0.145   0.574  0.00  0.00     0.002 A 
ATOM      3  C4  UNL d   1      -2.117   1.173   0.575  0.00  0.00     0.002 A 
ATOM      4  C5  UNL d   1      -1.702   2.502   0.526  0.00  0.00    -0.004 A 
ATOM      5  C6  UNL d   1      -0.342   2.807   0.482  0.00  0.00     0.002 A 
ATOM      6  C7  UNL d   1       0.603   1.780   0.483  0.00  0.00     0.002 A 
ENDROOT
BRANCH   1   7
ATOM      7  C1  UNL d   1       1.216  -0.668   0.478  0.00  0.00     0.055 C 
ATOM      8  C   UNL d   1       2.634  -0.116   0.462  0.00  0.00     0.019 C 
ENDBRANCH   1   7
TORSDOF 1
ENDMDL
