MODEL 1
REMARK minimizedAffinity -3.44986582
REMARK minimizedRMSD -1
REMARK  1 active torsions:
REMARK  status: ('A' for Active; 'I' for Inactive)
REMARK    1  A    between atoms: C1_2  and  C2_3 
ROOT
ATOM      1  C2  UNL d   1      -0.375  -1.693  -0.650  0.00  0.00    -0.077 A 
ATOM      2  C3  UNL d   1       0.503  -1.919  -1.719  0.00  0.00     0.002 A 
ATOM      3  C4  UNL d   1       0.242  -2.932  -2.645  0.00  0.00     0.002 A 
ATOM      4  C5  UNL d   1      -0.898  -3.722  -2.512  0.00  0.00    -0.004 A 
ATOM      5  C6  UNL d   1      -1.776  -3.506  -1.451  0.00  0.00     0.002 A 
ATOM      6  C7  UNL d   1      -1.516  -2.495  -0.524  0.00  0.00     0.002 A 
ENDROOT
BRANCH   1   7
ATOM      7  C1  UNL d   1      -0.121  -0.569   0.321  0.00  0.00     0.055 C 
ATOM      8  C   UNL d   1       1.025   0.316  -0.145  0.00  0.00     0.019 C 
ENDBRANCH   1   7
TORSDOF 1
ENDMDL
