MODEL 1
REMARK minimizedAffinity 15.4694796
REMARK minimizedRMSD -1
REMARK  0 active torsions:
REMARK  status: ('A' for Active; 'I' for Inactive)
ROOT
ATOM      1  C   UNL d   1      -5.891  -0.541   5.984  0.00  0.00     0.020 A 
ATOM      2  C1  UNL d   1      -5.763   0.847   5.995  0.00  0.00     0.020 A 
ATOM      3  C2  UNL d   1      -5.703   1.552   4.791  0.00  0.00     0.034 A 
ATOM      4  C3  UNL d   1      -5.771   0.869   3.571  0.00  0.00     0.017 A 
ATOM      5  C4  UNL d   1      -5.899  -0.524   3.561  0.00  0.00     0.017 A 
ATOM      6  C5  UNL d   1      -5.959  -1.225   4.770  0.00  0.00     0.034 A 
ATOM      7 Cl   UNL d   1      -5.989  -1.436   2.096  0.00  0.00    -0.070 Cl
ATOM      8 Cl1  UNL d   1      -5.691   1.805   2.121  0.00  0.00    -0.070 Cl
ENDROOT
TORSDOF 0
ENDMDL
