MODEL 1
REMARK minimizedAffinity 6.04400253
REMARK minimizedRMSD -1
REMARK  0 active torsions:
REMARK  status: ('A' for Active; 'I' for Inactive)
ROOT
ATOM      1  C   UNL d   1      -1.022   0.076   1.143  0.00  0.00     0.020 A 
ATOM      2  C1  UNL d   1       0.277  -0.275   1.505  0.00  0.00     0.020 A 
ATOM      3  C2  UNL d   1       0.935   0.430   2.516  0.00  0.00     0.034 A 
ATOM      4  C3  UNL d   1       0.293   1.489   3.168  0.00  0.00     0.017 A 
ATOM      5  C4  UNL d   1      -1.012   1.841   2.803  0.00  0.00     0.017 A 
ATOM      6  C5  UNL d   1      -1.666   1.132   1.791  0.00  0.00     0.034 A 
ATOM      7 Cl   UNL d   1      -1.869   3.136   3.562  0.00  0.00    -0.070 Cl
ATOM      8 Cl1  UNL d   1       1.166   2.316   4.408  0.00  0.00    -0.070 Cl
ENDROOT
TORSDOF 0
ENDMDL
