MODEL 1
REMARK minimizedAffinity 5.23550606
REMARK minimizedRMSD -1
REMARK  0 active torsions:
REMARK  status: ('A' for Active; 'I' for Inactive)
ROOT
ATOM      1  C   UNL d   1      -2.688   1.539   1.904  0.00  0.00     0.020 A 
ATOM      2  C1  UNL d   1      -2.305   0.597   0.950  0.00  0.00     0.020 A 
ATOM      3  C2  UNL d   1      -0.957   0.263   0.801  0.00  0.00     0.034 A 
ATOM      4  C3  UNL d   1       0.012   0.872   1.607  0.00  0.00     0.017 A 
ATOM      5  C4  UNL d   1      -0.374   1.818   2.563  0.00  0.00     0.017 A 
ATOM      6  C5  UNL d   1      -1.725   2.148   2.709  0.00  0.00     0.034 A 
ATOM      7 Cl   UNL d   1       0.765   2.611   3.594  0.00  0.00    -0.070 Cl
ATOM      8 Cl1  UNL d   1       1.660   0.412   1.368  0.00  0.00    -0.070 Cl
ENDROOT
TORSDOF 0
ENDMDL
