MODEL 1
REMARK minimizedAffinity 7.84580326
REMARK minimizedRMSD -1
REMARK  0 active torsions:
REMARK  status: ('A' for Active; 'I' for Inactive)
ROOT
ATOM      1  C   UNL d   1       1.649   2.018  -6.000  0.00  0.00     0.020 A 
ATOM      2  C1  UNL d   1       2.336   2.883  -5.149  0.00  0.00     0.020 A 
ATOM      3  C2  UNL d   1       3.018   2.376  -4.041  0.00  0.00     0.034 A 
ATOM      4  C3  UNL d   1       3.015   1.001  -3.781  0.00  0.00     0.017 A 
ATOM      5  C4  UNL d   1       2.325   0.134  -4.635  0.00  0.00     0.017 A 
ATOM      6  C5  UNL d   1       1.643   0.646  -5.743  0.00  0.00     0.034 A 
ATOM      7 Cl   UNL d   1       2.275  -1.575  -4.380  0.00  0.00    -0.070 Cl
ATOM      8 Cl1  UNL d   1       3.880   0.443  -2.393  0.00  0.00    -0.070 Cl
ENDROOT
TORSDOF 0
ENDMDL
