MODEL 1
REMARK minimizedAffinity 7.82972193
REMARK minimizedRMSD -1
REMARK  0 active torsions:
REMARK  status: ('A' for Active; 'I' for Inactive)
ROOT
ATOM      1  C   UNL d   1      -1.013   2.424   4.486  0.00  0.00     0.020 A 
ATOM      2  C1  UNL d   1       0.220   2.044   3.957  0.00  0.00     0.020 A 
ATOM      3  C2  UNL d   1       0.275   1.341   2.752  0.00  0.00     0.034 A 
ATOM      4  C3  UNL d   1      -0.904   1.016   2.071  0.00  0.00     0.017 A 
ATOM      5  C4  UNL d   1      -2.141   1.398   2.603  0.00  0.00     0.017 A 
ATOM      6  C5  UNL d   1      -2.191   2.101   3.811  0.00  0.00     0.034 A 
ATOM      7 Cl   UNL d   1      -3.638   1.033   1.821  0.00  0.00    -0.070 Cl
ATOM      8 Cl1  UNL d   1      -0.760   0.146   0.585  0.00  0.00    -0.070 Cl
ENDROOT
TORSDOF 0
ENDMDL
