MODEL 1
REMARK minimizedAffinity 5.34783745
REMARK minimizedRMSD -1
REMARK  0 active torsions:
REMARK  status: ('A' for Active; 'I' for Inactive)
ROOT
ATOM      1  C   UNL d   1      -1.825   0.033   1.794  0.00  0.00     0.020 A 
ATOM      2  C1  UNL d   1      -2.359   1.141   2.451  0.00  0.00     0.020 A 
ATOM      3  C2  UNL d   1      -1.511   2.059   3.073  0.00  0.00     0.034 A 
ATOM      4  C3  UNL d   1      -0.124   1.871   3.040  0.00  0.00     0.017 A 
ATOM      5  C4  UNL d   1       0.411   0.759   2.380  0.00  0.00     0.017 A 
ATOM      6  C5  UNL d   1      -0.443  -0.158   1.759  0.00  0.00     0.034 A 
ATOM      7 Cl   UNL d   1       2.111   0.459   2.297  0.00  0.00    -0.070 Cl
ATOM      8 Cl1  UNL d   1       0.865   3.046   3.831  0.00  0.00    -0.070 Cl
ENDROOT
TORSDOF 0
ENDMDL
