MODEL 1
REMARK minimizedAffinity 5.02073526
REMARK minimizedRMSD -1
REMARK  0 active torsions:
REMARK  status: ('A' for Active; 'I' for Inactive)
ROOT
ATOM      1  C   UNL d   1      -2.289   1.885   3.169  0.00  0.00     0.020 A 
ATOM      2  C1  UNL d   1      -1.013   1.617   3.663  0.00  0.00     0.020 A 
ATOM      3  C2  UNL d   1      -0.115   0.860   2.907  0.00  0.00     0.034 A 
ATOM      4  C3  UNL d   1      -0.493   0.369   1.652  0.00  0.00     0.017 A 
ATOM      5  C4  UNL d   1      -1.774   0.638   1.157  0.00  0.00     0.017 A 
ATOM      6  C5  UNL d   1      -2.668   1.396   1.919  0.00  0.00     0.034 A 
ATOM      7 Cl   UNL d   1      -2.312   0.065  -0.383  0.00  0.00    -0.070 Cl
ATOM      8 Cl1  UNL d   1       0.668  -0.559   0.770  0.00  0.00    -0.070 Cl
ENDROOT
TORSDOF 0
ENDMDL
