MODEL 1
REMARK minimizedAffinity 4.65567255
REMARK minimizedRMSD -1
REMARK  0 active torsions:
REMARK  status: ('A' for Active; 'I' for Inactive)
ROOT
ATOM      1  C   UNL d   1      -2.696   1.544   2.207  0.00  0.00     0.020 A 
ATOM      2  C1  UNL d   1      -2.071   0.624   1.367  0.00  0.00     0.020 A 
ATOM      3  C2  UNL d   1      -0.677   0.554   1.322  0.00  0.00     0.034 A 
ATOM      4  C3  UNL d   1       0.096   1.406   2.118  0.00  0.00     0.017 A 
ATOM      5  C4  UNL d   1      -0.532   2.330   2.961  0.00  0.00     0.017 A 
ATOM      6  C5  UNL d   1      -1.928   2.396   3.002  0.00  0.00     0.034 A 
ATOM      7 Cl   UNL d   1       0.355   3.415   3.972  0.00  0.00    -0.070 Cl
ATOM      8 Cl1  UNL d   1       1.815   1.265   2.012  0.00  0.00    -0.070 Cl
ENDROOT
TORSDOF 0
ENDMDL
