MODEL 1
REMARK minimizedAffinity 4.76217508
REMARK minimizedRMSD -1
REMARK  0 active torsions:
REMARK  status: ('A' for Active; 'I' for Inactive)
ROOT
ATOM      1  C   UNL d   1      -2.431   1.046   1.078  0.00  0.00     0.020 A 
ATOM      2  C1  UNL d   1      -2.810   2.137   1.858  0.00  0.00     0.020 A 
ATOM      3  C2  UNL d   1      -1.878   2.754   2.695  0.00  0.00     0.034 A 
ATOM      4  C3  UNL d   1      -0.562   2.281   2.753  0.00  0.00     0.017 A 
ATOM      5  C4  UNL d   1      -0.182   1.186   1.969  0.00  0.00     0.017 A 
ATOM      6  C5  UNL d   1      -1.120   0.571   1.133  0.00  0.00     0.034 A 
ATOM      7 Cl   UNL d   1       1.423   0.545   1.987  0.00  0.00    -0.070 Cl
ATOM      8 Cl1  UNL d   1       0.538   3.093   3.810  0.00  0.00    -0.070 Cl
ENDROOT
TORSDOF 0
ENDMDL
