MODEL 1
REMARK minimizedAffinity 6.13329458
REMARK minimizedRMSD -1
REMARK  0 active torsions:
REMARK  status: ('A' for Active; 'I' for Inactive)
ROOT
ATOM      1  C   UNL d   1       1.190   0.392   2.295  0.00  0.00     0.020 A 
ATOM      2  C1  UNL d   1       0.901   1.191   3.401  0.00  0.00     0.020 A 
ATOM      3  C2  UNL d   1      -0.362   1.772   3.531  0.00  0.00     0.034 A 
ATOM      4  C3  UNL d   1      -1.340   1.556   2.555  0.00  0.00     0.017 A 
ATOM      5  C4  UNL d   1      -1.050   0.755   1.445  0.00  0.00     0.017 A 
ATOM      6  C5  UNL d   1       0.216   0.175   1.319  0.00  0.00     0.034 A 
ATOM      7 Cl   UNL d   1      -2.206   0.442   0.199  0.00  0.00    -0.070 Cl
ATOM      8 Cl1  UNL d   1      -2.880   2.306   2.781  0.00  0.00    -0.070 Cl
ENDROOT
TORSDOF 0
ENDMDL
