MODEL 1
REMARK minimizedAffinity 3.2484746
REMARK minimizedRMSD -1
REMARK  0 active torsions:
REMARK  status: ('A' for Active; 'I' for Inactive)
ROOT
ATOM      1  C   UNL d   1       3.543   1.421   0.854  0.00  0.00     0.020 A 
ATOM      2  C1  UNL d   1       4.220   0.415   1.542  0.00  0.00     0.020 A 
ATOM      3  C2  UNL d   1       3.512  -0.474   2.354  0.00  0.00     0.034 A 
ATOM      4  C3  UNL d   1       2.123  -0.357   2.481  0.00  0.00     0.017 A 
ATOM      5  C4  UNL d   1       1.444   0.654   1.790  0.00  0.00     0.017 A 
ATOM      6  C5  UNL d   1       2.159   1.540   0.978  0.00  0.00     0.034 A 
ATOM      7 Cl   UNL d   1      -0.268   0.860   1.897  0.00  0.00    -0.070 Cl
ATOM      8 Cl1  UNL d   1       1.311  -1.491   3.502  0.00  0.00    -0.070 Cl
ENDROOT
TORSDOF 0
ENDMDL
