MODEL 1
REMARK minimizedAffinity 3.36510849
REMARK minimizedRMSD -1
REMARK  0 active torsions:
REMARK  status: ('A' for Active; 'I' for Inactive)
ROOT
ATOM      1  C   UNL d   1       3.682   0.903  -4.003  0.00  0.00     0.020 A 
ATOM      2  C1  UNL d   1       2.953   1.132  -5.169  0.00  0.00     0.020 A 
ATOM      3  C2  UNL d   1       2.249   0.086  -5.770  0.00  0.00     0.034 A 
ATOM      4  C3  UNL d   1       2.273  -1.194  -5.204  0.00  0.00     0.017 A 
ATOM      5  C4  UNL d   1       3.005  -1.423  -4.033  0.00  0.00     0.017 A 
ATOM      6  C5  UNL d   1       3.707  -0.372  -3.436  0.00  0.00     0.034 A 
ATOM      7 Cl   UNL d   1       3.081  -2.976  -3.277  0.00  0.00    -0.070 Cl
ATOM      8 Cl1  UNL d   1       1.379  -2.441  -6.000  0.00  0.00    -0.070 Cl
ENDROOT
TORSDOF 0
ENDMDL
