MODEL 1
REMARK minimizedAffinity 6.9438982
REMARK minimizedRMSD -1
REMARK  0 active torsions:
REMARK  status: ('A' for Active; 'I' for Inactive)
ROOT
ATOM      1  C   UNL d   1       1.463   0.877   2.554  0.00  0.00     0.020 A 
ATOM      2  C1  UNL d   1       1.387   0.168   1.355  0.00  0.00     0.020 A 
ATOM      3  C2  UNL d   1       0.183   0.117   0.650  0.00  0.00     0.034 A 
ATOM      4  C3  UNL d   1      -0.950   0.776   1.142  0.00  0.00     0.017 A 
ATOM      5  C4  UNL d   1      -0.872   1.487   2.345  0.00  0.00     0.017 A 
ATOM      6  C5  UNL d   1       0.336   1.535   3.047  0.00  0.00     0.034 A 
ATOM      7 Cl   UNL d   1      -2.227   2.325   3.015  0.00  0.00    -0.070 Cl
ATOM      8 Cl1  UNL d   1      -2.405   0.670   0.217  0.00  0.00    -0.070 Cl
ENDROOT
TORSDOF 0
ENDMDL
