MODEL 1
REMARK minimizedAffinity 5.31855154
REMARK minimizedRMSD -1
REMARK  0 active torsions:
REMARK  status: ('A' for Active; 'I' for Inactive)
ROOT
ATOM      1  C   UNL d   1      -1.234   1.973   2.148  0.00  0.00     0.020 A 
ATOM      2  C1  UNL d   1      -2.157   0.932   2.048  0.00  0.00     0.020 A 
ATOM      3  C2  UNL d   1      -1.712  -0.384   1.908  0.00  0.00     0.034 A 
ATOM      4  C3  UNL d   1      -0.341  -0.663   1.866  0.00  0.00     0.017 A 
ATOM      5  C4  UNL d   1       0.584   0.382   1.966  0.00  0.00     0.017 A 
ATOM      6  C5  UNL d   1       0.133   1.698   2.107  0.00  0.00     0.034 A 
ATOM      7 Cl   UNL d   1       2.291   0.116   1.923  0.00  0.00    -0.070 Cl
ATOM      8 Cl1  UNL d   1       0.137  -2.314   1.690  0.00  0.00    -0.070 Cl
ENDROOT
TORSDOF 0
ENDMDL
