MODEL 1
REMARK minimizedAffinity 11.8531132
REMARK minimizedRMSD -1
REMARK  0 active torsions:
REMARK  status: ('A' for Active; 'I' for Inactive)
ROOT
ATOM      1  C   UNL d   1       2.749  -1.845  -5.038  0.00  0.00     0.020 A 
ATOM      2  C1  UNL d   1       3.378  -0.637  -5.335  0.00  0.00     0.020 A 
ATOM      3  C2  UNL d   1       4.378  -0.146  -4.494  0.00  0.00     0.034 A 
ATOM      4  C3  UNL d   1       4.753  -0.864  -3.352  0.00  0.00     0.017 A 
ATOM      5  C4  UNL d   1       4.122  -2.077  -3.056  0.00  0.00     0.017 A 
ATOM      6  C5  UNL d   1       3.120  -2.564  -3.901  0.00  0.00     0.034 A 
ATOM      7 Cl   UNL d   1       4.530  -3.019  -1.665  0.00  0.00    -0.070 Cl
ATOM      8 Cl1  UNL d   1       5.999  -0.197  -2.357  0.00  0.00    -0.070 Cl
ENDROOT
TORSDOF 0
ENDMDL
