MODEL 1
REMARK minimizedAffinity 5.09164333
REMARK minimizedRMSD -1
REMARK  0 active torsions:
REMARK  status: ('A' for Active; 'I' for Inactive)
ROOT
ATOM      1  C   UNL d   1      -0.698   0.383   0.518  0.00  0.00     0.020 A 
ATOM      2  C1  UNL d   1      -2.059   0.085   0.580  0.00  0.00     0.020 A 
ATOM      3  C2  UNL d   1      -2.867   0.709   1.533  0.00  0.00     0.034 A 
ATOM      4  C3  UNL d   1      -2.316   1.633   2.428  0.00  0.00     0.017 A 
ATOM      5  C4  UNL d   1      -0.950   1.932   2.364  0.00  0.00     0.017 A 
ATOM      6  C5  UNL d   1      -0.145   1.305   1.408  0.00  0.00     0.034 A 
ATOM      7 Cl   UNL d   1      -0.197   3.062   3.434  0.00  0.00    -0.070 Cl
ATOM      8 Cl1  UNL d   1      -3.374   2.367   3.580  0.00  0.00    -0.070 Cl
ENDROOT
TORSDOF 0
ENDMDL
