MODEL 1
REMARK minimizedAffinity 6.91617203
REMARK minimizedRMSD -1
REMARK  0 active torsions:
REMARK  status: ('A' for Active; 'I' for Inactive)
ROOT
ATOM      1  C   UNL d   1      -5.857  -0.476   5.958  0.00  0.00     0.020 A 
ATOM      2  C1  UNL d   1      -5.523   0.877   6.000  0.00  0.00     0.020 A 
ATOM      3  C2  UNL d   1      -5.329   1.585   4.812  0.00  0.00     0.034 A 
ATOM      4  C3  UNL d   1      -5.470   0.940   3.577  0.00  0.00     0.017 A 
ATOM      5  C4  UNL d   1      -5.806  -0.418   3.537  0.00  0.00     0.017 A 
ATOM      6  C5  UNL d   1      -5.999  -1.122   4.729  0.00  0.00     0.034 A 
ATOM      7 Cl   UNL d   1      -5.997  -1.282   2.052  0.00  0.00    -0.070 Cl
ATOM      8 Cl1  UNL d   1      -5.216   1.877   2.148  0.00  0.00    -0.070 Cl
ENDROOT
TORSDOF 0
ENDMDL
