MODEL 1
REMARK minimizedAffinity 2.50715351
REMARK minimizedRMSD -1
REMARK  0 active torsions:
REMARK  status: ('A' for Active; 'I' for Inactive)
ROOT
ATOM      1  C   UNL d   1      -2.638   0.594   0.710  0.00  0.00     0.020 A 
ATOM      2  C1  UNL d   1      -3.022   1.442   1.749  0.00  0.00     0.020 A 
ATOM      3  C2  UNL d   1      -2.054   2.018   2.574  0.00  0.00     0.034 A 
ATOM      4  C3  UNL d   1      -0.697   1.747   2.362  0.00  0.00     0.017 A 
ATOM      5  C4  UNL d   1      -0.313   0.896   1.320  0.00  0.00     0.017 A 
ATOM      6  C5  UNL d   1      -1.286   0.322   0.497  0.00  0.00     0.034 A 
ATOM      7 Cl   UNL d   1       1.342   0.514   0.997  0.00  0.00    -0.070 Cl
ATOM      8 Cl1  UNL d   1       0.446   2.494   3.421  0.00  0.00    -0.070 Cl
ENDROOT
TORSDOF 0
ENDMDL
