MODEL 1
REMARK minimizedAffinity 7.95027208
REMARK minimizedRMSD -1
REMARK  0 active torsions:
REMARK  status: ('A' for Active; 'I' for Inactive)
ROOT
ATOM      1  C   UNL d   1      -2.211   0.468   1.078  0.00  0.00     0.020 A 
ATOM      2  C1  UNL d   1      -2.509   1.392   2.078  0.00  0.00     0.020 A 
ATOM      3  C2  UNL d   1      -1.488   1.904   2.882  0.00  0.00     0.034 A 
ATOM      4  C3  UNL d   1      -0.165   1.491   2.688  0.00  0.00     0.017 A 
ATOM      5  C4  UNL d   1       0.133   0.562   1.684  0.00  0.00     0.017 A 
ATOM      6  C5  UNL d   1      -0.893   0.054   0.881  0.00  0.00     0.034 A 
ATOM      7 Cl   UNL d   1       1.741   0.005   1.384  0.00  0.00    -0.070 Cl
ATOM      8 Cl1  UNL d   1       1.047   2.165   3.719  0.00  0.00    -0.070 Cl
ENDROOT
TORSDOF 0
ENDMDL
