MODEL 1
REMARK minimizedAffinity -0.813622892
REMARK minimizedRMSD -1
REMARK  0 active torsions:
REMARK  status: ('A' for Active; 'I' for Inactive)
ROOT
ATOM      1  C1  DEN d   1      -3.582   0.353   1.152  0.00  0.00     0.130 A 
ATOM      2  C2  DEN d   1      -3.071  -0.599   2.133  0.00  0.00    -0.031 A 
ATOM      3  C3  DEN d   1      -1.607  -0.426   2.218  0.00  0.00     0.027 A 
ATOM      4  C4  DEN d   1      -0.091   1.221   0.935  0.00  0.00     0.027 A 
ATOM      5  C5  DEN d   1      -0.068   2.219  -0.014  0.00  0.00    -0.003 A 
ATOM      6  C6  DEN d   1      -1.201   2.638  -0.660  0.00  0.00     0.001 A 
ATOM      7  C7  DEN d   1      -2.412   2.088  -0.333  0.00  0.00     0.017 A 
ATOM      8  C8  DEN d   1      -2.442   1.076   0.618  0.00  0.00    -0.094 A 
ATOM      9  C9  DEN d   1      -1.288   0.675   1.268  0.00  0.00    -0.072 A 
ENDROOT
TORSDOF 0
ENDMDL
