MODEL 1
REMARK minimizedAffinity 3.56359243
REMARK minimizedRMSD -1
REMARK  0 active torsions:
REMARK  status: ('A' for Active; 'I' for Inactive)
ROOT
ATOM      1  C1  DEN d   1       0.186   2.252   0.374  0.00  0.00     0.130 A 
ATOM      2  C2  DEN d   1       0.775   1.125   1.092  0.00  0.00    -0.031 A 
ATOM      3  C3  DEN d   1      -0.283   0.119   1.311  0.00  0.00     0.027 A 
ATOM      4  C4  DEN d   1      -2.764   0.195   0.608  0.00  0.00     0.027 A 
ATOM      5  C5  DEN d   1      -3.732   0.952  -0.014  0.00  0.00    -0.003 A 
ATOM      6  C6  DEN d   1      -3.472   2.200  -0.516  0.00  0.00     0.001 A 
ATOM      7  C7  DEN d   1      -2.202   2.709  -0.445  0.00  0.00     0.017 A 
ATOM      8  C8  DEN d   1      -1.223   1.955   0.188  0.00  0.00    -0.094 A 
ATOM      9  C9  DEN d   1      -1.502   0.690   0.677  0.00  0.00    -0.072 A 
ENDROOT
TORSDOF 0
ENDMDL
