MODEL 1
REMARK minimizedAffinity 2.49632001
REMARK minimizedRMSD -1
REMARK  0 active torsions:
REMARK  status: ('A' for Active; 'I' for Inactive)
ROOT
ATOM      1  C1  DEN d   1      -1.781   2.802   3.171  0.00  0.00     0.130 A 
ATOM      2  C2  DEN d   1      -1.040   1.979   4.122  0.00  0.00    -0.031 A 
ATOM      3  C3  DEN d   1      -0.453   0.843   3.383  0.00  0.00     0.027 A 
ATOM      4  C4  DEN d   1      -0.615   0.285   0.870  0.00  0.00     0.027 A 
ATOM      5  C5  DEN d   1      -1.147   0.684  -0.336  0.00  0.00    -0.003 A 
ATOM      6  C6  DEN d   1      -1.948   1.789  -0.451  0.00  0.00     0.001 A 
ATOM      7  C7  DEN d   1      -2.205   2.559   0.652  0.00  0.00     0.017 A 
ATOM      8  C8  DEN d   1      -1.679   2.159   1.873  0.00  0.00    -0.094 A 
ATOM      9  C9  DEN d   1      -0.861   1.046   1.967  0.00  0.00    -0.072 A 
ENDROOT
TORSDOF 0
ENDMDL
