MODEL 1
REMARK minimizedAffinity -2.02444124
REMARK minimizedRMSD -1
REMARK  0 active torsions:
REMARK  status: ('A' for Active; 'I' for Inactive)
ROOT
ATOM      1  C1  DEN d   1      -3.725   2.294  -0.383  0.00  0.00     0.130 A 
ATOM      2  C2  DEN d   1      -4.578   1.424   0.422  0.00  0.00    -0.031 A 
ATOM      3  C3  DEN d   1      -3.705   0.537   1.217  0.00  0.00     0.027 A 
ATOM      4  C4  DEN d   1      -1.129   0.429   1.283  0.00  0.00     0.027 A 
ATOM      5  C5  DEN d   1       0.030   0.963   0.764  0.00  0.00    -0.003 A 
ATOM      6  C6  DEN d   1       0.019   1.946  -0.190  0.00  0.00     0.001 A 
ATOM      7  C7  DEN d   1      -1.175   2.458  -0.623  0.00  0.00     0.017 A 
ATOM      8  C8  DEN d   1      -2.349   1.920  -0.110  0.00  0.00    -0.094 A 
ATOM      9  C9  DEN d   1      -2.316   0.935   0.863  0.00  0.00    -0.072 A 
ENDROOT
TORSDOF 0
ENDMDL
