MODEL 1
REMARK minimizedAffinity 1.78169453
REMARK minimizedRMSD -1
REMARK  0 active torsions:
REMARK  status: ('A' for Active; 'I' for Inactive)
ROOT
ATOM      1  C1  DEN d   1      -3.559   1.518   0.142  0.00  0.00     0.130 A 
ATOM      2  C2  DEN d   1      -3.651   0.278   0.907  0.00  0.00    -0.031 A 
ATOM      3  C3  DEN d   1      -2.324  -0.371   0.886  0.00  0.00     0.027 A 
ATOM      4  C4  DEN d   1      -0.148   0.423  -0.248  0.00  0.00     0.027 A 
ATOM      5  C5  DEN d   1       0.419   1.411  -1.022  0.00  0.00    -0.003 A 
ATOM      6  C6  DEN d   1      -0.303   2.478  -1.487  0.00  0.00     0.001 A 
ATOM      7  C7  DEN d   1      -1.623   2.606  -1.145  0.00  0.00     0.017 A 
ATOM      8  C8  DEN d   1      -2.203   1.609  -0.370  0.00  0.00    -0.094 A 
ATOM      9  C9  DEN d   1      -1.454   0.545   0.100  0.00  0.00    -0.072 A 
ENDROOT
TORSDOF 0
ENDMDL
