MODEL 1
REMARK minimizedAffinity 2.89140725
REMARK minimizedRMSD -1
REMARK  0 active torsions:
REMARK  status: ('A' for Active; 'I' for Inactive)
ROOT
ATOM      1  C1  DEN d   1      -1.013   2.689  -0.018  0.00  0.00     0.130 A 
ATOM      2  C2  DEN d   1       0.077   2.015   0.681  0.00  0.00    -0.031 A 
ATOM      3  C3  DEN d   1      -0.498   0.895   1.453  0.00  0.00     0.027 A 
ATOM      4  C4  DEN d   1      -2.958   0.140   1.628  0.00  0.00     0.027 A 
ATOM      5  C5  DEN d   1      -4.247   0.411   1.224  0.00  0.00    -0.003 A 
ATOM      6  C6  DEN d   1      -4.550   1.471   0.411  0.00  0.00     0.001 A 
ATOM      7  C7  DEN d   1      -3.545   2.274  -0.060  0.00  0.00     0.017 A 
ATOM      8  C8  DEN d   1      -2.244   2.012   0.350  0.00  0.00    -0.094 A 
ATOM      9  C9  DEN d   1      -1.957   0.928   1.162  0.00  0.00    -0.072 A 
ENDROOT
TORSDOF 0
ENDMDL
