MODEL 1
REMARK minimizedAffinity 2.70000887
REMARK minimizedRMSD -1
REMARK  0 active torsions:
REMARK  status: ('A' for Active; 'I' for Inactive)
ROOT
ATOM      1  C1  DEN d   1       1.084   0.577   1.476  0.00  0.00     0.130 A 
ATOM      2  C2  DEN d   1       1.890   1.658   0.915  0.00  0.00    -0.031 A 
ATOM      3  C3  DEN d   1       0.981   2.591   0.218  0.00  0.00     0.027 A 
ATOM      4  C4  DEN d   1      -1.582   2.470  -0.040  0.00  0.00     0.027 A 
ATOM      5  C5  DEN d   1      -2.707   1.730   0.256  0.00  0.00    -0.003 A 
ATOM      6  C6  DEN d   1      -2.643   0.548   0.943  0.00  0.00     0.001 A 
ATOM      7  C7  DEN d   1      -1.434   0.091   1.398  0.00  0.00     0.017 A 
ATOM      8  C8  DEN d   1      -0.295   0.827   1.098  0.00  0.00    -0.094 A 
ATOM      9  C9  DEN d   1      -0.382   2.027   0.412  0.00  0.00    -0.072 A 
ENDROOT
TORSDOF 0
ENDMDL
