MODEL 1
REMARK minimizedAffinity 5.68104124
REMARK minimizedRMSD -1
REMARK  0 active torsions:
REMARK  status: ('A' for Active; 'I' for Inactive)
ROOT
ATOM      1  C1  DEN d   1       2.727   1.170   0.543  0.00  0.00     0.130 A 
ATOM      2  C2  DEN d   1       3.457   1.915   1.565  0.00  0.00    -0.031 A 
ATOM      3  C3  DEN d   1       2.472   2.644   2.389  0.00  0.00     0.027 A 
ATOM      4  C4  DEN d   1      -0.099   2.689   2.184  0.00  0.00     0.027 A 
ATOM      5  C5  DEN d   1      -1.175   2.223   1.463  0.00  0.00    -0.003 A 
ATOM      6  C6  DEN d   1      -1.026   1.408   0.372  0.00  0.00     0.001 A 
ATOM      7  C7  DEN d   1       0.226   0.996  -0.001  0.00  0.00     0.017 A 
ATOM      8  C8  DEN d   1       1.317   1.468   0.717  0.00  0.00    -0.094 A 
ATOM      9  C9  DEN d   1       1.145   2.281   1.824  0.00  0.00    -0.072 A 
ENDROOT
TORSDOF 0
ENDMDL
