MODEL 1
REMARK minimizedAffinity 5.84833765
REMARK minimizedRMSD -1
REMARK  0 active torsions:
REMARK  status: ('A' for Active; 'I' for Inactive)
ROOT
ATOM      1  C1  DEN d   1      -0.029   2.941   2.790  0.00  0.00     0.130 A 
ATOM      2  C2  DEN d   1      -1.382   2.637   2.332  0.00  0.00    -0.031 A 
ATOM      3  C3  DEN d   1      -1.275   1.802   1.118  0.00  0.00     0.027 A 
ATOM      4  C4  DEN d   1       0.841   0.953  -0.087  0.00  0.00     0.027 A 
ATOM      5  C5  DEN d   1       2.219   0.963  -0.077  0.00  0.00    -0.003 A 
ATOM      6  C6  DEN d   1       2.937   1.655   0.862  0.00  0.00     0.001 A 
ATOM      7  C7  DEN d   1       2.281   2.330   1.857  0.00  0.00     0.017 A 
ATOM      8  C8  DEN d   1       0.893   2.331   1.849  0.00  0.00    -0.094 A 
ATOM      9  C9  DEN d   1       0.184   1.615   0.899  0.00  0.00    -0.072 A 
ENDROOT
TORSDOF 0
ENDMDL
