MODEL 1
REMARK minimizedAffinity -1.21842647
REMARK minimizedRMSD -1
REMARK  0 active torsions:
REMARK  status: ('A' for Active; 'I' for Inactive)
ROOT
ATOM      1  C1  DEN d   1      -0.753   2.926   2.653  0.00  0.00     0.130 A 
ATOM      2  C2  DEN d   1       0.219   3.425   3.622  0.00  0.00    -0.031 A 
ATOM      3  C3  DEN d   1       1.551   2.916   3.237  0.00  0.00     0.027 A 
ATOM      4  C4  DEN d   1       2.200   1.418   1.241  0.00  0.00     0.027 A 
ATOM      5  C5  DEN d   1       1.717   0.732   0.148  0.00  0.00    -0.003 A 
ATOM      6  C6  DEN d   1       0.384   0.702  -0.164  0.00  0.00     0.001 A 
ATOM      7  C7  DEN d   1      -0.508   1.407   0.599  0.00  0.00     0.017 A 
ATOM      8  C8  DEN d   1      -0.030   2.095   1.707  0.00  0.00    -0.094 A 
ATOM      9  C9  DEN d   1       1.323   2.123   1.999  0.00  0.00    -0.072 A 
ENDROOT
TORSDOF 0
ENDMDL
