MODEL 1
REMARK minimizedAffinity -4.50656652
REMARK minimizedRMSD -1
REMARK  1 active torsions:
REMARK  status: ('A' for Active; 'I' for Inactive)
REMARK    1  A    between atoms: C1_2  and  C2_3 
ROOT
ATOM      1  C2  UNL d   1      -0.780   0.954  -1.566  0.00  0.00    -0.073 A 
ATOM      2  C3  UNL d   1       0.206   1.754  -2.155  0.00  0.00    -0.002 A 
ATOM      3  C4  UNL d   1      -0.129   2.987  -2.716  0.00  0.00     0.004 A 
ATOM      4  C5  UNL d   1      -1.449   3.436  -2.688  0.00  0.00    -0.004 A 
ATOM      5  C6  UNL d   1      -2.446   2.656  -2.093  0.00  0.00    -0.075 A 
ATOM      6  C7  UNL d   1      -3.872   3.124  -2.056  0.00  0.00     0.076 C 
ATOM      7  C8  UNL d   1      -2.103   1.418  -1.534  0.00  0.00     0.001 A 
ENDROOT
BRANCH   1   8
ATOM      8  C1  UNL d   1      -0.422  -0.375  -0.953  0.00  0.00     0.053 C 
ATOM      9  C   UNL d   1       0.340  -0.215   0.352  0.00  0.00     0.018 C 
ENDBRANCH   1   8
TORSDOF 1
ENDMDL
