MODEL 1
REMARK minimizedAffinity -4.73592091
REMARK minimizedRMSD -1
REMARK  1 active torsions:
REMARK  status: ('A' for Active; 'I' for Inactive)
REMARK    1  A    between atoms: C1_2  and  C2_3 
ROOT
ATOM      1  C2  UNL d   1      -1.132   1.259  -2.186  0.00  0.00    -0.073 A 
ATOM      2  C3  UNL d   1      -0.296   2.214  -2.775  0.00  0.00    -0.002 A 
ATOM      3  C4  UNL d   1      -0.831   3.391  -3.299  0.00  0.00     0.004 A 
ATOM      4  C5  UNL d   1      -2.203   3.629  -3.234  0.00  0.00    -0.004 A 
ATOM      5  C6  UNL d   1      -3.054   2.692  -2.638  0.00  0.00    -0.075 A 
ATOM      6  C7  UNL d   1      -4.533   2.932  -2.561  0.00  0.00     0.076 C 
ATOM      7  C8  UNL d   1      -2.509   1.511  -2.116  0.00  0.00     0.001 A 
ENDROOT
BRANCH   1   8
ATOM      8  C1  UNL d   1      -0.558  -0.011  -1.612  0.00  0.00     0.053 C 
ATOM      9  C   UNL d   1      -0.408   0.062  -0.101  0.00  0.00     0.018 C 
ENDBRANCH   1   8
TORSDOF 1
ENDMDL
