MODEL 1
REMARK minimizedAffinity -3.81395817
REMARK minimizedRMSD -1
REMARK  1 active torsions:
REMARK  status: ('A' for Active; 'I' for Inactive)
REMARK    1  A    between atoms: C1_2  and  C2_3 
ROOT
ATOM      1  C2  UNL d   1      -2.300   3.016  -2.405  0.00  0.00    -0.073 A 
ATOM      2  C3  UNL d   1      -1.662   3.499  -3.553  0.00  0.00    -0.002 A 
ATOM      3  C4  UNL d   1      -0.467   2.926  -3.990  0.00  0.00     0.004 A 
ATOM      4  C5  UNL d   1       0.098   1.861  -3.288  0.00  0.00    -0.004 A 
ATOM      5  C6  UNL d   1      -0.531   1.356  -2.145  0.00  0.00    -0.075 A 
ATOM      6  C7  UNL d   1       0.065   0.212  -1.378  0.00  0.00     0.076 C 
ATOM      7  C8  UNL d   1      -1.729   1.939  -1.712  0.00  0.00     0.001 A 
ENDROOT
BRANCH   1   8
ATOM      8  C1  UNL d   1      -3.594   3.628  -1.934  0.00  0.00     0.053 C 
ATOM      9  C   UNL d   1      -4.712   3.448  -2.948  0.00  0.00     0.018 C 
ENDBRANCH   1   8
TORSDOF 1
ENDMDL
