MODEL 1
REMARK minimizedAffinity -1.83705449
REMARK minimizedRMSD -1
REMARK  1 active torsions:
REMARK  status: ('A' for Active; 'I' for Inactive)
REMARK    1  A    between atoms: C1_2  and  C2_3 
ROOT
ATOM      1  C2  UNL d   1      -0.991   1.476  -1.985  0.00  0.00    -0.073 A 
ATOM      2  C3  UNL d   1       0.090   2.312  -2.284  0.00  0.00    -0.002 A 
ATOM      3  C4  UNL d   1      -0.128   3.637  -2.664  0.00  0.00     0.004 A 
ATOM      4  C5  UNL d   1      -1.426   4.141  -2.741  0.00  0.00    -0.004 A 
ATOM      5  C6  UNL d   1      -2.519   3.324  -2.435  0.00  0.00    -0.075 A 
ATOM      6  C7  UNL d   1      -3.922   3.850  -2.516  0.00  0.00     0.076 C 
ATOM      7  C8  UNL d   1      -2.292   1.994  -2.057  0.00  0.00     0.001 A 
ENDROOT
BRANCH   1   8
ATOM      8  C1  UNL d   1      -0.761   0.046  -1.568  0.00  0.00     0.053 C 
ATOM      9  C   UNL d   1      -0.351  -0.063  -0.108  0.00  0.00     0.018 C 
ENDBRANCH   1   8
TORSDOF 1
ENDMDL
