MODEL 1
REMARK minimizedAffinity -4.81209183
REMARK minimizedRMSD -1
REMARK  1 active torsions:
REMARK  status: ('A' for Active; 'I' for Inactive)
REMARK    1  A    between atoms: C1_2  and  C2_3 
ROOT
ATOM      1  C2  UNL d   1      -0.637   1.148  -0.796  0.00  0.00    -0.073 A 
ATOM      2  C3  UNL d   1      -1.217  -0.089  -1.097  0.00  0.00    -0.002 A 
ATOM      3  C4  UNL d   1      -1.076  -1.165  -0.220  0.00  0.00     0.004 A 
ATOM      4  C5  UNL d   1      -0.362  -1.014   0.969  0.00  0.00    -0.004 A 
ATOM      5  C6  UNL d   1       0.215   0.218   1.293  0.00  0.00    -0.075 A 
ATOM      6  C7  UNL d   1       0.989   0.397   2.566  0.00  0.00     0.076 C 
ATOM      7  C8  UNL d   1       0.072   1.294   0.405  0.00  0.00     0.001 A 
ENDROOT
BRANCH   1   8
ATOM      8  C1  UNL d   1      -0.791   2.315  -1.737  0.00  0.00     0.053 C 
ATOM      9  C   UNL d   1      -1.942   3.223  -1.335  0.00  0.00     0.018 C 
ENDBRANCH   1   8
TORSDOF 1
ENDMDL
