MODEL 1
REMARK minimizedAffinity 7.54661417
REMARK minimizedRMSD -1
REMARK  2 active torsions:
REMARK  status: ('A' for Active; 'I' for Inactive)
REMARK    1  A    between atoms: C1_2  and  C2_3 
REMARK    2  A    between atoms: C2_3  and  C3_4 
ROOT
ATOM      1  C3  UNL d   1      -1.355  -2.732  -0.155  0.00  0.00    -0.075 A 
ATOM      2  C4  UNL d   1      -2.602  -2.215   0.226  0.00  0.00     0.002 A 
ATOM      3  C5  UNL d   1      -2.974  -2.179   1.570  0.00  0.00     0.002 A 
ATOM      4  C6  UNL d   1      -2.110  -2.667   2.548  0.00  0.00    -0.004 A 
ATOM      5  C7  UNL d   1      -0.875  -3.198   2.180  0.00  0.00     0.002 A 
ATOM      6  C8  UNL d   1      -0.499  -3.231   0.836  0.00  0.00     0.002 A 
ENDROOT
BRANCH   1   7
ATOM      7  C2  UNL d   1      -0.935  -2.746  -1.605  0.00  0.00     0.056 C 
BRANCH   7   8
ATOM      8  C1  UNL d   1       0.305  -1.897  -1.904  0.00  0.00     0.007 C 
ATOM      9  C   UNL d   1       0.954  -2.232  -3.241  0.00  0.00     0.009 C 
ENDBRANCH   7   8
ENDBRANCH   1   7
TORSDOF 2
ENDMDL
