MODEL 1
REMARK minimizedAffinity 1.83893657
REMARK minimizedRMSD -1
REMARK  2 active torsions:
REMARK  status: ('A' for Active; 'I' for Inactive)
REMARK    1  A    between atoms: C1_2  and  C2_3 
REMARK    2  A    between atoms: C2_3  and  C3_4 
ROOT
ATOM      1  C3  UNL d   1       5.204   4.646  -3.699  0.00  0.00    -0.075 A 
ATOM      2  C4  UNL d   1       5.614   3.504  -2.994  0.00  0.00     0.002 A 
ATOM      3  C5  UNL d   1       5.999   3.598  -1.657  0.00  0.00     0.002 A 
ATOM      4  C6  UNL d   1       5.991   4.832  -1.011  0.00  0.00    -0.004 A 
ATOM      5  C7  UNL d   1       5.602   5.975  -1.705  0.00  0.00     0.002 A 
ATOM      6  C8  UNL d   1       5.211   5.884  -3.042  0.00  0.00     0.002 A 
ENDROOT
BRANCH   1   7
ATOM      7  C2  UNL d   1       4.757   4.547  -5.138  0.00  0.00     0.056 C 
BRANCH   7   8
ATOM      8  C1  UNL d   1       3.633   5.520  -5.509  0.00  0.00     0.007 C 
ATOM      9  C   UNL d   1       2.814   5.978  -4.310  0.00  0.00     0.009 C 
ENDBRANCH   7   8
ENDBRANCH   1   7
TORSDOF 2
ENDMDL
