MODEL 1
REMARK minimizedAffinity 3.58029199
REMARK minimizedRMSD -1
REMARK  2 active torsions:
REMARK  status: ('A' for Active; 'I' for Inactive)
REMARK    1  A    between atoms: C1_2  and  C2_3 
REMARK    2  A    between atoms: C2_3  and  C3_4 
ROOT
ATOM      1  C3  UNL d   1       4.726   4.306  -3.383  0.00  0.00    -0.075 A 
ATOM      2  C4  UNL d   1       5.352   4.348  -4.637  0.00  0.00     0.002 A 
ATOM      3  C5  UNL d   1       4.783   5.067  -5.689  0.00  0.00     0.002 A 
ATOM      4  C6  UNL d   1       3.578   5.742  -5.503  0.00  0.00    -0.004 A 
ATOM      5  C7  UNL d   1       2.939   5.693  -4.266  0.00  0.00     0.002 A 
ATOM      6  C8  UNL d   1       3.509   4.978  -3.211  0.00  0.00     0.002 A 
ENDROOT
BRANCH   1   7
ATOM      7  C2  UNL d   1       5.353   3.554  -2.233  0.00  0.00     0.056 C 
BRANCH   7   8
ATOM      8  C1  UNL d   1       5.994   4.456  -1.173  0.00  0.00     0.007 C 
ATOM      9  C   UNL d   1       5.976   5.931  -1.551  0.00  0.00     0.009 C 
ENDBRANCH   7   8
ENDBRANCH   1   7
TORSDOF 2
ENDMDL
