MODEL 1
REMARK minimizedAffinity 3.98106742
REMARK minimizedRMSD -1
REMARK  2 active torsions:
REMARK  status: ('A' for Active; 'I' for Inactive)
REMARK    1  A    between atoms: C1_2  and  C2_3 
REMARK    2  A    between atoms: C2_3  and  C3_4 
ROOT
ATOM      1  C3  UNL d   1       4.872   5.325  -3.765  0.00  0.00    -0.075 A 
ATOM      2  C4  UNL d   1       5.975   5.895  -3.112  0.00  0.00     0.002 A 
ATOM      3  C5  UNL d   1       6.000   5.995  -1.721  0.00  0.00     0.002 A 
ATOM      4  C6  UNL d   1       4.921   5.538  -0.967  0.00  0.00    -0.004 A 
ATOM      5  C7  UNL d   1       3.813   4.986  -1.606  0.00  0.00     0.002 A 
ATOM      6  C8  UNL d   1       3.788   4.880  -2.998  0.00  0.00     0.002 A 
ENDROOT
BRANCH   1   7
ATOM      7  C2  UNL d   1       4.852   5.186  -5.269  0.00  0.00     0.056 C 
BRANCH   7   8
ATOM      8  C1  UNL d   1       4.887   3.736  -5.762  0.00  0.00     0.007 C 
ATOM      9  C   UNL d   1       5.564   2.785  -4.783  0.00  0.00     0.009 C 
ENDBRANCH   7   8
ENDBRANCH   1   7
TORSDOF 2
ENDMDL
