MODEL 1
REMARK minimizedAffinity 4.42059326
REMARK minimizedRMSD -1
REMARK  2 active torsions:
REMARK  status: ('A' for Active; 'I' for Inactive)
REMARK    1  A    between atoms: C1_2  and  C2_3 
REMARK    2  A    between atoms: C2_3  and  C3_4 
ROOT
ATOM      1  C3  UNL d   1       1.359  -1.868  -2.933  0.00  0.00    -0.075 A 
ATOM      2  C4  UNL d   1       0.225  -1.631  -3.724  0.00  0.00     0.002 A 
ATOM      3  C5  UNL d   1      -1.053  -1.703  -3.169  0.00  0.00     0.002 A 
ATOM      4  C6  UNL d   1      -1.215  -2.021  -1.823  0.00  0.00    -0.004 A 
ATOM      5  C7  UNL d   1      -0.097  -2.274  -1.031  0.00  0.00     0.002 A 
ATOM      6  C8  UNL d   1       1.184  -2.199  -1.582  0.00  0.00     0.002 A 
ENDROOT
BRANCH   1   7
ATOM      7  C2  UNL d   1       2.746  -1.763  -3.519  0.00  0.00     0.056 C 
BRANCH   7   8
ATOM      8  C1  UNL d   1       3.743  -2.776  -2.947  0.00  0.00     0.007 C 
ATOM      9  C   UNL d   1       4.652  -2.184  -1.877  0.00  0.00     0.009 C 
ENDBRANCH   7   8
ENDBRANCH   1   7
TORSDOF 2
ENDMDL
