MODEL 1
REMARK minimizedAffinity 7.86101198
REMARK minimizedRMSD -1
REMARK  2 active torsions:
REMARK  status: ('A' for Active; 'I' for Inactive)
REMARK    1  A    between atoms: C1_2  and  C2_3 
REMARK    2  A    between atoms: C2_3  and  C3_4 
ROOT
ATOM      1  C3  UNL d   1       1.763  -1.805  -2.699  0.00  0.00    -0.075 A 
ATOM      2  C4  UNL d   1       1.317  -2.216  -3.964  0.00  0.00     0.002 A 
ATOM      3  C5  UNL d   1      -0.040  -2.432  -4.201  0.00  0.00     0.002 A 
ATOM      4  C6  UNL d   1      -0.967  -2.251  -3.176  0.00  0.00    -0.004 A 
ATOM      5  C7  UNL d   1      -0.534  -1.859  -1.912  0.00  0.00     0.002 A 
ATOM      6  C8  UNL d   1       0.824  -1.638  -1.673  0.00  0.00     0.002 A 
ENDROOT
BRANCH   1   7
ATOM      7  C2  UNL d   1       3.228  -1.541  -2.444  0.00  0.00     0.056 C 
BRANCH   7   8
ATOM      8  C1  UNL d   1       3.578  -1.342  -0.966  0.00  0.00     0.007 C 
ATOM      9  C   UNL d   1       4.969  -1.845  -0.605  0.00  0.00     0.009 C 
ENDBRANCH   7   8
ENDBRANCH   1   7
TORSDOF 2
ENDMDL
