MODEL 1
REMARK minimizedAffinity -0.91091907
REMARK minimizedRMSD -1
REMARK  2 active torsions:
REMARK  status: ('A' for Active; 'I' for Inactive)
REMARK    1  A    between atoms: C1_2  and  C2_3 
REMARK    2  A    between atoms: C2_3  and  C3_4 
ROOT
ATOM      1  C3  UNL d   1      -0.652  -1.940  -2.306  0.00  0.00    -0.075 A 
ATOM      2  C4  UNL d   1      -1.779  -2.435  -2.979  0.00  0.00     0.002 A 
ATOM      3  C5  UNL d   1      -2.854  -2.964  -2.265  0.00  0.00     0.002 A 
ATOM      4  C6  UNL d   1      -2.813  -3.016  -0.874  0.00  0.00    -0.004 A 
ATOM      5  C7  UNL d   1      -1.691  -2.544  -0.196  0.00  0.00     0.002 A 
ATOM      6  C8  UNL d   1      -0.616  -2.009  -0.907  0.00  0.00     0.002 A 
ENDROOT
BRANCH   1   7
ATOM      7  C2  UNL d   1       0.503  -1.338  -3.071  0.00  0.00     0.056 C 
BRANCH   7   8
ATOM      8  C1  UNL d   1       1.880  -1.691  -2.500  0.00  0.00     0.007 C 
ATOM      9  C   UNL d   1       3.031  -1.253  -3.396  0.00  0.00     0.009 C 
ENDBRANCH   7   8
ENDBRANCH   1   7
TORSDOF 2
ENDMDL
