MODEL 1
REMARK minimizedAffinity 1.3006686
REMARK minimizedRMSD -1
REMARK  2 active torsions:
REMARK  status: ('A' for Active; 'I' for Inactive)
REMARK    1  A    between atoms: C1_2  and  C2_3 
REMARK    2  A    between atoms: C2_3  and  C3_4 
ROOT
ATOM      1  C3  UNL d   1      -1.960  -2.953  -1.893  0.00  0.00    -0.075 A 
ATOM      2  C4  UNL d   1      -1.049  -2.043  -2.448  0.00  0.00     0.002 A 
ATOM      3  C5  UNL d   1      -0.472  -2.289  -3.695  0.00  0.00     0.002 A 
ATOM      4  C6  UNL d   1      -0.790  -3.451  -4.395  0.00  0.00    -0.004 A 
ATOM      5  C7  UNL d   1      -1.681  -4.370  -3.845  0.00  0.00     0.002 A 
ATOM      6  C8  UNL d   1      -2.263  -4.124  -2.601  0.00  0.00     0.002 A 
ENDROOT
BRANCH   1   7
ATOM      7  C2  UNL d   1      -2.610  -2.678  -0.558  0.00  0.00     0.056 C 
BRANCH   7   8
ATOM      8  C1  UNL d   1      -2.161  -3.624   0.561  0.00  0.00     0.007 C 
ATOM      9  C   UNL d   1      -0.654  -3.619   0.783  0.00  0.00     0.009 C 
ENDBRANCH   7   8
ENDBRANCH   1   7
TORSDOF 2
ENDMDL
