MODEL 1
REMARK minimizedAffinity 2.96273065
REMARK minimizedRMSD -1
REMARK  2 active torsions:
REMARK  status: ('A' for Active; 'I' for Inactive)
REMARK    1  A    between atoms: C1_2  and  C2_3 
REMARK    2  A    between atoms: C2_3  and  C3_4 
ROOT
ATOM      1  C3  UNL d   1      -1.622  -3.347  -1.125  0.00  0.00    -0.075 A 
ATOM      2  C4  UNL d   1      -2.893  -2.926  -0.708  0.00  0.00     0.002 A 
ATOM      3  C5  UNL d   1      -3.119  -2.563   0.620  0.00  0.00     0.002 A 
ATOM      4  C6  UNL d   1      -2.082  -2.627   1.548  0.00  0.00    -0.004 A 
ATOM      5  C7  UNL d   1      -0.820  -3.060   1.149  0.00  0.00     0.002 A 
ATOM      6  C8  UNL d   1      -0.589  -3.419  -0.180  0.00  0.00     0.002 A 
ENDROOT
BRANCH   1   7
ATOM      7  C2  UNL d   1      -1.363  -3.712  -2.567  0.00  0.00     0.056 C 
BRANCH   7   8
ATOM      8  C1  UNL d   1      -0.445  -2.731  -3.304  0.00  0.00     0.007 C 
ATOM      9  C   UNL d   1       0.274  -1.765  -2.372  0.00  0.00     0.009 C 
ENDBRANCH   7   8
ENDBRANCH   1   7
TORSDOF 2
ENDMDL
