MODEL 1
REMARK minimizedAffinity -2.34850597
REMARK minimizedRMSD -1
REMARK  2 active torsions:
REMARK  status: ('A' for Active; 'I' for Inactive)
REMARK    1  A    between atoms: C1_2  and  C2_3 
REMARK    2  A    between atoms: C2_3  and  C3_4 
ROOT
ATOM      1  C3  UNL d   1      -2.255  -1.178   3.633  0.00  0.00    -0.075 A 
ATOM      2  C4  UNL d   1      -2.689  -1.604   4.896  0.00  0.00     0.002 A 
ATOM      3  C5  UNL d   1      -2.604  -0.754   5.999  0.00  0.00     0.002 A 
ATOM      4  C6  UNL d   1      -2.076   0.527   5.855  0.00  0.00    -0.004 A 
ATOM      5  C7  UNL d   1      -1.627   0.956   4.608  0.00  0.00     0.002 A 
ATOM      6  C8  UNL d   1      -1.714   0.108   3.502  0.00  0.00     0.002 A 
ENDROOT
BRANCH   1   7
ATOM      7  C2  UNL d   1      -2.371  -2.083   2.429  0.00  0.00     0.056 C 
BRANCH   7   8
ATOM      8  C1  UNL d   1      -1.072  -2.226   1.629  0.00  0.00     0.007 C 
ATOM      9  C   UNL d   1      -1.299  -2.674   0.191  0.00  0.00     0.009 C 
ENDBRANCH   7   8
ENDBRANCH   1   7
TORSDOF 2
ENDMDL
