MODEL 1
REMARK minimizedAffinity 2.70996547
REMARK minimizedRMSD -1
REMARK  2 active torsions:
REMARK  status: ('A' for Active; 'I' for Inactive)
REMARK    1  A    between atoms: C1_2  and  C2_3 
REMARK    2  A    between atoms: C2_3  and  C3_4 
ROOT
ATOM      1  C3  UNL d   1       5.310   4.688  -3.456  0.00  0.00    -0.075 A 
ATOM      2  C4  UNL d   1       3.972   5.104  -3.514  0.00  0.00     0.002 A 
ATOM      3  C5  UNL d   1       3.332   5.262  -4.744  0.00  0.00     0.002 A 
ATOM      4  C6  UNL d   1       4.022   5.016  -5.929  0.00  0.00    -0.004 A 
ATOM      5  C7  UNL d   1       5.356   4.618  -5.883  0.00  0.00     0.002 A 
ATOM      6  C8  UNL d   1       5.998   4.455  -4.654  0.00  0.00     0.002 A 
ENDROOT
BRANCH   1   7
ATOM      7  C2  UNL d   1       5.999   4.487  -2.128  0.00  0.00     0.056 C 
BRANCH   7   8
ATOM      8  C1  UNL d   1       5.997   5.729  -1.230  0.00  0.00     0.007 C 
ATOM      9  C   UNL d   1       5.964   5.396   0.255  0.00  0.00     0.009 C 
ENDBRANCH   7   8
ENDBRANCH   1   7
TORSDOF 2
ENDMDL
