MODEL 1
REMARK minimizedAffinity 0.420239508
REMARK minimizedRMSD -1
REMARK  2 active torsions:
REMARK  status: ('A' for Active; 'I' for Inactive)
REMARK    1  A    between atoms: C1_2  and  C2_3 
REMARK    2  A    between atoms: C2_3  and  C3_4 
ROOT
ATOM      1  C3  UNL d   1      -1.340  -2.099   0.390  0.00  0.00    -0.075 A 
ATOM      2  C4  UNL d   1      -1.998  -3.009  -0.450  0.00  0.00     0.002 A 
ATOM      3  C5  UNL d   1      -1.689  -3.071  -1.809  0.00  0.00     0.002 A 
ATOM      4  C6  UNL d   1      -0.727  -2.219  -2.347  0.00  0.00    -0.004 A 
ATOM      5  C7  UNL d   1      -0.078  -1.300  -1.525  0.00  0.00     0.002 A 
ATOM      6  C8  UNL d   1      -0.383  -1.238  -0.164  0.00  0.00     0.002 A 
ENDROOT
BRANCH   1   7
ATOM      7  C2  UNL d   1      -1.649  -2.047   1.867  0.00  0.00     0.056 C 
BRANCH   7   8
ATOM      8  C1  UNL d   1      -1.871  -0.630   2.408  0.00  0.00     0.007 C 
ATOM      9  C   UNL d   1      -2.146  -0.596   3.906  0.00  0.00     0.009 C 
ENDBRANCH   7   8
ENDBRANCH   1   7
TORSDOF 2
ENDMDL
