MODEL 1
REMARK minimizedAffinity 4.10389805
REMARK minimizedRMSD -1
REMARK  2 active torsions:
REMARK  status: ('A' for Active; 'I' for Inactive)
REMARK    1  A    between atoms: C1_2  and  C2_3 
REMARK    2  A    between atoms: C2_3  and  C3_4 
ROOT
ATOM      1  C3  UNL d   1      -1.806  -2.424   1.817  0.00  0.00    -0.075 A 
ATOM      2  C4  UNL d   1      -0.796  -1.970   0.957  0.00  0.00     0.002 A 
ATOM      3  C5  UNL d   1      -0.864  -2.226  -0.413  0.00  0.00     0.002 A 
ATOM      4  C6  UNL d   1      -1.934  -2.948  -0.937  0.00  0.00    -0.004 A 
ATOM      5  C7  UNL d   1      -2.934  -3.419  -0.089  0.00  0.00     0.002 A 
ATOM      6  C8  UNL d   1      -2.871  -3.160   1.281  0.00  0.00     0.002 A 
ENDROOT
BRANCH   1   7
ATOM      7  C2  UNL d   1      -1.753  -2.125   3.296  0.00  0.00     0.056 C 
BRANCH   7   8
ATOM      8  C1  UNL d   1      -2.080  -0.670   3.650  0.00  0.00     0.007 C 
ATOM      9  C   UNL d   1      -1.720  -0.305   5.084  0.00  0.00     0.009 C 
ENDBRANCH   7   8
ENDBRANCH   1   7
TORSDOF 2
ENDMDL
