MODEL 1
REMARK minimizedAffinity -0.0302875936
REMARK minimizedRMSD -1
REMARK  0 active torsions:
REMARK  status: ('A' for Active; 'I' for Inactive)
ROOT
ATOM      1  C   UNL d   1      -2.394  -2.960   0.621  0.00  0.00     0.172 C 
ATOM      2  N   UNL d   1      -1.245  -2.202   1.056  0.00  0.00    -0.070 N 
ATOM      3  C1  UNL d   1      -1.266  -0.911   1.513  0.00  0.00    -0.004 A 
ATOM      4  C2  UNL d   1       0.028  -0.554   1.826  0.00  0.00    -0.047 A 
ATOM      5  C3  UNL d   1       0.855  -1.667   1.547  0.00  0.00    -0.047 A 
ATOM      6  C4  UNL d   1       0.041  -2.674   1.072  0.00  0.00    -0.004 A 
ENDROOT
TORSDOF 0
ENDMDL
