MODEL 1
REMARK minimizedAffinity 3.46289992
REMARK minimizedRMSD -1
REMARK  0 active torsions:
REMARK  status: ('A' for Active; 'I' for Inactive)
ROOT
ATOM      1  C   UNL d   1      -2.079  -2.613   0.156  0.00  0.00     0.172 C 
ATOM      2  N   UNL d   1      -2.368  -2.488  -1.253  0.00  0.00    -0.070 N 
ATOM      3  C1  UNL d   1      -3.048  -1.454  -1.840  0.00  0.00    -0.004 A 
ATOM      4  C2  UNL d   1      -3.113  -1.705  -3.193  0.00  0.00    -0.047 A 
ATOM      5  C3  UNL d   1      -2.449  -2.933  -3.428  0.00  0.00    -0.047 A 
ATOM      6  C4  UNL d   1      -1.998  -3.396  -2.210  0.00  0.00    -0.004 A 
ENDROOT
TORSDOF 0
ENDMDL
