MODEL 1
REMARK minimizedAffinity -0.410190314
REMARK minimizedRMSD -1
REMARK  0 active torsions:
REMARK  status: ('A' for Active; 'I' for Inactive)
ROOT
ATOM      1  C   UNL d   1      -3.878  -0.901  -0.797  0.00  0.00     0.172 C 
ATOM      2  N   UNL d   1      -2.805  -0.447   0.056  0.00  0.00    -0.070 N 
ATOM      3  C1  UNL d   1      -2.100  -1.225   0.935  0.00  0.00    -0.004 A 
ATOM      4  C2  UNL d   1      -1.167  -0.422   1.555  0.00  0.00    -0.047 A 
ATOM      5  C3  UNL d   1      -1.318   0.884   1.031  0.00  0.00    -0.047 A 
ATOM      6  C4  UNL d   1      -2.339   0.840   0.106  0.00  0.00    -0.004 A 
ENDROOT
TORSDOF 0
ENDMDL
