MODEL 1
REMARK minimizedAffinity 3.06617236
REMARK minimizedRMSD -1
REMARK  0 active torsions:
REMARK  status: ('A' for Active; 'I' for Inactive)
ROOT
ATOM      1  C   UNL d   1      -0.694   2.259   0.241  0.00  0.00     0.172 C 
ATOM      2  N   UNL d   1      -0.720   0.840   0.509  0.00  0.00    -0.070 N 
ATOM      3  C1  UNL d   1       0.358   0.075   0.865  0.00  0.00    -0.004 A 
ATOM      4  C2  UNL d   1      -0.080  -1.221   1.030  0.00  0.00    -0.047 A 
ATOM      5  C3  UNL d   1      -1.470  -1.236   0.763  0.00  0.00    -0.047 A 
ATOM      6  C4  UNL d   1      -1.840   0.054   0.443  0.00  0.00    -0.004 A 
ENDROOT
TORSDOF 0
ENDMDL
