MODEL 1
REMARK minimizedAffinity 0.114682294
REMARK minimizedRMSD -1
REMARK  0 active torsions:
REMARK  status: ('A' for Active; 'I' for Inactive)
ROOT
ATOM      1  C   UNL d   1      -1.299  -1.469   1.155  0.00  0.00     0.172 C 
ATOM      2  N   UNL d   1      -0.093  -1.940   0.514  0.00  0.00    -0.070 N 
ATOM      3  C1  UNL d   1       1.175  -1.827   1.018  0.00  0.00    -0.004 A 
ATOM      4  C2  UNL d   1       2.042  -2.396   0.110  0.00  0.00    -0.047 A 
ATOM      5  C3  UNL d   1       1.268  -2.866  -0.977  0.00  0.00    -0.047 A 
ATOM      6  C4  UNL d   1      -0.051  -2.571  -0.701  0.00  0.00    -0.004 A 
ENDROOT
TORSDOF 0
ENDMDL
