MODEL 1
REMARK minimizedAffinity -0.347625047
REMARK minimizedRMSD -1
REMARK  0 active torsions:
REMARK  status: ('A' for Active; 'I' for Inactive)
ROOT
ATOM      1  C   UNL d   1       3.745  -3.865  -5.988  0.00  0.00     0.172 C 
ATOM      2  N   UNL d   1       4.258  -2.516  -5.992  0.00  0.00    -0.070 N 
ATOM      3  C1  UNL d   1       3.502  -1.374  -5.998  0.00  0.00    -0.004 A 
ATOM      4  C2  UNL d   1       4.362  -0.298  -6.000  0.00  0.00    -0.047 A 
ATOM      5  C3  UNL d   1       5.681  -0.810  -5.996  0.00  0.00    -0.047 A 
ATOM      6  C4  UNL d   1       5.588  -2.186  -5.991  0.00  0.00    -0.004 A 
ENDROOT
TORSDOF 0
ENDMDL
