MODEL 1
REMARK minimizedAffinity -3.65147638
REMARK minimizedRMSD -1
REMARK  2 active torsions:
REMARK  status: ('A' for Active; 'I' for Inactive)
REMARK    1  A    between atoms: C1_2  and  C2_3 
REMARK    2  A    between atoms: C2_3  and  C3_4 
ROOT
ATOM      1  C3  UNL d   1       0.217  -0.233  -0.837  0.00  0.00    -0.075 A 
ATOM      2  C4  UNL d   1      -1.167  -0.280  -0.618  0.00  0.00     0.002 A 
ATOM      3  C5  UNL d   1      -1.710   0.180   0.583  0.00  0.00     0.002 A 
ATOM      4  C6  UNL d   1      -0.878   0.681   1.581  0.00  0.00    -0.004 A 
ATOM      5  C7  UNL d   1       0.501   0.716   1.381  0.00  0.00     0.002 A 
ATOM      6  C8  UNL d   1       1.046   0.262   0.179  0.00  0.00     0.002 A 
ENDROOT
BRANCH   1   7
ATOM      7  C2  UNL d   1       0.809  -0.701  -2.145  0.00  0.00     0.056 C 
BRANCH   7   8
ATOM      8  C1  UNL d   1       1.539   0.396  -2.927  0.00  0.00     0.007 C 
ATOM      9  C   UNL d   1       1.256   0.357  -4.423  0.00  0.00     0.009 C 
ENDBRANCH   7   8
ENDBRANCH   1   7
TORSDOF 2
ENDMDL
