MODEL 1
REMARK minimizedAffinity -5.56484365
REMARK minimizedRMSD -1
REMARK  2 active torsions:
REMARK  status: ('A' for Active; 'I' for Inactive)
REMARK    1  A    between atoms: C1_2  and  C2_3 
REMARK    2  A    between atoms: C2_3  and  C3_4 
ROOT
ATOM      1  C3  UNL d   1       0.178  -0.260  -0.164  0.00  0.00    -0.075 A 
ATOM      2  C4  UNL d   1       0.890   0.268   0.923  0.00  0.00     0.002 A 
ATOM      3  C5  UNL d   1       0.220   0.917   1.960  0.00  0.00     0.002 A 
ATOM      4  C6  UNL d   1      -1.165   1.056   1.920  0.00  0.00    -0.004 A 
ATOM      5  C7  UNL d   1      -1.881   0.550   0.837  0.00  0.00     0.002 A 
ATOM      6  C8  UNL d   1      -1.214  -0.104  -0.201  0.00  0.00     0.002 A 
ENDROOT
BRANCH   1   7
ATOM      7  C2  UNL d   1       0.894  -0.990  -1.275  0.00  0.00     0.056 C 
BRANCH   7   8
ATOM      8  C1  UNL d   1       0.729  -0.342  -2.654  0.00  0.00     0.007 C 
ATOM      9  C   UNL d   1       1.944   0.467  -3.087  0.00  0.00     0.009 C 
ENDBRANCH   7   8
ENDBRANCH   1   7
TORSDOF 2
ENDMDL
