MODEL 1
REMARK minimizedAffinity -4.05866194
REMARK minimizedRMSD -1
REMARK  2 active torsions:
REMARK  status: ('A' for Active; 'I' for Inactive)
REMARK    1  A    between atoms: C1_2  and  C2_3 
REMARK    2  A    between atoms: C2_3  and  C3_4 
ROOT
ATOM      1  C3  UNL d   1       0.096  -0.420  -0.781  0.00  0.00    -0.075 A 
ATOM      2  C4  UNL d   1      -1.221  -0.885  -0.644  0.00  0.00     0.002 A 
ATOM      3  C5  UNL d   1      -2.002  -0.490   0.442  0.00  0.00     0.002 A 
ATOM      4  C6  UNL d   1      -1.476   0.365   1.408  0.00  0.00    -0.004 A 
ATOM      5  C7  UNL d   1      -0.164   0.819   1.292  0.00  0.00     0.002 A 
ATOM      6  C8  UNL d   1       0.619   0.429   0.204  0.00  0.00     0.002 A 
ENDROOT
BRANCH   1   7
ATOM      7  C2  UNL d   1       0.937  -0.821  -1.969  0.00  0.00     0.056 C 
BRANCH   7   8
ATOM      8  C1  UNL d   1       1.326   0.348  -2.880  0.00  0.00     0.007 C 
ATOM      9  C   UNL d   1       1.362  -0.026  -4.356  0.00  0.00     0.009 C 
ENDBRANCH   7   8
ENDBRANCH   1   7
TORSDOF 2
ENDMDL
