MODEL 1
REMARK minimizedAffinity -3.37421942
REMARK minimizedRMSD -1
REMARK  2 active torsions:
REMARK  status: ('A' for Active; 'I' for Inactive)
REMARK    1  A    between atoms: C1_2  and  C2_3 
REMARK    2  A    between atoms: C2_3  and  C3_4 
ROOT
ATOM      1  C3  UNL d   1       1.261  -0.363  -1.185  0.00  0.00    -0.075 A 
ATOM      2  C4  UNL d   1       1.730  -1.112  -0.096  0.00  0.00     0.002 A 
ATOM      3  C5  UNL d   1       1.311  -0.815   1.201  0.00  0.00     0.002 A 
ATOM      4  C6  UNL d   1       0.428   0.238   1.427  0.00  0.00    -0.004 A 
ATOM      5  C7  UNL d   1      -0.032   1.000   0.354  0.00  0.00     0.002 A 
ATOM      6  C8  UNL d   1       0.383   0.702  -0.945  0.00  0.00     0.002 A 
ENDROOT
BRANCH   1   7
ATOM      7  C2  UNL d   1       1.689  -0.698  -2.594  0.00  0.00     0.056 C 
BRANCH   7   8
ATOM      8  C1  UNL d   1       1.319   0.370  -3.628  0.00  0.00     0.007 C 
ATOM      9  C   UNL d   1       2.399   1.427  -3.813  0.00  0.00     0.009 C 
ENDBRANCH   7   8
ENDBRANCH   1   7
TORSDOF 2
ENDMDL
