MODEL 1
REMARK minimizedAffinity -1.74555063
REMARK minimizedRMSD -1
REMARK  0 active torsions:
REMARK  status: ('A' for Active; 'I' for Inactive)
ROOT
ATOM      1  N1  IND d   1      -1.723  -0.366  -0.333  0.00  0.00    -0.196 N 
ATOM      2  C2  IND d   1      -1.773   0.933   0.091  0.00  0.00     0.054 A 
ATOM      3  C3  IND d   1      -0.529   1.384   0.369  0.00  0.00    -0.031 A 
ATOM      4  C4  IND d   1       1.740   0.197   0.104  0.00  0.00     0.051 A 
ATOM      5  C5  IND d   1       2.292  -1.011  -0.215  0.00  0.00    -0.031 A 
ATOM      6  C6  IND d   1       1.519  -2.087  -0.600  0.00  0.00     0.015 A 
ATOM      7  C7  IND d   1       0.159  -1.991  -0.692  0.00  0.00    -0.016 A 
ATOM      8  C8  IND d   1      -0.406  -0.768  -0.362  0.00  0.00    -0.047 A 
ATOM      9  C9  IND d   1       0.370   0.316   0.070  0.00  0.00    -0.096 A 
ATOM     10  HN1 IND d   1      -2.401  -0.850  -0.546  0.00  0.00     0.298 HD
ENDROOT
TORSDOF 0
ENDMDL
