MODEL 1
REMARK minimizedAffinity 0.56123805
REMARK minimizedRMSD -1
REMARK  0 active torsions:
REMARK  status: ('A' for Active; 'I' for Inactive)
ROOT
ATOM      1  N1  IND d   1       0.376   1.380  -0.411  0.00  0.00    -0.196 N 
ATOM      2  C2  IND d   1      -0.951   1.483  -0.102  0.00  0.00     0.054 A 
ATOM      3  C3  IND d   1      -1.484   0.257   0.101  0.00  0.00    -0.031 A 
ATOM      4  C4  IND d   1      -0.338  -2.048   0.078  0.00  0.00     0.051 A 
ATOM      5  C5  IND d   1       0.857  -2.654  -0.191  0.00  0.00    -0.031 A 
ATOM      6  C6  IND d   1       1.976  -1.932  -0.552  0.00  0.00     0.015 A 
ATOM      7  C7  IND d   1       1.944  -0.570  -0.647  0.00  0.00    -0.016 A 
ATOM      8  C8  IND d   1       0.731   0.049  -0.381  0.00  0.00    -0.047 A 
ATOM      9  C9  IND d   1      -0.419  -0.682  -0.056  0.00  0.00    -0.096 A 
ATOM     10  HN1 IND d   1       0.901   2.036  -0.594  0.00  0.00     0.298 HD
ENDROOT
TORSDOF 0
ENDMDL
