MODEL 1
REMARK minimizedAffinity -6.12028313
REMARK minimizedRMSD -1
REMARK  0 active torsions:
REMARK  status: ('A' for Active; 'I' for Inactive)
ROOT
ATOM      1  N1  IND d   1       2.175   2.104   0.009  0.00  0.00    -0.196 N 
ATOM      2  C2  IND d   1       0.963   2.716  -0.151  0.00  0.00     0.054 A 
ATOM      3  C3  IND d   1      -0.016   1.793  -0.276  0.00  0.00    -0.031 A 
ATOM      4  C4  IND d   1       0.129  -0.774  -0.146  0.00  0.00     0.051 A 
ATOM      5  C5  IND d   1       1.028  -1.799  -0.048  0.00  0.00    -0.031 A 
ATOM      6  C6  IND d   1       2.383  -1.570   0.080  0.00  0.00     0.015 A 
ATOM      7  C7  IND d   1       2.890  -0.302   0.126  0.00  0.00    -0.016 A 
ATOM      8  C8  IND d   1       1.980   0.741   0.019  0.00  0.00    -0.047 A 
ATOM      9  C9  IND d   1       0.609   0.514  -0.154  0.00  0.00    -0.096 A 
ATOM     10  HN1 IND d   1       2.932   2.504   0.090  0.00  0.00     0.298 HD
ENDROOT
TORSDOF 0
ENDMDL
