MODEL 1
REMARK minimizedAffinity 2.35568881
REMARK minimizedRMSD -1
REMARK  0 active torsions:
REMARK  status: ('A' for Active; 'I' for Inactive)
ROOT
ATOM      1  N1  IND d   1       2.163   1.436  -0.270  0.00  0.00    -0.196 N 
ATOM      2  C2  IND d   1       1.238   2.372   0.103  0.00  0.00     0.054 A 
ATOM      3  C3  IND d   1       0.013   1.809   0.201  0.00  0.00    -0.031 A 
ATOM      4  C4  IND d   1      -0.687  -0.650  -0.106  0.00  0.00     0.051 A 
ATOM      5  C5  IND d   1      -0.199  -1.869  -0.485  0.00  0.00    -0.031 A 
ATOM      6  C6  IND d   1       1.128  -2.053  -0.815  0.00  0.00     0.015 A 
ATOM      7  C7  IND d   1       2.023  -1.023  -0.768  0.00  0.00    -0.016 A 
ATOM      8  C8  IND d   1       1.531   0.219  -0.391  0.00  0.00    -0.047 A 
ATOM      9  C9  IND d   1       0.176   0.421  -0.095  0.00  0.00    -0.096 A 
ATOM     10  HN1 IND d   1       2.999   1.584  -0.406  0.00  0.00     0.298 HD
ENDROOT
TORSDOF 0
ENDMDL
