MODEL 1
REMARK minimizedAffinity -5.60128117
REMARK minimizedRMSD -1
REMARK  0 active torsions:
REMARK  status: ('A' for Active; 'I' for Inactive)
ROOT
ATOM      1  N1  IND d   1       1.454   1.323  -0.026  0.00  0.00    -0.196 N 
ATOM      2  C2  IND d   1       2.695   0.979   0.434  0.00  0.00     0.054 A 
ATOM      3  C3  IND d   1       2.868  -0.360   0.362  0.00  0.00    -0.031 A 
ATOM      4  C4  IND d   1       1.288  -2.167  -0.569  0.00  0.00     0.051 A 
ATOM      5  C5  IND d   1       0.027  -2.342  -1.066  0.00  0.00    -0.031 A 
ATOM      6  C6  IND d   1      -0.839  -1.283  -1.249  0.00  0.00     0.015 A 
ATOM      7  C7  IND d   1      -0.471  -0.002  -0.950  0.00  0.00    -0.016 A 
ATOM      8  C8  IND d   1       0.806   0.179  -0.438  0.00  0.00    -0.047 A 
ATOM      9  C9  IND d   1       1.674  -0.897  -0.210  0.00  0.00    -0.096 A 
ATOM     10  HN1 IND d   1       1.132   2.120  -0.053  0.00  0.00     0.298 HD
ENDROOT
TORSDOF 0
ENDMDL
