MODEL 1
REMARK minimizedAffinity -5.61616659
REMARK minimizedRMSD -1
REMARK  0 active torsions:
REMARK  status: ('A' for Active; 'I' for Inactive)
ROOT
ATOM      1  N1  IND d   1      -0.041   1.737  -0.135  0.00  0.00    -0.196 N 
ATOM      2  C2  IND d   1      -1.124   1.107  -0.681  0.00  0.00     0.054 A 
ATOM      3  C3  IND d   1      -0.897  -0.222  -0.774  0.00  0.00    -0.031 A 
ATOM      4  C4  IND d   1       1.138  -1.593   0.004  0.00  0.00     0.051 A 
ATOM      5  C5  IND d   1       2.392  -1.456   0.529  0.00  0.00    -0.031 A 
ATOM      6  C6  IND d   1       2.909  -0.222   0.869  0.00  0.00     0.015 A 
ATOM      7  C7  IND d   1       2.183   0.924   0.706  0.00  0.00    -0.016 A 
ATOM      8  C8  IND d   1       0.912   0.789   0.167  0.00  0.00    -0.047 A 
ATOM      9  C9  IND d   1       0.398  -0.456  -0.220  0.00  0.00    -0.096 A 
ATOM     10  HN1 IND d   1       0.034   2.584  -0.002  0.00  0.00     0.298 HD
ENDROOT
TORSDOF 0
ENDMDL
