MODEL 1
REMARK minimizedAffinity 1.72032201
REMARK minimizedRMSD -1
REMARK  2 active torsions:
REMARK  status: ('A' for Active; 'I' for Inactive)
REMARK    1  A    between atoms: C2'_3  and  C1'_4 
REMARK    2  A    between atoms: C1'_4  and  C1_5 
ROOT
ATOM      1  C1  I4B d   1      -0.155   0.482  -1.202  0.00  0.00    -0.075 A 
ATOM      2  C2  I4B d   1       1.127   0.040  -0.989  0.00  0.00     0.003 A 
ATOM      3  C3  I4B d   1       1.572  -0.251   0.323  0.00  0.00     0.002 A 
ATOM      4  C4  I4B d   1       0.724  -0.039   1.391  0.00  0.00    -0.004 A 
ATOM      5  C5  I4B d   1      -0.583   0.386   1.171  0.00  0.00     0.002 A 
ATOM      6  C6  I4B d   1      -1.029   0.637  -0.134  0.00  0.00     0.003 A 
ENDROOT
BRANCH   1   7
ATOM      7  C1' I4B d   1      -0.581   0.812  -2.597  0.00  0.00     0.060 C 
BRANCH   7   8
ATOM      8  C2' I4B d   1       0.388   0.145  -3.552  0.00  0.00    -0.013 C 
ATOM      9  C4' I4B d   1      -0.320  -0.371  -4.776  0.00  0.00     0.013 C 
ATOM     10  C3' I4B d   1       1.442   1.147  -3.917  0.00  0.00     0.013 C 
ENDBRANCH   7   8
ENDBRANCH   1   7
TORSDOF 2
ENDMDL
