MODEL 1
REMARK minimizedAffinity -3.39791226
REMARK minimizedRMSD -1
REMARK  2 active torsions:
REMARK  status: ('A' for Active; 'I' for Inactive)
REMARK    1  A    between atoms: C2'_3  and  C1'_4 
REMARK    2  A    between atoms: C1'_4  and  C1_5 
ROOT
ATOM      1  C1  I4B d   1       0.164  -0.065   0.233  0.00  0.00    -0.075 A 
ATOM      2  C2  I4B d   1      -1.059  -0.492   0.685  0.00  0.00     0.003 A 
ATOM      3  C3  I4B d   1      -1.606   0.043   1.876  0.00  0.00     0.002 A 
ATOM      4  C4  I4B d   1      -0.878   0.961   2.605  0.00  0.00    -0.004 A 
ATOM      5  C5  I4B d   1       0.352   1.410   2.133  0.00  0.00     0.002 A 
ATOM      6  C6  I4B d   1       0.872   0.903   0.933  0.00  0.00     0.003 A 
ENDROOT
BRANCH   1   7
ATOM      7  C1' I4B d   1       0.727  -0.676  -1.011  0.00  0.00     0.060 C 
BRANCH   7   8
ATOM      8  C2' I4B d   1       0.408   0.246  -2.170  0.00  0.00    -0.013 C 
ATOM      9  C4' I4B d   1       1.657   0.635  -2.917  0.00  0.00     0.013 C 
ATOM     10  C3' I4B d   1      -0.564  -0.458  -3.069  0.00  0.00     0.013 C 
ENDBRANCH   7   8
ENDBRANCH   1   7
TORSDOF 2
ENDMDL
