MODEL 1
REMARK minimizedAffinity -4.36294174
REMARK minimizedRMSD -1
REMARK  2 active torsions:
REMARK  status: ('A' for Active; 'I' for Inactive)
REMARK    1  A    between atoms: C2'_3  and  C1'_4 
REMARK    2  A    between atoms: C1'_4  and  C1_5 
ROOT
ATOM      1  C1  I4B d   1       0.409  -0.032  -1.697  0.00  0.00    -0.075 A 
ATOM      2  C2  I4B d   1       1.682   0.307  -2.080  0.00  0.00     0.003 A 
ATOM      3  C3  I4B d   1       1.928   0.790  -3.388  0.00  0.00     0.002 A 
ATOM      4  C4  I4B d   1       0.887   0.868  -4.291  0.00  0.00    -0.004 A 
ATOM      5  C5  I4B d   1      -0.407   0.545  -3.893  0.00  0.00     0.002 A 
ATOM      6  C6  I4B d   1      -0.651   0.104  -2.585  0.00  0.00     0.003 A 
ENDROOT
BRANCH   1   7
ATOM      7  C1' I4B d   1       0.190  -0.569  -0.318  0.00  0.00     0.060 C 
BRANCH   7   8
ATOM      8  C2' I4B d   1      -0.036   0.607   0.611  0.00  0.00    -0.013 C 
ATOM      9  C4' I4B d   1      -1.434   0.599   1.170  0.00  0.00     0.013 C 
ATOM     10  C3' I4B d   1       0.986   0.536   1.706  0.00  0.00     0.013 C 
ENDBRANCH   7   8
ENDBRANCH   1   7
TORSDOF 2
ENDMDL
