MODEL 1
REMARK minimizedAffinity 0.0202502906
REMARK minimizedRMSD -1
REMARK  2 active torsions:
REMARK  status: ('A' for Active; 'I' for Inactive)
REMARK    1  A    between atoms: C2'_3  and  C1'_4 
REMARK    2  A    between atoms: C1'_4  and  C1_5 
ROOT
ATOM      1  C1  I4B d   1       0.315  -0.048  -1.890  0.00  0.00    -0.075 A 
ATOM      2  C2  I4B d   1       1.639   0.258  -2.086  0.00  0.00     0.003 A 
ATOM      3  C3  I4B d   1       2.108   0.599  -3.377  0.00  0.00     0.002 A 
ATOM      4  C4  I4B d   1       1.236   0.574  -4.446  0.00  0.00    -0.004 A 
ATOM      5  C5  I4B d   1      -0.110   0.287  -4.242  0.00  0.00     0.002 A 
ATOM      6  C6  I4B d   1      -0.577  -0.014  -2.955  0.00  0.00     0.003 A 
ENDROOT
BRANCH   1   7
ATOM      7  C1' I4B d   1      -0.141  -0.436  -0.520  0.00  0.00     0.060 C 
BRANCH   7   8
ATOM      8  C2' I4B d   1       0.552   0.470   0.477  0.00  0.00    -0.013 C 
ATOM      9  C4' I4B d   1      -0.431   1.054   1.458  0.00  0.00     0.013 C 
ATOM     10  C3' I4B d   1       1.605  -0.333   1.180  0.00  0.00     0.013 C 
ENDBRANCH   7   8
ENDBRANCH   1   7
TORSDOF 2
ENDMDL
