MODEL 1
REMARK minimizedAffinity -4.35095406
REMARK minimizedRMSD -1
REMARK  2 active torsions:
REMARK  status: ('A' for Active; 'I' for Inactive)
REMARK    1  A    between atoms: C2'_3  and  C1'_4 
REMARK    2  A    between atoms: C1'_4  and  C1_5 
ROOT
ATOM      1  C1  I4B d   1       0.021  -0.819  -3.055  0.00  0.00    -0.075 A 
ATOM      2  C2  I4B d   1      -0.988  -1.173  -3.916  0.00  0.00     0.003 A 
ATOM      3  C3  I4B d   1      -1.016  -0.655  -5.233  0.00  0.00     0.002 A 
ATOM      4  C4  I4B d   1      -0.050   0.247  -5.629  0.00  0.00    -0.004 A 
ATOM      5  C5  I4B d   1       0.985   0.587  -4.763  0.00  0.00     0.002 A 
ATOM      6  C6  I4B d   1       1.028   0.042  -3.472  0.00  0.00     0.003 A 
ENDROOT
BRANCH   1   7
ATOM      7  C1' I4B d   1       0.002  -1.359  -1.660  0.00  0.00     0.060 C 
BRANCH   7   8
ATOM      8  C2' I4B d   1       0.601  -0.311  -0.746  0.00  0.00    -0.013 C 
ATOM      9  C4' I4B d   1      -0.430   0.238   0.204  0.00  0.00     0.013 C 
ATOM     10  C3' I4B d   1       1.741  -0.942  -0.002  0.00  0.00     0.013 C 
ENDBRANCH   7   8
ENDBRANCH   1   7
TORSDOF 2
ENDMDL
