MODEL 1
REMARK minimizedAffinity 12.7607899
REMARK minimizedRMSD -1
REMARK  1 active torsions:
REMARK  status: ('A' for Active; 'I' for Inactive)
REMARK    1  A    between atoms: C3_4  and  O_7 
ROOT
ATOM      1  C   UNL d   1       5.921   4.881   4.511  0.00  0.00    -0.033 A 
ATOM      2  C1  UNL d   1       5.971   5.999   3.676  0.00  0.00     0.039 A 
ATOM      3  C2  UNL d   1       5.279   5.999   2.463  0.00  0.00    -0.080 A 
ATOM      4  C3  UNL d   1       4.543   4.876   2.098  0.00  0.00     0.150 A 
ATOM      5  C4  UNL d   1       4.486   3.760   2.926  0.00  0.00    -0.007 A 
ATOM      6  C5  UNL d   1       5.177   3.762   4.136  0.00  0.00     0.039 A 
ENDROOT
BRANCH   4   7
ATOM      7  O   UNL d   1       3.855   4.827   0.921  0.00  0.00    -0.526 OA
ATOM      8  H5  UNL d   1       4.010   5.656   0.440  0.00  0.00     0.418 HD
ENDBRANCH   4   7
TORSDOF 1
ENDMDL
