MODEL 1
REMARK minimizedAffinity 5.13513422
REMARK minimizedRMSD -1
REMARK  1 active torsions:
REMARK  status: ('A' for Active; 'I' for Inactive)
REMARK    1  A    between atoms: C3_4  and  O_7 
ROOT
ATOM      1  C   UNL d   1       3.556   4.121   1.122  0.00  0.00    -0.033 A 
ATOM      2  C1  UNL d   1       3.694   2.732   1.079  0.00  0.00     0.039 A 
ATOM      3  C2  UNL d   1       4.003   2.023   2.241  0.00  0.00    -0.080 A 
ATOM      4  C3  UNL d   1       4.171   2.713   3.438  0.00  0.00     0.150 A 
ATOM      5  C4  UNL d   1       4.031   4.096   3.489  0.00  0.00    -0.007 A 
ATOM      6  C5  UNL d   1       3.723   4.803   2.328  0.00  0.00     0.039 A 
ENDROOT
BRANCH   4   7
ATOM      7  O   UNL d   1       4.478   2.065   4.597  0.00  0.00    -0.526 OA
ATOM      8  H5  UNL d   1       4.571   1.117   4.404  0.00  0.00     0.418 HD
ENDBRANCH   4   7
TORSDOF 1
ENDMDL
