MODEL 1
REMARK minimizedAffinity 10.416646
REMARK minimizedRMSD -1
REMARK  1 active torsions:
REMARK  status: ('A' for Active; 'I' for Inactive)
REMARK    1  A    between atoms: C3_4  and  O_7 
ROOT
ATOM      1  C   UNL d   1       1.428  -0.365  -4.876  0.00  0.00    -0.033 A 
ATOM      2  C1  UNL d   1       2.506  -1.168  -4.499  0.00  0.00     0.039 A 
ATOM      3  C2  UNL d   1       2.539  -2.514  -4.869  0.00  0.00    -0.080 A 
ATOM      4  C3  UNL d   1       1.491  -3.043  -5.617  0.00  0.00     0.150 A 
ATOM      5  C4  UNL d   1       0.416  -2.248  -6.000  0.00  0.00    -0.007 A 
ATOM      6  C5  UNL d   1       0.384  -0.904  -5.628  0.00  0.00     0.039 A 
ENDROOT
BRANCH   4   7
ATOM      7  O   UNL d   1       1.477  -4.352  -5.998  0.00  0.00    -0.526 OA
ATOM      8  H5  UNL d   1       2.269  -4.786  -5.638  0.00  0.00     0.418 HD
ENDBRANCH   4   7
TORSDOF 1
ENDMDL
