MODEL 1
REMARK minimizedAffinity 11.2636271
REMARK minimizedRMSD -1
REMARK  1 active torsions:
REMARK  status: ('A' for Active; 'I' for Inactive)
REMARK    1  A    between atoms: C3_4  and  O_7 
ROOT
ATOM      1  C   UNL d   1       1.341  -2.782  -6.000  0.00  0.00    -0.033 A 
ATOM      2  C1  UNL d   1       0.216  -1.981  -5.797  0.00  0.00     0.039 A 
ATOM      3  C2  UNL d   1       0.309  -0.831  -5.010  0.00  0.00    -0.080 A 
ATOM      4  C3  UNL d   1       1.530  -0.494  -4.433  0.00  0.00     0.150 A 
ATOM      5  C4  UNL d   1       2.656  -1.286  -4.635  0.00  0.00    -0.007 A 
ATOM      6  C5  UNL d   1       2.561  -2.434  -5.420  0.00  0.00     0.039 A 
ENDROOT
BRANCH   4   7
ATOM      7  O   UNL d   1       1.668   0.615  -3.654  0.00  0.00    -0.526 OA
ATOM      8  H5  UNL d   1       0.802   1.049  -3.579  0.00  0.00     0.418 HD
ENDBRANCH   4   7
TORSDOF 1
ENDMDL
