MODEL 1
REMARK minimizedAffinity 2.48348713
REMARK minimizedRMSD -1
REMARK  1 active torsions:
REMARK  status: ('A' for Active; 'I' for Inactive)
REMARK    1  A    between atoms: C3_4  and  O_7 
ROOT
ATOM      1  C   UNL d   1       4.435   5.986   2.116  0.00  0.00    -0.033 A 
ATOM      2  C1  UNL d   1       4.070   4.779   1.517  0.00  0.00     0.039 A 
ATOM      3  C2  UNL d   1       4.194   3.581   2.225  0.00  0.00    -0.080 A 
ATOM      4  C3  UNL d   1       4.682   3.605   3.528  0.00  0.00     0.150 A 
ATOM      5  C4  UNL d   1       5.043   4.805   4.133  0.00  0.00    -0.007 A 
ATOM      6  C5  UNL d   1       4.920   5.999   3.424  0.00  0.00     0.039 A 
ENDROOT
BRANCH   4   7
ATOM      7  O   UNL d   1       4.824   2.462   4.257  0.00  0.00    -0.526 OA
ATOM      8  H5  UNL d   1       4.563   1.708   3.701  0.00  0.00     0.418 HD
ENDBRANCH   4   7
TORSDOF 1
ENDMDL
