MODEL 1
REMARK minimizedAffinity 4.87234354
REMARK minimizedRMSD -1
REMARK  1 active torsions:
REMARK  status: ('A' for Active; 'I' for Inactive)
REMARK    1  A    between atoms: C3_4  and  O_7 
ROOT
ATOM      1  C   UNL d   1       3.823   2.005   4.719  0.00  0.00    -0.033 A 
ATOM      2  C1  UNL d   1       3.685   3.394   4.686  0.00  0.00     0.039 A 
ATOM      3  C2  UNL d   1       3.774   4.078   3.472  0.00  0.00    -0.080 A 
ATOM      4  C3  UNL d   1       4.000   3.362   2.300  0.00  0.00     0.150 A 
ATOM      5  C4  UNL d   1       4.134   1.978   2.324  0.00  0.00    -0.007 A 
ATOM      6  C5  UNL d   1       4.046   1.297   3.538  0.00  0.00     0.039 A 
ENDROOT
BRANCH   4   7
ATOM      7  O   UNL d   1       4.099   3.986   1.092  0.00  0.00    -0.526 OA
ATOM      8  H5  UNL d   1       4.014   4.944   1.233  0.00  0.00     0.418 HD
ENDBRANCH   4   7
TORSDOF 1
ENDMDL
