MODEL 1
REMARK minimizedAffinity 4.66623306
REMARK minimizedRMSD -1
REMARK  1 active torsions:
REMARK  status: ('A' for Active; 'I' for Inactive)
REMARK    1  A    between atoms: C3_4  and  O_7 
ROOT
ATOM      1  C   UNL d   1       3.849   6.000   4.858  0.00  0.00    -0.033 A 
ATOM      2  C1  UNL d   1       4.896   5.626   4.014  0.00  0.00     0.039 A 
ATOM      3  C2  UNL d   1       5.427   4.336   4.086  0.00  0.00    -0.080 A 
ATOM      4  C3  UNL d   1       4.903   3.432   5.006  0.00  0.00     0.150 A 
ATOM      5  C4  UNL d   1       3.858   3.797   5.848  0.00  0.00    -0.007 A 
ATOM      6  C5  UNL d   1       3.329   5.085   5.775  0.00  0.00     0.039 A 
ENDROOT
BRANCH   4   7
ATOM      7  O   UNL d   1       5.392   2.165   5.117  0.00  0.00    -0.526 OA
ATOM      8  H5  UNL d   1       6.130   2.064   4.493  0.00  0.00     0.418 HD
ENDBRANCH   4   7
TORSDOF 1
ENDMDL
