MODEL 1
REMARK minimizedAffinity 3.25040555
REMARK minimizedRMSD -1
REMARK  1 active torsions:
REMARK  status: ('A' for Active; 'I' for Inactive)
REMARK    1  A    between atoms: C3_4  and  O_7 
ROOT
ATOM      1  C   UNL d   1      -0.017   1.380   3.219  0.00  0.00    -0.033 A 
ATOM      2  C1  UNL d   1      -0.318   0.267   2.432  0.00  0.00     0.039 A 
ATOM      3  C2  UNL d   1       0.199  -0.987   2.766  0.00  0.00    -0.080 A 
ATOM      4  C3  UNL d   1       1.013  -1.113   3.887  0.00  0.00     0.150 A 
ATOM      5  C4  UNL d   1       1.315  -0.009   4.678  0.00  0.00    -0.007 A 
ATOM      6  C5  UNL d   1       0.798   1.242   4.342  0.00  0.00     0.039 A 
ENDROOT
BRANCH   4   7
ATOM      7  O   UNL d   1       1.545  -2.315   4.250  0.00  0.00    -0.526 OA
ATOM      8  H5  UNL d   1       1.275  -2.981   3.596  0.00  0.00     0.418 HD
ENDBRANCH   4   7
TORSDOF 1
ENDMDL
