MODEL 1
REMARK minimizedAffinity 1.54323566
REMARK minimizedRMSD -1
REMARK  1 active torsions:
REMARK  status: ('A' for Active; 'I' for Inactive)
REMARK    1  A    between atoms: C3_4  and  O_7 
ROOT
ATOM      1  C   UNL d   1       0.335   1.056   3.104  0.00  0.00    -0.033 A 
ATOM      2  C1  UNL d   1      -0.335   0.033   2.431  0.00  0.00     0.039 A 
ATOM      3  C2  UNL d   1      -0.026  -1.302   2.699  0.00  0.00    -0.080 A 
ATOM      4  C3  UNL d   1       0.954  -1.599   3.643  0.00  0.00     0.150 A 
ATOM      5  C4  UNL d   1       1.622  -0.585   4.321  0.00  0.00    -0.007 A 
ATOM      6  C5  UNL d   1       1.312   0.747   4.050  0.00  0.00     0.039 A 
ENDROOT
BRANCH   4   7
ATOM      7  O   UNL d   1       1.294  -2.887   3.935  0.00  0.00    -0.526 OA
ATOM      8  H5  UNL d   1       0.770  -3.479   3.370  0.00  0.00     0.418 HD
ENDBRANCH   4   7
TORSDOF 1
ENDMDL
