MODEL 1
REMARK minimizedAffinity 11.1223946
REMARK minimizedRMSD -1
REMARK  1 active torsions:
REMARK  status: ('A' for Active; 'I' for Inactive)
REMARK    1  A    between atoms: C3_4  and  O_7 
ROOT
ATOM      1  C   UNL d   1      -0.026   0.608   2.252  0.00  0.00    -0.033 A 
ATOM      2  C1  UNL d   1       0.996   0.666   3.201  0.00  0.00     0.039 A 
ATOM      3  C2  UNL d   1       1.493  -0.509   3.767  0.00  0.00    -0.080 A 
ATOM      4  C3  UNL d   1       0.962  -1.735   3.375  0.00  0.00     0.150 A 
ATOM      5  C4  UNL d   1      -0.054  -1.801   2.426  0.00  0.00    -0.007 A 
ATOM      6  C5  UNL d   1      -0.550  -0.626   1.863  0.00  0.00     0.039 A 
ENDROOT
BRANCH   4   7
ATOM      7  O   UNL d   1       1.411  -2.909   3.903  0.00  0.00    -0.526 OA
ATOM      8  H5  UNL d   1       2.093  -2.707   4.565  0.00  0.00     0.418 HD
ENDBRANCH   4   7
TORSDOF 1
ENDMDL
