MODEL 1
REMARK minimizedAffinity -2.83033586
REMARK minimizedRMSD -1
REMARK  2 active torsions:
REMARK  status: ('A' for Active; 'I' for Inactive)
REMARK    1  A    between atoms: C2'_3  and  C1'_4 
REMARK    2  A    between atoms: C1'_4  and  C1_5 
ROOT
ATOM      1  C1  I4B d   1      -0.284   1.231  -2.325  0.00  0.00    -0.075 A 
ATOM      2  C2  I4B d   1      -1.566   1.470  -2.752  0.00  0.00     0.003 A 
ATOM      3  C3  I4B d   1      -1.940   2.761  -3.196  0.00  0.00     0.002 A 
ATOM      4  C4  I4B d   1      -1.020   3.789  -3.150  0.00  0.00    -0.004 A 
ATOM      5  C5  I4B d   1       0.286   3.539  -2.738  0.00  0.00     0.002 A 
ATOM      6  C6  I4B d   1       0.660   2.250  -2.334  0.00  0.00     0.003 A 
ENDROOT
BRANCH   1   7
ATOM      7  C1' I4B d   1       0.068  -0.137  -1.831  0.00  0.00     0.060 C 
BRANCH   7   8
ATOM      8  C2' I4B d   1       0.358  -0.037  -0.347  0.00  0.00    -0.013 C 
ATOM      9  C4' I4B d   1      -0.851  -0.411   0.471  0.00  0.00     0.013 C 
ATOM     10  C3' I4B d   1       1.518  -0.936  -0.040  0.00  0.00     0.013 C 
ENDBRANCH   7   8
ENDBRANCH   1   7
TORSDOF 2
ENDMDL
