MODEL 1
REMARK minimizedAffinity -4.91891527
REMARK minimizedRMSD -1
REMARK  2 active torsions:
REMARK  status: ('A' for Active; 'I' for Inactive)
REMARK    1  A    between atoms: C2'_3  and  C1'_4 
REMARK    2  A    between atoms: C1'_4  and  C1_5 
ROOT
ATOM      1  C1  I4B d   1      -0.775   0.994  -1.235  0.00  0.00    -0.075 A 
ATOM      2  C2  I4B d   1      -0.239   2.242  -1.033  0.00  0.00     0.003 A 
ATOM      3  C3  I4B d   1      -0.641   3.330  -1.844  0.00  0.00     0.002 A 
ATOM      4  C4  I4B d   1      -1.537   3.117  -2.872  0.00  0.00    -0.004 A 
ATOM      5  C5  I4B d   1      -2.096   1.857  -3.061  0.00  0.00     0.002 A 
ATOM      6  C6  I4B d   1      -1.722   0.791  -2.230  0.00  0.00     0.003 A 
ENDROOT
BRANCH   1   7
ATOM      7  C1' I4B d   1      -0.303  -0.140  -0.381  0.00  0.00     0.060 C 
BRANCH   7   8
ATOM      8  C2' I4B d   1       0.431   0.445   0.808  0.00  0.00    -0.013 C 
ATOM      9  C4' I4B d   1      -0.311   0.177   2.092  0.00  0.00     0.013 C 
ATOM     10  C3' I4B d   1       1.806  -0.150   0.843  0.00  0.00     0.013 C 
ENDBRANCH   7   8
ENDBRANCH   1   7
TORSDOF 2
ENDMDL
