MODEL 1
REMARK minimizedAffinity -4.29149055
REMARK minimizedRMSD -1
REMARK  2 active torsions:
REMARK  status: ('A' for Active; 'I' for Inactive)
REMARK    1  A    between atoms: C2'_3  and  C1'_4 
REMARK    2  A    between atoms: C1'_4  and  C1_5 
ROOT
ATOM      1  C1  I4B d   1      -0.095  -0.146  -0.129  0.00  0.00    -0.075 A 
ATOM      2  C2  I4B d   1       1.045  -0.796   0.275  0.00  0.00     0.003 A 
ATOM      3  C3  I4B d   1       1.223  -1.141   1.637  0.00  0.00     0.002 A 
ATOM      4  C4  I4B d   1       0.266  -0.775   2.562  0.00  0.00    -0.004 A 
ATOM      5  C5  I4B d   1      -0.899  -0.136   2.146  0.00  0.00     0.002 A 
ATOM      6  C6  I4B d   1      -1.086   0.169   0.790  0.00  0.00     0.003 A 
ENDROOT
BRANCH   1   7
ATOM      7  C1' I4B d   1      -0.235   0.232  -1.570  0.00  0.00     0.060 C 
BRANCH   7   8
ATOM      8  C2' I4B d   1      -0.829   1.625  -1.631  0.00  0.00    -0.013 C 
ATOM      9  C4' I4B d   1       0.198   2.637  -2.065  0.00  0.00     0.013 C 
ATOM     10  C3' I4B d   1      -1.991   1.592  -2.578  0.00  0.00     0.013 C 
ENDBRANCH   7   8
ENDBRANCH   1   7
TORSDOF 2
ENDMDL
