MODEL 1
REMARK minimizedAffinity -4.36931229
REMARK minimizedRMSD -1
REMARK  2 active torsions:
REMARK  status: ('A' for Active; 'I' for Inactive)
REMARK    1  A    between atoms: C2'_3  and  C1'_4 
REMARK    2  A    between atoms: C1'_4  and  C1_5 
ROOT
ATOM      1  C1  I4B d   1       0.246   0.011   0.848  0.00  0.00    -0.075 A 
ATOM      2  C2  I4B d   1       1.490   0.359   1.313  0.00  0.00     0.003 A 
ATOM      3  C3  I4B d   1       2.059  -0.330   2.412  0.00  0.00     0.002 A 
ATOM      4  C4  I4B d   1       1.333  -1.319   3.044  0.00  0.00    -0.004 A 
ATOM      5  C5  I4B d   1       0.081  -1.685   2.557  0.00  0.00     0.002 A 
ATOM      6  C6  I4B d   1      -0.461  -1.025   1.445  0.00  0.00     0.003 A 
ENDROOT
BRANCH   1   7
ATOM      7  C1' I4B d   1      -0.338   0.781  -0.293  0.00  0.00     0.060 C 
BRANCH   7   8
ATOM      8  C2' I4B d   1      -0.708  -0.206  -1.381  0.00  0.00    -0.013 C 
ATOM      9  C4' I4B d   1      -1.618   0.424  -2.402  0.00  0.00     0.013 C 
ATOM     10  C3' I4B d   1       0.560  -0.695  -2.014  0.00  0.00     0.013 C 
ENDBRANCH   7   8
ENDBRANCH   1   7
TORSDOF 2
ENDMDL
