MODEL 1
REMARK minimizedAffinity 20.1603775
REMARK minimizedRMSD -1
REMARK  1 active torsions:
REMARK  status: ('A' for Active; 'I' for Inactive)
REMARK    1  A    between atoms: C1_2  and  C2_3 
ROOT
ATOM      1  C2  UNL d   1       5.396  -1.320   4.704  0.00  0.00    -0.077 A 
ATOM      2  C3  UNL d   1       5.975  -0.195   4.101  0.00  0.00     0.002 A 
ATOM      3  C4  UNL d   1       5.409   0.361   2.952  0.00  0.00     0.002 A 
ATOM      4  C5  UNL d   1       4.259  -0.200   2.399  0.00  0.00    -0.004 A 
ATOM      5  C6  UNL d   1       3.677  -1.320   2.989  0.00  0.00     0.002 A 
ATOM      6  C7  UNL d   1       4.242  -1.878   4.137  0.00  0.00     0.002 A 
ENDROOT
BRANCH   1   7
ATOM      7  C1  UNL d   1       5.976  -1.891   5.971  0.00  0.00     0.055 C 
ATOM      8  C   UNL d   1       5.996  -3.413   5.935  0.00  0.00     0.019 C 
ENDBRANCH   1   7
TORSDOF 1
ENDMDL
