MODEL 1
REMARK minimizedAffinity 11.20959
REMARK minimizedRMSD -1
REMARK  1 active torsions:
REMARK  status: ('A' for Active; 'I' for Inactive)
REMARK    1  A    between atoms: C1_2  and  C2_3 
ROOT
ATOM      1  C2  UNL d   1       1.450  -0.009  -2.053  0.00  0.00    -0.077 A 
ATOM      2  C3  UNL d   1       0.831  -1.142  -2.599  0.00  0.00     0.002 A 
ATOM      3  C4  UNL d   1       1.316  -2.420  -2.312  0.00  0.00     0.002 A 
ATOM      4  C5  UNL d   1       2.419  -2.576  -1.476  0.00  0.00    -0.004 A 
ATOM      5  C6  UNL d   1       3.043  -1.455  -0.929  0.00  0.00     0.002 A 
ATOM      6  C7  UNL d   1       2.560  -0.178  -1.216  0.00  0.00     0.002 A 
ENDROOT
BRANCH   1   7
ATOM      7  C1  UNL d   1       0.898   1.367  -2.322  0.00  0.00     0.055 C 
ATOM      8  C   UNL d   1       1.338   2.358  -1.254  0.00  0.00     0.019 C 
ENDBRANCH   1   7
TORSDOF 1
ENDMDL
