MODEL 1
REMARK minimizedAffinity 17.759306
REMARK minimizedRMSD -1
REMARK  1 active torsions:
REMARK  status: ('A' for Active; 'I' for Inactive)
REMARK    1  A    between atoms: C1_2  and  C2_3 
ROOT
ATOM      1  C2  UNL d   1      -1.173  -1.096  -0.912  0.00  0.00    -0.077 A 
ATOM      2  C3  UNL d   1      -0.632  -2.245  -1.506  0.00  0.00     0.002 A 
ATOM      3  C4  UNL d   1       0.676  -2.238  -1.994  0.00  0.00     0.002 A 
ATOM      4  C5  UNL d   1       1.454  -1.087  -1.890  0.00  0.00    -0.004 A 
ATOM      5  C6  UNL d   1       0.925   0.061  -1.303  0.00  0.00     0.002 A 
ATOM      6  C7  UNL d   1      -0.383   0.056  -0.815  0.00  0.00     0.002 A 
ENDROOT
BRANCH   1   7
ATOM      7  C1  UNL d   1      -2.567  -1.117  -0.340  0.00  0.00     0.055 C 
ATOM      8  C   UNL d   1      -2.544  -1.010   1.178  0.00  0.00     0.019 C 
ENDBRANCH   1   7
TORSDOF 1
ENDMDL
