MODEL 1
REMARK minimizedAffinity 14.6462822
REMARK minimizedRMSD -1
REMARK  1 active torsions:
REMARK  status: ('A' for Active; 'I' for Inactive)
REMARK    1  A    between atoms: C1_2  and  C2_3 
ROOT
ATOM      1  C2  UNL d   1       3.506   0.998  -2.649  0.00  0.00    -0.077 A 
ATOM      2  C3  UNL d   1       3.422  -0.113  -1.798  0.00  0.00     0.002 A 
ATOM      3  C4  UNL d   1       2.192  -0.500  -1.261  0.00  0.00     0.002 A 
ATOM      4  C5  UNL d   1       1.038   0.215  -1.573  0.00  0.00    -0.004 A 
ATOM      5  C6  UNL d   1       1.111   1.322  -2.417  0.00  0.00     0.002 A 
ATOM      6  C7  UNL d   1       2.340   1.711  -2.954  0.00  0.00     0.002 A 
ENDROOT
BRANCH   1   7
ATOM      7  C1  UNL d   1       4.823   1.387  -3.268  0.00  0.00     0.055 C 
ATOM      8  C   UNL d   1       5.967   0.558  -2.703  0.00  0.00     0.019 C 
ENDBRANCH   1   7
TORSDOF 1
ENDMDL
