MODEL 1
REMARK minimizedAffinity 14.1032944
REMARK minimizedRMSD -1
REMARK  1 active torsions:
REMARK  status: ('A' for Active; 'I' for Inactive)
REMARK    1  A    between atoms: C1_2  and  C2_3 
ROOT
ATOM      1  C2  UNL d   1       4.121   4.374   1.070  0.00  0.00    -0.077 A 
ATOM      2  C3  UNL d   1       2.734   4.281   0.887  0.00  0.00     0.002 A 
ATOM      3  C4  UNL d   1       2.158   4.634  -0.335  0.00  0.00     0.002 A 
ATOM      4  C5  UNL d   1       2.960   5.079  -1.383  0.00  0.00    -0.004 A 
ATOM      5  C6  UNL d   1       4.340   5.177  -1.210  0.00  0.00     0.002 A 
ATOM      6  C7  UNL d   1       4.918   4.825   0.010  0.00  0.00     0.002 A 
ENDROOT
BRANCH   1   7
ATOM      7  C1  UNL d   1       4.750   3.946   2.370  0.00  0.00     0.055 C 
ATOM      8  C   UNL d   1       5.120   5.147   3.228  0.00  0.00     0.019 C 
ENDBRANCH   1   7
TORSDOF 1
ENDMDL
