MODEL 1
REMARK minimizedAffinity 5.27035236
REMARK minimizedRMSD -1
REMARK  1 active torsions:
REMARK  status: ('A' for Active; 'I' for Inactive)
REMARK    1  A    between atoms: C1_2  and  C2_3 
ROOT
ATOM      1  C2  UNL d   1       3.718   4.870   0.962  0.00  0.00    -0.077 A 
ATOM      2  C3  UNL d   1       4.308   4.571  -0.274  0.00  0.00     0.002 A 
ATOM      3  C4  UNL d   1       3.703   4.982  -1.463  0.00  0.00     0.002 A 
ATOM      4  C5  UNL d   1       2.508   5.697  -1.428  0.00  0.00    -0.004 A 
ATOM      5  C6  UNL d   1       1.912   5.998  -0.204  0.00  0.00     0.002 A 
ATOM      6  C7  UNL d   1       2.514   5.587   0.986  0.00  0.00     0.002 A 
ENDROOT
BRANCH   1   7
ATOM      7  C1  UNL d   1       4.394   4.470   2.247  0.00  0.00     0.055 C 
ATOM      8  C   UNL d   1       5.044   5.667   2.926  0.00  0.00     0.019 C 
ENDBRANCH   1   7
TORSDOF 1
ENDMDL
