MODEL 1
REMARK minimizedAffinity 16.6657009
REMARK minimizedRMSD -1
REMARK  1 active torsions:
REMARK  status: ('A' for Active; 'I' for Inactive)
REMARK    1  A    between atoms: C1_2  and  C2_3 
ROOT
ATOM      1  C2  UNL d   1      -3.460   4.982   5.316  0.00  0.00    -0.077 A 
ATOM      2  C3  UNL d   1      -4.422   5.775   5.958  0.00  0.00     0.002 A 
ATOM      3  C4  UNL d   1      -5.685   5.950   5.390  0.00  0.00     0.002 A 
ATOM      4  C5  UNL d   1      -6.000   5.332   4.182  0.00  0.00    -0.004 A 
ATOM      5  C6  UNL d   1      -5.049   4.543   3.535  0.00  0.00     0.002 A 
ATOM      6  C7  UNL d   1      -3.785   4.368   4.100  0.00  0.00     0.002 A 
ENDROOT
BRANCH   1   7
ATOM      7  C1  UNL d   1      -2.113   4.752   5.951  0.00  0.00     0.055 C 
ATOM      8  C   UNL d   1      -1.243   5.997   5.871  0.00  0.00     0.019 C 
ENDBRANCH   1   7
TORSDOF 1
ENDMDL
