MODEL 1
REMARK minimizedAffinity 19.7729988
REMARK minimizedRMSD -1
REMARK  1 active torsions:
REMARK  status: ('A' for Active; 'I' for Inactive)
REMARK    1  A    between atoms: C1_2  and  C2_3 
ROOT
ATOM      1  C2  UNL d   1       0.770  -1.270  -2.270  0.00  0.00    -0.077 A 
ATOM      2  C3  UNL d   1       0.391   0.049  -2.561  0.00  0.00     0.002 A 
ATOM      3  C4  UNL d   1       1.145   1.122  -2.082  0.00  0.00     0.002 A 
ATOM      4  C5  UNL d   1       2.284   0.888  -1.315  0.00  0.00    -0.004 A 
ATOM      5  C6  UNL d   1       2.668  -0.419  -1.018  0.00  0.00     0.002 A 
ATOM      6  C7  UNL d   1       1.915  -1.493  -1.495  0.00  0.00     0.002 A 
ENDROOT
BRANCH   1   7
ATOM      7  C1  UNL d   1      -0.014  -2.429  -2.827  0.00  0.00     0.055 C 
ATOM      8  C   UNL d   1      -1.044  -2.932  -1.826  0.00  0.00     0.019 C 
ENDBRANCH   1   7
TORSDOF 1
ENDMDL
