MODEL 1
REMARK minimizedAffinity -1.10305738
REMARK minimizedRMSD -1
REMARK  1 active torsions:
REMARK  status: ('A' for Active; 'I' for Inactive)
REMARK    1  A    between atoms: C1_2  and  C2_3 
ROOT
ATOM      1  C2  UNL d   1       5.207  -3.737   5.257  0.00  0.00    -0.077 A 
ATOM      2  C3  UNL d   1       6.000  -2.641   5.627  0.00  0.00     0.002 A 
ATOM      3  C4  UNL d   1       5.642  -1.348   5.242  0.00  0.00     0.002 A 
ATOM      4  C5  UNL d   1       4.489  -1.138   4.488  0.00  0.00    -0.004 A 
ATOM      5  C6  UNL d   1       3.695  -2.222   4.113  0.00  0.00     0.002 A 
ATOM      6  C7  UNL d   1       4.052  -3.515   4.497  0.00  0.00     0.002 A 
ENDROOT
BRANCH   1   7
ATOM      7  C1  UNL d   1       5.565  -5.127   5.714  0.00  0.00     0.055 C 
ATOM      8  C   UNL d   1       6.000  -5.999   4.545  0.00  0.00     0.019 C 
ENDBRANCH   1   7
TORSDOF 1
ENDMDL
