MODEL 1
REMARK minimizedAffinity 11.8875217
REMARK minimizedRMSD -1
REMARK  1 active torsions:
REMARK  status: ('A' for Active; 'I' for Inactive)
REMARK    1  A    between atoms: C1_2  and  C2_3 
ROOT
ATOM      1  C2  UNL d   1       5.223  -2.431   5.259  0.00  0.00    -0.077 A 
ATOM      2  C3  UNL d   1       4.166  -2.376   4.340  0.00  0.00     0.002 A 
ATOM      3  C4  UNL d   1       3.885  -1.191   3.657  0.00  0.00     0.002 A 
ATOM      4  C5  UNL d   1       4.659  -0.054   3.882  0.00  0.00    -0.004 A 
ATOM      5  C6  UNL d   1       5.711  -0.098   4.796  0.00  0.00     0.002 A 
ATOM      6  C7  UNL d   1       5.993  -1.281   5.481  0.00  0.00     0.002 A 
ENDROOT
BRANCH   1   7
ATOM      7  C1  UNL d   1       5.559  -3.721   5.960  0.00  0.00     0.055 C 
ATOM      8  C   UNL d   1       4.725  -4.875   5.424  0.00  0.00     0.019 C 
ENDBRANCH   1   7
TORSDOF 1
ENDMDL
