MODEL 1
REMARK minimizedAffinity 0.32270506
REMARK minimizedRMSD -1
REMARK  1 active torsions:
REMARK  status: ('A' for Active; 'I' for Inactive)
REMARK    1  A    between atoms: C1_2  and  C2_3 
ROOT
ATOM      1  C2  UNL d   1      -1.765   0.384  -0.757  0.00  0.00    -0.077 A 
ATOM      2  C3  UNL d   1      -1.470   1.752  -0.833  0.00  0.00     0.002 A 
ATOM      3  C4  UNL d   1      -0.313   2.190  -1.481  0.00  0.00     0.002 A 
ATOM      4  C5  UNL d   1       0.555   1.268  -2.061  0.00  0.00    -0.004 A 
ATOM      5  C6  UNL d   1       0.271  -0.096  -1.989  0.00  0.00     0.002 A 
ATOM      6  C7  UNL d   1      -0.884  -0.536  -1.341  0.00  0.00     0.002 A 
ENDROOT
BRANCH   1   7
ATOM      7  C1  UNL d   1      -3.036  -0.088  -0.102  0.00  0.00     0.055 C 
ATOM      8  C   UNL d   1      -4.250   0.213  -0.968  0.00  0.00     0.019 C 
ENDBRANCH   1   7
TORSDOF 1
ENDMDL
