MODEL 1
REMARK minimizedAffinity -5.28893232
REMARK minimizedRMSD -1
REMARK  2 active torsions:
REMARK  status: ('A' for Active; 'I' for Inactive)
REMARK    1  A    between atoms: C1_2  and  C2_3 
REMARK    2  A    between atoms: C2_3  and  C3_4 
ROOT
ATOM      1  C3  UNL d   1       0.492   0.080   0.362  0.00  0.00    -0.075 A 
ATOM      2  C4  UNL d   1       0.194  -1.124   1.017  0.00  0.00     0.002 A 
ATOM      3  C5  UNL d   1       1.172  -1.789   1.757  0.00  0.00     0.002 A 
ATOM      4  C6  UNL d   1       2.460  -1.266   1.843  0.00  0.00    -0.004 A 
ATOM      5  C7  UNL d   1       2.772  -0.079   1.182  0.00  0.00     0.002 A 
ATOM      6  C8  UNL d   1       1.794   0.591   0.445  0.00  0.00     0.002 A 
ENDROOT
BRANCH   1   7
ATOM      7  C2  UNL d   1      -0.570   0.820  -0.416  0.00  0.00     0.056 C 
BRANCH   7   8
ATOM      8  C1  UNL d   1      -1.924   0.103  -0.461  0.00  0.00     0.007 C 
ATOM      9  C   UNL d   1      -2.632   0.242  -1.802  0.00  0.00     0.009 C 
ENDBRANCH   7   8
ENDBRANCH   1   7
TORSDOF 2
ENDMDL
