MODEL 1
REMARK minimizedAffinity -4.02758694
REMARK minimizedRMSD -1
REMARK  2 active torsions:
REMARK  status: ('A' for Active; 'I' for Inactive)
REMARK    1  A    between atoms: C1_2  and  C2_3 
REMARK    2  A    between atoms: C2_3  and  C3_4 
ROOT
ATOM      1  C3  UNL d   1      -0.013   0.161   0.047  0.00  0.00    -0.075 A 
ATOM      2  C4  UNL d   1       0.723   1.253   0.529  0.00  0.00     0.002 A 
ATOM      3  C5  UNL d   1       2.063   1.102   0.885  0.00  0.00     0.002 A 
ATOM      4  C6  UNL d   1       2.680  -0.142   0.775  0.00  0.00    -0.004 A 
ATOM      5  C7  UNL d   1       1.954  -1.237   0.313  0.00  0.00     0.002 A 
ATOM      6  C8  UNL d   1       0.614  -1.088  -0.049  0.00  0.00     0.002 A 
ENDROOT
BRANCH   1   7
ATOM      7  C2  UNL d   1      -1.456   0.325  -0.369  0.00  0.00     0.056 C 
BRANCH   7   8
ATOM      8  C1  UNL d   1      -1.769  -0.224  -1.765  0.00  0.00     0.007 C 
ATOM      9  C   UNL d   1      -2.647   0.706  -2.592  0.00  0.00     0.009 C 
ENDBRANCH   7   8
ENDBRANCH   1   7
TORSDOF 2
ENDMDL
