MODEL 1
REMARK minimizedAffinity 3.16315484
REMARK minimizedRMSD -1
REMARK  2 active torsions:
REMARK  status: ('A' for Active; 'I' for Inactive)
REMARK    1  A    between atoms: C1_2  and  C2_3 
REMARK    2  A    between atoms: C2_3  and  C3_4 
ROOT
ATOM      1  C3  UNL d   1       1.414   0.506   0.927  0.00  0.00    -0.075 A 
ATOM      2  C4  UNL d   1       0.680   1.698   1.001  0.00  0.00     0.002 A 
ATOM      3  C5  UNL d   1      -0.642   1.745   0.559  0.00  0.00     0.002 A 
ATOM      4  C6  UNL d   1      -1.243   0.606   0.028  0.00  0.00    -0.004 A 
ATOM      5  C7  UNL d   1      -0.518  -0.580  -0.066  0.00  0.00     0.002 A 
ATOM      6  C8  UNL d   1       0.804  -0.631   0.380  0.00  0.00     0.002 A 
ENDROOT
BRANCH   1   7
ATOM      7  C2  UNL d   1       2.836   0.440   1.431  0.00  0.00     0.056 C 
BRANCH   7   8
ATOM      8  C1  UNL d   1       3.084   1.255   2.704  0.00  0.00     0.007 C 
ATOM      9  C   UNL d   1       2.528   0.593   3.958  0.00  0.00     0.009 C 
ENDBRANCH   7   8
ENDBRANCH   1   7
TORSDOF 2
ENDMDL
