MODEL 1
REMARK minimizedAffinity -2.39094043
REMARK minimizedRMSD -1
REMARK  2 active torsions:
REMARK  status: ('A' for Active; 'I' for Inactive)
REMARK    1  A    between atoms: C1_2  and  C2_3 
REMARK    2  A    between atoms: C2_3  and  C3_4 
ROOT
ATOM      1  C3  UNL d   1       0.268   0.102  -0.069  0.00  0.00    -0.075 A 
ATOM      2  C4  UNL d   1       1.065   1.176   0.355  0.00  0.00     0.002 A 
ATOM      3  C5  UNL d   1       2.412   0.981   0.663  0.00  0.00     0.002 A 
ATOM      4  C6  UNL d   1       2.976  -0.289   0.561  0.00  0.00    -0.004 A 
ATOM      5  C7  UNL d   1       2.190  -1.366   0.157  0.00  0.00     0.002 A 
ATOM      6  C8  UNL d   1       0.843  -1.173  -0.156  0.00  0.00     0.002 A 
ENDROOT
BRANCH   1   7
ATOM      7  C2  UNL d   1      -1.182   0.312  -0.432  0.00  0.00     0.056 C 
BRANCH   7   8
ATOM      8  C1  UNL d   1      -1.519  -0.038  -1.885  0.00  0.00     0.007 C 
ATOM      9  C   UNL d   1      -2.475   0.953  -2.535  0.00  0.00     0.009 C 
ENDBRANCH   7   8
ENDBRANCH   1   7
TORSDOF 2
ENDMDL
