MODEL 1
REMARK minimizedAffinity -4.37169075
REMARK minimizedRMSD -1
REMARK  2 active torsions:
REMARK  status: ('A' for Active; 'I' for Inactive)
REMARK    1  A    between atoms: C1_2  and  C2_3 
REMARK    2  A    between atoms: C2_3  and  C3_4 
ROOT
ATOM      1  C3  UNL d   1       0.731  -0.171   0.712  0.00  0.00    -0.075 A 
ATOM      2  C4  UNL d   1       0.477  -1.515   1.024  0.00  0.00     0.002 A 
ATOM      3  C5  UNL d   1       1.429  -2.277   1.703  0.00  0.00     0.002 A 
ATOM      4  C6  UNL d   1       2.648  -1.709   2.069  0.00  0.00    -0.004 A 
ATOM      5  C7  UNL d   1       2.917  -0.380   1.749  0.00  0.00     0.002 A 
ATOM      6  C8  UNL d   1       1.965   0.385   1.074  0.00  0.00     0.002 A 
ENDROOT
BRANCH   1   7
ATOM      7  C2  UNL d   1      -0.306   0.667   0.004  0.00  0.00     0.056 C 
BRANCH   7   8
ATOM      8  C1  UNL d   1      -1.672  -0.014  -0.131  0.00  0.00     0.007 C 
ATOM      9  C   UNL d   1      -2.196  -0.032  -1.560  0.00  0.00     0.009 C 
ENDBRANCH   7   8
ENDBRANCH   1   7
TORSDOF 2
ENDMDL
