MODEL 1
REMARK minimizedAffinity -4.0025506
REMARK minimizedRMSD -1
REMARK  2 active torsions:
REMARK  status: ('A' for Active; 'I' for Inactive)
REMARK    1  A    between atoms: C1_2  and  C2_3 
REMARK    2  A    between atoms: C2_3  and  C3_4 
ROOT
ATOM      1  C3  UNL d   1      -0.191  -0.259  -0.402  0.00  0.00    -0.075 A 
ATOM      2  C4  UNL d   1       0.379   0.798   0.323  0.00  0.00     0.002 A 
ATOM      3  C5  UNL d   1       1.692   0.711   0.787  0.00  0.00     0.002 A 
ATOM      4  C6  UNL d   1       2.446  -0.435   0.543  0.00  0.00    -0.004 A 
ATOM      5  C7  UNL d   1       1.884  -1.497  -0.161  0.00  0.00     0.002 A 
ATOM      6  C8  UNL d   1       0.573  -1.412  -0.631  0.00  0.00     0.002 A 
ENDROOT
BRANCH   1   7
ATOM      7  C2  UNL d   1      -1.601  -0.160  -0.933  0.00  0.00     0.056 C 
BRANCH   7   8
ATOM      8  C1  UNL d   1      -1.831  -0.925  -2.240  0.00  0.00     0.007 C 
ATOM      9  C   UNL d   1      -2.480  -0.076  -3.326  0.00  0.00     0.009 C 
ENDBRANCH   7   8
ENDBRANCH   1   7
TORSDOF 2
ENDMDL
