MODEL 1
REMARK minimizedAffinity -5.45201397
REMARK minimizedRMSD -1
REMARK  2 active torsions:
REMARK  status: ('A' for Active; 'I' for Inactive)
REMARK    1  A    between atoms: C1_2  and  C2_3 
REMARK    2  A    between atoms: C2_3  and  C3_4 
ROOT
ATOM      1  C3  UNL d   1      -0.097  -0.105  -0.090  0.00  0.00    -0.075 A 
ATOM      2  C4  UNL d   1       0.846  -1.141  -0.050  0.00  0.00     0.002 A 
ATOM      3  C5  UNL d   1       2.178  -0.875   0.269  0.00  0.00     0.002 A 
ATOM      4  C6  UNL d   1       2.585   0.429   0.541  0.00  0.00    -0.004 A 
ATOM      5  C7  UNL d   1       1.660   1.469   0.488  0.00  0.00     0.002 A 
ATOM      6  C8  UNL d   1       0.325   1.205   0.174  0.00  0.00     0.002 A 
ENDROOT
BRANCH   1   7
ATOM      7  C2  UNL d   1      -1.546  -0.390  -0.405  0.00  0.00     0.056 C 
BRANCH   7   8
ATOM      8  C1  UNL d   1      -2.079   0.363  -1.628  0.00  0.00     0.007 C 
ATOM      9  C   UNL d   1      -2.281  -0.532  -2.844  0.00  0.00     0.009 C 
ENDBRANCH   7   8
ENDBRANCH   1   7
TORSDOF 2
ENDMDL
