MODEL 1
REMARK minimizedAffinity -3.22911429
REMARK minimizedRMSD -1
REMARK  2 active torsions:
REMARK  status: ('A' for Active; 'I' for Inactive)
REMARK    1  A    between atoms: C1_2  and  C2_3 
REMARK    2  A    between atoms: C2_3  and  C3_4 
ROOT
ATOM      1  C3  UNL d   1      -0.663  -0.006   0.204  0.00  0.00    -0.075 A 
ATOM      2  C4  UNL d   1      -0.015   1.221   0.001  0.00  0.00     0.002 A 
ATOM      3  C5  UNL d   1       1.350   1.353   0.259  0.00  0.00     0.002 A 
ATOM      4  C6  UNL d   1       2.081   0.266   0.733  0.00  0.00    -0.004 A 
ATOM      5  C7  UNL d   1       1.444  -0.953   0.955  0.00  0.00     0.002 A 
ATOM      6  C8  UNL d   1       0.079  -1.090   0.693  0.00  0.00     0.002 A 
ENDROOT
BRANCH   1   7
ATOM      7  C2  UNL d   1      -2.133  -0.163  -0.102  0.00  0.00     0.056 C 
BRANCH   7   8
ATOM      8  C1  UNL d   1      -2.582   0.543  -1.385  0.00  0.00     0.007 C 
ATOM      9  C   UNL d   1      -2.723  -0.401  -2.572  0.00  0.00     0.009 C 
ENDBRANCH   7   8
ENDBRANCH   1   7
TORSDOF 2
ENDMDL
