MODEL 1
REMARK minimizedAffinity 5.87910318
REMARK minimizedRMSD -1
REMARK  0 active torsions:
REMARK  status: ('A' for Active; 'I' for Inactive)
ROOT
ATOM      1  C   UNL d   1      -0.371   1.852  -0.099  0.00  0.00     0.077 C 
ATOM      2  C1  UNL d   1      -0.276   0.369   0.100  0.00  0.00    -0.074 A 
ATOM      3  C2  UNL d   1       0.171  -0.166   1.312  0.00  0.00    -0.005 A 
ATOM      4  C3  UNL d   1       0.246  -1.548   1.486  0.00  0.00     0.006 A 
ATOM      5  C4  UNL d   1      -0.125  -2.408   0.451  0.00  0.00    -0.005 A 
ATOM      6  C5  UNL d   1      -0.575  -1.891  -0.768  0.00  0.00    -0.074 A 
ATOM      7  C6  UNL d   1      -0.987  -2.801  -1.887  0.00  0.00     0.077 C 
ATOM      8  C7  UNL d   1      -0.654  -0.501  -0.932  0.00  0.00    -0.001 A 
ENDROOT
TORSDOF 0
ENDMDL
