MODEL 1
REMARK minimizedAffinity 3.68571424
REMARK minimizedRMSD -1
REMARK  0 active torsions:
REMARK  status: ('A' for Active; 'I' for Inactive)
ROOT
ATOM      1  C   UNL d   1      -2.220  -3.995  -1.786  0.00  0.00     0.077 C 
ATOM      2  C1  UNL d   1      -0.924  -3.247  -1.688  0.00  0.00    -0.074 A 
ATOM      3  C2  UNL d   1      -0.006  -3.258  -2.742  0.00  0.00    -0.005 A 
ATOM      4  C3  UNL d   1       1.191  -2.549  -2.640  0.00  0.00     0.006 A 
ATOM      5  C4  UNL d   1       1.482  -1.824  -1.484  0.00  0.00    -0.005 A 
ATOM      6  C5  UNL d   1       0.575  -1.800  -0.420  0.00  0.00    -0.074 A 
ATOM      7  C6  UNL d   1       0.867  -1.017   0.826  0.00  0.00     0.077 C 
ATOM      8  C7  UNL d   1      -0.629  -2.509  -0.533  0.00  0.00    -0.001 A 
ENDROOT
TORSDOF 0
ENDMDL
