MODEL 1
REMARK minimizedAffinity 5.48491859
REMARK minimizedRMSD -1
REMARK  0 active torsions:
REMARK  status: ('A' for Active; 'I' for Inactive)
ROOT
ATOM      1  C   UNL d   1      -1.730  -3.268  -1.971  0.00  0.00     0.077 C 
ATOM      2  C1  UNL d   1      -0.378  -3.266  -2.620  0.00  0.00    -0.074 A 
ATOM      3  C2  UNL d   1      -0.124  -4.044  -3.753  0.00  0.00    -0.005 A 
ATOM      4  C3  UNL d   1       1.136  -4.025  -4.352  0.00  0.00     0.006 A 
ATOM      5  C4  UNL d   1       2.152  -3.228  -3.824  0.00  0.00    -0.005 A 
ATOM      6  C5  UNL d   1       1.917  -2.442  -2.691  0.00  0.00    -0.074 A 
ATOM      7  C6  UNL d   1       2.995  -1.573  -2.117  0.00  0.00     0.077 C 
ATOM      8  C7  UNL d   1       0.646  -2.462  -2.100  0.00  0.00    -0.001 A 
ENDROOT
TORSDOF 0
ENDMDL
