MODEL 1
REMARK minimizedAffinity -1.23161411
REMARK minimizedRMSD -1
REMARK  0 active torsions:
REMARK  status: ('A' for Active; 'I' for Inactive)
ROOT
ATOM      1  C   UNL d   1      -5.978   3.648  -5.993  0.00  0.00     0.077 C 
ATOM      2  C1  UNL d   1      -4.543   4.085  -5.998  0.00  0.00    -0.074 A 
ATOM      3  C2  UNL d   1      -4.205   5.443  -5.987  0.00  0.00    -0.005 A 
ATOM      4  C3  UNL d   1      -2.867   5.834  -5.982  0.00  0.00     0.006 A 
ATOM      5  C4  UNL d   1      -1.854   4.874  -5.989  0.00  0.00    -0.005 A 
ATOM      6  C5  UNL d   1      -2.172   3.513  -5.999  0.00  0.00    -0.074 A 
ATOM      7  C6  UNL d   1      -1.096   2.468  -5.997  0.00  0.00     0.077 C 
ATOM      8  C7  UNL d   1      -3.520   3.127  -5.997  0.00  0.00    -0.001 A 
ENDROOT
TORSDOF 0
ENDMDL
