MODEL 1
REMARK minimizedAffinity 4.5040226
REMARK minimizedRMSD -1
REMARK  0 active torsions:
REMARK  status: ('A' for Active; 'I' for Inactive)
ROOT
ATOM      1  C   UNL d   1       4.902   4.446  -5.987  0.00  0.00     0.077 C 
ATOM      2  C1  UNL d   1       3.669   3.593  -5.998  0.00  0.00    -0.074 A 
ATOM      3  C2  UNL d   1       3.759   2.198  -5.998  0.00  0.00    -0.005 A 
ATOM      4  C3  UNL d   1       2.603   1.418  -5.999  0.00  0.00     0.006 A 
ATOM      5  C4  UNL d   1       1.346   2.024  -6.000  0.00  0.00    -0.005 A 
ATOM      6  C5  UNL d   1       1.236   3.418  -5.999  0.00  0.00    -0.074 A 
ATOM      7  C6  UNL d   1      -0.107   4.086  -5.990  0.00  0.00     0.077 C 
ATOM      8  C7  UNL d   1       2.402   4.195  -5.991  0.00  0.00    -0.001 A 
ENDROOT
TORSDOF 0
ENDMDL
