MODEL 1
REMARK minimizedAffinity 9.23568821
REMARK minimizedRMSD -1
REMARK  0 active torsions:
REMARK  status: ('A' for Active; 'I' for Inactive)
ROOT
ATOM      1  C   UNL d   1       1.888   1.264  -3.110  0.00  0.00     0.077 C 
ATOM      2  C1  UNL d   1       1.915   2.378  -4.114  0.00  0.00    -0.074 A 
ATOM      3  C2  UNL d   1       3.097   2.718  -4.780  0.00  0.00    -0.005 A 
ATOM      4  C3  UNL d   1       3.103   3.750  -5.718  0.00  0.00     0.006 A 
ATOM      5  C4  UNL d   1       1.931   4.452  -5.999  0.00  0.00    -0.005 A 
ATOM      6  C5  UNL d   1       0.739   4.126  -5.343  0.00  0.00    -0.074 A 
ATOM      7  C6  UNL d   1      -0.532   4.864  -5.641  0.00  0.00     0.077 C 
ATOM      8  C7  UNL d   1       0.739   3.083  -4.407  0.00  0.00    -0.001 A 
ENDROOT
TORSDOF 0
ENDMDL
