MODEL 1
REMARK minimizedAffinity -2.72995615
REMARK minimizedRMSD -1
REMARK  0 active torsions:
REMARK  status: ('A' for Active; 'I' for Inactive)
ROOT
ATOM      1  C   UNL d   1      -0.504   4.630  -6.000  0.00  0.00     0.077 C 
ATOM      2  C1  UNL d   1       0.825   3.936  -5.992  0.00  0.00    -0.074 A 
ATOM      3  C2  UNL d   1       0.907   2.540  -5.996  0.00  0.00    -0.005 A 
ATOM      4  C3  UNL d   1       2.150   1.908  -5.998  0.00  0.00     0.006 A 
ATOM      5  C4  UNL d   1       3.323   2.664  -5.996  0.00  0.00    -0.005 A 
ATOM      6  C5  UNL d   1       3.261   4.061  -5.992  0.00  0.00    -0.074 A 
ATOM      7  C6  UNL d   1       4.512   4.889  -6.000  0.00  0.00     0.077 C 
ATOM      8  C7  UNL d   1       2.008   4.689  -5.997  0.00  0.00    -0.001 A 
ENDROOT
TORSDOF 0
ENDMDL
