MODEL 1
REMARK minimizedAffinity 2.70957923
REMARK minimizedRMSD -1
REMARK  0 active torsions:
REMARK  status: ('A' for Active; 'I' for Inactive)
ROOT
ATOM      1  C   UNL d   1      -0.850  -0.481   0.751  0.00  0.00     0.077 C 
ATOM      2  C1  UNL d   1      -0.031   0.726   0.399  0.00  0.00    -0.074 A 
ATOM      3  C2  UNL d   1       0.071   1.164  -0.925  0.00  0.00    -0.005 A 
ATOM      4  C3  UNL d   1       0.829   2.293  -1.235  0.00  0.00     0.006 A 
ATOM      5  C4  UNL d   1       1.491   2.994  -0.226  0.00  0.00    -0.005 A 
ATOM      6  C5  UNL d   1       1.399   2.571   1.104  0.00  0.00    -0.074 A 
ATOM      7  C6  UNL d   1       2.096   3.319   2.201  0.00  0.00     0.077 C 
ATOM      8  C7  UNL d   1       0.630   1.440   1.408  0.00  0.00    -0.001 A 
ENDROOT
TORSDOF 0
ENDMDL
