MODEL 1
REMARK minimizedAffinity 4.41147804
REMARK minimizedRMSD -1
REMARK  0 active torsions:
REMARK  status: ('A' for Active; 'I' for Inactive)
ROOT
ATOM      1  C   UNL d   1      -2.827   5.862  -5.953  0.00  0.00     0.077 C 
ATOM      2  C1  UNL d   1      -2.185   4.507  -5.963  0.00  0.00    -0.074 A 
ATOM      3  C2  UNL d   1      -2.963   3.344  -5.981  0.00  0.00    -0.005 A 
ATOM      4  C3  UNL d   1      -2.352   2.090  -6.000  0.00  0.00     0.006 A 
ATOM      5  C4  UNL d   1      -0.961   1.986  -6.000  0.00  0.00    -0.005 A 
ATOM      6  C5  UNL d   1      -0.167   3.137  -5.983  0.00  0.00    -0.074 A 
ATOM      7  C6  UNL d   1       1.330   3.043  -5.992  0.00  0.00     0.077 C 
ATOM      8  C7  UNL d   1      -0.788   4.394  -5.971  0.00  0.00    -0.001 A 
ENDROOT
TORSDOF 0
ENDMDL
