MODEL 1
REMARK minimizedAffinity -1.77610838
REMARK minimizedRMSD -1
REMARK  0 active torsions:
REMARK  status: ('A' for Active; 'I' for Inactive)
ROOT
ATOM      1  C   UNL d   1      -3.223   5.442  -6.000  0.00  0.00     0.077 C 
ATOM      2  C1  UNL d   1      -2.276   4.279  -5.992  0.00  0.00    -0.074 A 
ATOM      3  C2  UNL d   1      -2.752   2.964  -5.997  0.00  0.00    -0.005 A 
ATOM      4  C3  UNL d   1      -1.859   1.893  -6.000  0.00  0.00     0.006 A 
ATOM      5  C4  UNL d   1      -0.483   2.125  -5.997  0.00  0.00    -0.005 A 
ATOM      6  C5  UNL d   1       0.012   3.433  -5.993  0.00  0.00    -0.074 A 
ATOM      7  C6  UNL d   1       1.488   3.700  -6.000  0.00  0.00     0.077 C 
ATOM      8  C7  UNL d   1      -0.892   4.504  -5.997  0.00  0.00    -0.001 A 
ENDROOT
TORSDOF 0
ENDMDL
