MODEL 1
REMARK minimizedAffinity -1.95694041
REMARK minimizedRMSD -1
REMARK  0 active torsions:
REMARK  status: ('A' for Active; 'I' for Inactive)
ROOT
ATOM      1  C   UNL d   1      -4.165   6.000  -5.991  0.00  0.00     0.077 C 
ATOM      2  C1  UNL d   1      -3.416   4.700  -5.978  0.00  0.00    -0.074 A 
ATOM      3  C2  UNL d   1      -4.096   3.478  -5.973  0.00  0.00    -0.005 A 
ATOM      4  C3  UNL d   1      -3.386   2.278  -5.971  0.00  0.00     0.006 A 
ATOM      5  C4  UNL d   1      -1.991   2.287  -5.974  0.00  0.00    -0.005 A 
ATOM      6  C5  UNL d   1      -1.293   3.499  -5.980  0.00  0.00    -0.074 A 
ATOM      7  C6  UNL d   1       0.206   3.526  -5.993  0.00  0.00     0.077 C 
ATOM      8  C7  UNL d   1      -2.014   4.701  -5.989  0.00  0.00    -0.001 A 
ENDROOT
TORSDOF 0
ENDMDL
