MODEL 1
REMARK minimizedAffinity 4.88809252
REMARK minimizedRMSD -1
REMARK  0 active torsions:
REMARK  status: ('A' for Active; 'I' for Inactive)
ROOT
ATOM      1  C   UNL d   1       2.508   2.968   2.073  0.00  0.00     0.077 C 
ATOM      2  C1  UNL d   1       1.652   2.252   1.070  0.00  0.00    -0.074 A 
ATOM      3  C2  UNL d   1       1.765   2.526  -0.297  0.00  0.00    -0.005 A 
ATOM      4  C3  UNL d   1       0.969   1.845  -1.218  0.00  0.00     0.006 A 
ATOM      5  C4  UNL d   1       0.055   0.885  -0.783  0.00  0.00    -0.005 A 
ATOM      6  C5  UNL d   1      -0.071   0.598   0.580  0.00  0.00    -0.074 A 
ATOM      7  C6  UNL d   1      -1.042  -0.438   1.064  0.00  0.00     0.077 C 
ATOM      8  C7  UNL d   1       0.737   1.281   1.499  0.00  0.00    -0.001 A 
ENDROOT
TORSDOF 0
ENDMDL
