MODEL 1
REMARK minimizedAffinity 6.67064381
REMARK minimizedRMSD -1
REMARK  0 active torsions:
REMARK  status: ('A' for Active; 'I' for Inactive)
ROOT
ATOM      1  C   UNL d   1       5.953   4.386  -5.934  0.00  0.00     0.077 C 
ATOM      2  C1  UNL d   1       4.498   4.023  -5.950  0.00  0.00    -0.074 A 
ATOM      3  C2  UNL d   1       3.510   5.013  -5.971  0.00  0.00    -0.005 A 
ATOM      4  C3  UNL d   1       2.161   4.660  -5.996  0.00  0.00     0.006 A 
ATOM      5  C4  UNL d   1       1.786   3.316  -6.000  0.00  0.00    -0.005 A 
ATOM      6  C5  UNL d   1       2.760   2.312  -5.980  0.00  0.00    -0.074 A 
ATOM      7  C6  UNL d   1       2.374   0.862  -5.994  0.00  0.00     0.077 C 
ATOM      8  C7  UNL d   1       4.114   2.674  -5.963  0.00  0.00    -0.001 A 
ENDROOT
TORSDOF 0
ENDMDL
