MODEL 1
REMARK minimizedAffinity 7.21414137
REMARK minimizedRMSD -1
REMARK  0 active torsions:
REMARK  status: ('A' for Active; 'I' for Inactive)
ROOT
ATOM      1  C   UNL d   1      -0.166   1.452   1.308  0.00  0.00     0.077 C 
ATOM      2  C1  UNL d   1       0.981   2.374   1.019  0.00  0.00    -0.074 A 
ATOM      3  C2  UNL d   1       1.128   2.965  -0.240  0.00  0.00    -0.005 A 
ATOM      4  C3  UNL d   1       2.195   3.828  -0.492  0.00  0.00     0.006 A 
ATOM      5  C4  UNL d   1       3.124   4.108   0.511  0.00  0.00    -0.005 A 
ATOM      6  C5  UNL d   1       2.992   3.527   1.776  0.00  0.00    -0.074 A 
ATOM      7  C6  UNL d   1       3.976   3.826   2.868  0.00  0.00     0.077 C 
ATOM      8  C7  UNL d   1       1.914   2.667   2.023  0.00  0.00    -0.001 A 
ENDROOT
TORSDOF 0
ENDMDL
