MODEL 1
REMARK minimizedAffinity 3.62397456
REMARK minimizedRMSD -1
REMARK  0 active torsions:
REMARK  status: ('A' for Active; 'I' for Inactive)
ROOT
ATOM      1  C   UNL d   1      -2.764   6.000  -5.993  0.00  0.00     0.077 C 
ATOM      2  C1  UNL d   1      -2.034   4.690  -5.987  0.00  0.00    -0.074 A 
ATOM      3  C2  UNL d   1      -2.731   3.478  -5.995  0.00  0.00    -0.005 A 
ATOM      4  C3  UNL d   1      -2.038   2.267  -5.999  0.00  0.00     0.006 A 
ATOM      5  C4  UNL d   1      -0.642   2.257  -5.996  0.00  0.00    -0.005 A 
ATOM      6  C5  UNL d   1       0.072   3.459  -5.989  0.00  0.00    -0.074 A 
ATOM      7  C6  UNL d   1       1.572   3.466  -5.994  0.00  0.00     0.077 C 
ATOM      8  C7  UNL d   1      -0.632   4.671  -5.992  0.00  0.00    -0.001 A 
ENDROOT
TORSDOF 0
ENDMDL
