MODEL 1
REMARK minimizedAffinity 0.157956436
REMARK minimizedRMSD -1
REMARK  0 active torsions:
REMARK  status: ('A' for Active; 'I' for Inactive)
ROOT
ATOM      1  C   UNL d   1      -0.038   4.972  -5.856  0.00  0.00     0.077 C 
ATOM      2  C1  UNL d   1       1.124   4.024  -5.899  0.00  0.00    -0.074 A 
ATOM      3  C2  UNL d   1       0.923   2.641  -5.929  0.00  0.00    -0.005 A 
ATOM      4  C3  UNL d   1       2.014   1.772  -5.978  0.00  0.00     0.006 A 
ATOM      5  C4  UNL d   1       3.314   2.278  -5.998  0.00  0.00    -0.005 A 
ATOM      6  C5  UNL d   1       3.535   3.659  -5.969  0.00  0.00    -0.074 A 
ATOM      7  C6  UNL d   1       4.926   4.219  -6.000  0.00  0.00     0.077 C 
ATOM      8  C7  UNL d   1       2.434   4.525  -5.927  0.00  0.00    -0.001 A 
ENDROOT
TORSDOF 0
ENDMDL
