MODEL 1
REMARK minimizedAffinity 4.16894531
REMARK minimizedRMSD -1
REMARK  0 active torsions:
REMARK  status: ('A' for Active; 'I' for Inactive)
ROOT
ATOM      1  C   UNL d   1      -3.007   5.900  -5.999  0.00  0.00     0.077 C 
ATOM      2  C1  UNL d   1      -2.376   4.540  -5.991  0.00  0.00    -0.074 A 
ATOM      3  C2  UNL d   1      -3.162   3.383  -5.997  0.00  0.00    -0.005 A 
ATOM      4  C3  UNL d   1      -2.561   2.124  -6.000  0.00  0.00     0.006 A 
ATOM      5  C4  UNL d   1      -1.170   2.010  -5.997  0.00  0.00    -0.005 A 
ATOM      6  C5  UNL d   1      -0.368   3.156  -5.992  0.00  0.00    -0.074 A 
ATOM      7  C6  UNL d   1       1.128   3.051  -5.998  0.00  0.00     0.077 C 
ATOM      8  C7  UNL d   1      -0.980   4.417  -5.996  0.00  0.00    -0.001 A 
ENDROOT
TORSDOF 0
ENDMDL
