MODEL 1
REMARK minimizedAffinity -4.78499413
REMARK minimizedRMSD -1
REMARK  0 active torsions:
REMARK  status: ('A' for Active; 'I' for Inactive)
ROOT
ATOM      1  C   UNL d   1      -0.844   0.309  -1.055  0.00  0.00     0.077 C 
ATOM      2  C1  UNL d   1      -0.243  -0.242   0.204  0.00  0.00    -0.074 A 
ATOM      3  C2  UNL d   1      -0.921  -0.150   1.424  0.00  0.00    -0.005 A 
ATOM      4  C3  UNL d   1      -0.354  -0.675   2.585  0.00  0.00     0.006 A 
ATOM      5  C4  UNL d   1       0.895  -1.297   2.538  0.00  0.00    -0.005 A 
ATOM      6  C5  UNL d   1       1.587  -1.399   1.327  0.00  0.00    -0.074 A 
ATOM      7  C6  UNL d   1       2.925  -2.073   1.257  0.00  0.00     0.077 C 
ATOM      8  C7  UNL d   1       1.007  -0.875   0.163  0.00  0.00    -0.001 A 
ENDROOT
TORSDOF 0
ENDMDL
