MODEL 1
REMARK minimizedAffinity -3.8297689
REMARK minimizedRMSD -1
REMARK  0 active torsions:
REMARK  status: ('A' for Active; 'I' for Inactive)
ROOT
ATOM      1  C   UNL d   1      -0.755   3.217  -2.248  0.00  0.00     0.077 C 
ATOM      2  C1  UNL d   1      -0.462   1.832  -1.754  0.00  0.00    -0.074 A 
ATOM      3  C2  UNL d   1      -0.374   0.755  -2.643  0.00  0.00    -0.005 A 
ATOM      4  C3  UNL d   1      -0.091  -0.526  -2.170  0.00  0.00     0.006 A 
ATOM      5  C4  UNL d   1       0.106  -0.744  -0.806  0.00  0.00    -0.005 A 
ATOM      6  C5  UNL d   1       0.023   0.320   0.098  0.00  0.00    -0.074 A 
ATOM      7  C6  UNL d   1       0.242   0.105   1.566  0.00  0.00     0.077 C 
ATOM      8  C7  UNL d   1      -0.255   1.606  -0.386  0.00  0.00    -0.001 A 
ENDROOT
TORSDOF 0
ENDMDL
