MODEL 1
REMARK minimizedAffinity -4.12359285
REMARK minimizedRMSD -1
REMARK  0 active torsions:
REMARK  status: ('A' for Active; 'I' for Inactive)
ROOT
ATOM      1  C   UNL d   1      -2.998   0.073  -2.253  0.00  0.00     0.077 C 
ATOM      2  C1  UNL d   1      -1.903  -0.292  -1.296  0.00  0.00    -0.074 A 
ATOM      3  C2  UNL d   1      -0.614  -0.582  -1.756  0.00  0.00    -0.005 A 
ATOM      4  C3  UNL d   1       0.397  -0.911  -0.853  0.00  0.00     0.006 A 
ATOM      5  C4  UNL d   1       0.130  -0.952   0.516  0.00  0.00    -0.005 A 
ATOM      6  C5  UNL d   1      -1.152  -0.665   0.994  0.00  0.00    -0.074 A 
ATOM      7  C6  UNL d   1      -1.453  -0.695   2.463  0.00  0.00     0.077 C 
ATOM      8  C7  UNL d   1      -2.161  -0.329   0.081  0.00  0.00    -0.001 A 
ENDROOT
TORSDOF 0
ENDMDL
