MODEL 1
REMARK minimizedAffinity -1.21957421
REMARK minimizedRMSD -1
REMARK  0 active torsions:
REMARK  status: ('A' for Active; 'I' for Inactive)
ROOT
ATOM      1  O1  BZF d   1       0.680   5.356  -5.969  0.00  0.00    -0.204 OA
ATOM      2  C2  BZF d   1       1.478   4.228  -5.986  0.00  0.00     0.174 A 
ATOM      3  C3  BZF d   1       0.726   3.109  -5.943  0.00  0.00    -0.012 A 
ATOM      4  C3A BZF d   1      -0.630   3.565  -5.991  0.00  0.00    -0.107 A 
ATOM      5  C4  BZF d   1      -1.836   2.925  -5.995  0.00  0.00     0.055 A 
ATOM      6  C5  BZF d   1      -2.976   3.665  -5.973  0.00  0.00    -0.016 A 
ATOM      7  C6  BZF d   1      -2.947   5.043  -5.940  0.00  0.00     0.022 A 
ATOM      8  C7  BZF d   1      -1.774   5.723  -5.940  0.00  0.00     0.029 A 
ATOM      9  C7A BZF d   1      -0.621   4.979  -5.996  0.00  0.00     0.058 A 
ENDROOT
TORSDOF 0
ENDMDL
