MODEL 1
REMARK minimizedAffinity -1.42964351
REMARK minimizedRMSD -1
REMARK  0 active torsions:
REMARK  status: ('A' for Active; 'I' for Inactive)
ROOT
ATOM      1  O1  BZF d   1       0.454   3.756  -5.905  0.00  0.00    -0.204 OA
ATOM      2  C2  BZF d   1      -0.256   4.941  -5.931  0.00  0.00     0.174 A 
ATOM      3  C3  BZF d   1       0.579   6.000  -5.911  0.00  0.00    -0.012 A 
ATOM      4  C3A BZF d   1       1.895   5.442  -5.963  0.00  0.00    -0.107 A 
ATOM      5  C4  BZF d   1       3.146   5.989  -5.986  0.00  0.00     0.055 A 
ATOM      6  C5  BZF d   1       4.228   5.166  -5.963  0.00  0.00    -0.016 A 
ATOM      7  C6  BZF d   1       4.095   3.794  -5.911  0.00  0.00     0.022 A 
ATOM      8  C7  BZF d   1       2.874   3.205  -5.891  0.00  0.00     0.029 A 
ATOM      9  C7A BZF d   1       1.780   4.033  -5.948  0.00  0.00     0.058 A 
ENDROOT
TORSDOF 0
ENDMDL
