MODEL 1
REMARK minimizedAffinity -2.46927595
REMARK minimizedRMSD -1
REMARK  0 active torsions:
REMARK  status: ('A' for Active; 'I' for Inactive)
ROOT
ATOM      1  O1  BZF d   1       0.022   2.318  -5.963  0.00  0.00    -0.204 OA
ATOM      2  C2  BZF d   1       1.043   3.248  -5.952  0.00  0.00     0.174 A 
ATOM      3  C3  BZF d   1       0.548   4.502  -6.000  0.00  0.00    -0.012 A 
ATOM      4  C3A BZF d   1      -0.874   4.347  -5.952  0.00  0.00    -0.107 A 
ATOM      5  C4  BZF d   1      -1.915   5.231  -5.951  0.00  0.00     0.055 A 
ATOM      6  C5  BZF d   1      -3.187   4.753  -5.971  0.00  0.00    -0.016 A 
ATOM      7  C6  BZF d   1      -3.454   3.400  -5.996  0.00  0.00     0.022 A 
ATOM      8  C7  BZF d   1      -2.454   2.485  -5.993  0.00  0.00     0.029 A 
ATOM      9  C7A BZF d   1      -1.168   2.964  -5.940  0.00  0.00     0.058 A 
ENDROOT
TORSDOF 0
ENDMDL
