MODEL 1
REMARK minimizedAffinity 0.756247044
REMARK minimizedRMSD -1
REMARK  0 active torsions:
REMARK  status: ('A' for Active; 'I' for Inactive)
ROOT
ATOM      1  O1  BZF d   1      -2.397   2.507  -5.964  0.00  0.00    -0.204 OA
ATOM      2  C2  BZF d   1      -3.680   3.021  -5.974  0.00  0.00     0.174 A 
ATOM      3  C3  BZF d   1      -3.656   4.368  -5.934  0.00  0.00    -0.012 A 
ATOM      4  C3A BZF d   1      -2.271   4.722  -5.989  0.00  0.00    -0.107 A 
ATOM      5  C4  BZF d   1      -1.606   5.915  -5.999  0.00  0.00     0.055 A 
ATOM      6  C5  BZF d   1      -0.247   5.913  -5.985  0.00  0.00    -0.016 A 
ATOM      7  C6  BZF d   1       0.478   4.740  -5.955  0.00  0.00     0.022 A 
ATOM      8  C7  BZF d   1      -0.137   3.532  -5.949  0.00  0.00     0.029 A 
ATOM      9  C7A BZF d   1      -1.510   3.530  -5.997  0.00  0.00     0.058 A 
ENDROOT
TORSDOF 0
ENDMDL
