MODEL 1
REMARK minimizedAffinity 1.08591032
REMARK minimizedRMSD -1
REMARK  0 active torsions:
REMARK  status: ('A' for Active; 'I' for Inactive)
ROOT
ATOM      1  O1  BZF d   1       4.687   3.757  -5.896  0.00  0.00    -0.204 OA
ATOM      2  C2  BZF d   1       5.313   4.988  -5.905  0.00  0.00     0.174 A 
ATOM      3  C3  BZF d   1       4.408   5.984  -5.995  0.00  0.00    -0.012 A 
ATOM      4  C3A BZF d   1       3.132   5.338  -5.952  0.00  0.00    -0.107 A 
ATOM      5  C4  BZF d   1       1.846   5.796  -5.986  0.00  0.00     0.055 A 
ATOM      6  C5  BZF d   1       0.825   4.899  -6.000  0.00  0.00    -0.016 A 
ATOM      7  C6  BZF d   1       1.054   3.539  -5.986  0.00  0.00     0.022 A 
ATOM      8  C7  BZF d   1       2.312   3.037  -5.948  0.00  0.00     0.029 A 
ATOM      9  C7A BZF d   1       3.345   3.941  -5.900  0.00  0.00     0.058 A 
ENDROOT
TORSDOF 0
ENDMDL
