MODEL 1
REMARK minimizedAffinity 4.47526932
REMARK minimizedRMSD -1
REMARK  0 active torsions:
REMARK  status: ('A' for Active; 'I' for Inactive)
ROOT
ATOM      1  O1  BZF d   1      -1.702  -1.785  -1.923  0.00  0.00    -0.204 OA
ATOM      2  C2  BZF d   1      -2.417  -2.874  -1.463  0.00  0.00     0.174 A 
ATOM      3  C3  BZF d   1      -1.885  -4.025  -1.923  0.00  0.00    -0.012 A 
ATOM      4  C3A BZF d   1      -0.713  -3.636  -2.645  0.00  0.00    -0.107 A 
ATOM      5  C4  BZF d   1       0.247  -4.332  -3.321  0.00  0.00     0.055 A 
ATOM      6  C5  BZF d   1       1.219  -3.648  -3.980  0.00  0.00    -0.016 A 
ATOM      7  C6  BZF d   1       1.258  -2.269  -3.988  0.00  0.00     0.022 A 
ATOM      8  C7  BZF d   1       0.329  -1.535  -3.328  0.00  0.00     0.029 A 
ATOM      9  C7A BZF d   1      -0.635  -2.224  -2.634  0.00  0.00     0.058 A 
ENDROOT
TORSDOF 0
ENDMDL
