MODEL 1
REMARK minimizedAffinity 3.22170043
REMARK minimizedRMSD -1
REMARK  0 active torsions:
REMARK  status: ('A' for Active; 'I' for Inactive)
ROOT
ATOM      1  O1  BZF d   1       5.289   4.526  -0.115  0.00  0.00    -0.204 OA
ATOM      2  C2  BZF d   1       4.596   5.404   0.696  0.00  0.00     0.174 A 
ATOM      3  C3  BZF d   1       3.273   5.350   0.438  0.00  0.00    -0.012 A 
ATOM      4  C3A BZF d   1       3.121   4.311  -0.533  0.00  0.00    -0.107 A 
ATOM      5  C4  BZF d   1       2.040   3.774  -1.173  0.00  0.00     0.055 A 
ATOM      6  C5  BZF d   1       2.240   2.820  -2.120  0.00  0.00    -0.016 A 
ATOM      7  C6  BZF d   1       3.505   2.384  -2.456  0.00  0.00     0.022 A 
ATOM      8  C7  BZF d   1       4.607   2.883  -1.845  0.00  0.00     0.029 A 
ATOM      9  C7A BZF d   1       4.406   3.823  -0.864  0.00  0.00     0.058 A 
ENDROOT
TORSDOF 0
ENDMDL
