MODEL 1
REMARK minimizedAffinity 2.13649273
REMARK minimizedRMSD -1
REMARK  0 active torsions:
REMARK  status: ('A' for Active; 'I' for Inactive)
ROOT
ATOM      1  O1  BZF d   1      -4.498   3.833  -5.950  0.00  0.00    -0.204 OA
ATOM      2  C2  BZF d   1      -4.826   5.175  -5.950  0.00  0.00     0.174 A 
ATOM      3  C3  BZF d   1      -3.716   5.940  -5.913  0.00  0.00    -0.012 A 
ATOM      4  C3A BZF d   1      -2.623   5.019  -5.981  0.00  0.00    -0.107 A 
ATOM      5  C4  BZF d   1      -1.266   5.173  -5.999  0.00  0.00     0.055 A 
ATOM      6  C5  BZF d   1      -0.476   4.067  -5.997  0.00  0.00    -0.016 A 
ATOM      7  C6  BZF d   1      -1.008   2.794  -5.971  0.00  0.00     0.022 A 
ATOM      8  C7  BZF d   1      -2.348   2.592  -5.958  0.00  0.00     0.029 A 
ATOM      9  C7A BZF d   1      -3.150   3.707  -5.993  0.00  0.00     0.058 A 
ENDROOT
TORSDOF 0
ENDMDL
