MODEL 1
REMARK minimizedAffinity -3.41316319
REMARK minimizedRMSD -1
REMARK  0 active torsions:
REMARK  status: ('A' for Active; 'I' for Inactive)
ROOT
ATOM      1  O1  BZF d   1       1.232   4.497  -5.947  0.00  0.00    -0.204 OA
ATOM      2  C2  BZF d   1       2.085   3.410  -5.928  0.00  0.00     0.174 A 
ATOM      3  C3  BZF d   1       1.388   2.257  -5.883  0.00  0.00    -0.012 A 
ATOM      4  C3A BZF d   1       0.013   2.644  -5.967  0.00  0.00    -0.107 A 
ATOM      5  C4  BZF d   1      -1.160   1.945  -5.986  0.00  0.00     0.055 A 
ATOM      6  C5  BZF d   1      -2.335   2.627  -6.000  0.00  0.00    -0.016 A 
ATOM      7  C6  BZF d   1      -2.375   4.005  -5.990  0.00  0.00     0.022 A 
ATOM      8  C7  BZF d   1      -1.237   4.742  -5.976  0.00  0.00     0.029 A 
ATOM      9  C7A BZF d   1      -0.048   4.056  -5.995  0.00  0.00     0.058 A 
ENDROOT
TORSDOF 0
ENDMDL
