MODEL 1
REMARK minimizedAffinity -1.36025739
REMARK minimizedRMSD -1
REMARK  0 active torsions:
REMARK  status: ('A' for Active; 'I' for Inactive)
ROOT
ATOM      1  O1  BZF d   1       2.684   5.799  -5.964  0.00  0.00    -0.204 OA
ATOM      2  C2  BZF d   1       3.758   4.931  -5.999  0.00  0.00     0.174 A 
ATOM      3  C3  BZF d   1       3.339   3.649  -5.963  0.00  0.00    -0.012 A 
ATOM      4  C3A BZF d   1       1.911   3.720  -5.995  0.00  0.00    -0.107 A 
ATOM      5  C4  BZF d   1       0.924   2.775  -5.997  0.00  0.00     0.055 A 
ATOM      6  C5  BZF d   1      -0.374   3.176  -5.958  0.00  0.00    -0.016 A 
ATOM      7  C6  BZF d   1      -0.721   4.510  -5.911  0.00  0.00     0.022 A 
ATOM      8  C7  BZF d   1       0.223   5.484  -5.912  0.00  0.00     0.029 A 
ATOM      9  C7A BZF d   1       1.534   5.083  -5.985  0.00  0.00     0.058 A 
ENDROOT
TORSDOF 0
ENDMDL
