MODEL 1
REMARK minimizedAffinity 2.40615892
REMARK minimizedRMSD -1
REMARK  0 active torsions:
REMARK  status: ('A' for Active; 'I' for Inactive)
ROOT
ATOM      1  O1  BZF d   1      -1.486   3.729  -5.957  0.00  0.00    -0.204 OA
ATOM      2  C2  BZF d   1      -2.079   4.977  -5.954  0.00  0.00     0.174 A 
ATOM      3  C3  BZF d   1      -1.146   5.950  -5.913  0.00  0.00    -0.012 A 
ATOM      4  C3A BZF d   1       0.111   5.269  -5.983  0.00  0.00    -0.107 A 
ATOM      5  C4  BZF d   1       1.409   5.693  -6.000  0.00  0.00     0.055 A 
ATOM      6  C5  BZF d   1       2.405   4.769  -6.000  0.00  0.00    -0.016 A 
ATOM      7  C6  BZF d   1       2.141   3.415  -5.978  0.00  0.00     0.022 A 
ATOM      8  C7  BZF d   1       0.869   2.947  -5.966  0.00  0.00     0.029 A 
ATOM      9  C7A BZF d   1      -0.140   3.877  -5.999  0.00  0.00     0.058 A 
ENDROOT
TORSDOF 0
ENDMDL
