MODEL 1
REMARK minimizedAffinity -2.31264496
REMARK minimizedRMSD -1
REMARK  0 active torsions:
REMARK  status: ('A' for Active; 'I' for Inactive)
ROOT
ATOM      1  O1  BZF d   1       0.218   2.999  -5.938  0.00  0.00    -0.204 OA
ATOM      2  C2  BZF d   1       1.171   3.999  -5.933  0.00  0.00     0.174 A 
ATOM      3  C3  BZF d   1       0.590   5.214  -6.000  0.00  0.00    -0.012 A 
ATOM      4  C3A BZF d   1      -0.818   4.961  -5.956  0.00  0.00    -0.107 A 
ATOM      5  C4  BZF d   1      -1.918   5.770  -5.972  0.00  0.00     0.055 A 
ATOM      6  C5  BZF d   1      -3.153   5.204  -5.991  0.00  0.00    -0.016 A 
ATOM      7  C6  BZF d   1      -3.325   3.835  -6.000  0.00  0.00     0.022 A 
ATOM      8  C7  BZF d   1      -2.264   2.992  -5.980  0.00  0.00     0.029 A 
ATOM      9  C7A BZF d   1      -1.015   3.561  -5.927  0.00  0.00     0.058 A 
ENDROOT
TORSDOF 0
ENDMDL
