MODEL 1
REMARK minimizedAffinity -2.30358934
REMARK minimizedRMSD -1
REMARK  0 active torsions:
REMARK  status: ('A' for Active; 'I' for Inactive)
ROOT
ATOM      1  O1  BZF d   1       1.184   4.429  -5.952  0.00  0.00    -0.204 OA
ATOM      2  C2  BZF d   1       1.873   3.232  -5.951  0.00  0.00     0.174 A 
ATOM      3  C3  BZF d   1       1.020   2.189  -5.913  0.00  0.00    -0.012 A 
ATOM      4  C3A BZF d   1      -0.287   2.768  -5.982  0.00  0.00    -0.107 A 
ATOM      5  C4  BZF d   1      -1.547   2.243  -6.000  0.00  0.00     0.055 A 
ATOM      6  C5  BZF d   1      -2.614   3.085  -5.998  0.00  0.00    -0.016 A 
ATOM      7  C6  BZF d   1      -2.457   4.455  -5.973  0.00  0.00     0.022 A 
ATOM      8  C7  BZF d   1      -1.226   5.023  -5.960  0.00  0.00     0.029 A 
ATOM      9  C7A BZF d   1      -0.146   4.175  -5.995  0.00  0.00     0.058 A 
ENDROOT
TORSDOF 0
ENDMDL
