MODEL 1
REMARK minimizedAffinity -2.59770536
REMARK minimizedRMSD -1
REMARK  0 active torsions:
REMARK  status: ('A' for Active; 'I' for Inactive)
ROOT
ATOM      1  O1  BZF d   1       1.383   5.047  -5.964  0.00  0.00    -0.204 OA
ATOM      2  C2  BZF d   1       2.279   3.995  -5.968  0.00  0.00     0.174 A 
ATOM      3  C3  BZF d   1       1.631   2.814  -5.926  0.00  0.00    -0.012 A 
ATOM      4  C3A BZF d   1       0.240   3.145  -5.988  0.00  0.00    -0.107 A 
ATOM      5  C4  BZF d   1      -0.903   2.399  -5.999  0.00  0.00     0.055 A 
ATOM      6  C5  BZF d   1      -2.106   3.032  -5.991  0.00  0.00    -0.016 A 
ATOM      7  C6  BZF d   1      -2.201   4.408  -5.965  0.00  0.00     0.022 A 
ATOM      8  C7  BZF d   1      -1.095   5.191  -5.958  0.00  0.00     0.029 A 
ATOM      9  C7A BZF d   1       0.121   4.554  -6.000  0.00  0.00     0.058 A 
ENDROOT
TORSDOF 0
ENDMDL
