MODEL 1
REMARK minimizedAffinity 1.22591162
REMARK minimizedRMSD -1
REMARK  0 active torsions:
REMARK  status: ('A' for Active; 'I' for Inactive)
ROOT
ATOM      1  O1  BZF d   1      -0.757   3.643  -5.958  0.00  0.00    -0.204 OA
ATOM      2  C2  BZF d   1      -1.368   4.882  -5.955  0.00  0.00     0.174 A 
ATOM      3  C3  BZF d   1      -0.449   5.868  -5.914  0.00  0.00    -0.012 A 
ATOM      4  C3A BZF d   1       0.817   5.206  -5.984  0.00  0.00    -0.107 A 
ATOM      5  C4  BZF d   1       2.109   5.649  -6.000  0.00  0.00     0.055 A 
ATOM      6  C5  BZF d   1       3.119   4.740  -5.999  0.00  0.00    -0.016 A 
ATOM      7  C6  BZF d   1       2.874   3.382  -5.977  0.00  0.00     0.022 A 
ATOM      8  C7  BZF d   1       1.609   2.895  -5.966  0.00  0.00     0.029 A 
ATOM      9  C7A BZF d   1       0.586   3.811  -6.000  0.00  0.00     0.058 A 
ENDROOT
TORSDOF 0
ENDMDL
