MODEL 1
REMARK minimizedAffinity -0.514240623
REMARK minimizedRMSD -1
REMARK  0 active torsions:
REMARK  status: ('A' for Active; 'I' for Inactive)
ROOT
ATOM      1  O1  BZF d   1      -0.056   3.710  -5.942  0.00  0.00    -0.204 OA
ATOM      2  C2  BZF d   1      -0.791   4.880  -5.937  0.00  0.00     0.174 A 
ATOM      3  C3  BZF d   1       0.023   5.956  -5.901  0.00  0.00    -0.012 A 
ATOM      4  C3A BZF d   1       1.350   5.426  -5.975  0.00  0.00    -0.107 A 
ATOM      5  C4  BZF d   1       2.589   5.999  -5.997  0.00  0.00     0.055 A 
ATOM      6  C5  BZF d   1       3.687   5.198  -6.000  0.00  0.00    -0.016 A 
ATOM      7  C6  BZF d   1       3.582   3.822  -5.976  0.00  0.00     0.022 A 
ATOM      8  C7  BZF d   1       2.374   3.208  -5.959  0.00  0.00     0.029 A 
ATOM      9  C7A BZF d   1       1.263   4.015  -5.989  0.00  0.00     0.058 A 
ENDROOT
TORSDOF 0
ENDMDL
