MODEL 1
REMARK minimizedAffinity 1.89512646
REMARK minimizedRMSD -1
REMARK  0 active torsions:
REMARK  status: ('A' for Active; 'I' for Inactive)
ROOT
ATOM      1  O1  BZF d   1       0.883   2.946  -5.988  0.00  0.00    -0.204 OA
ATOM      2  C2  BZF d   1       1.973   3.794  -5.971  0.00  0.00     0.174 A 
ATOM      3  C3  BZF d   1       1.577   5.083  -5.996  0.00  0.00    -0.012 A 
ATOM      4  C3A BZF d   1       0.148   5.038  -5.938  0.00  0.00    -0.107 A 
ATOM      5  C4  BZF d   1      -0.821   6.000  -5.916  0.00  0.00     0.055 A 
ATOM      6  C5  BZF d   1      -2.127   5.622  -5.931  0.00  0.00    -0.016 A 
ATOM      7  C6  BZF d   1      -2.498   4.294  -5.975  0.00  0.00     0.022 A 
ATOM      8  C7  BZF d   1      -1.572   3.305  -5.994  0.00  0.00     0.029 A 
ATOM      9  C7A BZF d   1      -0.253   3.682  -5.944  0.00  0.00     0.058 A 
ENDROOT
TORSDOF 0
ENDMDL
