MODEL 1
REMARK minimizedAffinity 13.7118168
REMARK minimizedRMSD -1
REMARK  0 active torsions:
REMARK  status: ('A' for Active; 'I' for Inactive)
ROOT
ATOM      1  C   UNL d   1      -1.754  -2.094   5.318  0.00  0.00     0.023 A 
ATOM      2  C1  UNL d   1      -0.759  -1.121   5.410  0.00  0.00     0.003 A 
ATOM      3  C2  UNL d   1      -0.050  -0.735   4.270  0.00  0.00     0.048 A 
ATOM      4  C3  UNL d   1      -0.342  -1.326   3.041  0.00  0.00     0.023 A 
ATOM      5  C4  UNL d   1      -1.337  -2.300   2.944  0.00  0.00     0.048 A 
ATOM      6  C5  UNL d   1      -2.043  -2.683   4.087  0.00  0.00     0.003 A 
ATOM      7  I   UNL d   1       0.712  -0.754   1.344  0.00  0.00    -0.146 I 
ENDROOT
TORSDOF 0
ENDMDL
