MODEL 1
REMARK minimizedAffinity 10.1141214
REMARK minimizedRMSD -1
REMARK  0 active torsions:
REMARK  status: ('A' for Active; 'I' for Inactive)
ROOT
ATOM      1  C   UNL d   1      -3.436  -2.491   3.070  0.00  0.00     0.023 A 
ATOM      2  C1  UNL d   1      -4.674  -2.628   2.442  0.00  0.00     0.003 A 
ATOM      3  C2  UNL d   1      -4.870  -3.635   1.495  0.00  0.00     0.048 A 
ATOM      4  C3  UNL d   1      -3.824  -4.501   1.180  0.00  0.00     0.023 A 
ATOM      5  C4  UNL d   1      -2.583  -4.368   1.806  0.00  0.00     0.048 A 
ATOM      6  C5  UNL d   1      -2.392  -3.359   2.753  0.00  0.00     0.003 A 
ATOM      7  I   UNL d   1      -4.113  -6.000  -0.230  0.00  0.00    -0.146 I 
ENDROOT
TORSDOF 0
ENDMDL
