MODEL 1
REMARK minimizedAffinity 6.7845521
REMARK minimizedRMSD -1
REMARK  0 active torsions:
REMARK  status: ('A' for Active; 'I' for Inactive)
ROOT
ATOM      1  C   UNL d   1      -2.546  -3.038   1.350  0.00  0.00     0.023 A 
ATOM      2  C1  UNL d   1      -3.870  -2.877   1.759  0.00  0.00     0.003 A 
ATOM      3  C2  UNL d   1      -4.863  -3.726   1.265  0.00  0.00     0.048 A 
ATOM      4  C3  UNL d   1      -4.524  -4.735   0.363  0.00  0.00     0.023 A 
ATOM      5  C4  UNL d   1      -3.201  -4.900  -0.048  0.00  0.00     0.048 A 
ATOM      6  C5  UNL d   1      -2.212  -4.048   0.448  0.00  0.00     0.003 A 
ATOM      7  I   UNL d   1      -6.000  -6.000  -0.372  0.00  0.00    -0.146 I 
ENDROOT
TORSDOF 0
ENDMDL
