MODEL 1
REMARK minimizedAffinity 3.79564857
REMARK minimizedRMSD -1
REMARK  0 active torsions:
REMARK  status: ('A' for Active; 'I' for Inactive)
ROOT
ATOM      1  C   UNL d   1       0.122  -5.990  -4.064  0.00  0.00     0.023 A 
ATOM      2  C1  UNL d   1       0.750  -5.051  -3.247  0.00  0.00     0.003 A 
ATOM      3  C2  UNL d   1       1.630  -4.118  -3.800  0.00  0.00     0.048 A 
ATOM      4  C3  UNL d   1       1.877  -4.131  -5.173  0.00  0.00     0.023 A 
ATOM      5  C4  UNL d   1       1.250  -5.069  -5.995  0.00  0.00     0.048 A 
ATOM      6  C5  UNL d   1       0.372  -5.999  -5.437  0.00  0.00     0.003 A 
ATOM      7  I   UNL d   1       3.186  -2.744  -5.999  0.00  0.00    -0.146 I 
ENDROOT
TORSDOF 0
ENDMDL
