MODEL 1
REMARK minimizedAffinity 5.75460386
REMARK minimizedRMSD -1
REMARK  0 active torsions:
REMARK  status: ('A' for Active; 'I' for Inactive)
ROOT
ATOM      1  C   UNL d   1      -3.997  -4.094   3.660  0.00  0.00     0.023 A 
ATOM      2  C1  UNL d   1      -4.312  -3.208   2.630  0.00  0.00     0.003 A 
ATOM      3  C2  UNL d   1      -4.357  -3.658   1.309  0.00  0.00     0.048 A 
ATOM      4  C3  UNL d   1      -4.088  -4.996   1.025  0.00  0.00     0.023 A 
ATOM      5  C4  UNL d   1      -3.773  -5.887   2.053  0.00  0.00     0.048 A 
ATOM      6  C5  UNL d   1      -3.728  -5.432   3.372  0.00  0.00     0.003 A 
ATOM      7  I   UNL d   1      -4.154  -5.669  -0.940  0.00  0.00    -0.146 I 
ENDROOT
TORSDOF 0
ENDMDL
