MODEL 1
REMARK minimizedAffinity 17.3996124
REMARK minimizedRMSD -1
REMARK  0 active torsions:
REMARK  status: ('A' for Active; 'I' for Inactive)
ROOT
ATOM      1  C   UNL d   1       1.372  -1.110   1.868  0.00  0.00     0.023 A 
ATOM      2  C1  UNL d   1       1.143  -2.348   1.265  0.00  0.00     0.003 A 
ATOM      3  C2  UNL d   1      -0.116  -2.946   1.355  0.00  0.00     0.048 A 
ATOM      4  C3  UNL d   1      -1.140  -2.302   2.047  0.00  0.00     0.023 A 
ATOM      5  C4  UNL d   1      -0.915  -1.064   2.651  0.00  0.00     0.048 A 
ATOM      6  C5  UNL d   1       0.345  -0.469   2.559  0.00  0.00     0.003 A 
ATOM      7  I   UNL d   1      -3.014  -3.191   2.181  0.00  0.00    -0.146 I 
ENDROOT
TORSDOF 0
ENDMDL
