MODEL 1
REMARK minimizedAffinity 10.8901644
REMARK minimizedRMSD -1
REMARK  0 active torsions:
REMARK  status: ('A' for Active; 'I' for Inactive)
ROOT
ATOM      1  C   UNL d   1       1.195  -0.614   1.812  0.00  0.00     0.023 A 
ATOM      2  C1  UNL d   1       0.294  -0.195   2.791  0.00  0.00     0.003 A 
ATOM      3  C2  UNL d   1      -0.865  -0.934   3.037  0.00  0.00     0.048 A 
ATOM      4  C3  UNL d   1      -1.117  -2.091   2.301  0.00  0.00     0.023 A 
ATOM      5  C4  UNL d   1      -0.218  -2.515   1.321  0.00  0.00     0.048 A 
ATOM      6  C5  UNL d   1       0.939  -1.773   1.078  0.00  0.00     0.003 A 
ATOM      7  I   UNL d   1      -2.841  -3.193   2.666  0.00  0.00    -0.146 I 
ENDROOT
TORSDOF 0
ENDMDL
