MODEL 1
REMARK minimizedAffinity 15.6278038
REMARK minimizedRMSD -1
REMARK  0 active torsions:
REMARK  status: ('A' for Active; 'I' for Inactive)
ROOT
ATOM      1  C   UNL d   1      -1.398  -0.488   5.998  0.00  0.00     0.023 A 
ATOM      2  C1  UNL d   1      -0.010  -0.495   5.861  0.00  0.00     0.003 A 
ATOM      3  C2  UNL d   1       0.567  -0.640   4.597  0.00  0.00     0.048 A 
ATOM      4  C3  UNL d   1      -0.250  -0.776   3.476  0.00  0.00     0.023 A 
ATOM      5  C4  UNL d   1      -1.640  -0.768   3.608  0.00  0.00     0.048 A 
ATOM      6  C5  UNL d   1      -2.212  -0.624   4.874  0.00  0.00     0.003 A 
ATOM      7  I   UNL d   1       0.606  -0.991   1.594  0.00  0.00    -0.146 I 
ENDROOT
TORSDOF 0
ENDMDL
