MODEL 1
REMARK minimizedAffinity 16.3321152
REMARK minimizedRMSD -1
REMARK  0 active torsions:
REMARK  status: ('A' for Active; 'I' for Inactive)
ROOT
ATOM      1  C   UNL d   1      -0.244  -2.518   1.284  0.00  0.00     0.023 A 
ATOM      2  C1  UNL d   1      -0.478  -1.239   1.788  0.00  0.00     0.003 A 
ATOM      3  C2  UNL d   1       0.589  -0.362   1.995  0.00  0.00     0.048 A 
ATOM      4  C3  UNL d   1       1.888  -0.771   1.694  0.00  0.00     0.023 A 
ATOM      5  C4  UNL d   1       2.127  -2.050   1.188  0.00  0.00     0.048 A 
ATOM      6  C5  UNL d   1       1.057  -2.923   0.984  0.00  0.00     0.003 A 
ATOM      7  I   UNL d   1       3.478   0.532   2.001  0.00  0.00    -0.146 I 
ENDROOT
TORSDOF 0
ENDMDL
