MODEL 1
REMARK minimizedAffinity 8.7456131
REMARK minimizedRMSD -1
REMARK  0 active torsions:
REMARK  status: ('A' for Active; 'I' for Inactive)
ROOT
ATOM      1  C   UNL d   1      -0.426  -2.508   1.999  0.00  0.00     0.023 A 
ATOM      2  C1  UNL d   1      -0.348  -1.491   2.950  0.00  0.00     0.003 A 
ATOM      3  C2  UNL d   1       0.862  -0.829   3.168  0.00  0.00     0.048 A 
ATOM      4  C3  UNL d   1       1.989  -1.188   2.431  0.00  0.00     0.023 A 
ATOM      5  C4  UNL d   1       1.916  -2.205   1.477  0.00  0.00     0.048 A 
ATOM      6  C5  UNL d   1       0.704  -2.864   1.263  0.00  0.00     0.003 A 
ATOM      7  I   UNL d   1       3.791  -0.204   2.754  0.00  0.00    -0.146 I 
ENDROOT
TORSDOF 0
ENDMDL
