MODEL 1
REMARK minimizedAffinity 10.9213238
REMARK minimizedRMSD -1
REMARK  0 active torsions:
REMARK  status: ('A' for Active; 'I' for Inactive)
ROOT
ATOM      1  C   UNL d   1       4.532   1.219   1.404  0.00  0.00     0.023 A 
ATOM      2  C1  UNL d   1       3.377   1.569   0.704  0.00  0.00     0.003 A 
ATOM      3  C2  UNL d   1       2.288   0.696   0.671  0.00  0.00     0.048 A 
ATOM      4  C3  UNL d   1       2.360  -0.525   1.341  0.00  0.00     0.023 A 
ATOM      5  C4  UNL d   1       3.513  -0.878   2.044  0.00  0.00     0.048 A 
ATOM      6  C5  UNL d   1       4.600  -0.003   2.073  0.00  0.00     0.003 A 
ATOM      7  I   UNL d   1       0.740  -1.826   1.295  0.00  0.00    -0.146 I 
ENDROOT
TORSDOF 0
ENDMDL
