MODEL 1
REMARK minimizedAffinity 1.86243045
REMARK minimizedRMSD -1
REMARK  0 active torsions:
REMARK  status: ('A' for Active; 'I' for Inactive)
ROOT
ATOM      1  C   UNL d   1      -3.748  -4.112   0.443  0.00  0.00     0.023 A 
ATOM      2  C1  UNL d   1      -4.117  -5.457   0.478  0.00  0.00     0.003 A 
ATOM      3  C2  UNL d   1      -4.673  -6.000   1.638  0.00  0.00     0.048 A 
ATOM      4  C3  UNL d   1      -4.857  -5.192   2.760  0.00  0.00     0.023 A 
ATOM      5  C4  UNL d   1      -4.490  -3.846   2.729  0.00  0.00     0.048 A 
ATOM      6  C5  UNL d   1      -3.934  -3.308   1.567  0.00  0.00     0.003 A 
ATOM      7  I   UNL d   1      -5.684  -5.998   4.488  0.00  0.00    -0.146 I 
ENDROOT
TORSDOF 0
ENDMDL
