MODEL 1
REMARK minimizedAffinity -0.998576999
REMARK minimizedRMSD -1
REMARK  0 active torsions:
REMARK  status: ('A' for Active; 'I' for Inactive)
ROOT
ATOM      1  C   UNL d   1      -5.271  -5.119   6.000  0.00  0.00     0.023 A 
ATOM      2  C1  UNL d   1      -5.994  -5.979   5.173  0.00  0.00     0.003 A 
ATOM      3  C2  UNL d   1      -5.943  -5.823   3.786  0.00  0.00     0.048 A 
ATOM      4  C3  UNL d   1      -5.168  -4.805   3.233  0.00  0.00     0.023 A 
ATOM      5  C4  UNL d   1      -4.442  -3.942   4.056  0.00  0.00     0.048 A 
ATOM      6  C5  UNL d   1      -4.497  -4.102   5.442  0.00  0.00     0.003 A 
ATOM      7  I   UNL d   1      -5.091  -4.570   1.169  0.00  0.00    -0.146 I 
ENDROOT
TORSDOF 0
ENDMDL
