MODEL 1
REMARK minimizedAffinity 15.8808861
REMARK minimizedRMSD -1
REMARK  0 active torsions:
REMARK  status: ('A' for Active; 'I' for Inactive)
ROOT
ATOM      1  C   UNL d   1       1.827   3.416   0.281  0.00  0.00     0.023 A 
ATOM      2  C1  UNL d   1       1.159   2.209   0.077  0.00  0.00     0.003 A 
ATOM      3  C2  UNL d   1       0.144   2.124  -0.878  0.00  0.00     0.048 A 
ATOM      4  C3  UNL d   1      -0.197   3.250  -1.626  0.00  0.00     0.023 A 
ATOM      5  C4  UNL d   1       0.469   4.460  -1.426  0.00  0.00     0.048 A 
ATOM      6  C5  UNL d   1       1.482   4.540  -0.469  0.00  0.00     0.003 A 
ATOM      7  I   UNL d   1      -1.708   3.125  -3.049  0.00  0.00    -0.146 I 
ENDROOT
TORSDOF 0
ENDMDL
