MODEL 1
REMARK minimizedAffinity 10.6136284
REMARK minimizedRMSD -1
REMARK  0 active torsions:
REMARK  status: ('A' for Active; 'I' for Inactive)
ROOT
ATOM      1  C   UNL d   1       2.787  -5.168  -6.000  0.00  0.00     0.023 A 
ATOM      2  C1  UNL d   1       3.003  -3.873  -5.527  0.00  0.00     0.003 A 
ATOM      3  C2  UNL d   1       2.298  -3.408  -4.415  0.00  0.00     0.048 A 
ATOM      4  C3  UNL d   1       1.380  -4.243  -3.779  0.00  0.00     0.023 A 
ATOM      5  C4  UNL d   1       1.162  -5.540  -4.248  0.00  0.00     0.048 A 
ATOM      6  C5  UNL d   1       1.867  -6.000  -5.361  0.00  0.00     0.003 A 
ATOM      7  I   UNL d   1       0.331  -3.554  -2.123  0.00  0.00    -0.146 I 
ENDROOT
TORSDOF 0
ENDMDL
