MODEL 1
REMARK minimizedAffinity 10.7363977
REMARK minimizedRMSD -1
REMARK  0 active torsions:
REMARK  status: ('A' for Active; 'I' for Inactive)
ROOT
ATOM      1  C4' PXY d   1       0.991  -3.708  -2.336  0.00  0.00     0.077 C 
ATOM      2  C1' PXY d   1       2.601   1.041   0.541  0.00  0.00     0.077 C 
ATOM      3  C1  PXY d   1       2.189  -0.211  -0.209  0.00  0.00    -0.082 A 
ATOM      4  C2  PXY d   1       1.382  -0.112  -1.253  0.00  0.00     0.003 A 
ATOM      5  C3  PXY d   1       0.975  -1.236  -1.924  0.00  0.00     0.003 A 
ATOM      6  C4  PXY d   1       1.440  -2.470  -1.554  0.00  0.00    -0.082 A 
ATOM      7  C5  PXY d   1       2.272  -2.578  -0.497  0.00  0.00     0.003 A 
ATOM      8  C6  PXY d   1       2.641  -1.428   0.196  0.00  0.00     0.003 A 
ENDROOT
TORSDOF 0
ENDMDL
