MODEL 1
REMARK minimizedAffinity 17.9022522
REMARK minimizedRMSD -1
REMARK  0 active torsions:
REMARK  status: ('A' for Active; 'I' for Inactive)
ROOT
ATOM      1  C4' PXY d   1      -4.669   1.839   3.336  0.00  0.00     0.077 C 
ATOM      2  C1' PXY d   1       0.944   1.043   2.203  0.00  0.00     0.077 C 
ATOM      3  C1  PXY d   1      -0.530   1.256   2.488  0.00  0.00    -0.082 A 
ATOM      4  C2  PXY d   1      -0.931   1.478   3.729  0.00  0.00     0.003 A 
ATOM      5  C3  PXY d   1      -2.263   1.640   4.009  0.00  0.00     0.003 A 
ATOM      6  C4  PXY d   1      -3.190   1.628   3.001  0.00  0.00    -0.082 A 
ATOM      7  C5  PXY d   1      -2.787   1.413   1.730  0.00  0.00     0.003 A 
ATOM      8  C6  PXY d   1      -1.435   1.209   1.473  0.00  0.00     0.003 A 
ENDROOT
TORSDOF 0
ENDMDL
