MODEL 1
REMARK minimizedAffinity 18.957058
REMARK minimizedRMSD -1
REMARK  0 active torsions:
REMARK  status: ('A' for Active; 'I' for Inactive)
ROOT
ATOM      1  C4' PXY d   1       3.069  -5.997   0.282  0.00  0.00     0.077 C 
ATOM      2  C1' PXY d   1       1.941  -0.548  -1.284  0.00  0.00     0.077 C 
ATOM      3  C1  PXY d   1       2.250  -1.975  -0.875  0.00  0.00    -0.082 A 
ATOM      4  C2  PXY d   1       1.309  -2.901  -0.970  0.00  0.00     0.003 A 
ATOM      5  C3  PXY d   1       1.561  -4.189  -0.575  0.00  0.00     0.003 A 
ATOM      6  C4  PXY d   1       2.805  -4.546  -0.128  0.00  0.00    -0.082 A 
ATOM      7  C5  PXY d   1       3.774  -3.610  -0.038  0.00  0.00     0.003 A 
ATOM      8  C6  PXY d   1       3.485  -2.299  -0.406  0.00  0.00     0.003 A 
ENDROOT
TORSDOF 0
ENDMDL
