MODEL 1
REMARK minimizedAffinity 9.8483963
REMARK minimizedRMSD -1
REMARK  0 active torsions:
REMARK  status: ('A' for Active; 'I' for Inactive)
ROOT
ATOM      1  C4' PXY d   1       0.073   5.978   1.393  0.00  0.00     0.077 C 
ATOM      2  C1' PXY d   1       4.398   5.987  -2.443  0.00  0.00     0.077 C 
ATOM      3  C1  PXY d   1       3.271   5.979  -1.428  0.00  0.00    -0.082 A 
ATOM      4  C2  PXY d   1       2.016   5.971  -1.844  0.00  0.00     0.003 A 
ATOM      5  C3  PXY d   1       0.985   5.997  -0.940  0.00  0.00     0.003 A 
ATOM      6  C4  PXY d   1       1.242   5.977   0.405  0.00  0.00    -0.082 A 
ATOM      7  C5  PXY d   1       2.521   5.974   0.837  0.00  0.00     0.003 A 
ATOM      8  C6  PXY d   1       3.553   5.990  -0.096  0.00  0.00     0.003 A 
ENDROOT
TORSDOF 0
ENDMDL
