MODEL 1
REMARK minimizedAffinity 22.4860172
REMARK minimizedRMSD -1
REMARK  0 active torsions:
REMARK  status: ('A' for Active; 'I' for Inactive)
ROOT
ATOM      1  C4' PXY d   1       3.689  -5.998   0.840  0.00  0.00     0.077 C 
ATOM      2  C1' PXY d   1       2.346  -0.466  -0.162  0.00  0.00     0.077 C 
ATOM      3  C1  PXY d   1       2.711  -1.914   0.098  0.00  0.00    -0.082 A 
ATOM      4  C2  PXY d   1       1.794  -2.857  -0.049  0.00  0.00     0.003 A 
ATOM      5  C3  PXY d   1       2.098  -4.168   0.213  0.00  0.00     0.003 A 
ATOM      6  C4  PXY d   1       3.368  -4.524   0.579  0.00  0.00    -0.082 A 
ATOM      7  C5  PXY d   1       4.313  -3.570   0.721  0.00  0.00     0.003 A 
ATOM      8  C6  PXY d   1       3.973  -2.240   0.490  0.00  0.00     0.003 A 
ENDROOT
TORSDOF 0
ENDMDL
