MODEL 1
REMARK minimizedAffinity 0.183309183
REMARK minimizedRMSD -1
REMARK  0 active torsions:
REMARK  status: ('A' for Active; 'I' for Inactive)
ROOT
ATOM      1  C4' PXY d   1       1.445   0.836  -2.879  0.00  0.00     0.077 C 
ATOM      2  C1' PXY d   1       3.418  -3.592   0.270  0.00  0.00     0.077 C 
ATOM      3  C1  PXY d   1       2.897  -2.424  -0.545  0.00  0.00    -0.082 A 
ATOM      4  C2  PXY d   1       2.533  -2.615  -1.803  0.00  0.00     0.003 A 
ATOM      5  C3  PXY d   1       2.089  -1.564  -2.563  0.00  0.00     0.003 A 
ATOM      6  C4  PXY d   1       1.968  -0.315  -2.016  0.00  0.00    -0.082 A 
ATOM      7  C5  PXY d   1       2.328  -0.115  -0.730  0.00  0.00     0.003 A 
ATOM      8  C6  PXY d   1       2.814  -1.186   0.013  0.00  0.00     0.003 A 
ENDROOT
TORSDOF 0
ENDMDL
