MODEL 1
REMARK minimizedAffinity 16.7768078
REMARK minimizedRMSD -1
REMARK  0 active torsions:
REMARK  status: ('A' for Active; 'I' for Inactive)
ROOT
ATOM      1  C4' PXY d   1       2.276  -0.646  -3.620  0.00  0.00     0.077 C 
ATOM      2  C1' PXY d   1       2.767   4.769  -1.658  0.00  0.00     0.077 C 
ATOM      3  C1  PXY d   1       2.649   3.346  -2.166  0.00  0.00    -0.082 A 
ATOM      4  C2  PXY d   1       1.935   3.096  -3.252  0.00  0.00     0.003 A 
ATOM      5  C3  PXY d   1       1.792   1.811  -3.707  0.00  0.00     0.003 A 
ATOM      6  C4  PXY d   1       2.430   0.777  -3.075  0.00  0.00    -0.082 A 
ATOM      7  C5  PXY d   1       3.169   1.025  -1.974  0.00  0.00     0.003 A 
ATOM      8  C6  PXY d   1       3.268   2.332  -1.504  0.00  0.00     0.003 A 
ENDROOT
TORSDOF 0
ENDMDL
