MODEL 1
REMARK minimizedAffinity 17.8233814
REMARK minimizedRMSD -1
REMARK  0 active torsions:
REMARK  status: ('A' for Active; 'I' for Inactive)
ROOT
ATOM      1  C4' PXY d   1       2.845  -1.126  -0.153  0.00  0.00     0.077 C 
ATOM      2  C1' PXY d   1       2.818   4.539  -1.301  0.00  0.00     0.077 C 
ATOM      3  C1  PXY d   1       2.832   3.056  -0.989  0.00  0.00    -0.082 A 
ATOM      4  C2  PXY d   1       2.667   2.180  -1.967  0.00  0.00     0.003 A 
ATOM      5  C3  PXY d   1       2.645   0.836  -1.698  0.00  0.00     0.003 A 
ATOM      6  C4  PXY d   1       2.848   0.381  -0.422  0.00  0.00    -0.082 A 
ATOM      7  C5  PXY d   1       3.027   1.268   0.579  0.00  0.00     0.003 A 
ATOM      8  C6  PXY d   1       3.005   2.629   0.292  0.00  0.00     0.003 A 
ENDROOT
TORSDOF 0
ENDMDL
