MODEL 1
REMARK minimizedAffinity 21.7440586
REMARK minimizedRMSD -1
REMARK  0 active torsions:
REMARK  status: ('A' for Active; 'I' for Inactive)
ROOT
ATOM      1  C4' PXY d   1       3.057  -4.363   0.048  0.00  0.00     0.077 C 
ATOM      2  C1' PXY d   1       3.330   1.398  -0.347  0.00  0.00     0.077 C 
ATOM      3  C1  PXY d   1       3.272  -0.114  -0.244  0.00  0.00    -0.082 A 
ATOM      4  C2  PXY d   1       2.184  -0.755  -0.639  0.00  0.00     0.003 A 
ATOM      5  C3  PXY d   1       2.102  -2.119  -0.523  0.00  0.00     0.003 A 
ATOM      6  C4  PXY d   1       3.164  -2.839  -0.046  0.00  0.00    -0.082 A 
ATOM      7  C5  PXY d   1       4.282  -2.193   0.349  0.00  0.00     0.003 A 
ATOM      8  C6  PXY d   1       4.329  -0.804   0.262  0.00  0.00     0.003 A 
ENDROOT
TORSDOF 0
ENDMDL
