MODEL 1
REMARK minimizedAffinity -2.73800874
REMARK minimizedRMSD -1
REMARK  0 active torsions:
REMARK  status: ('A' for Active; 'I' for Inactive)
ROOT
ATOM      1  C4' PXY d   1       1.790  -0.469  -1.227  0.00  0.00     0.077 C 
ATOM      2  C1' PXY d   1       3.169  -6.000  -2.189  0.00  0.00     0.077 C 
ATOM      3  C1  PXY d   1       2.809  -4.551  -1.924  0.00  0.00    -0.082 A 
ATOM      4  C2  PXY d   1       2.086  -3.885  -2.809  0.00  0.00     0.003 A 
ATOM      5  C3  PXY d   1       1.778  -2.565  -2.600  0.00  0.00     0.003 A 
ATOM      6  C4  PXY d   1       2.169  -1.936  -1.449  0.00  0.00    -0.082 A 
ATOM      7  C5  PXY d   1       2.898  -2.613  -0.536  0.00  0.00     0.003 A 
ATOM      8  C6  PXY d   1       3.235  -3.940  -0.786  0.00  0.00     0.003 A 
ENDROOT
TORSDOF 0
ENDMDL
