MODEL 1
REMARK minimizedAffinity 11.8994017
REMARK minimizedRMSD -1
REMARK  0 active torsions:
REMARK  status: ('A' for Active; 'I' for Inactive)
ROOT
ATOM      1  C4' PXY d   1      -3.510   1.612   3.063  0.00  0.00     0.077 C 
ATOM      2  C1' PXY d   1       2.011   1.380   1.367  0.00  0.00     0.077 C 
ATOM      3  C1  PXY d   1       0.560   1.439   1.799  0.00  0.00    -0.082 A 
ATOM      4  C2  PXY d   1       0.229   2.108   2.892  0.00  0.00     0.003 A 
ATOM      5  C3  PXY d   1      -1.075   2.145   3.315  0.00  0.00     0.003 A 
ATOM      6  C4  PXY d   1      -2.058   1.534   2.583  0.00  0.00    -0.082 A 
ATOM      7  C5  PXY d   1      -1.730   0.858   1.462  0.00  0.00     0.003 A 
ATOM      8  C6  PXY d   1      -0.395   0.798   1.072  0.00  0.00     0.003 A 
ENDROOT
TORSDOF 0
ENDMDL
