MODEL 1
REMARK minimizedAffinity 12.7791367
REMARK minimizedRMSD -1
REMARK  0 active torsions:
REMARK  status: ('A' for Active; 'I' for Inactive)
ROOT
ATOM      1  C4' PXY d   1      -3.537   1.217   2.940  0.00  0.00     0.077 C 
ATOM      2  C1' PXY d   1       2.148   1.754   2.036  0.00  0.00     0.077 C 
ATOM      3  C1  PXY d   1       0.656   1.626   2.273  0.00  0.00    -0.082 A 
ATOM      4  C2  PXY d   1       0.177   0.542   2.862  0.00  0.00     0.003 A 
ATOM      5  C3  PXY d   1      -1.172   0.396   3.055  0.00  0.00     0.003 A 
ATOM      6  C4  PXY d   1      -2.036   1.393   2.689  0.00  0.00    -0.082 A 
ATOM      7  C5  PXY d   1      -1.555   2.506   2.096  0.00  0.00     0.003 A 
ATOM      8  C6  PXY d   1      -0.186   2.617   1.872  0.00  0.00     0.003 A 
ENDROOT
TORSDOF 0
ENDMDL
