MODEL 1
REMARK minimizedAffinity 14.8463373
REMARK minimizedRMSD -1
REMARK  0 active torsions:
REMARK  status: ('A' for Active; 'I' for Inactive)
ROOT
ATOM      1  C4' PXY d   1       0.212   0.982   2.995  0.00  0.00     0.077 C 
ATOM      2  C1' PXY d   1      -5.266   2.399   4.177  0.00  0.00     0.077 C 
ATOM      3  C1  PXY d   1      -3.826   2.034   3.878  0.00  0.00    -0.082 A 
ATOM      4  C2  PXY d   1      -3.460   1.783   2.631  0.00  0.00     0.003 A 
ATOM      5  C3  PXY d   1      -2.169   1.420   2.347  0.00  0.00     0.003 A 
ATOM      6  C4  PXY d   1      -1.230   1.364   3.342  0.00  0.00    -0.082 A 
ATOM      7  C5  PXY d   1      -1.593   1.629   4.615  0.00  0.00     0.003 A 
ATOM      8  C6  PXY d   1      -2.918   1.956   4.888  0.00  0.00     0.003 A 
ENDROOT
TORSDOF 0
ENDMDL
