MODEL 1
REMARK minimizedAffinity 13.0780239
REMARK minimizedRMSD -1
REMARK  0 active torsions:
REMARK  status: ('A' for Active; 'I' for Inactive)
ROOT
ATOM      1  C4' PXY d   1       1.615   0.816   0.915  0.00  0.00     0.077 C 
ATOM      2  C1' PXY d   1      -3.767   1.123   3.001  0.00  0.00     0.077 C 
ATOM      3  C1  PXY d   1      -2.351   1.050   2.464  0.00  0.00    -0.082 A 
ATOM      4  C2  PXY d   1      -2.151   0.851   1.172  0.00  0.00     0.003 A 
ATOM      5  C3  PXY d   1      -0.878   0.750   0.674  0.00  0.00     0.003 A 
ATOM      6  C4  PXY d   1       0.203   0.907   1.500  0.00  0.00    -0.082 A 
ATOM      7  C5  PXY d   1       0.007   1.120   2.819  0.00  0.00     0.003 A 
ATOM      8  C6  PXY d   1      -1.293   1.179   3.310  0.00  0.00     0.003 A 
ENDROOT
TORSDOF 0
ENDMDL
