MODEL 1
REMARK minimizedAffinity 11.1737804
REMARK minimizedRMSD -1
REMARK  0 active torsions:
REMARK  status: ('A' for Active; 'I' for Inactive)
ROOT
ATOM      1  C4' PXY d   1       2.890   5.994   1.436  0.00  0.00     0.077 C 
ATOM      2  C1' PXY d   1      -0.726   5.946  -3.074  0.00  0.00     0.077 C 
ATOM      3  C1  PXY d   1       0.213   5.964  -1.884  0.00  0.00    -0.082 A 
ATOM      4  C2  PXY d   1       1.521   6.000  -2.083  0.00  0.00     0.003 A 
ATOM      5  C3  PXY d   1       2.385   5.984  -1.018  0.00  0.00     0.003 A 
ATOM      6  C4  PXY d   1       1.905   5.985   0.264  0.00  0.00    -0.082 A 
ATOM      7  C5  PXY d   1       0.572   5.959   0.475  0.00  0.00     0.003 A 
ATOM      8  C6  PXY d   1      -0.288   5.934  -0.619  0.00  0.00     0.003 A 
ENDROOT
TORSDOF 0
ENDMDL
