MODEL 1
REMARK minimizedAffinity 11.4348803
REMARK minimizedRMSD -1
REMARK  0 active torsions:
REMARK  status: ('A' for Active; 'I' for Inactive)
ROOT
ATOM      1  C4' PXY d   1       0.797  -2.990  -2.891  0.00  0.00     0.077 C 
ATOM      2  C1' PXY d   1       3.272   1.333   0.043  0.00  0.00     0.077 C 
ATOM      3  C1  PXY d   1       2.632   0.191  -0.722  0.00  0.00    -0.082 A 
ATOM      4  C2  PXY d   1       1.856   0.454  -1.761  0.00  0.00     0.003 A 
ATOM      5  C3  PXY d   1       1.244  -0.565  -2.445  0.00  0.00     0.003 A 
ATOM      6  C4  PXY d   1       1.471  -1.869  -2.094  0.00  0.00    -0.082 A 
ATOM      7  C5  PXY d   1       2.270  -2.146  -1.042  0.00  0.00     0.003 A 
ATOM      8  C6  PXY d   1       2.849  -1.096  -0.336  0.00  0.00     0.003 A 
ENDROOT
TORSDOF 0
ENDMDL
