MODEL 1
REMARK minimizedAffinity 8.86625862
REMARK minimizedRMSD -1
REMARK  0 active torsions:
REMARK  status: ('A' for Active; 'I' for Inactive)
ROOT
ATOM      1  C4' PXY d   1       2.398   2.212   2.957  0.00  0.00     0.077 C 
ATOM      2  C1' PXY d   1      -2.999   0.614   1.638  0.00  0.00     0.077 C 
ATOM      3  C1  PXY d   1      -1.588   1.045   1.986  0.00  0.00    -0.082 A 
ATOM      4  C2  PXY d   1      -0.560   0.349   1.529  0.00  0.00     0.003 A 
ATOM      5  C3  PXY d   1       0.722   0.706   1.860  0.00  0.00     0.003 A 
ATOM      6  C4  PXY d   1       0.956   1.818   2.624  0.00  0.00    -0.082 A 
ATOM      7  C5  PXY d   1      -0.088   2.540   3.085  0.00  0.00     0.003 A 
ATOM      8  C6  PXY d   1      -1.382   2.137   2.771  0.00  0.00     0.003 A 
ENDROOT
TORSDOF 0
ENDMDL
