MODEL 1
REMARK minimizedAffinity 15.2124538
REMARK minimizedRMSD -1
REMARK  0 active torsions:
REMARK  status: ('A' for Active; 'I' for Inactive)
ROOT
ATOM      1  C4' PXY d   1      -0.012  -4.835  -3.004  0.00  0.00     0.077 C 
ATOM      2  C1' PXY d   1      -4.519  -2.802  -6.000  0.00  0.00     0.077 C 
ATOM      3  C1  PXY d   1      -3.334  -3.344  -5.224  0.00  0.00    -0.082 A 
ATOM      4  C2  PXY d   1      -3.303  -3.219  -3.907  0.00  0.00     0.003 A 
ATOM      5  C3  PXY d   1      -2.224  -3.674  -3.193  0.00  0.00     0.003 A 
ATOM      6  C4  PXY d   1      -1.192  -4.312  -3.828  0.00  0.00    -0.082 A 
ATOM      7  C5  PXY d   1      -1.222  -4.452  -5.170  0.00  0.00     0.003 A 
ATOM      8  C6  PXY d   1      -2.307  -3.947  -5.881  0.00  0.00     0.003 A 
ENDROOT
TORSDOF 0
ENDMDL
