MODEL 1
REMARK minimizedAffinity 9.18451881
REMARK minimizedRMSD -1
REMARK  0 active torsions:
REMARK  status: ('A' for Active; 'I' for Inactive)
ROOT
ATOM      1  C4' PXY d   1      -5.763   3.829   5.998  0.00  0.00     0.077 C 
ATOM      2  C1' PXY d   1      -2.068   0.614   2.928  0.00  0.00     0.077 C 
ATOM      3  C1  PXY d   1      -3.036   1.449   3.743  0.00  0.00    -0.082 A 
ATOM      4  C2  PXY d   1      -3.920   2.215   3.125  0.00  0.00     0.003 A 
ATOM      5  C3  PXY d   1      -4.781   3.001   3.847  0.00  0.00     0.003 A 
ATOM      6  C4  PXY d   1      -4.773   2.962   5.216  0.00  0.00    -0.082 A 
ATOM      7  C5  PXY d   1      -3.881   2.174   5.853  0.00  0.00     0.003 A 
ATOM      8  C6  PXY d   1      -2.988   1.416   5.102  0.00  0.00     0.003 A 
ENDROOT
TORSDOF 0
ENDMDL
