MODEL 1
REMARK minimizedAffinity 15.134861
REMARK minimizedRMSD -1
REMARK  0 active torsions:
REMARK  status: ('A' for Active; 'I' for Inactive)
ROOT
ATOM      1  C4' PXY d   1       1.804   1.007   1.397  0.00  0.00     0.077 C 
ATOM      2  C1' PXY d   1       1.808  -0.756  -4.108  0.00  0.00     0.077 C 
ATOM      3  C1  PXY d   1       1.818  -0.287  -2.666  0.00  0.00    -0.082 A 
ATOM      4  C2  PXY d   1       1.181  -0.991  -1.745  0.00  0.00     0.003 A 
ATOM      5  C3  PXY d   1       1.153  -0.564  -0.442  0.00  0.00     0.003 A 
ATOM      6  C4  PXY d   1       1.829   0.566  -0.069  0.00  0.00    -0.082 A 
ATOM      7  C5  PXY d   1       2.490   1.284  -1.001  0.00  0.00     0.003 A 
ATOM      8  C6  PXY d   1       2.472   0.857  -2.325  0.00  0.00     0.003 A 
ENDROOT
TORSDOF 0
ENDMDL
