MODEL 1
REMARK minimizedAffinity -5.02591228
REMARK minimizedRMSD -1
REMARK  2 active torsions:
REMARK  status: ('A' for Active; 'I' for Inactive)
REMARK    1  A    between atoms: C1_2  and  C2_3 
REMARK    2  A    between atoms: C2_3  and  C3_4 
ROOT
ATOM      1  C3  UNL d   1      -0.121   0.270   0.367  0.00  0.00    -0.075 A 
ATOM      2  C4  UNL d   1      -1.235  -0.374   0.926  0.00  0.00     0.002 A 
ATOM      3  C5  UNL d   1      -1.296  -1.767   0.977  0.00  0.00     0.002 A 
ATOM      4  C6  UNL d   1      -0.253  -2.532   0.462  0.00  0.00    -0.004 A 
ATOM      5  C7  UNL d   1       0.851  -1.904  -0.111  0.00  0.00     0.002 A 
ATOM      6  C8  UNL d   1       0.917  -0.510  -0.159  0.00  0.00     0.002 A 
ENDROOT
BRANCH   1   7
ATOM      7  C2  UNL d   1      -0.036   1.777   0.335  0.00  0.00     0.056 C 
BRANCH   7   8
ATOM      8  C1  UNL d   1       1.379   2.317   0.100  0.00  0.00     0.007 C 
ATOM      9  C   UNL d   1       1.607   3.692   0.713  0.00  0.00     0.009 C 
ENDBRANCH   7   8
ENDBRANCH   1   7
TORSDOF 2
ENDMDL
