MODEL 1
REMARK minimizedAffinity -5.40710974
REMARK minimizedRMSD -1
REMARK  2 active torsions:
REMARK  status: ('A' for Active; 'I' for Inactive)
REMARK    1  A    between atoms: C1_2  and  C2_3 
REMARK    2  A    between atoms: C2_3  and  C3_4 
ROOT
ATOM      1  C3  UNL d   1      -0.382  -0.235   0.115  0.00  0.00    -0.075 A 
ATOM      2  C4  UNL d   1      -1.266  -1.039   0.848  0.00  0.00     0.002 A 
ATOM      3  C5  UNL d   1      -1.089  -2.422   0.900  0.00  0.00     0.002 A 
ATOM      4  C6  UNL d   1      -0.035  -3.018   0.211  0.00  0.00    -0.004 A 
ATOM      5  C7  UNL d   1       0.839  -2.231  -0.534  0.00  0.00     0.002 A 
ATOM      6  C8  UNL d   1       0.668  -0.846  -0.584  0.00  0.00     0.002 A 
ENDROOT
BRANCH   1   7
ATOM      7  C2  UNL d   1      -0.550   1.266   0.079  0.00  0.00     0.056 C 
BRANCH   7   8
ATOM      8  C1  UNL d   1       0.253   1.957  -1.027  0.00  0.00     0.007 C 
ATOM      9  C   UNL d   1       1.353   2.865  -0.493  0.00  0.00     0.009 C 
ENDBRANCH   7   8
ENDBRANCH   1   7
TORSDOF 2
ENDMDL
