MODEL 1
REMARK minimizedAffinity -4.0798049
REMARK minimizedRMSD -1
REMARK  2 active torsions:
REMARK  status: ('A' for Active; 'I' for Inactive)
REMARK    1  A    between atoms: C1_2  and  C2_3 
REMARK    2  A    between atoms: C2_3  and  C3_4 
ROOT
ATOM      1  C3  UNL d   1       0.198   1.623  -0.428  0.00  0.00    -0.075 A 
ATOM      2  C4  UNL d   1       0.208   0.785   0.696  0.00  0.00     0.002 A 
ATOM      3  C5  UNL d   1       0.186  -0.602   0.546  0.00  0.00     0.002 A 
ATOM      4  C6  UNL d   1       0.144  -1.168  -0.726  0.00  0.00    -0.004 A 
ATOM      5  C7  UNL d   1       0.117  -0.344  -1.850  0.00  0.00     0.002 A 
ATOM      6  C8  UNL d   1       0.143   1.044  -1.703  0.00  0.00     0.002 A 
ENDROOT
BRANCH   1   7
ATOM      7  C2  UNL d   1       0.251   3.124  -0.273  0.00  0.00     0.056 C 
BRANCH   7   8
ATOM      8  C1  UNL d   1       1.672   3.694  -0.201  0.00  0.00     0.007 C 
ATOM      9  C   UNL d   1       2.175   3.874   1.225  0.00  0.00     0.009 C 
ENDBRANCH   7   8
ENDBRANCH   1   7
TORSDOF 2
ENDMDL
