MODEL 1
REMARK minimizedAffinity -4.47037649
REMARK minimizedRMSD -1
REMARK  2 active torsions:
REMARK  status: ('A' for Active; 'I' for Inactive)
REMARK    1  A    between atoms: C1_2  and  C2_3 
REMARK    2  A    between atoms: C2_3  and  C3_4 
ROOT
ATOM      1  C3  UNL d   1       0.043   0.061   0.073  0.00  0.00    -0.075 A 
ATOM      2  C4  UNL d   1      -0.896  -0.411   1.002  0.00  0.00     0.002 A 
ATOM      3  C5  UNL d   1      -1.053  -1.780   1.217  0.00  0.00     0.002 A 
ATOM      4  C6  UNL d   1      -0.283  -2.694   0.501  0.00  0.00    -0.004 A 
ATOM      5  C7  UNL d   1       0.641  -2.237  -0.436  0.00  0.00     0.002 A 
ATOM      6  C8  UNL d   1       0.803  -0.867  -0.651  0.00  0.00     0.002 A 
ENDROOT
BRANCH   1   7
ATOM      7  C2  UNL d   1       0.238   1.542  -0.143  0.00  0.00     0.056 C 
BRANCH   7   8
ATOM      8  C1  UNL d   1       1.703   1.992  -0.095  0.00  0.00     0.007 C 
ATOM      9  C   UNL d   1       1.921   3.237   0.754  0.00  0.00     0.009 C 
ENDBRANCH   7   8
ENDBRANCH   1   7
TORSDOF 2
ENDMDL
