MODEL 1
REMARK minimizedAffinity -3.7101984
REMARK minimizedRMSD -1
REMARK  2 active torsions:
REMARK  status: ('A' for Active; 'I' for Inactive)
REMARK    1  A    between atoms: C1_2  and  C2_3 
REMARK    2  A    between atoms: C2_3  and  C3_4 
ROOT
ATOM      1  C3  UNL d   1      -0.165   0.803  -0.112  0.00  0.00    -0.075 A 
ATOM      2  C4  UNL d   1       0.238   0.671  -1.448  0.00  0.00     0.002 A 
ATOM      3  C5  UNL d   1       0.404  -0.593  -2.016  0.00  0.00     0.002 A 
ATOM      4  C6  UNL d   1       0.180  -1.737  -1.254  0.00  0.00    -0.004 A 
ATOM      5  C7  UNL d   1      -0.205  -1.618   0.079  0.00  0.00     0.002 A 
ATOM      6  C8  UNL d   1      -0.376  -0.355   0.649  0.00  0.00     0.002 A 
ENDROOT
BRANCH   1   7
ATOM      7  C2  UNL d   1      -0.376   2.167   0.500  0.00  0.00     0.056 C 
BRANCH   7   8
ATOM      8  C1  UNL d   1       0.923   2.924   0.798  0.00  0.00     0.007 C 
ATOM      9  C   UNL d   1       0.693   4.262   1.488  0.00  0.00     0.009 C 
ENDBRANCH   7   8
ENDBRANCH   1   7
TORSDOF 2
ENDMDL
