MODEL 1
REMARK minimizedAffinity -4.9412179
REMARK minimizedRMSD -1
REMARK  2 active torsions:
REMARK  status: ('A' for Active; 'I' for Inactive)
REMARK    1  A    between atoms: C1_2  and  C2_3 
REMARK    2  A    between atoms: C2_3  and  C3_4 
ROOT
ATOM      1  C3  UNL d   1      -0.274   0.276   0.116  0.00  0.00    -0.075 A 
ATOM      2  C4  UNL d   1       0.598  -0.680  -0.426  0.00  0.00     0.002 A 
ATOM      3  C5  UNL d   1       0.436  -2.034  -0.133  0.00  0.00     0.002 A 
ATOM      4  C6  UNL d   1      -0.591  -2.449   0.713  0.00  0.00    -0.004 A 
ATOM      5  C7  UNL d   1      -1.452  -1.506   1.271  0.00  0.00     0.002 A 
ATOM      6  C8  UNL d   1      -1.295  -0.151   0.975  0.00  0.00     0.002 A 
ENDROOT
BRANCH   1   7
ATOM      7  C2  UNL d   1      -0.122   1.740  -0.221  0.00  0.00     0.056 C 
BRANCH   7   8
ATOM      8  C1  UNL d   1       0.786   2.511   0.743  0.00  0.00     0.007 C 
ATOM      9  C   UNL d   1       2.088   2.972   0.101  0.00  0.00     0.009 C 
ENDBRANCH   7   8
ENDBRANCH   1   7
TORSDOF 2
ENDMDL
