MODEL 1
REMARK minimizedAffinity -4.23138332
REMARK minimizedRMSD -1
REMARK  2 active torsions:
REMARK  status: ('A' for Active; 'I' for Inactive)
REMARK    1  A    between atoms: C1_2  and  C2_3 
REMARK    2  A    between atoms: C2_3  and  C3_4 
ROOT
ATOM      1  C3  UNL d   1      -0.099  -0.417  -0.202  0.00  0.00    -0.075 A 
ATOM      2  C4  UNL d   1      -0.539  -0.962   1.012  0.00  0.00     0.002 A 
ATOM      3  C5  UNL d   1      -0.664  -2.343   1.164  0.00  0.00     0.002 A 
ATOM      4  C6  UNL d   1      -0.361  -3.194   0.104  0.00  0.00    -0.004 A 
ATOM      5  C7  UNL d   1       0.061  -2.662  -1.113  0.00  0.00     0.002 A 
ATOM      6  C8  UNL d   1       0.192  -1.281  -1.266  0.00  0.00     0.002 A 
ENDROOT
BRANCH   1   7
ATOM      7  C2  UNL d   1       0.067   1.076  -0.364  0.00  0.00     0.056 C 
BRANCH   7   8
ATOM      8  C1  UNL d   1       1.471   1.587  -0.026  0.00  0.00     0.007 C 
ATOM      9  C   UNL d   1       1.493   3.054   0.383  0.00  0.00     0.009 C 
ENDBRANCH   7   8
ENDBRANCH   1   7
TORSDOF 2
ENDMDL
