MODEL 1
REMARK minimizedAffinity -3.11766338
REMARK minimizedRMSD -1
REMARK  2 active torsions:
REMARK  status: ('A' for Active; 'I' for Inactive)
REMARK    1  A    between atoms: C1_2  and  C2_3 
REMARK    2  A    between atoms: C2_3  and  C3_4 
ROOT
ATOM      1  C3  UNL d   1      -0.095   0.016   0.616  0.00  0.00    -0.075 A 
ATOM      2  C4  UNL d   1       1.119  -0.602   0.950  0.00  0.00     0.002 A 
ATOM      3  C5  UNL d   1       1.195  -1.988   1.085  0.00  0.00     0.002 A 
ATOM      4  C6  UNL d   1       0.059  -2.773   0.897  0.00  0.00    -0.004 A 
ATOM      5  C7  UNL d   1      -1.156  -2.168   0.581  0.00  0.00     0.002 A 
ATOM      6  C8  UNL d   1      -1.234  -0.781   0.442  0.00  0.00     0.002 A 
ENDROOT
BRANCH   1   7
ATOM      7  C2  UNL d   1      -0.177   1.514   0.441  0.00  0.00     0.056 C 
BRANCH   7   8
ATOM      8  C1  UNL d   1       1.169   2.232   0.576  0.00  0.00     0.007 C 
ATOM      9  C   UNL d   1       1.040   3.656   1.101  0.00  0.00     0.009 C 
ENDBRANCH   7   8
ENDBRANCH   1   7
TORSDOF 2
ENDMDL
