MODEL 1
REMARK minimizedAffinity -4.51053572
REMARK minimizedRMSD -1
REMARK  2 active torsions:
REMARK  status: ('A' for Active; 'I' for Inactive)
REMARK    1  A    between atoms: C1_2  and  C2_3 
REMARK    2  A    between atoms: C2_3  and  C3_4 
ROOT
ATOM      1  C3  UNL d   1      -0.071   0.117  -0.071  0.00  0.00    -0.075 A 
ATOM      2  C4  UNL d   1      -1.095  -0.414   0.726  0.00  0.00     0.002 A 
ATOM      3  C5  UNL d   1      -1.080  -1.760   1.094  0.00  0.00     0.002 A 
ATOM      4  C6  UNL d   1      -0.049  -2.592   0.663  0.00  0.00    -0.004 A 
ATOM      5  C7  UNL d   1       0.965  -2.078  -0.142  0.00  0.00     0.002 A 
ATOM      6  C8  UNL d   1       0.955  -0.731  -0.509  0.00  0.00     0.002 A 
ENDROOT
BRANCH   1   7
ATOM      7  C2  UNL d   1      -0.066   1.579  -0.449  0.00  0.00     0.056 C 
BRANCH   7   8
ATOM      8  C1  UNL d   1       1.289   2.268  -0.258  0.00  0.00     0.007 C 
ATOM      9  C   UNL d   1       1.223   3.478   0.665  0.00  0.00     0.009 C 
ENDBRANCH   7   8
ENDBRANCH   1   7
TORSDOF 2
ENDMDL
