MODEL 1
REMARK minimizedAffinity -3.54178405
REMARK minimizedRMSD -1
REMARK  2 active torsions:
REMARK  status: ('A' for Active; 'I' for Inactive)
REMARK    1  A    between atoms: C1_2  and  C2_3 
REMARK    2  A    between atoms: C2_3  and  C3_4 
ROOT
ATOM      1  C3  UNL d   1       0.613   3.643   0.943  0.00  0.00    -0.075 A 
ATOM      2  C4  UNL d   1       1.464   4.743   1.122  0.00  0.00     0.002 A 
ATOM      3  C5  UNL d   1       0.995   5.911   1.724  0.00  0.00     0.002 A 
ATOM      4  C6  UNL d   1      -0.330   5.998   2.145  0.00  0.00    -0.004 A 
ATOM      5  C7  UNL d   1      -1.189   4.917   1.957  0.00  0.00     0.002 A 
ATOM      6  C8  UNL d   1      -0.721   3.745   1.359  0.00  0.00     0.002 A 
ENDROOT
BRANCH   1   7
ATOM      7  C2  UNL d   1       1.122   2.365   0.319  0.00  0.00     0.056 C 
BRANCH   7   8
ATOM      8  C1  UNL d   1       0.015   1.430  -0.178  0.00  0.00     0.007 C 
ATOM      9  C   UNL d   1       0.365  -0.045  -0.033  0.00  0.00     0.009 C 
ENDBRANCH   7   8
ENDBRANCH   1   7
TORSDOF 2
ENDMDL
