MODEL 1
REMARK minimizedAffinity 4.69172192
REMARK minimizedRMSD -1
REMARK  3 active torsions:
REMARK  status: ('A' for Active; 'I' for Inactive)
REMARK    1  A    between atoms: C3'_2  and  C2'_3 
REMARK    2  A    between atoms: C2'_3  and  C1'_4 
REMARK    3  A    between atoms: C1'_4  and  C1_5 
ROOT
ATOM      1  C1  N4B d   1      -0.049  -0.485   0.417  0.00  0.00    -0.075 A 
ATOM      2  C2  N4B d   1       0.195  -0.690   1.793  0.00  0.00     0.002 A 
ATOM      3  C3  N4B d   1      -0.836  -0.596   2.695  0.00  0.00     0.002 A 
ATOM      4  C4  N4B d   1      -2.111  -0.282   2.249  0.00  0.00    -0.004 A 
ATOM      5  C5  N4B d   1      -2.344  -0.110   0.915  0.00  0.00     0.002 A 
ATOM      6  C6  N4B d   1      -1.318  -0.205  -0.003  0.00  0.00     0.002 A 
ENDROOT
BRANCH   1   7
ATOM      7  C1' N4B d   1       1.062  -0.492  -0.597  0.00  0.00     0.057 C 
BRANCH   7   8
ATOM      8  C2' N4B d   1       1.415   0.947  -0.963  0.00  0.00     0.009 C 
BRANCH   8   9
ATOM      9  C3' N4B d   1       2.913   1.140  -1.125  0.00  0.00     0.004 C 
ATOM     10  C4' N4B d   1       3.579   1.604   0.136  0.00  0.00     0.003 C 
ENDBRANCH   8   9
ENDBRANCH   7   8
ENDBRANCH   1   7
TORSDOF 3
ENDMDL
