MODEL 1
REMARK minimizedAffinity 0.338658124
REMARK minimizedRMSD -1
REMARK  3 active torsions:
REMARK  status: ('A' for Active; 'I' for Inactive)
REMARK    1  A    between atoms: C3'_2  and  C2'_3 
REMARK    2  A    between atoms: C2'_3  and  C1'_4 
REMARK    3  A    between atoms: C1'_4  and  C1_5 
ROOT
ATOM      1  C1  N4B d   1      -0.175  -2.529   2.810  0.00  0.00    -0.075 A 
ATOM      2  C2  N4B d   1      -1.039  -3.560   3.241  0.00  0.00     0.002 A 
ATOM      3  C3  N4B d   1      -0.706  -4.873   3.017  0.00  0.00     0.002 A 
ATOM      4  C4  N4B d   1       0.471  -5.178   2.350  0.00  0.00    -0.004 A 
ATOM      5  C5  N4B d   1       1.312  -4.177   1.959  0.00  0.00     0.002 A 
ATOM      6  C6  N4B d   1       0.992  -2.853   2.181  0.00  0.00     0.002 A 
ENDROOT
BRANCH   1   7
ATOM      7  C1' N4B d   1      -0.537  -1.076   2.955  0.00  0.00     0.057 C 
BRANCH   7   8
ATOM      8  C2' N4B d   1      -1.519  -0.691   1.852  0.00  0.00     0.009 C 
BRANCH   8   9
ATOM      9  C3' N4B d   1      -0.853   0.130   0.761  0.00  0.00     0.004 C 
ATOM     10  C4' N4B d   1       0.204  -0.635   0.021  0.00  0.00     0.003 C 
ENDBRANCH   8   9
ENDBRANCH   7   8
ENDBRANCH   1   7
TORSDOF 3
ENDMDL
