MODEL 1
REMARK minimizedAffinity 3.3608017
REMARK minimizedRMSD -1
REMARK  3 active torsions:
REMARK  status: ('A' for Active; 'I' for Inactive)
REMARK    1  A    between atoms: C3'_2  and  C2'_3 
REMARK    2  A    between atoms: C2'_3  and  C1'_4 
REMARK    3  A    between atoms: C1'_4  and  C1_5 
ROOT
ATOM      1  C1  N4B d   1      -4.949   1.402  -4.345  0.00  0.00    -0.075 A 
ATOM      2  C2  N4B d   1      -5.825   0.311  -4.148  0.00  0.00     0.002 A 
ATOM      3  C3  N4B d   1      -5.667  -0.837  -4.884  0.00  0.00     0.002 A 
ATOM      4  C4  N4B d   1      -4.657  -0.911  -5.832  0.00  0.00    -0.004 A 
ATOM      5  C5  N4B d   1      -3.800   0.137  -5.998  0.00  0.00     0.002 A 
ATOM      6  C6  N4B d   1      -3.944   1.296  -5.262  0.00  0.00     0.002 A 
ENDROOT
BRANCH   1   7
ATOM      7  C1' N4B d   1      -5.135   2.709  -3.625  0.00  0.00     0.057 C 
BRANCH   7   8
ATOM      8  C2' N4B d   1      -3.875   3.554  -3.788  0.00  0.00     0.009 C 
BRANCH   8   9
ATOM      9  C3' N4B d   1      -3.129   3.722  -2.475  0.00  0.00     0.004 C 
ATOM     10  C4' N4B d   1      -1.676   3.369  -2.584  0.00  0.00     0.003 C 
ENDBRANCH   8   9
ENDBRANCH   7   8
ENDBRANCH   1   7
TORSDOF 3
ENDMDL
