MODEL 1
REMARK minimizedAffinity -2.63936901
REMARK minimizedRMSD -1
REMARK  3 active torsions:
REMARK  status: ('A' for Active; 'I' for Inactive)
REMARK    1  A    between atoms: C3'_2  and  C2'_3 
REMARK    2  A    between atoms: C2'_3  and  C1'_4 
REMARK    3  A    between atoms: C1'_4  and  C1_5 
ROOT
ATOM      1  C1  N4B d   1       0.102  -1.765   2.129  0.00  0.00    -0.075 A 
ATOM      2  C2  N4B d   1      -0.793  -2.114   3.164  0.00  0.00     0.002 A 
ATOM      3  C3  N4B d   1      -0.710  -3.350   3.757  0.00  0.00     0.002 A 
ATOM      4  C4  N4B d   1       0.244  -4.257   3.321  0.00  0.00    -0.004 A 
ATOM      5  C5  N4B d   1       1.121  -3.903   2.338  0.00  0.00     0.002 A 
ATOM      6  C6  N4B d   1       1.052  -2.663   1.736  0.00  0.00     0.002 A 
ENDROOT
BRANCH   1   7
ATOM      7  C1' N4B d   1      -0.005  -0.458   1.392  0.00  0.00     0.057 C 
BRANCH   7   8
ATOM      8  C2' N4B d   1      -1.478  -0.091   1.236  0.00  0.00     0.009 C 
BRANCH   8   9
ATOM      9  C3' N4B d   1      -2.002  -0.420  -0.151  0.00  0.00     0.004 C 
ATOM     10  C4' N4B d   1      -0.910  -0.534  -1.172  0.00  0.00     0.003 C 
ENDBRANCH   8   9
ENDBRANCH   7   8
ENDBRANCH   1   7
TORSDOF 3
ENDMDL
