MODEL 1
REMARK minimizedAffinity 3.0016346
REMARK minimizedRMSD -1
REMARK  3 active torsions:
REMARK  status: ('A' for Active; 'I' for Inactive)
REMARK    1  A    between atoms: C3'_2  and  C2'_3 
REMARK    2  A    between atoms: C2'_3  and  C1'_4 
REMARK    3  A    between atoms: C1'_4  and  C1_5 
ROOT
ATOM      1  C1  N4B d   1      -0.029  -1.370   1.787  0.00  0.00    -0.075 A 
ATOM      2  C2  N4B d   1       0.481  -0.678   0.667  0.00  0.00     0.002 A 
ATOM      3  C3  N4B d   1      -0.373  -0.010  -0.175  0.00  0.00     0.002 A 
ATOM      4  C4  N4B d   1      -1.738  -0.036   0.070  0.00  0.00    -0.004 A 
ATOM      5  C5  N4B d   1      -2.220  -0.686   1.169  0.00  0.00     0.002 A 
ATOM      6  C6  N4B d   1      -1.373  -1.358   2.026  0.00  0.00     0.002 A 
ENDROOT
BRANCH   1   7
ATOM      7  C1' N4B d   1       0.857  -2.186   2.688  0.00  0.00     0.057 C 
BRANCH   7   8
ATOM      8  C2' N4B d   1       1.144  -3.530   2.025  0.00  0.00     0.009 C 
BRANCH   8   9
ATOM      9  C3' N4B d   1       2.138  -3.400   0.884  0.00  0.00     0.004 C 
ATOM     10  C4' N4B d   1       2.932  -4.652   0.659  0.00  0.00     0.003 C 
ENDBRANCH   8   9
ENDBRANCH   7   8
ENDBRANCH   1   7
TORSDOF 3
ENDMDL
