MODEL 1
REMARK minimizedAffinity -5.25265694
REMARK minimizedRMSD -1
REMARK  0 active torsions:
REMARK  status: ('A' for Active; 'I' for Inactive)
ROOT
ATOM      1  C4' PXY d   1      -2.349   0.007   1.934  0.00  0.00     0.077 C 
ATOM      2  C1' PXY d   1       1.459   0.873  -2.329  0.00  0.00     0.077 C 
ATOM      3  C1  PXY d   1       0.464   0.634  -1.210  0.00  0.00    -0.082 A 
ATOM      4  C2  PXY d   1      -0.624   1.381  -1.131  0.00  0.00     0.003 A 
ATOM      5  C3  PXY d   1      -1.518   1.199  -0.107  0.00  0.00     0.003 A 
ATOM      6  C4  PXY d   1      -1.322   0.207   0.815  0.00  0.00    -0.082 A 
ATOM      7  C5  PXY d   1      -0.219  -0.567   0.735  0.00  0.00     0.003 A 
ATOM      8  C6  PXY d   1       0.697  -0.340  -0.288  0.00  0.00     0.003 A 
ENDROOT
TORSDOF 0
ENDMDL
