MODEL 1
REMARK minimizedAffinity -2.83326507
REMARK minimizedRMSD -1
REMARK  0 active torsions:
REMARK  status: ('A' for Active; 'I' for Inactive)
ROOT
ATOM      1  C4' PXY d   1       3.173  -0.801  -2.581  0.00  0.00     0.077 C 
ATOM      2  C1' PXY d   1      -1.267  -0.329   1.091  0.00  0.00     0.077 C 
ATOM      3  C1  PXY d   1      -0.099  -0.464   0.133  0.00  0.00    -0.082 A 
ATOM      4  C2  PXY d   1       0.408   0.617  -0.437  0.00  0.00     0.003 A 
ATOM      5  C3  PXY d   1       1.443   0.510  -1.329  0.00  0.00     0.003 A 
ATOM      6  C4  PXY d   1       2.000  -0.711  -1.601  0.00  0.00    -0.082 A 
ATOM      7  C5  PXY d   1       1.495  -1.818  -1.015  0.00  0.00     0.003 A 
ATOM      8  C6  PXY d   1       0.418  -1.692  -0.143  0.00  0.00     0.003 A 
ENDROOT
TORSDOF 0
ENDMDL
