MODEL 1
REMARK minimizedAffinity -0.63256973
REMARK minimizedRMSD -1
REMARK  0 active torsions:
REMARK  status: ('A' for Active; 'I' for Inactive)
ROOT
ATOM      1  C4' PXY d   1      -2.296   0.500   1.764  0.00  0.00     0.077 C 
ATOM      2  C1' PXY d   1       2.420   0.202  -1.566  0.00  0.00     0.077 C 
ATOM      3  C1  PXY d   1       1.181   0.268  -0.694  0.00  0.00    -0.082 A 
ATOM      4  C2  PXY d   1       0.537   1.415  -0.558  0.00  0.00     0.003 A 
ATOM      5  C3  PXY d   1      -0.567   1.499   0.251  0.00  0.00     0.003 A 
ATOM      6  C4  PXY d   1      -1.046   0.385   0.887  0.00  0.00    -0.082 A 
ATOM      7  C5  PXY d   1      -0.400  -0.791   0.745  0.00  0.00     0.003 A 
ATOM      8  C6  PXY d   1       0.742  -0.847  -0.048  0.00  0.00     0.003 A 
ENDROOT
TORSDOF 0
ENDMDL
