MODEL 1
REMARK minimizedAffinity -4.33577061
REMARK minimizedRMSD -1
REMARK  0 active torsions:
REMARK  status: ('A' for Active; 'I' for Inactive)
ROOT
ATOM      1  C4' PXY d   1      -1.788   0.255   3.019  0.00  0.00     0.077 C 
ATOM      2  C1' PXY d   1       1.302   1.727  -1.640  0.00  0.00     0.077 C 
ATOM      3  C1  PXY d   1       0.481   1.343  -0.425  0.00  0.00    -0.082 A 
ATOM      4  C2  PXY d   1       1.006   1.460   0.784  0.00  0.00     0.003 A 
ATOM      5  C3  PXY d   1       0.289   1.087   1.891  0.00  0.00     0.003 A 
ATOM      6  C4  PXY d   1      -0.999   0.640   1.764  0.00  0.00    -0.082 A 
ATOM      7  C5  PXY d   1      -1.546   0.527   0.535  0.00  0.00     0.003 A 
ATOM      8  C6  PXY d   1      -0.787   0.872  -0.579  0.00  0.00     0.003 A 
ENDROOT
TORSDOF 0
ENDMDL
