MODEL 1
REMARK minimizedAffinity -3.87967634
REMARK minimizedRMSD -1
REMARK  0 active torsions:
REMARK  status: ('A' for Active; 'I' for Inactive)
ROOT
ATOM      1  C4' PXY d   1       1.481   1.644  -1.754  0.00  0.00     0.077 C 
ATOM      2  C1' PXY d   1      -2.272  -0.250   2.213  0.00  0.00     0.077 C 
ATOM      3  C1  PXY d   1      -1.280   0.251   1.182  0.00  0.00    -0.082 A 
ATOM      4  C2  PXY d   1      -1.692   0.515  -0.048  0.00  0.00     0.003 A 
ATOM      5  C3  PXY d   1      -0.802   0.938  -1.001  0.00  0.00     0.003 A 
ATOM      6  C4  PXY d   1       0.513   1.145  -0.678  0.00  0.00    -0.082 A 
ATOM      7  C5  PXY d   1       0.938   0.888   0.577  0.00  0.00     0.003 A 
ATOM      8  C6  PXY d   1       0.027   0.420   1.519  0.00  0.00     0.003 A 
ENDROOT
TORSDOF 0
ENDMDL
