MODEL 1
REMARK minimizedAffinity -4.03615665
REMARK minimizedRMSD -1
REMARK  0 active torsions:
REMARK  status: ('A' for Active; 'I' for Inactive)
ROOT
ATOM      1  C4' PXY d   1       1.916  -0.129  -2.670  0.00  0.00     0.077 C 
ATOM      2  C1' PXY d   1      -2.074   0.106   1.507  0.00  0.00     0.077 C 
ATOM      3  C1  PXY d   1      -1.022   0.034   0.417  0.00  0.00    -0.082 A 
ATOM      4  C2  PXY d   1      -0.724   1.120  -0.277  0.00  0.00     0.003 A 
ATOM      5  C3  PXY d   1       0.201   1.065  -1.287  0.00  0.00     0.003 A 
ATOM      6  C4  PXY d   1       0.867  -0.101  -1.554  0.00  0.00    -0.082 A 
ATOM      7  C5  PXY d   1       0.576  -1.211  -0.843  0.00  0.00     0.003 A 
ATOM      8  C6  PXY d   1      -0.396  -1.144   0.151  0.00  0.00     0.003 A 
ENDROOT
TORSDOF 0
ENDMDL
