MODEL 1
REMARK minimizedAffinity -2.62355304
REMARK minimizedRMSD -1
REMARK  0 active torsions:
REMARK  status: ('A' for Active; 'I' for Inactive)
ROOT
ATOM      1  C4' PXY d   1       2.331  -0.823  -3.661  0.00  0.00     0.077 C 
ATOM      2  C1' PXY d   1      -1.025   1.484   0.441  0.00  0.00     0.077 C 
ATOM      3  C1  PXY d   1      -0.137   0.890  -0.634  0.00  0.00    -0.082 A 
ATOM      4  C2  PXY d   1      -0.642   0.016  -1.490  0.00  0.00     0.003 A 
ATOM      5  C3  PXY d   1       0.155  -0.556  -2.448  0.00  0.00     0.003 A 
ATOM      6  C4  PXY d   1       1.469  -0.190  -2.566  0.00  0.00    -0.082 A 
ATOM      7  C5  PXY d   1       1.989   0.709  -1.703  0.00  0.00     0.003 A 
ATOM      8  C6  PXY d   1       1.173   1.247  -0.711  0.00  0.00     0.003 A 
ENDROOT
TORSDOF 0
ENDMDL
