MODEL 1
REMARK minimizedAffinity -4.7066226
REMARK minimizedRMSD -1
REMARK  0 active torsions:
REMARK  status: ('A' for Active; 'I' for Inactive)
ROOT
ATOM      1  C4' PXY d   1      -1.675   0.139   1.529  0.00  0.00     0.077 C 
ATOM      2  C1' PXY d   1       1.743  -0.444  -3.097  0.00  0.00     0.077 C 
ATOM      3  C1  PXY d   1       0.844  -0.304  -1.884  0.00  0.00    -0.082 A 
ATOM      4  C2  PXY d   1       0.324   0.877  -1.588  0.00  0.00     0.003 A 
ATOM      5  C3  PXY d   1      -0.465   1.028  -0.477  0.00  0.00     0.003 A 
ATOM      6  C4  PXY d   1      -0.769  -0.051   0.309  0.00  0.00    -0.082 A 
ATOM      7  C5  PXY d   1      -0.252  -1.261   0.007  0.00  0.00     0.003 A 
ATOM      8  C6  PXY d   1       0.581  -1.385  -1.101  0.00  0.00     0.003 A 
ENDROOT
TORSDOF 0
ENDMDL
