MODEL 1
REMARK minimizedAffinity -0.64388907
REMARK minimizedRMSD -1
REMARK  0 active torsions:
REMARK  status: ('A' for Active; 'I' for Inactive)
ROOT
ATOM      1  C4' PXY d   1      -1.460   2.434  -0.012  0.00  0.00     0.077 C 
ATOM      2  C1' PXY d   1       0.342  -3.059  -0.006  0.00  0.00     0.077 C 
ATOM      3  C1  PXY d   1      -0.135  -1.620   0.005  0.00  0.00    -0.082 A 
ATOM      4  C2  PXY d   1      -0.398  -1.010  -1.139  0.00  0.00     0.003 A 
ATOM      5  C3  PXY d   1      -0.800   0.301  -1.150  0.00  0.00     0.003 A 
ATOM      6  C4  PXY d   1      -0.985   0.978   0.026  0.00  0.00    -0.082 A 
ATOM      7  C5  PXY d   1      -0.729   0.359   1.198  0.00  0.00     0.003 A 
ATOM      8  C6  PXY d   1      -0.283  -0.959   1.185  0.00  0.00     0.003 A 
ENDROOT
TORSDOF 0
ENDMDL
