MODEL 1
REMARK minimizedAffinity -1.37333131
REMARK minimizedRMSD -1
REMARK  0 active torsions:
REMARK  status: ('A' for Active; 'I' for Inactive)
ROOT
ATOM      1  C4' PXY d   1      -3.403   5.998  -6.000  0.00  0.00     0.077 C 
ATOM      2  C1' PXY d   1      -5.837   0.755  -5.940  0.00  0.00     0.077 C 
ATOM      3  C1  PXY d   1      -5.210   2.135  -5.961  0.00  0.00    -0.082 A 
ATOM      4  C2  PXY d   1      -3.892   2.254  -5.971  0.00  0.00     0.003 A 
ATOM      5  C3  PXY d   1      -3.308   3.494  -5.958  0.00  0.00     0.003 A 
ATOM      6  C4  PXY d   1      -4.080   4.624  -5.988  0.00  0.00    -0.082 A 
ATOM      7  C5  PXY d   1      -5.425   4.511  -5.989  0.00  0.00     0.003 A 
ATOM      8  C6  PXY d   1      -5.999   3.243  -5.961  0.00  0.00     0.003 A 
ENDROOT
TORSDOF 0
ENDMDL
