MODEL 1
REMARK minimizedAffinity -4.51766014
REMARK minimizedRMSD -1
REMARK  0 active torsions:
REMARK  status: ('A' for Active; 'I' for Inactive)
ROOT
ATOM      1  C4' PXY d   1       0.800   2.175  -0.458  0.00  0.00     0.077 C 
ATOM      2  C1' PXY d   1       1.970  -3.450  -1.090  0.00  0.00     0.077 C 
ATOM      3  C1  PXY d   1       1.652  -1.978  -0.918  0.00  0.00    -0.082 A 
ATOM      4  C2  PXY d   1       2.189  -1.092  -1.742  0.00  0.00     0.003 A 
ATOM      5  C3  PXY d   1       1.937   0.246  -1.581  0.00  0.00     0.003 A 
ATOM      6  C4  PXY d   1       1.085   0.678  -0.600  0.00  0.00    -0.082 A 
ATOM      7  C5  PXY d   1       0.525  -0.221   0.238  0.00  0.00     0.003 A 
ATOM      8  C6  PXY d   1       0.826  -1.571   0.084  0.00  0.00     0.003 A 
ENDROOT
TORSDOF 0
ENDMDL
