MODEL 1
REMARK minimizedAffinity -2.44707632
REMARK minimizedRMSD -1
REMARK  0 active torsions:
REMARK  status: ('A' for Active; 'I' for Inactive)
ROOT
ATOM      1  C4' PXY d   1      -2.522   0.329   1.798  0.00  0.00     0.077 C 
ATOM      2  C1' PXY d   1       2.272   0.565  -1.424  0.00  0.00     0.077 C 
ATOM      3  C1  PXY d   1       1.013   0.490  -0.582  0.00  0.00    -0.082 A 
ATOM      4  C2  PXY d   1       0.313   1.590  -0.354  0.00  0.00     0.003 A 
ATOM      5  C3  PXY d   1      -0.810   1.546   0.432  0.00  0.00     0.003 A 
ATOM      6  C4  PXY d   1      -1.250   0.356   0.946  0.00  0.00    -0.082 A 
ATOM      7  C5  PXY d   1      -0.547  -0.772   0.709  0.00  0.00     0.003 A 
ATOM      8  C6  PXY d   1       0.613  -0.700  -0.057  0.00  0.00     0.003 A 
ENDROOT
TORSDOF 0
ENDMDL
