MODEL 1
REMARK minimizedAffinity -1.06740439
REMARK minimizedRMSD -1
REMARK  0 active torsions:
REMARK  status: ('A' for Active; 'I' for Inactive)
ROOT
ATOM      1  C4' PXY d   1      -1.605   0.019   1.129  0.00  0.00     0.077 C 
ATOM      2  C1' PXY d   1       3.051  -0.889  -2.174  0.00  0.00     0.077 C 
ATOM      3  C1  PXY d   1       1.825  -0.662  -1.310  0.00  0.00    -0.082 A 
ATOM      4  C2  PXY d   1       1.414   0.572  -1.070  0.00  0.00     0.003 A 
ATOM      5  C3  PXY d   1       0.326   0.796  -0.265  0.00  0.00     0.003 A 
ATOM      6  C4  PXY d   1      -0.379  -0.257   0.256  0.00  0.00    -0.082 A 
ATOM      7  C5  PXY d   1       0.029  -1.519   0.006  0.00  0.00     0.003 A 
ATOM      8  C6  PXY d   1       1.159  -1.724  -0.780  0.00  0.00     0.003 A 
ENDROOT
TORSDOF 0
ENDMDL
