MODEL 1
REMARK minimizedAffinity -1.53629816
REMARK minimizedRMSD -1
REMARK  0 active torsions:
REMARK  status: ('A' for Active; 'I' for Inactive)
ROOT
ATOM      1  C4' PXY d   1      -3.769   0.400   1.935  0.00  0.00     0.077 C 
ATOM      2  C1' PXY d   1       1.278   0.346  -0.883  0.00  0.00     0.077 C 
ATOM      3  C1  PXY d   1      -0.041   0.351  -0.136  0.00  0.00    -0.082 A 
ATOM      4  C2  PXY d   1      -1.127   0.819  -0.730  0.00  0.00     0.003 A 
ATOM      5  C3  PXY d   1      -2.322   0.860  -0.058  0.00  0.00     0.003 A 
ATOM      6  C4  PXY d   1      -2.417   0.368   1.216  0.00  0.00    -0.082 A 
ATOM      7  C5  PXY d   1      -1.316  -0.121   1.825  0.00  0.00     0.003 A 
ATOM      8  C6  PXY d   1      -0.104  -0.116   1.140  0.00  0.00     0.003 A 
ENDROOT
TORSDOF 0
ENDMDL
