MODEL 1
REMARK minimizedAffinity -1.31119227
REMARK minimizedRMSD -1
REMARK  0 active torsions:
REMARK  status: ('A' for Active; 'I' for Inactive)
ROOT
ATOM      1  C4' PXY d   1       1.852   1.085  -1.403  0.00  0.00     0.077 C 
ATOM      2  C1' PXY d   1      -3.331   0.263   1.021  0.00  0.00     0.077 C 
ATOM      3  C1  PXY d   1      -1.966   0.474   0.397  0.00  0.00    -0.082 A 
ATOM      4  C2  PXY d   1      -1.824   1.354  -0.581  0.00  0.00     0.003 A 
ATOM      5  C3  PXY d   1      -0.603   1.535  -1.179  0.00  0.00     0.003 A 
ATOM      6  C4  PXY d   1       0.494   0.846  -0.736  0.00  0.00    -0.082 A 
ATOM      7  C5  PXY d   1       0.359  -0.046   0.268  0.00  0.00     0.003 A 
ATOM      8  C6  PXY d   1      -0.897  -0.245   0.834  0.00  0.00     0.003 A 
ENDROOT
TORSDOF 0
ENDMDL
