MODEL 1
REMARK minimizedAffinity -4.58118248
REMARK minimizedRMSD -1
REMARK  0 active torsions:
REMARK  status: ('A' for Active; 'I' for Inactive)
ROOT
ATOM      1  C4' PXY d   1       1.550   1.119  -1.868  0.00  0.00     0.077 C 
ATOM      2  C1' PXY d   1      -3.126   0.446   1.463  0.00  0.00     0.077 C 
ATOM      3  C1  PXY d   1      -1.907   0.629   0.581  0.00  0.00    -0.082 A 
ATOM      4  C2  PXY d   1      -0.902  -0.227   0.668  0.00  0.00     0.003 A 
ATOM      5  C3  PXY d   1       0.221  -0.058  -0.099  0.00  0.00     0.003 A 
ATOM      6  C4  PXY d   1       0.295   0.968  -1.003  0.00  0.00    -0.082 A 
ATOM      7  C5  PXY d   1      -0.730   1.839  -1.106  0.00  0.00     0.003 A 
ATOM      8  C6  PXY d   1      -1.845   1.674  -0.288  0.00  0.00     0.003 A 
ENDROOT
TORSDOF 0
ENDMDL
