MODEL 1
REMARK minimizedAffinity -5.40711117
REMARK minimizedRMSD -1
REMARK  0 active torsions:
REMARK  status: ('A' for Active; 'I' for Inactive)
ROOT
ATOM      1  C4' PXY d   1      -1.321  -0.132   1.533  0.00  0.00     0.077 C 
ATOM      2  C1' PXY d   1       2.526   0.420  -2.746  0.00  0.00     0.077 C 
ATOM      3  C1  PXY d   1       1.525   0.283  -1.616  0.00  0.00    -0.082 A 
ATOM      4  C2  PXY d   1       0.684  -0.739  -1.608  0.00  0.00     0.003 A 
ATOM      5  C3  PXY d   1      -0.249  -0.861  -0.611  0.00  0.00     0.003 A 
ATOM      6  C4  PXY d   1      -0.287   0.042   0.417  0.00  0.00    -0.082 A 
ATOM      7  C5  PXY d   1       0.575   1.081   0.422  0.00  0.00     0.003 A 
ATOM      8  C6  PXY d   1       1.487   1.210  -0.621  0.00  0.00     0.003 A 
ENDROOT
TORSDOF 0
ENDMDL
