MODEL 1
REMARK minimizedAffinity -5.28750515
REMARK minimizedRMSD -1
REMARK  0 active torsions:
REMARK  status: ('A' for Active; 'I' for Inactive)
ROOT
ATOM      1  C4' PXY d   1      -1.509  -0.064   1.470  0.00  0.00     0.077 C 
ATOM      2  C1' PXY d   1       2.259  -0.103  -2.913  0.00  0.00     0.077 C 
ATOM      3  C1  PXY d   1       1.274  -0.081  -1.760  0.00  0.00    -0.082 A 
ATOM      4  C2  PXY d   1       0.887  -1.219  -1.209  0.00  0.00     0.003 A 
ATOM      5  C3  PXY d   1      -0.027  -1.219  -0.187  0.00  0.00     0.003 A 
ATOM      6  C4  PXY d   1      -0.510  -0.039   0.311  0.00  0.00    -0.082 A 
ATOM      7  C5  PXY d   1      -0.111   1.128  -0.239  0.00  0.00     0.003 A 
ATOM      8  C6  PXY d   1       0.786   1.104  -1.303  0.00  0.00     0.003 A 
ENDROOT
TORSDOF 0
ENDMDL
