MODEL 1
REMARK minimizedAffinity -3.48104787
REMARK minimizedRMSD -1
REMARK  0 active torsions:
REMARK  status: ('A' for Active; 'I' for Inactive)
ROOT
ATOM      1  C4' PXY d   1      -3.014   0.659   1.535  0.00  0.00     0.077 C 
ATOM      2  C1' PXY d   1       1.974   0.982  -1.367  0.00  0.00     0.077 C 
ATOM      3  C1  PXY d   1       0.667   0.884  -0.606  0.00  0.00    -0.082 A 
ATOM      4  C2  PXY d   1      -0.227   1.853  -0.715  0.00  0.00     0.003 A 
ATOM      5  C3  PXY d   1      -1.401   1.796  -0.008  0.00  0.00     0.003 A 
ATOM      6  C4  PXY d   1      -1.685   0.711   0.777  0.00  0.00    -0.082 A 
ATOM      7  C5  PXY d   1      -0.782  -0.287   0.885  0.00  0.00     0.003 A 
ATOM      8  C6  PXY d   1       0.421  -0.191   0.192  0.00  0.00     0.003 A 
ENDROOT
TORSDOF 0
ENDMDL
