MODEL 1
REMARK minimizedAffinity -1.07854438
REMARK minimizedRMSD -1
REMARK  1 active torsions:
REMARK  status: ('A' for Active; 'I' for Inactive)
REMARK    1  A    between atoms: C3_4  and  O_7 
ROOT
ATOM      1  C   UNL d   1       5.866  -5.901  -3.878  0.00  0.00    -0.033 A 
ATOM      2  C1  UNL d   1       5.894  -5.862  -5.273  0.00  0.00     0.039 A 
ATOM      3  C2  UNL d   1       4.702  -5.892  -5.999  0.00  0.00    -0.080 A 
ATOM      4  C3  UNL d   1       3.489  -5.960  -5.318  0.00  0.00     0.150 A 
ATOM      5  C4  UNL d   1       3.454  -5.995  -3.928  0.00  0.00    -0.007 A 
ATOM      6  C5  UNL d   1       4.646  -5.965  -3.205  0.00  0.00     0.039 A 
ENDROOT
BRANCH   4   7
ATOM      7  O   UNL d   1       2.300  -5.997  -5.982  0.00  0.00    -0.526 OA
ATOM      8  H5  UNL d   1       2.481  -5.995  -6.937  0.00  0.00     0.418 HD
ENDBRANCH   4   7
TORSDOF 1
ENDMDL
