MODEL 1
REMARK minimizedAffinity 7.45609379
REMARK minimizedRMSD -1
REMARK  1 active torsions:
REMARK  status: ('A' for Active; 'I' for Inactive)
REMARK    1  A    between atoms: C3_4  and  O_7 
ROOT
ATOM      1  C   UNL d   1       1.416  -1.354   0.927  0.00  0.00    -0.033 A 
ATOM      2  C1  UNL d   1       1.488  -2.106  -0.247  0.00  0.00     0.039 A 
ATOM      3  C2  UNL d   1       0.328  -2.380  -0.975  0.00  0.00    -0.080 A 
ATOM      4  C3  UNL d   1      -0.895  -1.896  -0.519  0.00  0.00     0.150 A 
ATOM      5  C4  UNL d   1      -0.973  -1.143   0.648  0.00  0.00    -0.007 A 
ATOM      6  C5  UNL d   1       0.186  -0.872   1.374  0.00  0.00     0.039 A 
ENDROOT
BRANCH   4   7
ATOM      7  O   UNL d   1      -2.055  -2.142  -1.192  0.00  0.00    -0.526 OA
ATOM      8  H5  UNL d   1      -1.851  -2.698  -1.963  0.00  0.00     0.418 HD
ENDBRANCH   4   7
TORSDOF 1
ENDMDL
