MODEL 1
REMARK minimizedAffinity -0.854304135
REMARK minimizedRMSD -1
REMARK  1 active torsions:
REMARK  status: ('A' for Active; 'I' for Inactive)
REMARK    1  A    between atoms: C3_4  and  O_7 
ROOT
ATOM      1  C   UNL d   1       1.765  -1.727   3.003  0.00  0.00    -0.033 A 
ATOM      2  C1  UNL d   1       2.664  -0.713   2.668  0.00  0.00     0.039 A 
ATOM      3  C2  UNL d   1       3.966  -0.738   3.172  0.00  0.00    -0.080 A 
ATOM      4  C3  UNL d   1       4.356  -1.780   4.008  0.00  0.00     0.150 A 
ATOM      5  C4  UNL d   1       3.466  -2.796   4.343  0.00  0.00    -0.007 A 
ATOM      6  C5  UNL d   1       2.166  -2.769   3.840  0.00  0.00     0.039 A 
ENDROOT
BRANCH   4   7
ATOM      7  O   UNL d   1       5.615  -1.845   4.527  0.00  0.00    -0.526 OA
ATOM      8  H5  UNL d   1       6.109  -1.062   4.233  0.00  0.00     0.418 HD
ENDBRANCH   4   7
TORSDOF 1
ENDMDL
