MODEL 1
REMARK minimizedAffinity -2.85028434
REMARK minimizedRMSD -1
REMARK  1 active torsions:
REMARK  status: ('A' for Active; 'I' for Inactive)
REMARK    1  A    between atoms: C3_4  and  O_7 
ROOT
ATOM      1  C   UNL d   1       2.298  -1.624   3.657  0.00  0.00    -0.033 A 
ATOM      2  C1  UNL d   1       2.313  -2.221   4.919  0.00  0.00     0.039 A 
ATOM      3  C2  UNL d   1       3.527  -2.455   5.568  0.00  0.00    -0.080 A 
ATOM      4  C3  UNL d   1       4.717  -2.088   4.945  0.00  0.00     0.150 A 
ATOM      5  C4  UNL d   1       4.709  -1.489   3.690  0.00  0.00    -0.007 A 
ATOM      6  C5  UNL d   1       3.496  -1.256   3.043  0.00  0.00     0.039 A 
ENDROOT
BRANCH   4   7
ATOM      7  O   UNL d   1       5.926  -2.301   5.537  0.00  0.00    -0.526 OA
ATOM      8  H5  UNL d   1       5.778  -2.748   6.387  0.00  0.00     0.418 HD
ENDBRANCH   4   7
TORSDOF 1
ENDMDL
