MODEL 1
REMARK minimizedAffinity 3.72122025
REMARK minimizedRMSD -1
REMARK  1 active torsions:
REMARK  status: ('A' for Active; 'I' for Inactive)
REMARK    1  A    between atoms: C3_4  and  O_7 
ROOT
ATOM      1  C   UNL d   1       3.006  -4.310   5.315  0.00  0.00    -0.033 A 
ATOM      2  C1  UNL d   1       3.806  -3.166   5.351  0.00  0.00     0.039 A 
ATOM      3  C2  UNL d   1       3.364  -1.984   4.753  0.00  0.00    -0.080 A 
ATOM      4  C3  UNL d   1       2.122  -1.958   4.125  0.00  0.00     0.150 A 
ATOM      5  C4  UNL d   1       1.319  -3.093   4.088  0.00  0.00    -0.007 A 
ATOM      6  C5  UNL d   1       1.762  -4.273   4.685  0.00  0.00     0.039 A 
ENDROOT
BRANCH   4   7
ATOM      7  O   UNL d   1       1.651  -0.829   3.524  0.00  0.00    -0.526 OA
ATOM      8  H5  UNL d   1       2.325  -0.134   3.603  0.00  0.00     0.418 HD
ENDBRANCH   4   7
TORSDOF 1
ENDMDL
