MODEL 1
REMARK minimizedAffinity 1.60265088
REMARK minimizedRMSD -1
REMARK  1 active torsions:
REMARK  status: ('A' for Active; 'I' for Inactive)
REMARK    1  A    between atoms: C3_4  and  O_7 
ROOT
ATOM      1  C   UNL d   1       2.005  -2.196   3.669  0.00  0.00    -0.033 A 
ATOM      2  C1  UNL d   1       2.825  -1.123   3.312  0.00  0.00     0.039 A 
ATOM      3  C2  UNL d   1       4.150  -1.078   3.750  0.00  0.00    -0.080 A 
ATOM      4  C3  UNL d   1       4.642  -2.112   4.543  0.00  0.00     0.150 A 
ATOM      5  C4  UNL d   1       3.833  -3.185   4.899  0.00  0.00    -0.007 A 
ATOM      6  C5  UNL d   1       2.510  -3.227   4.461  0.00  0.00     0.039 A 
ENDROOT
BRANCH   4   7
ATOM      7  O   UNL d   1       5.927  -2.109   4.998  0.00  0.00    -0.526 OA
ATOM      8  H5  UNL d   1       6.359  -1.293   4.698  0.00  0.00     0.418 HD
ENDBRANCH   4   7
TORSDOF 1
ENDMDL
