MODEL 1
REMARK minimizedAffinity 1.34568143
REMARK minimizedRMSD -1
REMARK  1 active torsions:
REMARK  status: ('A' for Active; 'I' for Inactive)
REMARK    1  A    between atoms: C3_4  and  O_7 
ROOT
ATOM      1  C   UNL d   1       6.000  -2.727   5.182  0.00  0.00    -0.033 A 
ATOM      2  C1  UNL d   1       4.803  -2.653   5.898  0.00  0.00     0.039 A 
ATOM      3  C2  UNL d   1       3.604  -2.393   5.232  0.00  0.00    -0.080 A 
ATOM      4  C3  UNL d   1       3.615  -2.211   3.851  0.00  0.00     0.150 A 
ATOM      5  C4  UNL d   1       4.803  -2.287   3.132  0.00  0.00    -0.007 A 
ATOM      6  C5  UNL d   1       5.999  -2.545   3.799  0.00  0.00     0.039 A 
ENDROOT
BRANCH   4   7
ATOM      7  O   UNL d   1       2.470  -1.951   3.158  0.00  0.00    -0.526 OA
ATOM      8  H5  UNL d   1       1.733  -1.898   3.789  0.00  0.00     0.418 HD
ENDBRANCH   4   7
TORSDOF 1
ENDMDL
