MODEL 1
REMARK minimizedAffinity 7.3163681
REMARK minimizedRMSD -1
REMARK  1 active torsions:
REMARK  status: ('A' for Active; 'I' for Inactive)
REMARK    1  A    between atoms: C3_4  and  O_7 
ROOT
ATOM      1  C   UNL d   1       1.289   2.557  -0.312  0.00  0.00    -0.033 A 
ATOM      2  C1  UNL d   1       1.496   3.910  -0.592  0.00  0.00     0.039 A 
ATOM      3  C2  UNL d   1       0.774   4.885   0.099  0.00  0.00    -0.080 A 
ATOM      4  C3  UNL d   1      -0.149   4.496   1.066  0.00  0.00     0.150 A 
ATOM      5  C4  UNL d   1      -0.357   3.150   1.352  0.00  0.00    -0.007 A 
ATOM      6  C5  UNL d   1       0.364   2.178   0.661  0.00  0.00     0.039 A 
ENDROOT
BRANCH   4   7
ATOM      7  O   UNL d   1      -0.881   5.411   1.762  0.00  0.00    -0.526 OA
ATOM      8  H5  UNL d   1      -0.652   6.298   1.438  0.00  0.00     0.418 HD
ENDBRANCH   4   7
TORSDOF 1
ENDMDL
