MODEL 1
REMARK minimizedAffinity -2.55386186
REMARK minimizedRMSD -1
REMARK  0 active torsions:
REMARK  status: ('A' for Active; 'I' for Inactive)
ROOT
ATOM      1  N1  IND d   1       0.272   0.036  -0.793  0.00  0.00    -0.196 N 
ATOM      2  C2  IND d   1       0.232   1.337  -0.375  0.00  0.00     0.054 A 
ATOM      3  C3  IND d   1      -0.326   1.419   0.854  0.00  0.00    -0.031 A 
ATOM      4  C4  IND d   1      -1.152  -0.462   2.405  0.00  0.00     0.051 A 
ATOM      5  C5  IND d   1      -1.355  -1.813   2.446  0.00  0.00    -0.031 A 
ATOM      6  C6  IND d   1      -1.016  -2.634   1.389  0.00  0.00     0.015 A 
ATOM      7  C7  IND d   1      -0.449  -2.133   0.252  0.00  0.00    -0.016 A 
ATOM      8  C8  IND d   1      -0.249  -0.761   0.203  0.00  0.00    -0.047 A 
ATOM      9  C9  IND d   1      -0.629   0.082   1.256  0.00  0.00    -0.096 A 
ATOM     10  HN1 IND d   1       0.572  -0.239  -1.550  0.00  0.00     0.298 HD
ENDROOT
TORSDOF 0
ENDMDL
