MODEL 1
REMARK minimizedAffinity -5.15368128
REMARK minimizedRMSD -1
REMARK  0 active torsions:
REMARK  status: ('A' for Active; 'I' for Inactive)
ROOT
ATOM      1  N1  IND d   1      -0.689   0.489   0.353  0.00  0.00    -0.196 N 
ATOM      2  C2  IND d   1      -0.117   1.058  -0.751  0.00  0.00     0.054 A 
ATOM      3  C3  IND d   1       0.430   0.106  -1.540  0.00  0.00    -0.031 A 
ATOM      4  C4  IND d   1       0.416  -2.453  -1.265  0.00  0.00     0.051 A 
ATOM      5  C5  IND d   1       0.047  -3.441  -0.396  0.00  0.00    -0.031 A 
ATOM      6  C6  IND d   1      -0.602  -3.164   0.790  0.00  0.00     0.015 A 
ATOM      7  C7  IND d   1      -0.918  -1.884   1.147  0.00  0.00    -0.016 A 
ATOM      8  C8  IND d   1      -0.538  -0.877   0.270  0.00  0.00    -0.047 A 
ATOM      9  C9  IND d   1       0.159  -1.149  -0.914  0.00  0.00    -0.096 A 
ATOM     10  HN1 IND d   1      -1.078   0.914   0.992  0.00  0.00     0.298 HD
ENDROOT
TORSDOF 0
ENDMDL
