MODEL 1
REMARK minimizedAffinity 3.99538946
REMARK minimizedRMSD -1
REMARK  0 active torsions:
REMARK  status: ('A' for Active; 'I' for Inactive)
ROOT
ATOM      1  N1  IND d   1       1.092   5.363   3.755  0.00  0.00    -0.196 N 
ATOM      2  C2  IND d   1      -0.129   5.979   3.772  0.00  0.00     0.054 A 
ATOM      3  C3  IND d   1      -0.662   6.000   2.530  0.00  0.00    -0.031 A 
ATOM      4  C4  IND d   1       0.246   4.992   0.342  0.00  0.00     0.051 A 
ATOM      5  C5  IND d   1       1.341   4.364  -0.181  0.00  0.00    -0.031 A 
ATOM      6  C6  IND d   1       2.429   4.027   0.597  0.00  0.00     0.015 A 
ATOM      7  C7  IND d   1       2.459   4.297   1.936  0.00  0.00    -0.016 A 
ATOM      8  C8  IND d   1       1.352   4.941   2.469  0.00  0.00    -0.047 A 
ATOM      9  C9  IND d   1       0.262   5.324   1.676  0.00  0.00    -0.096 A 
ATOM     10  HN1 IND d   1       1.610   5.256   4.433  0.00  0.00     0.298 HD
ENDROOT
TORSDOF 0
ENDMDL
