MODEL 1
REMARK minimizedAffinity 5.79235315
REMARK minimizedRMSD -1
REMARK  0 active torsions:
REMARK  status: ('A' for Active; 'I' for Inactive)
ROOT
ATOM      1  N1  IND d   1      -0.692   1.103   0.040  0.00  0.00    -0.196 N 
ATOM      2  C2  IND d   1      -0.139   0.550  -1.080  0.00  0.00     0.054 A 
ATOM      3  C3  IND d   1      -0.232  -0.798  -1.034  0.00  0.00    -0.031 A 
ATOM      4  C4  IND d   1      -1.342  -2.301   0.737  0.00  0.00     0.051 A 
ATOM      5  C5  IND d   1      -1.950  -2.256   1.960  0.00  0.00    -0.031 A 
ATOM      6  C6  IND d   1      -2.176  -1.065   2.618  0.00  0.00     0.015 A 
ATOM      7  C7  IND d   1      -1.812   0.132   2.070  0.00  0.00    -0.016 A 
ATOM      8  C8  IND d   1      -1.189   0.090   0.831  0.00  0.00    -0.047 A 
ATOM      9  C9  IND d   1      -0.918  -1.119   0.177  0.00  0.00    -0.096 A 
ATOM     10  HN1 IND d   1      -0.725   1.943   0.221  0.00  0.00     0.298 HD
ENDROOT
TORSDOF 0
ENDMDL
