MODEL 1
REMARK minimizedAffinity 4.73604536
REMARK minimizedRMSD -1
REMARK  0 active torsions:
REMARK  status: ('A' for Active; 'I' for Inactive)
ROOT
ATOM      1  N1  IND d   1      -0.893   0.549   0.341  0.00  0.00    -0.196 N 
ATOM      2  C2  IND d   1      -2.196   0.294   0.016  0.00  0.00     0.054 A 
ATOM      3  C3  IND d   1      -2.772  -0.484   0.959  0.00  0.00    -0.031 A 
ATOM      4  C4  IND d   1      -1.795  -1.369   3.170  0.00  0.00     0.051 A 
ATOM      5  C5  IND d   1      -0.633  -1.429   3.887  0.00  0.00    -0.031 A 
ATOM      6  C6  IND d   1       0.525  -0.817   3.450  0.00  0.00     0.015 A 
ATOM      7  C7  IND d   1       0.560  -0.111   2.282  0.00  0.00    -0.016 A 
ATOM      8  C8  IND d   1      -0.616  -0.054   1.548  0.00  0.00    -0.047 A 
ATOM      9  C9  IND d   1      -1.783  -0.708   1.965  0.00  0.00    -0.096 A 
ATOM     10  HN1 IND d   1      -0.339   1.009  -0.129  0.00  0.00     0.298 HD
ENDROOT
TORSDOF 0
ENDMDL
