MODEL 1
REMARK minimizedAffinity -5.40010023
REMARK minimizedRMSD -1
REMARK  0 active torsions:
REMARK  status: ('A' for Active; 'I' for Inactive)
ROOT
ATOM      1  N1  IND d   1      -0.151   0.366  -0.400  0.00  0.00    -0.196 N 
ATOM      2  C2  IND d   1      -0.743   0.765   0.766  0.00  0.00     0.054 A 
ATOM      3  C3  IND d   1      -1.141  -0.310   1.483  0.00  0.00    -0.031 A 
ATOM      4  C4  IND d   1      -0.831  -2.816   0.983  0.00  0.00     0.051 A 
ATOM      5  C5  IND d   1      -0.381  -3.675   0.020  0.00  0.00    -0.031 A 
ATOM      6  C6  IND d   1       0.183  -3.221  -1.155  0.00  0.00     0.015 A 
ATOM      7  C7  IND d   1       0.328  -1.886  -1.407  0.00  0.00    -0.016 A 
ATOM      8  C8  IND d   1      -0.134  -1.012  -0.434  0.00  0.00    -0.047 A 
ATOM      9  C9  IND d   1      -0.746  -1.465   0.741  0.00  0.00    -0.096 A 
ATOM     10  HN1 IND d   1       0.158   0.887  -1.010  0.00  0.00     0.298 HD
ENDROOT
TORSDOF 0
ENDMDL
