MODEL 1
REMARK minimizedAffinity -2.15443611
REMARK minimizedRMSD -1
REMARK  0 active torsions:
REMARK  status: ('A' for Active; 'I' for Inactive)
ROOT
ATOM      1  N1  IND d   1      -1.456  -2.059   0.711  0.00  0.00    -0.196 N 
ATOM      2  C2  IND d   1      -1.562  -1.723   2.032  0.00  0.00     0.054 A 
ATOM      3  C3  IND d   1      -1.077  -0.479   2.242  0.00  0.00    -0.031 A 
ATOM      4  C4  IND d   1      -0.152   1.223   0.546  0.00  0.00     0.051 A 
ATOM      5  C5  IND d   1       0.177   1.359  -0.773  0.00  0.00    -0.031 A 
ATOM      6  C6  IND d   1      -0.027   0.343  -1.684  0.00  0.00     0.015 A 
ATOM      7  C7  IND d   1      -0.582  -0.848  -1.310  0.00  0.00    -0.016 A 
ATOM      8  C8  IND d   1      -0.911  -0.992   0.030  0.00  0.00    -0.047 A 
ATOM      9  C9  IND d   1      -0.667   0.020   0.967  0.00  0.00    -0.096 A 
ATOM     10  HN1 IND d   1      -1.689  -2.810   0.364  0.00  0.00     0.298 HD
ENDROOT
TORSDOF 0
ENDMDL
