MODEL 1
REMARK minimizedAffinity 2.25734282
REMARK minimizedRMSD -1
REMARK  0 active torsions:
REMARK  status: ('A' for Active; 'I' for Inactive)
ROOT
ATOM      1  N1  IND d   1      -0.746  -2.010  -0.923  0.00  0.00    -0.196 N 
ATOM      2  C2  IND d   1      -1.453  -3.036  -0.362  0.00  0.00     0.054 A 
ATOM      3  C3  IND d   1      -2.161  -2.593   0.701  0.00  0.00    -0.031 A 
ATOM      4  C4  IND d   1      -2.387  -0.205   1.636  0.00  0.00     0.051 A 
ATOM      5  C5  IND d   1      -1.902   1.063   1.480  0.00  0.00    -0.031 A 
ATOM      6  C6  IND d   1      -0.990   1.378   0.494  0.00  0.00     0.015 A 
ATOM      7  C7  IND d   1      -0.536   0.436  -0.385  0.00  0.00    -0.016 A 
ATOM      8  C8  IND d   1      -1.022  -0.854  -0.225  0.00  0.00    -0.047 A 
ATOM      9  C9  IND d   1      -1.914  -1.190   0.801  0.00  0.00    -0.096 A 
ATOM     10  HN1 IND d   1      -0.218  -2.075  -1.599  0.00  0.00     0.298 HD
ENDROOT
TORSDOF 0
ENDMDL
