MODEL 1
REMARK minimizedAffinity 10.171648
REMARK minimizedRMSD -1
REMARK  0 active torsions:
REMARK  status: ('A' for Active; 'I' for Inactive)
ROOT
ATOM      1  N1  IND d   1      -0.334   0.384  -1.046  0.00  0.00    -0.196 N 
ATOM      2  C2  IND d   1       0.969   0.653  -1.360  0.00  0.00     0.054 A 
ATOM      3  C3  IND d   1       1.753   0.519  -0.267  0.00  0.00    -0.031 A 
ATOM      4  C4  IND d   1       1.126  -0.231   2.114  0.00  0.00     0.051 A 
ATOM      5  C5  IND d   1       0.051  -0.550   2.895  0.00  0.00    -0.031 A 
ATOM      6  C6  IND d   1      -1.234  -0.578   2.391  0.00  0.00     0.015 A 
ATOM      7  C7  IND d   1      -1.490  -0.296   1.079  0.00  0.00    -0.016 A 
ATOM      8  C8  IND d   1      -0.401   0.035   0.285  0.00  0.00    -0.047 A 
ATOM      9  C9  IND d   1       0.899   0.106   0.801  0.00  0.00    -0.096 A 
ATOM     10  HN1 IND d   1      -1.000   0.426  -1.589  0.00  0.00     0.298 HD
ENDROOT
TORSDOF 0
ENDMDL
