MODEL 1
REMARK minimizedAffinity -4.89880753
REMARK minimizedRMSD -1
REMARK  0 active torsions:
REMARK  status: ('A' for Active; 'I' for Inactive)
ROOT
ATOM      1  N1  IND d   1      -0.741  -0.269   0.758  0.00  0.00    -0.196 N 
ATOM      2  C2  IND d   1      -1.147  -1.119   1.749  0.00  0.00     0.054 A 
ATOM      3  C3  IND d   1      -1.113  -2.399   1.314  0.00  0.00    -0.031 A 
ATOM      4  C4  IND d   1      -0.327  -3.337  -0.950  0.00  0.00     0.051 A 
ATOM      5  C5  IND d   1       0.100  -2.946  -2.188  0.00  0.00    -0.031 A 
ATOM      6  C6  IND d   1       0.274  -1.616  -2.514  0.00  0.00     0.015 A 
ATOM      7  C7  IND d   1       0.038  -0.624  -1.605  0.00  0.00    -0.016 A 
ATOM      8  C8  IND d   1      -0.402  -1.017  -0.349  0.00  0.00    -0.047 A 
ATOM      9  C9  IND d   1      -0.621  -2.362  -0.026  0.00  0.00    -0.096 A 
ATOM     10  HN1 IND d   1      -0.703   0.588   0.816  0.00  0.00     0.298 HD
ENDROOT
TORSDOF 0
ENDMDL
