MODEL 1
REMARK minimizedAffinity -4.21921873
REMARK minimizedRMSD -1
REMARK  0 active torsions:
REMARK  status: ('A' for Active; 'I' for Inactive)
ROOT
ATOM      1  N1  IND d   1       0.871   4.885   2.972  0.00  0.00    -0.196 N 
ATOM      2  C2  IND d   1      -0.443   4.769   3.331  0.00  0.00     0.054 A 
ATOM      3  C3  IND d   1      -1.110   4.009   2.433  0.00  0.00    -0.031 A 
ATOM      4  C4  IND d   1      -0.222   2.770   0.358  0.00  0.00     0.051 A 
ATOM      5  C5  IND d   1       0.904   2.605  -0.398  0.00  0.00    -0.031 A 
ATOM      6  C6  IND d   1       2.102   3.201  -0.061  0.00  0.00     0.015 A 
ATOM      7  C7  IND d   1       2.222   3.979   1.056  0.00  0.00    -0.016 A 
ATOM      8  C8  IND d   1       1.078   4.155   1.822  0.00  0.00    -0.047 A 
ATOM      9  C9  IND d   1      -0.151   3.587   1.462  0.00  0.00    -0.096 A 
ATOM     10  HN1 IND d   1       1.468   5.338   3.394  0.00  0.00     0.298 HD
ENDROOT
TORSDOF 0
ENDMDL
