MODEL 1
REMARK minimizedAffinity -5.02651691
REMARK minimizedRMSD -1
REMARK  0 active torsions:
REMARK  status: ('A' for Active; 'I' for Inactive)
ROOT
ATOM      1  N1  IND d   1      -0.073  -0.493  -2.405  0.00  0.00    -0.196 N 
ATOM      2  C2  IND d   1      -0.135   0.743  -1.825  0.00  0.00     0.054 A 
ATOM      3  C3  IND d   1      -0.238   0.627  -0.482  0.00  0.00    -0.031 A 
ATOM      4  C4  IND d   1      -0.221  -1.490   0.983  0.00  0.00     0.051 A 
ATOM      5  C5  IND d   1      -0.218  -2.855   0.904  0.00  0.00    -0.031 A 
ATOM      6  C6  IND d   1      -0.163  -3.515  -0.306  0.00  0.00     0.015 A 
ATOM      7  C7  IND d   1      -0.097  -2.832  -1.488  0.00  0.00    -0.016 A 
ATOM      8  C8  IND d   1      -0.106  -1.447  -1.412  0.00  0.00    -0.047 A 
ATOM      9  C9  IND d   1      -0.205  -0.771  -0.189  0.00  0.00    -0.096 A 
ATOM     10  HN1 IND d   1      -0.021  -0.649  -3.250  0.00  0.00     0.298 HD
ENDROOT
TORSDOF 0
ENDMDL
