MODEL 1
REMARK minimizedAffinity -4.20208549
REMARK minimizedRMSD -1
REMARK  0 active torsions:
REMARK  status: ('A' for Active; 'I' for Inactive)
ROOT
ATOM      1  N1  IND d   1      -0.662   0.028   0.879  0.00  0.00    -0.196 N 
ATOM      2  C2  IND d   1      -1.350  -0.682   1.823  0.00  0.00     0.054 A 
ATOM      3  C3  IND d   1      -1.322  -2.002   1.532  0.00  0.00    -0.031 A 
ATOM      4  C4  IND d   1      -0.119  -3.228  -0.386  0.00  0.00     0.051 A 
ATOM      5  C5  IND d   1       0.607  -3.002  -1.521  0.00  0.00    -0.031 A 
ATOM      6  C6  IND d   1       0.957  -1.728  -1.921  0.00  0.00     0.015 A 
ATOM      7  C7  IND d   1       0.601  -0.629  -1.191  0.00  0.00    -0.016 A 
ATOM      8  C8  IND d   1      -0.142  -0.855  -0.041  0.00  0.00    -0.047 A 
ATOM      9  C9  IND d   1      -0.537  -2.142   0.347  0.00  0.00    -0.096 A 
ATOM     10  HN1 IND d   1      -0.570   0.883   0.863  0.00  0.00     0.298 HD
ENDROOT
TORSDOF 0
ENDMDL
