MODEL 1
REMARK minimizedAffinity 0.733335555
REMARK minimizedRMSD -1
REMARK  0 active torsions:
REMARK  status: ('A' for Active; 'I' for Inactive)
ROOT
ATOM      1  N1  IND d   1      -0.278   0.141  -0.758  0.00  0.00    -0.196 N 
ATOM      2  C2  IND d   1       0.385   1.293  -0.436  0.00  0.00     0.054 A 
ATOM      3  C3  IND d   1      -0.194   1.886   0.632  0.00  0.00    -0.031 A 
ATOM      4  C4  IND d   1      -2.175   1.090   2.071  0.00  0.00     0.051 A 
ATOM      5  C5  IND d   1      -3.128   0.113   2.146  0.00  0.00    -0.031 A 
ATOM      6  C6  IND d   1      -3.179  -0.927   1.240  0.00  0.00     0.015 A 
ATOM      7  C7  IND d   1      -2.268  -1.035   0.228  0.00  0.00    -0.016 A 
ATOM      8  C8  IND d   1      -1.303  -0.041   0.144  0.00  0.00    -0.047 A 
ATOM      9  C9  IND d   1      -1.272   1.040   1.035  0.00  0.00    -0.096 A 
ATOM     10  HN1 IND d   1      -0.087  -0.382  -1.413  0.00  0.00     0.298 HD
ENDROOT
TORSDOF 0
ENDMDL
