MODEL 1
REMARK minimizedAffinity -3.47059202
REMARK minimizedRMSD -1
REMARK  0 active torsions:
REMARK  status: ('A' for Active; 'I' for Inactive)
ROOT
ATOM      1  N1  IND d   1       0.101  -0.992  -2.206  0.00  0.00    -0.196 N 
ATOM      2  C2  IND d   1       0.436  -2.215  -2.717  0.00  0.00     0.054 A 
ATOM      3  C3  IND d   1       0.303  -3.172  -1.771  0.00  0.00    -0.031 A 
ATOM      4  C4  IND d   1      -0.545  -2.971   0.651  0.00  0.00     0.051 A 
ATOM      5  C5  IND d   1      -0.934  -2.051   1.583  0.00  0.00    -0.031 A 
ATOM      6  C6  IND d   1      -1.002  -0.703   1.294  0.00  0.00     0.015 A 
ATOM      7  C7  IND d   1      -0.692  -0.226   0.052  0.00  0.00    -0.016 A 
ATOM      8  C8  IND d   1      -0.290  -1.157  -0.896  0.00  0.00    -0.047 A 
ATOM      9  C9  IND d   1      -0.179  -2.520  -0.595  0.00  0.00    -0.096 A 
ATOM     10  HN1 IND d   1       0.131  -0.246  -2.632  0.00  0.00     0.298 HD
ENDROOT
TORSDOF 0
ENDMDL
