MODEL 1
REMARK minimizedAffinity 9.35091972
REMARK minimizedRMSD -1
REMARK  1 active torsions:
REMARK  status: ('A' for Active; 'I' for Inactive)
REMARK    1  A    between atoms: C1_2  and  C2_3 
ROOT
ATOM      1  C2  UNL d   1       2.765  -3.687   3.303  0.00  0.00    -0.073 A 
ATOM      2  C3  UNL d   1       2.867  -2.439   3.928  0.00  0.00    -0.002 A 
ATOM      3  C4  UNL d   1       3.633  -2.290   5.085  0.00  0.00     0.004 A 
ATOM      4  C5  UNL d   1       4.310  -3.384   5.624  0.00  0.00    -0.004 A 
ATOM      5  C6  UNL d   1       4.230  -4.637   5.008  0.00  0.00    -0.075 A 
ATOM      6  C7  UNL d   1       4.950  -5.824   5.576  0.00  0.00     0.076 C 
ATOM      7  C8  UNL d   1       3.456  -4.779   3.848  0.00  0.00     0.001 A 
ENDROOT
BRANCH   1   8
ATOM      8  C1  UNL d   1       1.944  -3.851   2.050  0.00  0.00     0.053 C 
ATOM      9  C   UNL d   1       1.497  -2.513   1.482  0.00  0.00     0.018 C 
ENDBRANCH   1   8
TORSDOF 1
ENDMDL
