MODEL 1
REMARK minimizedAffinity 9.73674011
REMARK minimizedRMSD -1
REMARK  1 active torsions:
REMARK  status: ('A' for Active; 'I' for Inactive)
REMARK    1  A    between atoms: C1_2  and  C2_3 
ROOT
ATOM      1  C2  UNL d   1       0.728  -2.188   2.417  0.00  0.00    -0.073 A 
ATOM      2  C3  UNL d   1       1.530  -1.682   3.447  0.00  0.00    -0.002 A 
ATOM      3  C4  UNL d   1       2.796  -2.221   3.684  0.00  0.00     0.004 A 
ATOM      4  C5  UNL d   1       3.275  -3.263   2.890  0.00  0.00    -0.004 A 
ATOM      5  C6  UNL d   1       2.493  -3.774   1.849  0.00  0.00    -0.075 A 
ATOM      6  C7  UNL d   1       2.993  -4.897   0.988  0.00  0.00     0.076 C 
ATOM      7  C8  UNL d   1       1.222  -3.230   1.620  0.00  0.00     0.001 A 
ENDROOT
BRANCH   1   8
ATOM      8  C1  UNL d   1      -0.636  -1.605   2.154  0.00  0.00     0.053 C 
ATOM      9  C   UNL d   1      -1.256  -1.015   3.411  0.00  0.00     0.018 C 
ENDBRANCH   1   8
TORSDOF 1
ENDMDL
