MODEL 1
REMARK minimizedAffinity 3.96274424
REMARK minimizedRMSD -1
REMARK  1 active torsions:
REMARK  status: ('A' for Active; 'I' for Inactive)
REMARK    1  A    between atoms: C1_2  and  C2_3 
ROOT
ATOM      1  C2  UNL d   1       2.971  -4.115   1.159  0.00  0.00    -0.073 A 
ATOM      2  C3  UNL d   1       3.945  -3.313   1.764  0.00  0.00    -0.002 A 
ATOM      3  C4  UNL d   1       5.276  -3.385   1.349  0.00  0.00     0.004 A 
ATOM      4  C5  UNL d   1       5.644  -4.253   0.320  0.00  0.00    -0.004 A 
ATOM      5  C6  UNL d   1       4.682  -5.053  -0.305  0.00  0.00    -0.075 A 
ATOM      6  C7  UNL d   1       5.062  -5.993  -1.411  0.00  0.00     0.076 C 
ATOM      7  C8  UNL d   1       3.349  -4.977   0.120  0.00  0.00     0.001 A 
ENDROOT
BRANCH   1   8
ATOM      8  C1  UNL d   1       1.532  -4.036   1.600  0.00  0.00     0.053 C 
ATOM      9  C   UNL d   1       1.168  -2.650   2.110  0.00  0.00     0.018 C 
ENDBRANCH   1   8
TORSDOF 1
ENDMDL
