MODEL 1
REMARK minimizedAffinity 16.1097527
REMARK minimizedRMSD -1
REMARK  1 active torsions:
REMARK  status: ('A' for Active; 'I' for Inactive)
REMARK    1  A    between atoms: C1_2  and  C2_3 
ROOT
ATOM      1  C2  UNL d   1      -4.125  -1.057  -2.334  0.00  0.00    -0.073 A 
ATOM      2  C3  UNL d   1      -4.530  -2.393  -2.441  0.00  0.00    -0.002 A 
ATOM      3  C4  UNL d   1      -4.652  -2.994  -3.694  0.00  0.00     0.004 A 
ATOM      4  C5  UNL d   1      -4.365  -2.270  -4.851  0.00  0.00    -0.004 A 
ATOM      5  C6  UNL d   1      -3.948  -0.938  -4.765  0.00  0.00    -0.075 A 
ATOM      6  C7  UNL d   1      -3.637  -0.145  -6.000  0.00  0.00     0.076 C 
ATOM      7  C8  UNL d   1      -3.830  -0.341  -3.502  0.00  0.00     0.001 A 
ENDROOT
BRANCH   1   8
ATOM      8  C1  UNL d   1      -3.985  -0.406  -0.983  0.00  0.00     0.053 C 
ATOM      9  C   UNL d   1      -4.874   0.821  -0.847  0.00  0.00     0.018 C 
ENDBRANCH   1   8
TORSDOF 1
ENDMDL
