MODEL 1
REMARK minimizedAffinity 9.37834263
REMARK minimizedRMSD -1
REMARK  1 active torsions:
REMARK  status: ('A' for Active; 'I' for Inactive)
REMARK    1  A    between atoms: C1_2  and  C2_3 
ROOT
ATOM      1  C2  UNL d   1       0.963  -1.689   0.838  0.00  0.00    -0.073 A 
ATOM      2  C3  UNL d   1       0.193  -1.514  -0.317  0.00  0.00    -0.002 A 
ATOM      3  C4  UNL d   1       0.233  -0.307  -1.016  0.00  0.00     0.004 A 
ATOM      4  C5  UNL d   1       1.048   0.734  -0.572  0.00  0.00    -0.004 A 
ATOM      5  C6  UNL d   1       1.834   0.575   0.574  0.00  0.00    -0.075 A 
ATOM      6  C7  UNL d   1       2.713   1.687   1.067  0.00  0.00     0.076 C 
ATOM      7  C8  UNL d   1       1.785  -0.639   1.272  0.00  0.00     0.001 A 
ENDROOT
BRANCH   1   8
ATOM      8  C1  UNL d   1       0.927  -2.993   1.592  0.00  0.00     0.053 C 
ATOM      9  C   UNL d   1       2.079  -3.907   1.205  0.00  0.00     0.018 C 
ENDBRANCH   1   8
TORSDOF 1
ENDMDL
