MODEL 1
REMARK minimizedAffinity 11.2444162
REMARK minimizedRMSD -1
REMARK  1 active torsions:
REMARK  status: ('A' for Active; 'I' for Inactive)
REMARK    1  A    between atoms: C1_2  and  C2_3 
ROOT
ATOM      1  C2  UNL d   1      -4.771  -2.255  -3.966  0.00  0.00    -0.073 A 
ATOM      2  C3  UNL d   1      -5.620  -1.149  -4.081  0.00  0.00    -0.002 A 
ATOM      3  C4  UNL d   1      -5.462  -0.048  -3.238  0.00  0.00     0.004 A 
ATOM      4  C5  UNL d   1      -4.451  -0.038  -2.278  0.00  0.00    -0.004 A 
ATOM      5  C6  UNL d   1      -3.584  -1.129  -2.155  0.00  0.00    -0.075 A 
ATOM      6  C7  UNL d   1      -2.492  -1.135  -1.126  0.00  0.00     0.076 C 
ATOM      7  C8  UNL d   1      -3.751  -2.232  -3.004  0.00  0.00     0.001 A 
ENDROOT
BRANCH   1   8
ATOM      8  C1  UNL d   1      -4.933  -3.443  -4.878  0.00  0.00     0.053 C 
ATOM      9  C   UNL d   1      -6.000  -4.404  -4.377  0.00  0.00     0.018 C 
ENDBRANCH   1   8
TORSDOF 1
ENDMDL
