MODEL 1
REMARK minimizedAffinity 0.0863118246
REMARK minimizedRMSD -1
REMARK  1 active torsions:
REMARK  status: ('A' for Active; 'I' for Inactive)
REMARK    1  A    between atoms: C1_2  and  C2_3 
ROOT
ATOM      1  C2  UNL d   1       3.354  -4.478   3.399  0.00  0.00    -0.073 A 
ATOM      2  C3  UNL d   1       3.838  -4.427   2.086  0.00  0.00    -0.002 A 
ATOM      3  C4  UNL d   1       3.148  -3.709   1.109  0.00  0.00     0.004 A 
ATOM      4  C5  UNL d   1       1.974  -3.031   1.433  0.00  0.00    -0.004 A 
ATOM      5  C6  UNL d   1       1.481  -3.061   2.742  0.00  0.00    -0.075 A 
ATOM      6  C7  UNL d   1       0.217  -2.338   3.107  0.00  0.00     0.076 C 
ATOM      7  C8  UNL d   1       2.177  -3.786   3.717  0.00  0.00     0.001 A 
ENDROOT
BRANCH   1   8
ATOM      8  C1  UNL d   1       4.099  -5.247   4.460  0.00  0.00     0.053 C 
ATOM      9  C   UNL d   1       4.021  -4.566   5.817  0.00  0.00     0.018 C 
ENDBRANCH   1   8
TORSDOF 1
ENDMDL
