MODEL 1
REMARK minimizedAffinity -4.21301985
REMARK minimizedRMSD -1
REMARK  0 active torsions:
REMARK  status: ('A' for Active; 'I' for Inactive)
ROOT
ATOM      1  C1  BNZ d   1      -0.441   0.121   2.317  0.00  0.00     0.000 A 
ATOM      2  C2  BNZ d   1       0.766  -0.260   1.793  0.00  0.00     0.000 A 
ATOM      3  C3  BNZ d   1       0.926  -0.416   0.444  0.00  0.00     0.000 A 
ATOM      4  C4  BNZ d   1      -0.130  -0.230  -0.374  0.00  0.00     0.000 A 
ATOM      5  C5  BNZ d   1      -1.355   0.145   0.139  0.00  0.00     0.000 A 
ATOM      6  C6  BNZ d   1      -1.502   0.338   1.494  0.00  0.00     0.000 A 
ENDROOT
TORSDOF 0
ENDMDL
