MODEL 1
REMARK minimizedAffinity -5.29989767
REMARK minimizedRMSD -1
REMARK  0 active torsions:
REMARK  status: ('A' for Active; 'I' for Inactive)
ROOT
ATOM      1  C1  BNZ d   1       1.165   0.567   3.472  0.00  0.00     0.000 A 
ATOM      2  C2  BNZ d   1      -0.090   1.045   3.740  0.00  0.00     0.000 A 
ATOM      3  C3  BNZ d   1      -1.047   1.084   2.764  0.00  0.00     0.000 A 
ATOM      4  C4  BNZ d   1      -0.737   0.682   1.515  0.00  0.00     0.000 A 
ATOM      5  C5  BNZ d   1       0.527   0.206   1.227  0.00  0.00     0.000 A 
ATOM      6  C6  BNZ d   1       1.476   0.133   2.221  0.00  0.00     0.000 A 
ENDROOT
TORSDOF 0
ENDMDL
