MODEL 1
REMARK minimizedAffinity -5.27281618
REMARK minimizedRMSD -1
REMARK  0 active torsions:
REMARK  status: ('A' for Active; 'I' for Inactive)
ROOT
ATOM      1  C1  BNZ d   1      -0.750   0.520   0.958  0.00  0.00     0.000 A 
ATOM      2  C2  BNZ d   1      -1.162   0.936   2.196  0.00  0.00     0.000 A 
ATOM      3  C3  BNZ d   1      -0.343   0.817   3.283  0.00  0.00     0.000 A 
ATOM      4  C4  BNZ d   1       0.871   0.246   3.140  0.00  0.00     0.000 A 
ATOM      5  C5  BNZ d   1       1.297  -0.187   1.900  0.00  0.00     0.000 A 
ATOM      6  C6  BNZ d   1       0.485  -0.030   0.801  0.00  0.00     0.000 A 
ENDROOT
TORSDOF 0
ENDMDL
