MODEL 1
REMARK minimizedAffinity -3.75884414
REMARK minimizedRMSD -1
REMARK  0 active torsions:
REMARK  status: ('A' for Active; 'I' for Inactive)
ROOT
ATOM      1  C1  BNZ d   1       1.353  -0.317  -2.196  0.00  0.00     0.000 A 
ATOM      2  C2  BNZ d   1       0.110  -0.889  -2.237  0.00  0.00     0.000 A 
ATOM      3  C3  BNZ d   1      -0.713  -0.699  -3.312  0.00  0.00     0.000 A 
ATOM      4  C4  BNZ d   1      -0.308   0.094  -4.325  0.00  0.00     0.000 A 
ATOM      5  C5  BNZ d   1       0.939   0.686  -4.294  0.00  0.00     0.000 A 
ATOM      6  C6  BNZ d   1       1.780   0.460  -3.228  0.00  0.00     0.000 A 
ENDROOT
TORSDOF 0
ENDMDL
