MODEL 1
REMARK minimizedAffinity -1.62391806
REMARK minimizedRMSD -1
REMARK  0 active torsions:
REMARK  status: ('A' for Active; 'I' for Inactive)
ROOT
ATOM      1  C1  BNZ d   1       1.518  -0.208  -3.172  0.00  0.00     0.000 A 
ATOM      2  C2  BNZ d   1       1.550  -0.983  -2.043  0.00  0.00     0.000 A 
ATOM      3  C3  BNZ d   1       0.585  -0.861  -1.083  0.00  0.00     0.000 A 
ATOM      4  C4  BNZ d   1      -0.386   0.063  -1.233  0.00  0.00     0.000 A 
ATOM      5  C5  BNZ d   1      -0.426   0.859  -2.361  0.00  0.00     0.000 A 
ATOM      6  C6  BNZ d   1       0.524   0.706  -3.344  0.00  0.00     0.000 A 
ENDROOT
TORSDOF 0
ENDMDL
