MODEL 1
REMARK minimizedAffinity -5.08915806
REMARK minimizedRMSD -1
REMARK  0 active torsions:
REMARK  status: ('A' for Active; 'I' for Inactive)
ROOT
ATOM      1  C1  BNZ d   1       0.421   0.675   2.133  0.00  0.00     0.000 A 
ATOM      2  C2  BNZ d   1       1.563   0.052   1.704  0.00  0.00     0.000 A 
ATOM      3  C3  BNZ d   1       1.584  -0.634   0.522  0.00  0.00     0.000 A 
ATOM      4  C4  BNZ d   1       0.455  -0.730  -0.209  0.00  0.00     0.000 A 
ATOM      5  C5  BNZ d   1      -0.706  -0.115   0.214  0.00  0.00     0.000 A 
ATOM      6  C6  BNZ d   1      -0.714   0.608   1.385  0.00  0.00     0.000 A 
ENDROOT
TORSDOF 0
ENDMDL
