MODEL 1
REMARK minimizedAffinity -4.68595505
REMARK minimizedRMSD -1
REMARK  0 active torsions:
REMARK  status: ('A' for Active; 'I' for Inactive)
ROOT
ATOM      1  C   UNL d   1      -1.297   0.717   0.143  0.00  0.00     0.078 C 
ATOM      2  C1  UNL d   1      -0.010   0.043  -0.228  0.00  0.00    -0.077 A 
ATOM      3  C2  UNL d   1       1.102   0.789  -0.639  0.00  0.00    -0.001 A 
ATOM      4  C3  UNL d   1       2.291   0.147  -0.990  0.00  0.00     0.003 A 
ATOM      5  C4  UNL d   1       2.379  -1.242  -0.936  0.00  0.00    -0.005 A 
ATOM      6  C5  UNL d   1       1.277  -1.993  -0.532  0.00  0.00     0.003 A 
ATOM      7  C6  UNL d   1       0.087  -1.353  -0.180  0.00  0.00    -0.001 A 
ENDROOT
TORSDOF 0
ENDMDL
