MODEL 1
REMARK minimizedAffinity -4.87744284
REMARK minimizedRMSD -1
REMARK  0 active torsions:
REMARK  status: ('A' for Active; 'I' for Inactive)
ROOT
ATOM      1  C   UNL d   1      -1.188   0.169   0.828  0.00  0.00     0.078 C 
ATOM      2  C1  UNL d   1       0.016  -0.251   0.040  0.00  0.00    -0.077 A 
ATOM      3  C2  UNL d   1       0.930   0.695  -0.439  0.00  0.00    -0.001 A 
ATOM      4  C3  UNL d   1       2.042   0.291  -1.180  0.00  0.00     0.003 A 
ATOM      5  C4  UNL d   1       2.249  -1.061  -1.449  0.00  0.00    -0.005 A 
ATOM      6  C5  UNL d   1       1.344  -2.009  -0.978  0.00  0.00     0.003 A 
ATOM      7  C6  UNL d   1       0.232  -1.607  -0.237  0.00  0.00    -0.001 A 
ENDROOT
TORSDOF 0
ENDMDL
