MODEL 1
REMARK minimizedAffinity -5.87755728
REMARK minimizedRMSD -1
REMARK  0 active torsions:
REMARK  status: ('A' for Active; 'I' for Inactive)
ROOT
ATOM      1  C   UNL d   1      -1.130   0.371   0.044  0.00  0.00     0.078 C 
ATOM      2  C1  UNL d   1       0.207  -0.182  -0.347  0.00  0.00    -0.077 A 
ATOM      3  C2  UNL d   1       0.353  -1.524  -0.717  0.00  0.00    -0.001 A 
ATOM      4  C3  UNL d   1       1.607  -2.027  -1.070  0.00  0.00     0.003 A 
ATOM      5  C4  UNL d   1       2.724  -1.195  -1.056  0.00  0.00    -0.005 A 
ATOM      6  C5  UNL d   1       2.589   0.142  -0.688  0.00  0.00     0.003 A 
ATOM      7  C6  UNL d   1       1.336   0.647  -0.334  0.00  0.00    -0.001 A 
ENDROOT
TORSDOF 0
ENDMDL
