MODEL 1
REMARK minimizedAffinity -5.02931499
REMARK minimizedRMSD -1
REMARK  0 active torsions:
REMARK  status: ('A' for Active; 'I' for Inactive)
ROOT
ATOM      1  C   UNL d   1       1.536   2.443  -1.298  0.00  0.00     0.078 C 
ATOM      2  C1  UNL d   1       1.147   1.041  -0.938  0.00  0.00    -0.077 A 
ATOM      3  C2  UNL d   1       2.007  -0.034  -1.195  0.00  0.00    -0.001 A 
ATOM      4  C3  UNL d   1       1.628  -1.336  -0.863  0.00  0.00     0.003 A 
ATOM      5  C4  UNL d   1       0.388  -1.576  -0.275  0.00  0.00    -0.005 A 
ATOM      6  C5  UNL d   1      -0.475  -0.513  -0.018  0.00  0.00     0.003 A 
ATOM      7  C6  UNL d   1      -0.098   0.790  -0.348  0.00  0.00    -0.001 A 
ENDROOT
TORSDOF 0
ENDMDL
