MODEL 1
REMARK minimizedAffinity -5.32881069
REMARK minimizedRMSD -1
REMARK  0 active torsions:
REMARK  status: ('A' for Active; 'I' for Inactive)
ROOT
ATOM      1  C   UNL d   1      -0.451  -2.359  -0.211  0.00  0.00     0.078 C 
ATOM      2  C1  UNL d   1       0.652  -1.409  -0.570  0.00  0.00    -0.077 A 
ATOM      3  C2  UNL d   1       1.572  -1.719  -1.580  0.00  0.00    -0.001 A 
ATOM      4  C3  UNL d   1       2.599  -0.829  -1.897  0.00  0.00     0.003 A 
ATOM      5  C4  UNL d   1       2.718   0.376  -1.209  0.00  0.00    -0.005 A 
ATOM      6  C5  UNL d   1       1.809   0.693  -0.201  0.00  0.00     0.003 A 
ATOM      7  C6  UNL d   1       0.781  -0.196   0.117  0.00  0.00    -0.001 A 
ENDROOT
TORSDOF 0
ENDMDL
