MODEL 1
REMARK minimizedAffinity -4.40108109
REMARK minimizedRMSD -1
REMARK  0 active torsions:
REMARK  status: ('A' for Active; 'I' for Inactive)
ROOT
ATOM      1  C   UNL d   1      -1.136   0.745   1.510  0.00  0.00     0.078 C 
ATOM      2  C1  UNL d   1      -0.155   0.036   0.624  0.00  0.00    -0.077 A 
ATOM      3  C2  UNL d   1       1.039   0.653   0.231  0.00  0.00    -0.001 A 
ATOM      4  C3  UNL d   1       1.938  -0.015  -0.602  0.00  0.00     0.003 A 
ATOM      5  C4  UNL d   1       1.652  -1.303  -1.050  0.00  0.00    -0.005 A 
ATOM      6  C5  UNL d   1       0.466  -1.925  -0.666  0.00  0.00     0.003 A 
ATOM      7  C6  UNL d   1      -0.435  -1.258   0.167  0.00  0.00    -0.001 A 
ENDROOT
TORSDOF 0
ENDMDL
