MODEL 1
REMARK minimizedAffinity -4.18275452
REMARK minimizedRMSD -1
REMARK  0 active torsions:
REMARK  status: ('A' for Active; 'I' for Inactive)
ROOT
ATOM      1  C   UNL d   1       3.080  -0.795  -1.060  0.00  0.00     0.078 C 
ATOM      2  C1  UNL d   1       1.630  -0.550  -0.765  0.00  0.00    -0.077 A 
ATOM      3  C2  UNL d   1       1.129   0.751  -0.643  0.00  0.00    -0.001 A 
ATOM      4  C3  UNL d   1      -0.221   0.964  -0.359  0.00  0.00     0.003 A 
ATOM      5  C4  UNL d   1      -1.081  -0.120  -0.193  0.00  0.00    -0.005 A 
ATOM      6  C5  UNL d   1      -0.591  -1.419  -0.311  0.00  0.00     0.003 A 
ATOM      7  C6  UNL d   1       0.759  -1.634  -0.595  0.00  0.00    -0.001 A 
ENDROOT
TORSDOF 0
ENDMDL
