MODEL 1
REMARK minimizedAffinity -4.72388887
REMARK minimizedRMSD -1
REMARK  0 active torsions:
REMARK  status: ('A' for Active; 'I' for Inactive)
ROOT
ATOM      1  C   UNL d   1       0.423  -3.406   0.349  0.00  0.00     0.078 C 
ATOM      2  C1  UNL d   1       0.917  -2.152  -0.308  0.00  0.00    -0.077 A 
ATOM      3  C2  UNL d   1       0.303  -0.918  -0.060  0.00  0.00    -0.001 A 
ATOM      4  C3  UNL d   1       0.767   0.240  -0.687  0.00  0.00     0.003 A 
ATOM      5  C4  UNL d   1       1.845   0.175  -1.567  0.00  0.00    -0.005 A 
ATOM      6  C5  UNL d   1       2.461  -1.049  -1.822  0.00  0.00     0.003 A 
ATOM      7  C6  UNL d   1       1.999  -2.207  -1.196  0.00  0.00    -0.001 A 
ENDROOT
TORSDOF 0
ENDMDL
