MODEL 1
REMARK minimizedAffinity -5.31927681
REMARK minimizedRMSD -1
REMARK  0 active torsions:
REMARK  status: ('A' for Active; 'I' for Inactive)
ROOT
ATOM      1  C   UNL d   1      -0.714   1.026   0.755  0.00  0.00     0.078 C 
ATOM      2  C1  UNL d   1       0.370   0.297   0.018  0.00  0.00    -0.077 A 
ATOM      3  C2  UNL d   1       0.336  -1.096  -0.120  0.00  0.00    -0.001 A 
ATOM      4  C3  UNL d   1       1.357  -1.762  -0.801  0.00  0.00     0.003 A 
ATOM      5  C4  UNL d   1       2.419  -1.044  -1.347  0.00  0.00    -0.005 A 
ATOM      6  C5  UNL d   1       2.462   0.342  -1.212  0.00  0.00     0.003 A 
ATOM      7  C6  UNL d   1       1.442   1.010  -0.532  0.00  0.00    -0.001 A 
ENDROOT
TORSDOF 0
ENDMDL
