MODEL 1
REMARK minimizedAffinity -5.1128087
REMARK minimizedRMSD -1
REMARK  0 active torsions:
REMARK  status: ('A' for Active; 'I' for Inactive)
ROOT
ATOM      1  C   UNL d   1       3.024  -0.493  -1.217  0.00  0.00     0.078 C 
ATOM      2  C1  UNL d   1       1.557  -0.524  -0.906  0.00  0.00    -0.077 A 
ATOM      3  C2  UNL d   1       0.807   0.657  -0.851  0.00  0.00    -0.001 A 
ATOM      4  C3  UNL d   1      -0.556   0.614  -0.551  0.00  0.00     0.003 A 
ATOM      5  C4  UNL d   1      -1.179  -0.607  -0.302  0.00  0.00    -0.005 A 
ATOM      6  C5  UNL d   1      -0.440  -1.787  -0.352  0.00  0.00     0.003 A 
ATOM      7  C6  UNL d   1       0.922  -1.746  -0.653  0.00  0.00    -0.001 A 
ENDROOT
TORSDOF 0
ENDMDL
