MODEL 1
REMARK minimizedAffinity -5.11661816
REMARK minimizedRMSD -1
REMARK  0 active torsions:
REMARK  status: ('A' for Active; 'I' for Inactive)
ROOT
ATOM      1  C   UNL d   1      -1.480   0.352  -0.150  0.00  0.00     0.078 C 
ATOM      2  C1  UNL d   1      -0.105  -0.179  -0.430  0.00  0.00    -0.077 A 
ATOM      3  C2  UNL d   1       0.112  -1.547  -0.630  0.00  0.00    -0.001 A 
ATOM      4  C3  UNL d   1       1.398  -2.029  -0.879  0.00  0.00     0.003 A 
ATOM      5  C4  UNL d   1       2.477  -1.148  -0.929  0.00  0.00    -0.005 A 
ATOM      6  C5  UNL d   1       2.271   0.215  -0.729  0.00  0.00     0.003 A 
ATOM      7  C6  UNL d   1       0.986   0.698  -0.480  0.00  0.00    -0.001 A 
ENDROOT
TORSDOF 0
ENDMDL
