MODEL 1
REMARK minimizedAffinity -5.00078058
REMARK minimizedRMSD -1
REMARK  0 active torsions:
REMARK  status: ('A' for Active; 'I' for Inactive)
ROOT
ATOM      1  C   UNL d   1       2.561  -0.631  -1.078  0.00  0.00     0.078 C 
ATOM      2  C1  UNL d   1       1.075  -0.539  -0.896  0.00  0.00    -0.077 A 
ATOM      3  C2  UNL d   1       0.283  -1.692  -0.833  0.00  0.00    -0.001 A 
ATOM      4  C3  UNL d   1      -1.100  -1.591  -0.673  0.00  0.00     0.003 A 
ATOM      5  C4  UNL d   1      -1.703  -0.339  -0.575  0.00  0.00    -0.005 A 
ATOM      6  C5  UNL d   1      -0.923   0.814  -0.639  0.00  0.00     0.003 A 
ATOM      7  C6  UNL d   1       0.460   0.715  -0.799  0.00  0.00    -0.001 A 
ENDROOT
TORSDOF 0
ENDMDL
