MODEL 1
REMARK minimizedAffinity -4.16320133
REMARK minimizedRMSD -1
REMARK  0 active torsions:
REMARK  status: ('A' for Active; 'I' for Inactive)
ROOT
ATOM      1  C   UNL d   1       0.640   2.086  -2.215  0.00  0.00     0.078 C 
ATOM      2  C1  UNL d   1       1.208   0.740  -1.879  0.00  0.00    -0.077 A 
ATOM      3  C2  UNL d   1       0.614  -0.071  -0.904  0.00  0.00    -0.001 A 
ATOM      4  C3  UNL d   1       1.160  -1.318  -0.594  0.00  0.00     0.003 A 
ATOM      5  C4  UNL d   1       2.303  -1.765  -1.254  0.00  0.00    -0.005 A 
ATOM      6  C5  UNL d   1       2.902  -0.964  -2.224  0.00  0.00     0.003 A 
ATOM      7  C6  UNL d   1       2.358   0.283  -2.535  0.00  0.00    -0.001 A 
ENDROOT
TORSDOF 0
ENDMDL
