MODEL 1
REMARK minimizedAffinity 5.08821011
REMARK minimizedRMSD -1
REMARK  0 active torsions:
REMARK  status: ('A' for Active; 'I' for Inactive)
ROOT
ATOM      1  C1  DEN d   1      -2.234   1.481   2.535  0.00  0.00     0.130 A 
ATOM      2  C2  DEN d   1      -2.644   2.741   1.922  0.00  0.00    -0.031 A 
ATOM      3  C3  DEN d   1      -1.519   3.237   1.104  0.00  0.00     0.027 A 
ATOM      4  C4  DEN d   1       0.803   2.179   0.725  0.00  0.00     0.027 A 
ATOM      5  C5  DEN d   1       1.617   1.116   1.046  0.00  0.00    -0.003 A 
ATOM      6  C6  DEN d   1       1.221   0.126   1.905  0.00  0.00     0.001 A 
ATOM      7  C7  DEN d   1      -0.040   0.154   2.439  0.00  0.00     0.017 A 
ATOM      8  C8  DEN d   1      -0.865   1.227   2.126  0.00  0.00    -0.094 A 
ATOM      9  C9  DEN d   1      -0.450   2.212   1.245  0.00  0.00    -0.072 A 
ENDROOT
TORSDOF 0
ENDMDL
