MODEL 1
REMARK minimizedAffinity -4.20735168
REMARK minimizedRMSD -1
REMARK  0 active torsions:
REMARK  status: ('A' for Active; 'I' for Inactive)
ROOT
ATOM      1  C1  DEN d   1       0.329   1.396   0.931  0.00  0.00     0.130 A 
ATOM      2  C2  DEN d   1       0.764   0.003   0.872  0.00  0.00    -0.031 A 
ATOM      3  C3  DEN d   1      -0.316  -0.836   1.429  0.00  0.00     0.027 A 
ATOM      4  C4  DEN d   1      -2.610  -0.118   2.366  0.00  0.00     0.027 A 
ATOM      5  C5  DEN d   1      -3.425   0.959   2.634  0.00  0.00    -0.003 A 
ATOM      6  C6  DEN d   1      -3.036   2.249   2.387  0.00  0.00     0.001 A 
ATOM      7  C7  DEN d   1      -1.816   2.492   1.814  0.00  0.00     0.017 A 
ATOM      8  C8  DEN d   1      -0.985   1.412   1.547  0.00  0.00    -0.094 A 
ATOM      9  C9  DEN d   1      -1.402   0.114   1.793  0.00  0.00    -0.072 A 
ENDROOT
TORSDOF 0
ENDMDL
