MODEL 1
REMARK minimizedAffinity 3.1374824
REMARK minimizedRMSD -1
REMARK  0 active torsions:
REMARK  status: ('A' for Active; 'I' for Inactive)
ROOT
ATOM      1  C1  DEN d   1      -4.860   4.803   2.676  0.00  0.00     0.130 A 
ATOM      2  C2  DEN d   1      -5.548   5.999   3.154  0.00  0.00    -0.031 A 
ATOM      3  C3  DEN d   1      -6.000   5.745   4.537  0.00  0.00     0.027 A 
ATOM      4  C4  DEN d   1      -5.698   3.627   5.978  0.00  0.00     0.027 A 
ATOM      5  C5  DEN d   1      -5.189   2.347   6.000  0.00  0.00    -0.003 A 
ATOM      6  C6  DEN d   1      -4.570   1.789   4.913  0.00  0.00     0.001 A 
ATOM      7  C7  DEN d   1      -4.404   2.529   3.772  0.00  0.00     0.017 A 
ATOM      8  C8  DEN d   1      -4.920   3.817   3.740  0.00  0.00    -0.094 A 
ATOM      9  C9  DEN d   1      -5.532   4.368   4.853  0.00  0.00    -0.072 A 
ENDROOT
TORSDOF 0
ENDMDL
