MODEL 1
REMARK minimizedAffinity 1.13075328
REMARK minimizedRMSD -1
REMARK  0 active torsions:
REMARK  status: ('A' for Active; 'I' for Inactive)
ROOT
ATOM      1  C1  DEN d   1      -2.856   1.226   1.994  0.00  0.00     0.130 A 
ATOM      2  C2  DEN d   1      -2.504  -0.096   2.505  0.00  0.00    -0.031 A 
ATOM      3  C3  DEN d   1      -1.033  -0.222   2.473  0.00  0.00     0.027 A 
ATOM      4  C4  DEN d   1       0.725   1.495   1.690  0.00  0.00     0.027 A 
ATOM      5  C5  DEN d   1       0.908   2.754   1.163  0.00  0.00    -0.003 A 
ATOM      6  C6  DEN d   1      -0.144   3.572   0.846  0.00  0.00     0.001 A 
ATOM      7  C7  DEN d   1      -1.426   3.158   1.096  0.00  0.00     0.017 A 
ATOM      8  C8  DEN d   1      -1.618   1.887   1.621  0.00  0.00    -0.094 A 
ATOM      9  C9  DEN d   1      -0.541   1.080   1.946  0.00  0.00    -0.072 A 
ENDROOT
TORSDOF 0
ENDMDL
