MODEL 1
REMARK minimizedAffinity 9.61396122
REMARK minimizedRMSD -1
REMARK  0 active torsions:
REMARK  status: ('A' for Active; 'I' for Inactive)
ROOT
ATOM      1  C1  DEN d   1      -1.546   1.684   2.965  0.00  0.00     0.130 A 
ATOM      2  C2  DEN d   1      -1.860   2.935   2.280  0.00  0.00    -0.031 A 
ATOM      3  C3  DEN d   1      -0.914   3.090   1.156  0.00  0.00     0.027 A 
ATOM      4  C4  DEN d   1       0.994   1.522   0.413  0.00  0.00     0.027 A 
ATOM      5  C5  DEN d   1       1.653   0.346   0.693  0.00  0.00    -0.003 A 
ATOM      6  C6  DEN d   1       1.318  -0.444   1.761  0.00  0.00     0.001 A 
ATOM      7  C7  DEN d   1       0.265  -0.089   2.563  0.00  0.00     0.017 A 
ATOM      8  C8  DEN d   1      -0.400   1.100   2.291  0.00  0.00    -0.094 A 
ATOM      9  C9  DEN d   1      -0.053   1.877   1.199  0.00  0.00    -0.072 A 
ENDROOT
TORSDOF 0
ENDMDL
