MODEL 1
REMARK minimizedAffinity 8.03074074
REMARK minimizedRMSD -1
REMARK  0 active torsions:
REMARK  status: ('A' for Active; 'I' for Inactive)
ROOT
ATOM      1  C1  DEN d   1       1.290   1.913   0.257  0.00  0.00     0.130 A 
ATOM      2  C2  DEN d   1       1.813   0.710   0.898  0.00  0.00    -0.031 A 
ATOM      3  C3  DEN d   1       0.733   0.123   1.718  0.00  0.00     0.027 A 
ATOM      4  C4  DEN d   1      -1.685   0.955   2.051  0.00  0.00     0.027 A 
ATOM      5  C5  DEN d   1      -2.589   1.941   1.721  0.00  0.00    -0.003 A 
ATOM      6  C6  DEN d   1      -2.256   2.996   0.914  0.00  0.00     0.001 A 
ATOM      7  C7  DEN d   1      -0.999   3.066   0.372  0.00  0.00     0.017 A 
ATOM      8  C8  DEN d   1      -0.080   2.080   0.707  0.00  0.00    -0.094 A 
ATOM      9  C9  DEN d   1      -0.440   1.015   1.515  0.00  0.00    -0.072 A 
ENDROOT
TORSDOF 0
ENDMDL
