MODEL 1
REMARK minimizedAffinity 0.590806663
REMARK minimizedRMSD -1
REMARK  0 active torsions:
REMARK  status: ('A' for Active; 'I' for Inactive)
ROOT
ATOM      1  C1  DEN d   1       0.573   2.749   0.735  0.00  0.00     0.130 A 
ATOM      2  C2  DEN d   1       1.932   2.228   0.616  0.00  0.00    -0.031 A 
ATOM      3  C3  DEN d   1       1.886   0.772   0.857  0.00  0.00     0.027 A 
ATOM      4  C4  DEN d   1      -0.148  -0.720   1.396  0.00  0.00     0.027 A 
ATOM      5  C5  DEN d   1      -1.508  -0.728   1.613  0.00  0.00    -0.003 A 
ATOM      6  C6  DEN d   1      -2.259   0.418   1.585  0.00  0.00     0.001 A 
ATOM      7  C7  DEN d   1      -1.660   1.615   1.292  0.00  0.00     0.017 A 
ATOM      8  C8  DEN d   1      -0.288   1.632   1.080  0.00  0.00    -0.094 A 
ATOM      9  C9  DEN d   1       0.451   0.461   1.100  0.00  0.00    -0.072 A 
ENDROOT
TORSDOF 0
ENDMDL
