MODEL 1
REMARK minimizedAffinity 7.01917839
REMARK minimizedRMSD -1
REMARK  0 active torsions:
REMARK  status: ('A' for Active; 'I' for Inactive)
ROOT
ATOM      1  C1  DEN d   1      -0.394  -3.967  -1.360  0.00  0.00     0.130 A 
ATOM      2  C2  DEN d   1      -0.446  -4.942  -0.274  0.00  0.00    -0.031 A 
ATOM      3  C3  DEN d   1      -1.820  -4.951   0.266  0.00  0.00     0.027 A 
ATOM      4  C4  DEN d   1      -3.863  -3.560  -0.471  0.00  0.00     0.027 A 
ATOM      5  C5  DEN d   1      -4.304  -2.590  -1.344  0.00  0.00    -0.003 A 
ATOM      6  C6  DEN d   1      -3.472  -1.992  -2.253  0.00  0.00     0.001 A 
ATOM      7  C7  DEN d   1      -2.165  -2.390  -2.340  0.00  0.00     0.017 A 
ATOM      8  C8  DEN d   1      -1.710  -3.362  -1.459  0.00  0.00    -0.094 A 
ATOM      9  C9  DEN d   1      -2.570  -3.964  -0.556  0.00  0.00    -0.072 A 
ENDROOT
TORSDOF 0
ENDMDL
