MODEL 1
REMARK minimizedAffinity 6.05609322
REMARK minimizedRMSD -1
REMARK  0 active torsions:
REMARK  status: ('A' for Active; 'I' for Inactive)
ROOT
ATOM      1  C1  DEN d   1      -2.229  -0.967   2.136  0.00  0.00     0.130 A 
ATOM      2  C2  DEN d   1      -0.978  -1.095   2.878  0.00  0.00    -0.031 A 
ATOM      3  C3  DEN d   1      -0.160  -2.132   2.219  0.00  0.00     0.027 A 
ATOM      4  C4  DEN d   1      -0.703  -3.542   0.129  0.00  0.00     0.027 A 
ATOM      5  C5  DEN d   1      -1.651  -3.797  -0.838  0.00  0.00    -0.003 A 
ATOM      6  C6  DEN d   1      -2.861  -3.156  -0.861  0.00  0.00     0.001 A 
ATOM      7  C7  DEN d   1      -3.139  -2.195   0.075  0.00  0.00     0.017 A 
ATOM      8  C8  DEN d   1      -2.191  -1.938   1.057  0.00  0.00    -0.094 A 
ATOM      9  C9  DEN d   1      -0.968  -2.587   1.056  0.00  0.00    -0.072 A 
ENDROOT
TORSDOF 0
ENDMDL
