MODEL 1
REMARK minimizedAffinity 11.7413101
REMARK minimizedRMSD -1
REMARK  0 active torsions:
REMARK  status: ('A' for Active; 'I' for Inactive)
ROOT
ATOM      1  C1  DEN d   1       0.108  -4.164  -1.700  0.00  0.00     0.130 A 
ATOM      2  C2  DEN d   1       0.639  -3.976  -3.048  0.00  0.00    -0.031 A 
ATOM      3  C3  DEN d   1      -0.192  -2.964  -3.729  0.00  0.00     0.027 A 
ATOM      4  C4  DEN d   1      -2.236  -1.671  -2.832  0.00  0.00     0.027 A 
ATOM      5  C5  DEN d   1      -3.068  -1.499  -1.748  0.00  0.00    -0.003 A 
ATOM      6  C6  DEN d   1      -2.922  -2.222  -0.594  0.00  0.00     0.001 A 
ATOM      7  C7  DEN d   1      -1.893  -3.119  -0.480  0.00  0.00     0.017 A 
ATOM      8  C8  DEN d   1      -1.054  -3.303  -1.572  0.00  0.00    -0.094 A 
ATOM      9  C9  DEN d   1      -1.211  -2.554  -2.725  0.00  0.00    -0.072 A 
ENDROOT
TORSDOF 0
ENDMDL
