MODEL 1
REMARK minimizedAffinity 6.31330013
REMARK minimizedRMSD -1
REMARK  0 active torsions:
REMARK  status: ('A' for Active; 'I' for Inactive)
ROOT
ATOM      1  C1  DEN d   1       0.715   1.160   1.157  0.00  0.00     0.130 A 
ATOM      2  C2  DEN d   1       0.514   2.585   0.904  0.00  0.00    -0.031 A 
ATOM      3  C3  DEN d   1      -0.834   2.948   1.384  0.00  0.00     0.027 A 
ATOM      4  C4  DEN d   1      -2.619   1.453   2.494  0.00  0.00     0.027 A 
ATOM      5  C5  DEN d   1      -2.911   0.172   2.908  0.00  0.00    -0.003 A 
ATOM      6  C6  DEN d   1      -2.035  -0.867   2.738  0.00  0.00     0.001 A 
ATOM      7  C7  DEN d   1      -0.806  -0.635   2.180  0.00  0.00     0.017 A 
ATOM      8  C8  DEN d   1      -0.508   0.652   1.753  0.00  0.00    -0.094 A 
ATOM      9  C9  DEN d   1      -1.401   1.692   1.944  0.00  0.00    -0.072 A 
ENDROOT
TORSDOF 0
ENDMDL
