MODEL 1
REMARK minimizedAffinity 7.82592487
REMARK minimizedRMSD -1
REMARK  0 active torsions:
REMARK  status: ('A' for Active; 'I' for Inactive)
ROOT
ATOM      1  C1  DEN d   1      -1.901   1.591   2.394  0.00  0.00     0.130 A 
ATOM      2  C2  DEN d   1      -2.082   2.964   1.932  0.00  0.00    -0.031 A 
ATOM      3  C3  DEN d   1      -0.851   3.376   1.228  0.00  0.00     0.027 A 
ATOM      4  C4  DEN d   1       1.307   2.026   0.808  0.00  0.00     0.027 A 
ATOM      5  C5  DEN d   1       1.935   0.819   1.021  0.00  0.00    -0.003 A 
ATOM      6  C6  DEN d   1       1.347  -0.195   1.730  0.00  0.00     0.001 A 
ATOM      7  C7  DEN d   1       0.075  -0.037   2.213  0.00  0.00     0.017 A 
ATOM      8  C8  DEN d   1      -0.562   1.180   2.009  0.00  0.00    -0.094 A 
ATOM      9  C9  DEN d   1       0.044   2.188   1.279  0.00  0.00    -0.072 A 
ENDROOT
TORSDOF 0
ENDMDL
