MODEL 1
REMARK minimizedAffinity 6.55550957
REMARK minimizedRMSD -1
REMARK  0 active torsions:
REMARK  status: ('A' for Active; 'I' for Inactive)
ROOT
ATOM      1  C1  DEN d   1      -0.761  -1.484   2.630  0.00  0.00     0.130 A 
ATOM      2  C2  DEN d   1      -2.190  -1.643   2.887  0.00  0.00    -0.031 A 
ATOM      3  C3  DEN d   1      -2.856  -0.364   2.568  0.00  0.00     0.027 A 
ATOM      4  C4  DEN d   1      -1.820   1.832   1.699  0.00  0.00     0.027 A 
ATOM      5  C5  DEN d   1      -0.644   2.454   1.339  0.00  0.00    -0.003 A 
ATOM      6  C6  DEN d   1       0.569   1.822   1.416  0.00  0.00     0.001 A 
ATOM      7  C7  DEN d   1       0.629   0.515   1.820  0.00  0.00     0.017 A 
ATOM      8  C8  DEN d   1      -0.551  -0.116   2.192  0.00  0.00    -0.094 A 
ATOM      9  C9  DEN d   1      -1.769   0.535   2.095  0.00  0.00    -0.072 A 
ENDROOT
TORSDOF 0
ENDMDL
