MODEL 1
REMARK minimizedAffinity 4.32382441
REMARK minimizedRMSD -1
REMARK  0 active torsions:
REMARK  status: ('A' for Active; 'I' for Inactive)
ROOT
ATOM      1  C1  DEN d   1      -2.812  -2.526  -3.590  0.00  0.00     0.130 A 
ATOM      2  C2  DEN d   1      -3.286  -1.153  -3.435  0.00  0.00    -0.031 A 
ATOM      3  C3  DEN d   1      -3.694  -0.967  -2.029  0.00  0.00     0.027 A 
ATOM      4  C4  DEN d   1      -3.635  -2.659  -0.083  0.00  0.00     0.027 A 
ATOM      5  C5  DEN d   1      -3.323  -3.954   0.269  0.00  0.00    -0.003 A 
ATOM      6  C6  DEN d   1      -2.856  -4.866  -0.640  0.00  0.00     0.001 A 
ATOM      7  C7  DEN d   1      -2.643  -4.482  -1.938  0.00  0.00     0.017 A 
ATOM      8  C8  DEN d   1      -2.962  -3.181  -2.302  0.00  0.00    -0.094 A 
ATOM      9  C9  DEN d   1      -3.422  -2.270  -1.366  0.00  0.00    -0.072 A 
ENDROOT
TORSDOF 0
ENDMDL
