MODEL 1
REMARK minimizedAffinity 14.9626255
REMARK minimizedRMSD -1
REMARK  0 active torsions:
REMARK  status: ('A' for Active; 'I' for Inactive)
ROOT
ATOM      1  C1  DEN d   1       1.717   3.825  -4.090  0.00  0.00     0.130 A 
ATOM      2  C2  DEN d   1       2.056   3.344  -2.753  0.00  0.00    -0.031 A 
ATOM      3  C3  DEN d   1       3.398   3.856  -2.411  0.00  0.00     0.027 A 
ATOM      4  C4  DEN d   1       4.973   5.344  -3.811  0.00  0.00     0.027 A 
ATOM      5  C5  DEN d   1       5.125   5.997  -5.015  0.00  0.00    -0.003 A 
ATOM      6  C6  DEN d   1       4.174   5.943  -6.000  0.00  0.00     0.001 A 
ATOM      7  C7  DEN d   1       3.008   5.259  -5.781  0.00  0.00     0.017 A 
ATOM      8  C8  DEN d   1       2.850   4.593  -4.572  0.00  0.00    -0.094 A 
ATOM      9  C9  DEN d   1       3.817   4.669  -3.585  0.00  0.00    -0.072 A 
ENDROOT
TORSDOF 0
ENDMDL
