MODEL 1
REMARK minimizedAffinity -1.15584338
REMARK minimizedRMSD -1
REMARK  0 active torsions:
REMARK  status: ('A' for Active; 'I' for Inactive)
ROOT
ATOM      1  C1  DEN d   1      -0.418   1.409   1.047  0.00  0.00     0.130 A 
ATOM      2  C2  DEN d   1       1.005   1.735   1.050  0.00  0.00    -0.031 A 
ATOM      3  C3  DEN d   1       1.676   0.840   2.014  0.00  0.00     0.027 A 
ATOM      4  C4  DEN d   1       0.656  -1.012   3.491  0.00  0.00     0.027 A 
ATOM      5  C5  DEN d   1      -0.513  -1.650   3.843  0.00  0.00    -0.003 A 
ATOM      6  C6  DEN d   1      -1.727  -1.293   3.319  0.00  0.00     0.001 A 
ATOM      7  C7  DEN d   1      -1.794  -0.300   2.377  0.00  0.00     0.017 A 
ATOM      8  C8  DEN d   1      -0.621   0.353   2.022  0.00  0.00    -0.094 A 
ATOM      9  C9  DEN d   1       0.598  -0.031   2.555  0.00  0.00    -0.072 A 
ENDROOT
TORSDOF 0
ENDMDL
