MODEL 1
REMARK minimizedAffinity 13.3123064
REMARK minimizedRMSD -1
REMARK  1 active torsions:
REMARK  status: ('A' for Active; 'I' for Inactive)
REMARK    1  A    between atoms: C1_2  and  C2_3 
ROOT
ATOM      1  C2  UNL d   1       1.777   0.654  -1.100  0.00  0.00    -0.076 A 
ATOM      2  C3  UNL d   1       2.895  -0.195  -1.019  0.00  0.00     0.004 A 
ATOM      3  C4  UNL d   1       3.503  -0.692  -2.170  0.00  0.00    -0.003 A 
ATOM      4  C5  UNL d   1       3.004  -0.348  -3.421  0.00  0.00     0.000 A 
ATOM      5  C6  UNL d   1       1.907   0.507  -3.521  0.00  0.00     0.000 A 
ATOM      6  C7  UNL d   1       1.292   1.030  -2.371  0.00  0.00    -0.073 A 
ATOM      7  C8  UNL d   1       0.108   1.943  -2.537  0.00  0.00     0.078 C 
ENDROOT
BRANCH   1   8
ATOM      8  C1  UNL d   1       1.143   1.140   0.183  0.00  0.00     0.053 C 
ATOM      9  C   UNL d   1       2.164   1.691   1.166  0.00  0.00     0.018 C 
ENDBRANCH   1   8
TORSDOF 1
ENDMDL
