MODEL 1
REMARK minimizedAffinity 0.980071187
REMARK minimizedRMSD -1
REMARK  1 active torsions:
REMARK  status: ('A' for Active; 'I' for Inactive)
REMARK    1  A    between atoms: C1_2  and  C2_3 
ROOT
ATOM      1  C2  UNL d   1       2.721   2.622   2.356  0.00  0.00    -0.076 A 
ATOM      2  C3  UNL d   1       3.221   2.099   1.151  0.00  0.00     0.004 A 
ATOM      3  C4  UNL d   1       2.433   1.281   0.343  0.00  0.00    -0.003 A 
ATOM      4  C5  UNL d   1       1.132   0.973   0.726  0.00  0.00     0.000 A 
ATOM      5  C6  UNL d   1       0.614   1.498   1.909  0.00  0.00     0.000 A 
ATOM      6  C7  UNL d   1       1.389   2.338   2.728  0.00  0.00    -0.073 A 
ATOM      7  C8  UNL d   1       0.781   2.871   3.996  0.00  0.00     0.078 C 
ENDROOT
BRANCH   1   8
ATOM      8  C1  UNL d   1       3.630   3.481   3.205  0.00  0.00     0.053 C 
ATOM      9  C   UNL d   1       3.901   4.840   2.578  0.00  0.00     0.018 C 
ENDBRANCH   1   8
TORSDOF 1
ENDMDL
