MODEL 1
REMARK minimizedAffinity 7.7650609
REMARK minimizedRMSD -1
REMARK  1 active torsions:
REMARK  status: ('A' for Active; 'I' for Inactive)
REMARK    1  A    between atoms: C1_2  and  C2_3 
ROOT
ATOM      1  C2  UNL d   1       1.853  -0.523  -1.108  0.00  0.00    -0.076 A 
ATOM      2  C3  UNL d   1       1.369  -1.747  -1.601  0.00  0.00     0.004 A 
ATOM      3  C4  UNL d   1       0.549  -2.561  -0.822  0.00  0.00    -0.003 A 
ATOM      4  C5  UNL d   1       0.197  -2.163   0.463  0.00  0.00     0.000 A 
ATOM      5  C6  UNL d   1       0.654  -0.944   0.962  0.00  0.00     0.000 A 
ATOM      6  C7  UNL d   1       1.469  -0.104   0.184  0.00  0.00    -0.073 A 
ATOM      7  C8  UNL d   1       1.937   1.197   0.775  0.00  0.00     0.078 C 
ENDROOT
BRANCH   1   8
ATOM      8  C1  UNL d   1       2.762   0.305  -1.988  0.00  0.00     0.053 C 
ATOM      9  C   UNL d   1       2.270   0.380  -3.426  0.00  0.00     0.018 C 
ENDBRANCH   1   8
TORSDOF 1
ENDMDL
