MODEL 1
REMARK minimizedAffinity 6.54541302
REMARK minimizedRMSD -1
REMARK  1 active torsions:
REMARK  status: ('A' for Active; 'I' for Inactive)
REMARK    1  A    between atoms: C1_2  and  C2_3 
ROOT
ATOM      1  C2  UNL d   1       3.099   1.062  -0.573  0.00  0.00    -0.076 A 
ATOM      2  C3  UNL d   1       1.979   0.663   0.178  0.00  0.00     0.004 A 
ATOM      3  C4  UNL d   1       1.723   1.214   1.433  0.00  0.00    -0.003 A 
ATOM      4  C5  UNL d   1       2.583   2.174   1.956  0.00  0.00     0.000 A 
ATOM      5  C6  UNL d   1       3.689   2.594   1.218  0.00  0.00     0.000 A 
ATOM      6  C7  UNL d   1       3.952   2.060  -0.056  0.00  0.00    -0.073 A 
ATOM      7  C8  UNL d   1       5.162   2.545  -0.806  0.00  0.00     0.078 C 
ENDROOT
BRANCH   1   8
ATOM      8  C1  UNL d   1       3.340   0.409  -1.915  0.00  0.00     0.053 C 
ATOM      9  C   UNL d   1       2.200   0.650  -2.893  0.00  0.00     0.018 C 
ENDBRANCH   1   8
TORSDOF 1
ENDMDL
