MODEL 1
REMARK minimizedAffinity 14.0787277
REMARK minimizedRMSD -1
REMARK  1 active torsions:
REMARK  status: ('A' for Active; 'I' for Inactive)
REMARK    1  A    between atoms: C1_2  and  C2_3 
ROOT
ATOM      1  C2  UNL d   1       1.481   1.153  -1.124  0.00  0.00    -0.076 A 
ATOM      2  C3  UNL d   1       2.047   0.450  -0.046  0.00  0.00     0.004 A 
ATOM      3  C4  UNL d   1       1.562   0.614   1.251  0.00  0.00    -0.003 A 
ATOM      4  C5  UNL d   1       0.502   1.481   1.490  0.00  0.00     0.000 A 
ATOM      5  C6  UNL d   1      -0.083   2.173   0.429  0.00  0.00     0.000 A 
ATOM      6  C7  UNL d   1       0.383   2.007  -0.886  0.00  0.00    -0.073 A 
ATOM      7  C8  UNL d   1      -0.281   2.782  -1.991  0.00  0.00     0.078 C 
ENDROOT
BRANCH   1   8
ATOM      8  C1  UNL d   1       2.066   0.956  -2.504  0.00  0.00     0.053 C 
ATOM      9  C   UNL d   1       3.332   0.112  -2.485  0.00  0.00     0.018 C 
ENDBRANCH   1   8
TORSDOF 1
ENDMDL
