MODEL 1
REMARK minimizedAffinity 5.54486942
REMARK minimizedRMSD -1
REMARK  1 active torsions:
REMARK  status: ('A' for Active; 'I' for Inactive)
REMARK    1  A    between atoms: C1_2  and  C2_3 
ROOT
ATOM      1  C2  UNL d   1       1.257   1.714   1.168  0.00  0.00    -0.076 A 
ATOM      2  C3  UNL d   1       2.224   1.859   2.177  0.00  0.00     0.004 A 
ATOM      3  C4  UNL d   1       1.868   2.285   3.456  0.00  0.00    -0.003 A 
ATOM      4  C5  UNL d   1       0.539   2.573   3.746  0.00  0.00     0.000 A 
ATOM      5  C6  UNL d   1      -0.436   2.417   2.761  0.00  0.00     0.000 A 
ATOM      6  C7  UNL d   1      -0.097   1.973   1.472  0.00  0.00    -0.073 A 
ATOM      7  C8  UNL d   1      -1.188   1.829   0.447  0.00  0.00     0.078 C 
ENDROOT
BRANCH   1   8
ATOM      8  C1  UNL d   1       1.706   1.274  -0.208  0.00  0.00     0.053 C 
ATOM      9  C   UNL d   1       1.914  -0.229  -0.300  0.00  0.00     0.018 C 
ENDBRANCH   1   8
TORSDOF 1
ENDMDL
