MODEL 1
REMARK minimizedAffinity 10.3201323
REMARK minimizedRMSD -1
REMARK  1 active torsions:
REMARK  status: ('A' for Active; 'I' for Inactive)
REMARK    1  A    between atoms: C1_2  and  C2_3 
ROOT
ATOM      1  C2  UNL d   1       2.849   0.777  -1.225  0.00  0.00    -0.076 A 
ATOM      2  C3  UNL d   1       1.748   0.415  -0.429  0.00  0.00     0.004 A 
ATOM      3  C4  UNL d   1       1.561   0.976   0.833  0.00  0.00    -0.003 A 
ATOM      4  C5  UNL d   1       2.471   1.908   1.320  0.00  0.00     0.000 A 
ATOM      5  C6  UNL d   1       3.559   2.291   0.536  0.00  0.00     0.000 A 
ATOM      6  C7  UNL d   1       3.754   1.748  -0.745  0.00  0.00    -0.073 A 
ATOM      7  C8  UNL d   1       4.947   2.193  -1.544  0.00  0.00     0.078 C 
ENDROOT
BRANCH   1   8
ATOM      8  C1  UNL d   1       3.016   0.115  -2.574  0.00  0.00     0.053 C 
ATOM      9  C   UNL d   1       1.904   0.483  -3.545  0.00  0.00     0.018 C 
ENDBRANCH   1   8
TORSDOF 1
ENDMDL
