MODEL 1
REMARK minimizedAffinity 11.7920904
REMARK minimizedRMSD -1
REMARK  1 active torsions:
REMARK  status: ('A' for Active; 'I' for Inactive)
REMARK    1  A    between atoms: C1_2  and  C2_3 
ROOT
ATOM      1  C2  UNL d   1       2.105   1.782  -3.521  0.00  0.00    -0.076 A 
ATOM      2  C3  UNL d   1       2.999   0.729  -3.260  0.00  0.00     0.004 A 
ATOM      3  C4  UNL d   1       2.580  -0.419  -2.589  0.00  0.00    -0.003 A 
ATOM      4  C5  UNL d   1       1.259  -0.532  -2.168  0.00  0.00     0.000 A 
ATOM      5  C6  UNL d   1       0.354   0.495  -2.434  0.00  0.00     0.000 A 
ATOM      6  C7  UNL d   1       0.757   1.651  -3.124  0.00  0.00    -0.073 A 
ATOM      7  C8  UNL d   1      -0.260   2.730  -3.378  0.00  0.00     0.078 C 
ENDROOT
BRANCH   1   8
ATOM      8  C1  UNL d   1       2.623   3.014  -4.228  0.00  0.00     0.053 C 
ATOM      9  C   UNL d   1       2.673   2.840  -5.738  0.00  0.00     0.018 C 
ENDBRANCH   1   8
TORSDOF 1
ENDMDL
