MODEL 1
REMARK minimizedAffinity 7.96818018
REMARK minimizedRMSD -1
REMARK  1 active torsions:
REMARK  status: ('A' for Active; 'I' for Inactive)
REMARK    1  A    between atoms: C1_2  and  C2_3 
ROOT
ATOM      1  C2  UNL d   1       0.503   1.760   1.321  0.00  0.00    -0.076 A 
ATOM      2  C3  UNL d   1       0.736   1.515   2.685  0.00  0.00     0.004 A 
ATOM      3  C4  UNL d   1      -0.150   1.973   3.658  0.00  0.00    -0.003 A 
ATOM      4  C5  UNL d   1      -1.286   2.683   3.283  0.00  0.00     0.000 A 
ATOM      5  C6  UNL d   1      -1.542   2.919   1.933  0.00  0.00     0.000 A 
ATOM      6  C7  UNL d   1      -0.667   2.451   0.938  0.00  0.00    -0.073 A 
ATOM      7  C8  UNL d   1      -0.990   2.740  -0.502  0.00  0.00     0.078 C 
ENDROOT
BRANCH   1   8
ATOM      8  C1  UNL d   1       1.513   1.263   0.312  0.00  0.00     0.053 C 
ATOM      9  C   UNL d   1       1.549  -0.255   0.222  0.00  0.00     0.018 C 
ENDBRANCH   1   8
TORSDOF 1
ENDMDL
