MODEL 1
REMARK minimizedAffinity 5.0692277
REMARK minimizedRMSD -1
REMARK  1 active torsions:
REMARK  status: ('A' for Active; 'I' for Inactive)
REMARK    1  A    between atoms: C1_2  and  C2_3 
ROOT
ATOM      1  C2  UNL d   1       3.686   1.692  -0.593  0.00  0.00    -0.076 A 
ATOM      2  C3  UNL d   1       3.388   2.031   0.738  0.00  0.00     0.004 A 
ATOM      3  C4  UNL d   1       2.447   1.308   1.469  0.00  0.00    -0.003 A 
ATOM      4  C5  UNL d   1       1.790   0.232   0.881  0.00  0.00     0.000 A 
ATOM      5  C6  UNL d   1       2.087  -0.129  -0.433  0.00  0.00     0.000 A 
ATOM      6  C7  UNL d   1       3.044   0.580  -1.179  0.00  0.00    -0.073 A 
ATOM      7  C8  UNL d   1       3.320   0.150  -2.593  0.00  0.00     0.078 C 
ENDROOT
BRANCH   1   8
ATOM      8  C1  UNL d   1       4.695   2.530  -1.346  0.00  0.00     0.053 C 
ATOM      9  C   UNL d   1       5.722   3.171  -0.425  0.00  0.00     0.018 C 
ENDBRANCH   1   8
TORSDOF 1
ENDMDL
