MODEL 1
REMARK minimizedAffinity 8.20105171
REMARK minimizedRMSD -1
REMARK  1 active torsions:
REMARK  status: ('A' for Active; 'I' for Inactive)
REMARK    1  A    between atoms: C1_2  and  C2_3 
ROOT
ATOM      1  C2  UNL d   1       0.442   1.804   1.508  0.00  0.00    -0.076 A 
ATOM      2  C3  UNL d   1       0.384   1.566   2.892  0.00  0.00     0.004 A 
ATOM      3  C4  UNL d   1      -0.762   1.870   3.624  0.00  0.00    -0.003 A 
ATOM      4  C5  UNL d   1      -1.870   2.415   2.984  0.00  0.00     0.000 A 
ATOM      5  C6  UNL d   1      -1.836   2.641   1.608  0.00  0.00     0.000 A 
ATOM      6  C7  UNL d   1      -0.694   2.325   0.852  0.00  0.00    -0.073 A 
ATOM      7  C8  UNL d   1      -0.710   2.595  -0.627  0.00  0.00     0.078 C 
ENDROOT
BRANCH   1   8
ATOM      8  C1  UNL d   1       1.722   1.480   0.770  0.00  0.00     0.053 C 
ATOM      9  C   UNL d   1       1.875  -0.008   0.495  0.00  0.00     0.018 C 
ENDBRANCH   1   8
TORSDOF 1
ENDMDL
