MODEL 1
REMARK minimizedAffinity 9.12133121
REMARK minimizedRMSD -1
REMARK  1 active torsions:
REMARK  status: ('A' for Active; 'I' for Inactive)
REMARK    1  A    between atoms: C1_2  and  C2_3 
ROOT
ATOM      1  C2  UNL d   1      -3.915   1.195   1.175  0.00  0.00    -0.076 A 
ATOM      2  C3  UNL d   1      -5.264   1.158   0.782  0.00  0.00     0.004 A 
ATOM      3  C4  UNL d   1      -5.999   2.333   0.631  0.00  0.00    -0.003 A 
ATOM      4  C5  UNL d   1      -5.397   3.563   0.870  0.00  0.00     0.000 A 
ATOM      5  C6  UNL d   1      -4.055   3.619   1.244  0.00  0.00     0.000 A 
ATOM      6  C7  UNL d   1      -3.295   2.445   1.385  0.00  0.00    -0.073 A 
ATOM      7  C8  UNL d   1      -1.853   2.564   1.796  0.00  0.00     0.078 C 
ENDROOT
BRANCH   1   8
ATOM      8  C1  UNL d   1      -3.176  -0.113   1.349  0.00  0.00     0.053 C 
ATOM      9  C   UNL d   1      -3.021  -0.505   2.811  0.00  0.00     0.018 C 
ENDBRANCH   1   8
TORSDOF 1
ENDMDL
