MODEL 1
REMARK minimizedAffinity 19.2340717
REMARK minimizedRMSD -1
REMARK  1 active torsions:
REMARK  status: ('A' for Active; 'I' for Inactive)
REMARK    1  A    between atoms: C1_2  and  C2_3 
ROOT
ATOM      1  C2  UNL d   1       4.226   0.709   4.247  0.00  0.00    -0.073 A 
ATOM      2  C3  UNL d   1       2.832   0.611   4.157  0.00  0.00    -0.002 A 
ATOM      3  C4  UNL d   1       2.211   0.525   2.911  0.00  0.00     0.004 A 
ATOM      4  C5  UNL d   1       2.975   0.528   1.743  0.00  0.00    -0.004 A 
ATOM      5  C6  UNL d   1       4.369   0.612   1.813  0.00  0.00    -0.075 A 
ATOM      6  C7  UNL d   1       5.205   0.619   0.567  0.00  0.00     0.076 C 
ATOM      7  C8  UNL d   1       4.986   0.702   3.068  0.00  0.00     0.001 A 
ENDROOT
BRANCH   1   8
ATOM      8  C1  UNL d   1       4.902   0.796   5.591  0.00  0.00     0.053 C 
ATOM      9  C   UNL d   1       5.529  -0.527   6.000  0.00  0.00     0.018 C 
ENDBRANCH   1   8
TORSDOF 1
ENDMDL
