MODEL 1
REMARK minimizedAffinity 10.8264036
REMARK minimizedRMSD -1
REMARK  1 active torsions:
REMARK  status: ('A' for Active; 'I' for Inactive)
REMARK    1  A    between atoms: C1_2  and  C2_3 
ROOT
ATOM      1  C2  UNL d   1       1.567   0.164   3.975  0.00  0.00    -0.073 A 
ATOM      2  C3  UNL d   1       1.513  -0.843   3.005  0.00  0.00    -0.002 A 
ATOM      3  C4  UNL d   1       0.519  -0.826   2.026  0.00  0.00     0.004 A 
ATOM      4  C5  UNL d   1      -0.426   0.200   2.003  0.00  0.00    -0.004 A 
ATOM      5  C6  UNL d   1      -0.382   1.221   2.957  0.00  0.00    -0.075 A 
ATOM      6  C7  UNL d   1      -1.392   2.330   2.947  0.00  0.00     0.076 C 
ATOM      7  C8  UNL d   1       0.618   1.196   3.939  0.00  0.00     0.001 A 
ENDROOT
BRANCH   1   8
ATOM      8  C1  UNL d   1       2.643   0.153   5.031  0.00  0.00     0.053 C 
ATOM      9  C   UNL d   1       3.787   1.094   4.688  0.00  0.00     0.018 C 
ENDBRANCH   1   8
TORSDOF 1
ENDMDL
