MODEL 1
REMARK minimizedAffinity 20.546114
REMARK minimizedRMSD -1
REMARK  1 active torsions:
REMARK  status: ('A' for Active; 'I' for Inactive)
REMARK    1  A    between atoms: C1_2  and  C2_3 
ROOT
ATOM      1  C2  UNL d   1       0.418  -2.162  -4.656  0.00  0.00    -0.073 A 
ATOM      2  C3  UNL d   1      -0.116  -3.135  -5.509  0.00  0.00    -0.002 A 
ATOM      3  C4  UNL d   1       0.692  -4.162  -6.000  0.00  0.00     0.004 A 
ATOM      4  C5  UNL d   1       2.037  -4.231  -5.639  0.00  0.00    -0.004 A 
ATOM      5  C6  UNL d   1       2.586  -3.275  -4.778  0.00  0.00    -0.075 A 
ATOM      6  C7  UNL d   1       4.032  -3.333  -4.381  0.00  0.00     0.076 C 
ATOM      7  C8  UNL d   1       1.769  -2.245  -4.291  0.00  0.00     0.001 A 
ENDROOT
BRANCH   1   8
ATOM      8  C1  UNL d   1      -0.452  -1.056  -4.118  0.00  0.00     0.053 C 
ATOM      9  C   UNL d   1       0.243   0.296  -4.178  0.00  0.00     0.018 C 
ENDBRANCH   1   8
TORSDOF 1
ENDMDL
