MODEL 1
REMARK minimizedAffinity 10.2535143
REMARK minimizedRMSD -1
REMARK  1 active torsions:
REMARK  status: ('A' for Active; 'I' for Inactive)
REMARK    1  A    between atoms: C1_2  and  C2_3 
ROOT
ATOM      1  C2  UNL d   1       4.844   2.523   1.580  0.00  0.00    -0.073 A 
ATOM      2  C3  UNL d   1       4.980   2.829   2.939  0.00  0.00    -0.002 A 
ATOM      3  C4  UNL d   1       4.938   4.156   3.370  0.00  0.00     0.004 A 
ATOM      4  C5  UNL d   1       4.751   5.188   2.451  0.00  0.00    -0.004 A 
ATOM      5  C6  UNL d   1       4.601   4.901   1.090  0.00  0.00    -0.075 A 
ATOM      6  C7  UNL d   1       4.402   6.000   0.088  0.00  0.00     0.076 C 
ATOM      7  C8  UNL d   1       4.648   3.567   0.664  0.00  0.00     0.001 A 
ENDROOT
BRANCH   1   8
ATOM      8  C1  UNL d   1       4.883   1.092   1.110  0.00  0.00     0.053 C 
ATOM      9  C   UNL d   1       5.968   0.863   0.070  0.00  0.00     0.018 C 
ENDBRANCH   1   8
TORSDOF 1
ENDMDL
