MODEL 1
REMARK minimizedAffinity 20.601202
REMARK minimizedRMSD -1
REMARK  1 active torsions:
REMARK  status: ('A' for Active; 'I' for Inactive)
REMARK    1  A    between atoms: C1_2  and  C2_3 
ROOT
ATOM      1  C2  UNL d   1       0.126   0.878   2.759  0.00  0.00    -0.073 A 
ATOM      2  C3  UNL d   1       1.115   0.291   3.556  0.00  0.00    -0.002 A 
ATOM      3  C4  UNL d   1       1.604  -0.980   3.251  0.00  0.00     0.004 A 
ATOM      4  C5  UNL d   1       1.114  -1.673   2.144  0.00  0.00    -0.004 A 
ATOM      5  C6  UNL d   1       0.133  -1.099   1.329  0.00  0.00    -0.075 A 
ATOM      6  C7  UNL d   1      -0.406  -1.832   0.136  0.00  0.00     0.076 C 
ATOM      7  C8  UNL d   1      -0.354   0.177   1.644  0.00  0.00     0.001 A 
ENDROOT
BRANCH   1   8
ATOM      8  C1  UNL d   1      -0.400   2.253   3.081  0.00  0.00     0.053 C 
ATOM      9  C   UNL d   1      -0.855   2.996   1.835  0.00  0.00     0.018 C 
ENDBRANCH   1   8
TORSDOF 1
ENDMDL
