MODEL 1
REMARK minimizedAffinity 14.3447266
REMARK minimizedRMSD -1
REMARK  1 active torsions:
REMARK  status: ('A' for Active; 'I' for Inactive)
REMARK    1  A    between atoms: C1_2  and  C2_3 
ROOT
ATOM      1  C2  UNL d   1      -0.913  -1.891  -3.831  0.00  0.00    -0.073 A 
ATOM      2  C3  UNL d   1      -0.636  -2.910  -4.749  0.00  0.00    -0.002 A 
ATOM      3  C4  UNL d   1       0.488  -2.831  -5.573  0.00  0.00     0.004 A 
ATOM      4  C5  UNL d   1       1.349  -1.737  -5.482  0.00  0.00    -0.004 A 
ATOM      5  C6  UNL d   1       1.095  -0.715  -4.563  0.00  0.00    -0.075 A 
ATOM      6  C7  UNL d   1       2.010   0.470  -4.454  0.00  0.00     0.076 C 
ATOM      7  C8  UNL d   1      -0.037  -0.800  -3.741  0.00  0.00     0.001 A 
ENDROOT
BRANCH   1   8
ATOM      8  C1  UNL d   1      -2.122  -1.976  -2.936  0.00  0.00     0.053 C 
ATOM      9  C   UNL d   1      -2.017  -3.123  -1.943  0.00  0.00     0.018 C 
ENDBRANCH   1   8
TORSDOF 1
ENDMDL
