MODEL 1
REMARK minimizedAffinity 2.11343503
REMARK minimizedRMSD -1
REMARK  1 active torsions:
REMARK  status: ('A' for Active; 'I' for Inactive)
REMARK    1  A    between atoms: C1_2  and  C2_3 
ROOT
ATOM      1  C2  UNL d   1       2.091  -1.201   4.931  0.00  0.00    -0.073 A 
ATOM      2  C3  UNL d   1       2.760   0.028   4.948  0.00  0.00    -0.002 A 
ATOM      3  C4  UNL d   1       2.477   0.998   3.984  0.00  0.00     0.004 A 
ATOM      4  C5  UNL d   1       1.520   0.751   3.000  0.00  0.00    -0.004 A 
ATOM      5  C6  UNL d   1       0.833  -0.467   2.974  0.00  0.00    -0.075 A 
ATOM      6  C7  UNL d   1      -0.198  -0.749   1.921  0.00  0.00     0.076 C 
ATOM      7  C8  UNL d   1       1.124  -1.436   3.943  0.00  0.00     0.001 A 
ENDROOT
BRANCH   1   8
ATOM      8  C1  UNL d   1       2.389  -2.248   5.973  0.00  0.00     0.053 C 
ATOM      9  C   UNL d   1       3.862  -2.624   6.000  0.00  0.00     0.018 C 
ENDBRANCH   1   8
TORSDOF 1
ENDMDL
