MODEL 1
REMARK minimizedAffinity 16.4301243
REMARK minimizedRMSD -1
REMARK  1 active torsions:
REMARK  status: ('A' for Active; 'I' for Inactive)
REMARK    1  A    between atoms: C1_2  and  C2_3 
ROOT
ATOM      1  C2  UNL d   1      -1.004  -1.761  -3.865  0.00  0.00    -0.073 A 
ATOM      2  C3  UNL d   1      -0.927  -2.638  -4.953  0.00  0.00    -0.002 A 
ATOM      3  C4  UNL d   1       0.141  -2.559  -5.848  0.00  0.00     0.004 A 
ATOM      4  C5  UNL d   1       1.145  -1.608  -5.661  0.00  0.00    -0.004 A 
ATOM      5  C6  UNL d   1       1.092  -0.731  -4.573  0.00  0.00    -0.075 A 
ATOM      6  C7  UNL d   1       2.162   0.298  -4.359  0.00  0.00     0.076 C 
ATOM      7  C8  UNL d   1       0.015  -0.815  -3.680  0.00  0.00     0.001 A 
ENDROOT
BRANCH   1   8
ATOM      8  C1  UNL d   1      -2.152  -1.847  -2.893  0.00  0.00     0.053 C 
ATOM      9  C   UNL d   1      -1.755  -2.548  -1.603  0.00  0.00     0.018 C 
ENDBRANCH   1   8
TORSDOF 1
ENDMDL
