MODEL 1
REMARK minimizedAffinity 17.0999565
REMARK minimizedRMSD -1
REMARK  1 active torsions:
REMARK  status: ('A' for Active; 'I' for Inactive)
REMARK    1  A    between atoms: C1_2  and  C2_3 
ROOT
ATOM      1  C2  UNL d   1      -3.587   0.208   0.546  0.00  0.00    -0.073 A 
ATOM      2  C3  UNL d   1      -3.702  -0.726  -0.490  0.00  0.00    -0.002 A 
ATOM      3  C4  UNL d   1      -4.502  -0.453  -1.600  0.00  0.00     0.004 A 
ATOM      4  C5  UNL d   1      -5.189   0.757  -1.689  0.00  0.00    -0.004 A 
ATOM      5  C6  UNL d   1      -5.077   1.709  -0.670  0.00  0.00    -0.075 A 
ATOM      6  C7  UNL d   1      -5.812   3.015  -0.750  0.00  0.00     0.076 C 
ATOM      7  C8  UNL d   1      -4.274   1.426   0.442  0.00  0.00     0.001 A 
ENDROOT
BRANCH   1   8
ATOM      8  C1  UNL d   1      -2.719  -0.080   1.743  0.00  0.00     0.053 C 
ATOM      9  C   UNL d   1      -2.757  -1.548   2.136  0.00  0.00     0.018 C 
ENDBRANCH   1   8
TORSDOF 1
ENDMDL
