MODEL 1
REMARK minimizedAffinity -1.5830127
REMARK minimizedRMSD -1
REMARK  0 active torsions:
REMARK  status: ('A' for Active; 'I' for Inactive)
ROOT
ATOM      1  C   UNL d   1       1.202  -0.855  -0.356  0.00  0.00     0.020 A 
ATOM      2  C1  UNL d   1       0.712  -1.065   0.932  0.00  0.00     0.020 A 
ATOM      3  C2  UNL d   1      -0.193  -0.160   1.490  0.00  0.00     0.034 A 
ATOM      4  C3  UNL d   1      -0.611   0.959   0.760  0.00  0.00     0.017 A 
ATOM      5  C4  UNL d   1      -0.118   1.168  -0.533  0.00  0.00     0.017 A 
ATOM      6  C5  UNL d   1       0.788   0.259  -1.087  0.00  0.00     0.034 A 
ATOM      7 Cl   UNL d   1      -0.587   2.525  -1.495  0.00  0.00    -0.070 Cl
ATOM      8 Cl1  UNL d   1      -1.732   2.037   1.513  0.00  0.00    -0.070 Cl
ENDROOT
TORSDOF 0
ENDMDL
