MODEL 1
REMARK minimizedAffinity -1.30631232
REMARK minimizedRMSD -1
REMARK  0 active torsions:
REMARK  status: ('A' for Active; 'I' for Inactive)
ROOT
ATOM      1  C   UNL d   1       0.617  -0.940   0.393  0.00  0.00     0.020 A 
ATOM      2  C1  UNL d   1      -0.261  -1.101   1.464  0.00  0.00     0.020 A 
ATOM      3  C2  UNL d   1      -1.220  -0.122   1.734  0.00  0.00     0.034 A 
ATOM      4  C3  UNL d   1      -1.302   1.023   0.934  0.00  0.00     0.017 A 
ATOM      5  C4  UNL d   1      -0.419   1.184  -0.141  0.00  0.00     0.017 A 
ATOM      6  C5  UNL d   1       0.539   0.201  -0.407  0.00  0.00     0.034 A 
ATOM      7 Cl   UNL d   1      -0.459   2.570  -1.173  0.00  0.00    -0.070 Cl
ATOM      8 Cl1  UNL d   1      -2.511   2.192   1.326  0.00  0.00    -0.070 Cl
ENDROOT
TORSDOF 0
ENDMDL
