MODEL 1
REMARK minimizedAffinity -4.38231802
REMARK minimizedRMSD -1
REMARK  0 active torsions:
REMARK  status: ('A' for Active; 'I' for Inactive)
ROOT
ATOM      1  C   UNL d   1      -1.503   1.864   1.127  0.00  0.00     0.020 A 
ATOM      2  C1  UNL d   1      -0.817   2.013  -0.078  0.00  0.00     0.020 A 
ATOM      3  C2  UNL d   1       0.061   1.016  -0.509  0.00  0.00     0.034 A 
ATOM      4  C3  UNL d   1       0.254  -0.135   0.264  0.00  0.00     0.017 A 
ATOM      5  C4  UNL d   1      -0.436  -0.284   1.472  0.00  0.00     0.017 A 
ATOM      6  C5  UNL d   1      -1.313   0.718   1.900  0.00  0.00     0.034 A 
ATOM      7 Cl   UNL d   1      -0.250  -1.675   2.480  0.00  0.00    -0.070 Cl
ATOM      8 Cl1  UNL d   1       1.353  -1.327  -0.332  0.00  0.00    -0.070 Cl
ENDROOT
TORSDOF 0
ENDMDL
