MODEL 1
REMARK minimizedAffinity -5.65646029
REMARK minimizedRMSD -1
REMARK  0 active torsions:
REMARK  status: ('A' for Active; 'I' for Inactive)
ROOT
ATOM      1  C   UNL d   1      -1.309   2.235   1.260  0.00  0.00     0.020 A 
ATOM      2  C1  UNL d   1      -0.638   2.305   0.040  0.00  0.00     0.020 A 
ATOM      3  C2  UNL d   1       0.013   1.177  -0.465  0.00  0.00     0.034 A 
ATOM      4  C3  UNL d   1      -0.005  -0.025   0.251  0.00  0.00     0.017 A 
ATOM      5  C4  UNL d   1      -0.678  -0.095   1.476  0.00  0.00     0.017 A 
ATOM      6  C5  UNL d   1      -1.329   1.037   1.977  0.00  0.00     0.034 A 
ATOM      7 Cl   UNL d   1      -0.745  -1.543   2.417  0.00  0.00    -0.070 Cl
ATOM      8 Cl1  UNL d   1       0.821  -1.380  -0.433  0.00  0.00    -0.070 Cl
ENDROOT
TORSDOF 0
ENDMDL
