MODEL 1
REMARK minimizedAffinity -3.12572384
REMARK minimizedRMSD -1
REMARK  0 active torsions:
REMARK  status: ('A' for Active; 'I' for Inactive)
ROOT
ATOM      1  C   UNL d   1       0.694  -0.675   0.267  0.00  0.00     0.020 A 
ATOM      2  C1  UNL d   1       0.321  -0.649   1.610  0.00  0.00     0.020 A 
ATOM      3  C2  UNL d   1      -0.514   0.366   2.083  0.00  0.00     0.034 A 
ATOM      4  C3  UNL d   1      -0.977   1.359   1.213  0.00  0.00     0.017 A 
ATOM      5  C4  UNL d   1      -0.602   1.332  -0.135  0.00  0.00     0.017 A 
ATOM      6  C5  UNL d   1       0.234   0.313  -0.604  0.00  0.00     0.034 A 
ATOM      7 Cl   UNL d   1      -1.134   2.522  -1.269  0.00  0.00    -0.070 Cl
ATOM      8 Cl1  UNL d   1      -2.007   2.583   1.866  0.00  0.00    -0.070 Cl
ENDROOT
TORSDOF 0
ENDMDL
