MODEL 1
REMARK minimizedAffinity -2.66009665
REMARK minimizedRMSD -1
REMARK  0 active torsions:
REMARK  status: ('A' for Active; 'I' for Inactive)
ROOT
ATOM      1  C   UNL d   1       1.026  -0.743   0.073  0.00  0.00     0.020 A 
ATOM      2  C1  UNL d   1       0.242  -0.951   1.207  0.00  0.00     0.020 A 
ATOM      3  C2  UNL d   1      -0.752  -0.031   1.548  0.00  0.00     0.034 A 
ATOM      4  C3  UNL d   1      -0.964   1.101   0.754  0.00  0.00     0.017 A 
ATOM      5  C4  UNL d   1      -0.177   1.310  -0.385  0.00  0.00     0.017 A 
ATOM      6  C5  UNL d   1       0.817   0.385  -0.721  0.00  0.00     0.034 A 
ATOM      7 Cl   UNL d   1      -0.380   2.683  -1.414  0.00  0.00    -0.070 Cl
ATOM      8 Cl1  UNL d   1      -2.211   2.197   1.234  0.00  0.00    -0.070 Cl
ENDROOT
TORSDOF 0
ENDMDL
