MODEL 1
REMARK minimizedAffinity -2.25582242
REMARK minimizedRMSD -1
REMARK  0 active torsions:
REMARK  status: ('A' for Active; 'I' for Inactive)
ROOT
ATOM      1  C   UNL d   1       1.023  -5.370  -1.775  0.00  0.00     0.020 A 
ATOM      2  C1  UNL d   1       1.819  -5.065  -0.672  0.00  0.00     0.020 A 
ATOM      3  C2  UNL d   1       2.075  -3.732  -0.343  0.00  0.00     0.034 A 
ATOM      4  C3  UNL d   1       1.534  -2.699  -1.118  0.00  0.00     0.017 A 
ATOM      5  C4  UNL d   1       0.735  -3.007  -2.226  0.00  0.00     0.017 A 
ATOM      6  C5  UNL d   1       0.483  -4.343  -2.550  0.00  0.00     0.034 A 
ATOM      7 Cl   UNL d   1       0.034  -1.788  -3.230  0.00  0.00    -0.070 Cl
ATOM      8 Cl1  UNL d   1       1.891  -1.074  -0.654  0.00  0.00    -0.070 Cl
ENDROOT
TORSDOF 0
ENDMDL
