MODEL 1
REMARK minimizedAffinity -2.9958837
REMARK minimizedRMSD -1
REMARK  0 active torsions:
REMARK  status: ('A' for Active; 'I' for Inactive)
ROOT
ATOM      1  C   UNL d   1       1.451  -3.554  -2.895  0.00  0.00     0.020 A 
ATOM      2  C1  UNL d   1       0.441  -3.860  -1.984  0.00  0.00     0.020 A 
ATOM      3  C2  UNL d   1       0.041  -2.912  -1.040  0.00  0.00     0.034 A 
ATOM      4  C3  UNL d   1       0.652  -1.652  -1.005  0.00  0.00     0.017 A 
ATOM      5  C4  UNL d   1       1.665  -1.346  -1.921  0.00  0.00     0.017 A 
ATOM      6  C5  UNL d   1       2.061  -2.299  -2.864  0.00  0.00     0.034 A 
ATOM      7 Cl   UNL d   1       2.464   0.186  -1.940  0.00  0.00    -0.070 Cl
ATOM      8 Cl1  UNL d   1       0.107  -0.528   0.189  0.00  0.00    -0.070 Cl
ENDROOT
TORSDOF 0
ENDMDL
