MODEL 1
REMARK minimizedAffinity -3.90937877
REMARK minimizedRMSD -1
REMARK  0 active torsions:
REMARK  status: ('A' for Active; 'I' for Inactive)
ROOT
ATOM      1  C   UNL d   1      -1.727   1.659   1.828  0.00  0.00     0.020 A 
ATOM      2  C1  UNL d   1      -1.266   0.390   2.176  0.00  0.00     0.020 A 
ATOM      3  C2  UNL d   1      -0.349  -0.269   1.355  0.00  0.00     0.034 A 
ATOM      4  C3  UNL d   1       0.110   0.340   0.182  0.00  0.00     0.017 A 
ATOM      5  C4  UNL d   1      -0.353   1.614  -0.167  0.00  0.00     0.017 A 
ATOM      6  C5  UNL d   1      -1.271   2.270   0.659  0.00  0.00     0.034 A 
ATOM      7 Cl   UNL d   1       0.168   2.430  -1.599  0.00  0.00    -0.070 Cl
ATOM      8 Cl1  UNL d   1       1.244  -0.533  -0.786  0.00  0.00    -0.070 Cl
ENDROOT
TORSDOF 0
ENDMDL
