MODEL 1
REMARK minimizedAffinity -4.91023636
REMARK minimizedRMSD -1
REMARK  0 active torsions:
REMARK  status: ('A' for Active; 'I' for Inactive)
ROOT
ATOM      1  C   UNL d   1      -1.895   2.601   1.192  0.00  0.00     0.020 A 
ATOM      2  C1  UNL d   1      -1.325   2.794  -0.065  0.00  0.00     0.020 A 
ATOM      3  C2  UNL d   1      -0.477   1.824  -0.604  0.00  0.00     0.034 A 
ATOM      4  C3  UNL d   1      -0.197   0.656   0.115  0.00  0.00     0.017 A 
ATOM      5  C4  UNL d   1      -0.770   0.463   1.378  0.00  0.00     0.017 A 
ATOM      6  C5  UNL d   1      -1.618   1.438   1.912  0.00  0.00     0.034 A 
ATOM      7 Cl   UNL d   1      -0.472  -0.951   2.324  0.00  0.00    -0.070 Cl
ATOM      8 Cl1  UNL d   1       0.860  -0.501  -0.612  0.00  0.00    -0.070 Cl
ENDROOT
TORSDOF 0
ENDMDL
