MODEL 1
REMARK minimizedAffinity -4.32011223
REMARK minimizedRMSD -1
REMARK  0 active torsions:
REMARK  status: ('A' for Active; 'I' for Inactive)
ROOT
ATOM      1  C   UNL d   1      -1.928   0.573   2.018  0.00  0.00     0.020 A 
ATOM      2  C1  UNL d   1      -2.286   1.883   1.701  0.00  0.00     0.020 A 
ATOM      3  C2  UNL d   1      -1.576   2.584   0.724  0.00  0.00     0.034 A 
ATOM      4  C3  UNL d   1      -0.505   1.976   0.060  0.00  0.00     0.017 A 
ATOM      5  C4  UNL d   1      -0.146   0.661   0.378  0.00  0.00     0.017 A 
ATOM      6  C5  UNL d   1      -0.860  -0.036   1.357  0.00  0.00     0.034 A 
ATOM      7 Cl   UNL d   1       1.163  -0.157  -0.399  0.00  0.00    -0.070 Cl
ATOM      8 Cl1  UNL d   1       0.328   2.902  -1.138  0.00  0.00    -0.070 Cl
ENDROOT
TORSDOF 0
ENDMDL
