MODEL 1
REMARK minimizedAffinity -2.78249121
REMARK minimizedRMSD -1
REMARK  0 active torsions:
REMARK  status: ('A' for Active; 'I' for Inactive)
ROOT
ATOM      1  C   UNL d   1      -0.204   3.381  -0.482  0.00  0.00     0.020 A 
ATOM      2  C1  UNL d   1      -0.946   3.692   0.657  0.00  0.00     0.020 A 
ATOM      3  C2  UNL d   1      -1.314   2.681   1.547  0.00  0.00     0.034 A 
ATOM      4  C3  UNL d   1      -0.940   1.355   1.301  0.00  0.00     0.017 A 
ATOM      5  C4  UNL d   1      -0.194   1.045   0.157  0.00  0.00     0.017 A 
ATOM      6  C5  UNL d   1       0.171   2.061  -0.731  0.00  0.00     0.034 A 
ATOM      7 Cl   UNL d   1       0.305  -0.568  -0.214  0.00  0.00    -0.070 Cl
ATOM      8 Cl1  UNL d   1      -1.429   0.156   2.444  0.00  0.00    -0.070 Cl
ENDROOT
TORSDOF 0
ENDMDL
