MODEL 1
REMARK minimizedAffinity -2.69755483
REMARK minimizedRMSD -1
REMARK  0 active torsions:
REMARK  status: ('A' for Active; 'I' for Inactive)
ROOT
ATOM      1  C   UNL d   1       0.026   0.405  -2.084  0.00  0.00     0.020 A 
ATOM      2  C1  UNL d   1      -0.070   0.995  -0.825  0.00  0.00     0.020 A 
ATOM      3  C2  UNL d   1       0.328   0.286   0.311  0.00  0.00     0.034 A 
ATOM      4  C3  UNL d   1       0.824  -1.017   0.189  0.00  0.00     0.017 A 
ATOM      5  C4  UNL d   1       0.920  -1.609  -1.076  0.00  0.00     0.017 A 
ATOM      6  C5  UNL d   1       0.521  -0.894  -2.209  0.00  0.00     0.034 A 
ATOM      7 Cl   UNL d   1       1.522  -3.212  -1.305  0.00  0.00    -0.070 Cl
ATOM      8 Cl1  UNL d   1       1.297  -1.834   1.636  0.00  0.00    -0.070 Cl
ENDROOT
TORSDOF 0
ENDMDL
