MODEL 1
REMARK minimizedAffinity -5.50191879
REMARK minimizedRMSD -1
REMARK  0 active torsions:
REMARK  status: ('A' for Active; 'I' for Inactive)
ROOT
ATOM      1  C   UNL d   1      -1.512   1.542   1.493  0.00  0.00     0.020 A 
ATOM      2  C1  UNL d   1      -1.153   0.326   2.074  0.00  0.00     0.020 A 
ATOM      3  C2  UNL d   1      -0.065  -0.392   1.573  0.00  0.00     0.034 A 
ATOM      4  C3  UNL d   1       0.667   0.105   0.488  0.00  0.00     0.017 A 
ATOM      5  C4  UNL d   1       0.305   1.325  -0.094  0.00  0.00     0.017 A 
ATOM      6  C5  UNL d   1      -0.785   2.040   0.412  0.00  0.00     0.034 A 
ATOM      7 Cl   UNL d   1       1.160   2.003  -1.435  0.00  0.00    -0.070 Cl
ATOM      8 Cl1  UNL d   1       2.000  -0.836  -0.080  0.00  0.00    -0.070 Cl
ENDROOT
TORSDOF 0
ENDMDL
