MODEL 1
REMARK minimizedAffinity -2.29857206
REMARK minimizedRMSD -1
REMARK  0 active torsions:
REMARK  status: ('A' for Active; 'I' for Inactive)
ROOT
ATOM      1  C   UNL d   1       1.008  -1.870  -1.276  0.00  0.00     0.020 A 
ATOM      2  C1  UNL d   1       0.571  -1.871  -2.600  0.00  0.00     0.020 A 
ATOM      3  C2  UNL d   1       0.475  -3.074  -3.303  0.00  0.00     0.034 A 
ATOM      4  C3  UNL d   1       0.817  -4.281  -2.682  0.00  0.00     0.017 A 
ATOM      5  C4  UNL d   1       1.255  -4.279  -1.353  0.00  0.00     0.017 A 
ATOM      6  C5  UNL d   1       1.349  -3.071  -0.654  0.00  0.00     0.034 A 
ATOM      7 Cl   UNL d   1       1.694  -5.728  -0.520  0.00  0.00    -0.070 Cl
ATOM      8 Cl1  UNL d   1       0.674  -5.731  -3.611  0.00  0.00    -0.070 Cl
ENDROOT
TORSDOF 0
ENDMDL
