MODEL 1
REMARK minimizedAffinity 0.75780493
REMARK minimizedRMSD -1
REMARK  0 active torsions:
REMARK  status: ('A' for Active; 'I' for Inactive)
ROOT
ATOM      1  C   UNL d   1       2.809   2.264  -5.825  0.00  0.00    -0.002 A 
ATOM      2  C1  UNL d   1       1.423   2.308  -5.876  0.00  0.00     0.010 A 
ATOM      3  C2  UNL d   1       0.657   1.819  -4.815  0.00  0.00     0.041 A 
ATOM      4  C3  UNL d   1       1.315   1.281  -3.691  0.00  0.00    -0.075 A 
ATOM      5  S   UNL d   1       0.584   0.625  -2.274  0.00  0.00     0.015 SA
ATOM      6  C4  UNL d   1       2.095   0.271  -1.569  0.00  0.00     0.022 A 
ATOM      7  C5  UNL d   1       3.142   0.638  -2.381  0.00  0.00     0.026 A 
ATOM      8  C6  UNL d   1       2.710   1.226  -3.617  0.00  0.00    -0.082 A 
ATOM      9  C7  UNL d   1       3.458   1.729  -4.709  0.00  0.00     0.045 A 
ENDROOT
TORSDOF 0
ENDMDL
