MODEL 1
REMARK minimizedAffinity 6.35674286
REMARK minimizedRMSD -1
REMARK  0 active torsions:
REMARK  status: ('A' for Active; 'I' for Inactive)
ROOT
ATOM      1  C   UNL d   1       5.338   5.149   4.971  0.00  0.00    -0.002 A 
ATOM      2  C1  UNL d   1       4.056   5.680   4.968  0.00  0.00     0.010 A 
ATOM      3  C2  UNL d   1       3.408   5.965   3.764  0.00  0.00     0.041 A 
ATOM      4  C3  UNL d   1       4.077   5.704   2.552  0.00  0.00    -0.075 A 
ATOM      5  S   UNL d   1       3.480   5.972   0.957  0.00  0.00     0.015 SA
ATOM      6  C4  UNL d   1       4.912   5.387   0.242  0.00  0.00     0.022 A 
ATOM      7  C5  UNL d   1       5.834   4.993   1.183  0.00  0.00     0.026 A 
ATOM      8  C6  UNL d   1       5.368   5.168   2.529  0.00  0.00    -0.082 A 
ATOM      9  C7  UNL d   1       5.998   4.891   3.766  0.00  0.00     0.045 A 
ENDROOT
TORSDOF 0
ENDMDL
