MODEL 1
REMARK minimizedAffinity 9.76503944
REMARK minimizedRMSD -1
REMARK  0 active torsions:
REMARK  status: ('A' for Active; 'I' for Inactive)
ROOT
ATOM      1  C   UNL d   1      -1.761   0.707   3.397  0.00  0.00    -0.002 A 
ATOM      2  C1  UNL d   1      -2.321   0.562   2.136  0.00  0.00     0.010 A 
ATOM      3  C2  UNL d   1      -3.631   0.103   1.989  0.00  0.00     0.041 A 
ATOM      4  C3  UNL d   1      -4.377  -0.210   3.142  0.00  0.00    -0.075 A 
ATOM      5  S   UNL d   1      -6.000  -0.789   3.206  0.00  0.00     0.015 SA
ATOM      6  C4  UNL d   1      -5.988  -0.856   4.909  0.00  0.00     0.022 A 
ATOM      7  C5  UNL d   1      -4.783  -0.451   5.433  0.00  0.00     0.026 A 
ATOM      8  C6  UNL d   1      -3.835  -0.072   4.423  0.00  0.00    -0.082 A 
ATOM      9  C7  UNL d   1      -2.504   0.396   4.539  0.00  0.00     0.045 A 
ENDROOT
TORSDOF 0
ENDMDL
