MODEL 1
REMARK minimizedAffinity 1.54162765
REMARK minimizedRMSD -1
REMARK  0 active torsions:
REMARK  status: ('A' for Active; 'I' for Inactive)
ROOT
ATOM      1  C   UNL d   1       3.462   2.415  -5.571  0.00  0.00    -0.002 A 
ATOM      2  C1  UNL d   1       4.412   1.994  -4.651  0.00  0.00     0.010 A 
ATOM      3  C2  UNL d   1       4.021   1.463  -3.420  0.00  0.00     0.041 A 
ATOM      4  C3  UNL d   1       2.647   1.358  -3.128  0.00  0.00    -0.075 A 
ATOM      5  S   UNL d   1       1.935   0.738  -1.685  0.00  0.00     0.015 SA
ATOM      6  C4  UNL d   1       0.354   1.016  -2.257  0.00  0.00     0.022 A 
ATOM      7  C5  UNL d   1       0.351   1.568  -3.516  0.00  0.00     0.026 A 
ATOM      8  C6  UNL d   1       1.672   1.774  -4.039  0.00  0.00    -0.082 A 
ATOM      9  C7  UNL d   1       2.100   2.310  -5.278  0.00  0.00     0.045 A 
ENDROOT
TORSDOF 0
ENDMDL
