MODEL 1
REMARK minimizedAffinity 2.21392488
REMARK minimizedRMSD -1
REMARK  0 active torsions:
REMARK  status: ('A' for Active; 'I' for Inactive)
ROOT
ATOM      1  C   UNL d   1       2.545   2.476  -3.851  0.00  0.00    -0.002 A 
ATOM      2  C1  UNL d   1       1.173   2.437  -3.647  0.00  0.00     0.010 A 
ATOM      3  C2  UNL d   1       0.594   1.402  -2.911  0.00  0.00     0.041 A 
ATOM      4  C3  UNL d   1       1.425   0.398  -2.375  0.00  0.00    -0.075 A 
ATOM      5  S   UNL d   1       0.937  -0.965  -1.439  0.00  0.00     0.015 SA
ATOM      6  C4  UNL d   1       2.539  -1.527  -1.287  0.00  0.00     0.022 A 
ATOM      7  C5  UNL d   1       3.437  -0.707  -1.929  0.00  0.00     0.026 A 
ATOM      8  C6  UNL d   1       2.809   0.417  -2.566  0.00  0.00    -0.082 A 
ATOM      9  C7  UNL d   1       3.366   1.479  -3.318  0.00  0.00     0.045 A 
ENDROOT
TORSDOF 0
ENDMDL
