MODEL 1
REMARK minimizedAffinity -1.17690003
REMARK minimizedRMSD -1
REMARK  0 active torsions:
REMARK  status: ('A' for Active; 'I' for Inactive)
ROOT
ATOM      1  C   UNL d   1       2.931  -0.020  -2.071  0.00  0.00    -0.002 A 
ATOM      2  C1  UNL d   1       1.918  -0.725  -1.437  0.00  0.00     0.010 A 
ATOM      3  C2  UNL d   1       0.626  -0.199  -1.363  0.00  0.00     0.041 A 
ATOM      4  C3  UNL d   1       0.368   1.058  -1.944  0.00  0.00    -0.075 A 
ATOM      5  S   UNL d   1      -1.137   1.899  -1.976  0.00  0.00     0.015 SA
ATOM      6  C4  UNL d   1      -0.470   3.213  -2.833  0.00  0.00     0.022 A 
ATOM      7  C5  UNL d   1       0.867   3.031  -3.096  0.00  0.00     0.026 A 
ATOM      8  C6  UNL d   1       1.372   1.786  -2.589  0.00  0.00    -0.082 A 
ATOM      9  C7  UNL d   1       2.671   1.227  -2.646  0.00  0.00     0.045 A 
ENDROOT
TORSDOF 0
ENDMDL
