MODEL 1
REMARK minimizedAffinity -0.763447344
REMARK minimizedRMSD -1
REMARK  0 active torsions:
REMARK  status: ('A' for Active; 'I' for Inactive)
ROOT
ATOM      1  C   UNL d   1       1.587   0.588  -1.855  0.00  0.00    -0.002 A 
ATOM      2  C1  UNL d   1       0.444   0.749  -2.626  0.00  0.00     0.010 A 
ATOM      3  C2  UNL d   1       0.528   1.260  -3.923  0.00  0.00     0.041 A 
ATOM      4  C3  UNL d   1       1.792   1.607  -4.438  0.00  0.00    -0.075 A 
ATOM      5  S   UNL d   1       2.137   2.250  -6.000  0.00  0.00     0.015 SA
ATOM      6  C4  UNL d   1       3.810   2.325  -5.682  0.00  0.00     0.022 A 
ATOM      7  C5  UNL d   1       4.115   1.875  -4.419  0.00  0.00     0.026 A 
ATOM      8  C6  UNL d   1       2.958   1.453  -3.681  0.00  0.00    -0.082 A 
ATOM      9  C7  UNL d   1       2.839   0.934  -2.370  0.00  0.00     0.045 A 
ENDROOT
TORSDOF 0
ENDMDL
