MODEL 1
REMARK minimizedAffinity 1.39800906
REMARK minimizedRMSD -1
REMARK  0 active torsions:
REMARK  status: ('A' for Active; 'I' for Inactive)
ROOT
ATOM      1  C   UNL d   1       2.223   0.512  -1.544  0.00  0.00    -0.002 A 
ATOM      2  C1  UNL d   1       0.928   0.122  -1.857  0.00  0.00     0.010 A 
ATOM      3  C2  UNL d   1       0.394   0.381  -3.121  0.00  0.00     0.041 A 
ATOM      4  C3  UNL d   1       1.192   1.043  -4.075  0.00  0.00    -0.075 A 
ATOM      5  S   UNL d   1       0.749   1.464  -5.687  0.00  0.00     0.015 SA
ATOM      6  C4  UNL d   1       2.268   2.171  -5.999  0.00  0.00     0.022 A 
ATOM      7  C5  UNL d   1       3.105   2.096  -4.911  0.00  0.00     0.026 A 
ATOM      8  C6  UNL d   1       2.498   1.444  -3.784  0.00  0.00    -0.082 A 
ATOM      9  C7  UNL d   1       3.011   1.169  -2.494  0.00  0.00     0.045 A 
ENDROOT
TORSDOF 0
ENDMDL
