MODEL 1
REMARK minimizedAffinity 2.05167747
REMARK minimizedRMSD -1
REMARK  0 active torsions:
REMARK  status: ('A' for Active; 'I' for Inactive)
ROOT
ATOM      1  C   UNL d   1       5.624   4.324   5.849  0.00  0.00    -0.002 A 
ATOM      2  C1  UNL d   1       4.773   5.419   5.909  0.00  0.00     0.010 A 
ATOM      3  C2  UNL d   1       4.280   5.999   4.739  0.00  0.00     0.041 A 
ATOM      4  C3  UNL d   1       4.658   5.455   3.496  0.00  0.00    -0.075 A 
ATOM      5  S   UNL d   1       4.177   6.000   1.932  0.00  0.00     0.015 SA
ATOM      6  C4  UNL d   1       5.089   4.791   1.149  0.00  0.00     0.022 A 
ATOM      7  C5  UNL d   1       5.751   3.984   2.043  0.00  0.00     0.026 A 
ATOM      8  C6  UNL d   1       5.513   4.352   3.410  0.00  0.00    -0.082 A 
ATOM      9  C7  UNL d   1       5.997   3.787   4.615  0.00  0.00     0.045 A 
ENDROOT
TORSDOF 0
ENDMDL
