MODEL 1
REMARK minimizedAffinity 7.51331282
REMARK minimizedRMSD -1
REMARK  0 active torsions:
REMARK  status: ('A' for Active; 'I' for Inactive)
ROOT
ATOM      1  C   UNL d   1       4.379   2.425  -4.804  0.00  0.00    -0.002 A 
ATOM      2  C1  UNL d   1       3.270   2.570  -5.626  0.00  0.00     0.010 A 
ATOM      3  C2  UNL d   1       2.004   2.181  -5.185  0.00  0.00     0.041 A 
ATOM      4  C3  UNL d   1       1.869   1.640  -3.891  0.00  0.00    -0.075 A 
ATOM      5  S   UNL d   1       0.417   1.096  -3.138  0.00  0.00     0.015 SA
ATOM      6  C4  UNL d   1       1.234   0.659  -1.707  0.00  0.00     0.022 A 
ATOM      7  C5  UNL d   1       2.583   0.915  -1.785  0.00  0.00     0.026 A 
ATOM      8  C6  UNL d   1       2.971   1.486  -3.045  0.00  0.00    -0.082 A 
ATOM      9  C7  UNL d   1       4.241   1.889  -3.521  0.00  0.00     0.045 A 
ENDROOT
TORSDOF 0
ENDMDL
