MODEL 1
REMARK minimizedAffinity -4.00836992
REMARK minimizedRMSD -1
REMARK  0 active torsions:
REMARK  status: ('A' for Active; 'I' for Inactive)
ROOT
ATOM      1  C   UNL d   1       2.930   2.402  -5.522  0.00  0.00    -0.002 A 
ATOM      2  C1  UNL d   1       1.582   2.293  -5.831  0.00  0.00     0.010 A 
ATOM      3  C2  UNL d   1       0.690   1.715  -4.925  0.00  0.00     0.041 A 
ATOM      4  C3  UNL d   1       1.181   1.246  -3.691  0.00  0.00    -0.075 A 
ATOM      5  S   UNL d   1       0.275   0.503  -2.426  0.00  0.00     0.015 SA
ATOM      6  C4  UNL d   1       1.656   0.314  -1.446  0.00  0.00     0.022 A 
ATOM      7  C5  UNL d   1       2.790   0.800  -2.053  0.00  0.00     0.026 A 
ATOM      8  C6  UNL d   1       2.535   1.346  -3.357  0.00  0.00    -0.082 A 
ATOM      9  C7  UNL d   1       3.413   1.936  -4.297  0.00  0.00     0.045 A 
ENDROOT
TORSDOF 0
ENDMDL
