MODEL 1
REMARK minimizedAffinity -4.38235235
REMARK minimizedRMSD -1
REMARK  0 active torsions:
REMARK  status: ('A' for Active; 'I' for Inactive)
ROOT
ATOM      1  C   UNL d   1       0.519   2.739  -0.804  0.00  0.00    -0.002 A 
ATOM      2  C1  UNL d   1      -0.530   2.337   0.011  0.00  0.00     0.010 A 
ATOM      3  C2  UNL d   1      -0.699   0.990   0.336  0.00  0.00     0.041 A 
ATOM      4  C3  UNL d   1       0.213   0.045  -0.174  0.00  0.00    -0.075 A 
ATOM      5  S   UNL d   1       0.203  -1.658   0.093  0.00  0.00     0.015 SA
ATOM      6  C4  UNL d   1       1.592  -1.892  -0.868  0.00  0.00     0.022 A 
ATOM      7  C5  UNL d   1       2.064  -0.710  -1.387  0.00  0.00     0.026 A 
ATOM      8  C6  UNL d   1       1.278   0.426  -0.995  0.00  0.00    -0.082 A 
ATOM      9  C7  UNL d   1       1.422   1.799  -1.308  0.00  0.00     0.045 A 
ENDROOT
TORSDOF 0
ENDMDL
