MODEL 1
REMARK minimizedAffinity -2.98776364
REMARK minimizedRMSD -1
REMARK  0 active torsions:
REMARK  status: ('A' for Active; 'I' for Inactive)
ROOT
ATOM      1  C   UNL d   1       0.867  -0.888   4.275  0.00  0.00     0.077 C 
ATOM      2  C1  UNL d   1       0.615  -0.672   2.812  0.00  0.00    -0.074 A 
ATOM      3  C2  UNL d   1       1.626  -0.887   1.870  0.00  0.00    -0.005 A 
ATOM      4  C3  UNL d   1       1.375  -0.691   0.512  0.00  0.00     0.006 A 
ATOM      5  C4  UNL d   1       0.112  -0.278   0.083  0.00  0.00    -0.005 A 
ATOM      6  C5  UNL d   1      -0.911  -0.059   1.011  0.00  0.00    -0.074 A 
ATOM      7  C6  UNL d   1      -2.276   0.376   0.567  0.00  0.00     0.077 C 
ATOM      8  C7  UNL d   1      -0.652  -0.264   2.373  0.00  0.00    -0.001 A 
ENDROOT
TORSDOF 0
ENDMDL
