MODEL 1
REMARK minimizedAffinity -5.04501104
REMARK minimizedRMSD -1
REMARK  0 active torsions:
REMARK  status: ('A' for Active; 'I' for Inactive)
ROOT
ATOM      1  C   UNL d   1       0.770  -0.829  -1.487  0.00  0.00     0.077 C 
ATOM      2  C1  UNL d   1      -0.252  -0.323  -0.513  0.00  0.00    -0.074 A 
ATOM      3  C2  UNL d   1      -1.619  -0.508  -0.745  0.00  0.00    -0.005 A 
ATOM      4  C3  UNL d   1      -2.558  -0.041   0.175  0.00  0.00     0.006 A 
ATOM      5  C4  UNL d   1      -2.140   0.615   1.334  0.00  0.00    -0.005 A 
ATOM      6  C5  UNL d   1      -0.778   0.808   1.583  0.00  0.00    -0.074 A 
ATOM      7  C6  UNL d   1      -0.312   1.502   2.828  0.00  0.00     0.077 C 
ATOM      8  C7  UNL d   1       0.160   0.330   0.658  0.00  0.00    -0.001 A 
ENDROOT
TORSDOF 0
ENDMDL
