MODEL 1
REMARK minimizedAffinity -4.06044626
REMARK minimizedRMSD -1
REMARK  0 active torsions:
REMARK  status: ('A' for Active; 'I' for Inactive)
ROOT
ATOM      1  C   UNL d   1       0.345  -0.676  -1.077  0.00  0.00     0.077 C 
ATOM      2  C1  UNL d   1      -0.079  -0.315   0.315  0.00  0.00    -0.074 A 
ATOM      3  C2  UNL d   1      -1.329   0.263   0.559  0.00  0.00    -0.005 A 
ATOM      4  C3  UNL d   1      -1.713   0.584   1.861  0.00  0.00     0.006 A 
ATOM      5  C4  UNL d   1      -0.853   0.331   2.930  0.00  0.00    -0.005 A 
ATOM      6  C5  UNL d   1       0.400  -0.248   2.706  0.00  0.00    -0.074 A 
ATOM      7  C6  UNL d   1       1.332  -0.536   3.845  0.00  0.00     0.077 C 
ATOM      8  C7  UNL d   1       0.776  -0.574   1.396  0.00  0.00    -0.001 A 
ENDROOT
TORSDOF 0
ENDMDL
