MODEL 1
REMARK minimizedAffinity -0.843731761
REMARK minimizedRMSD -1
REMARK  0 active torsions:
REMARK  status: ('A' for Active; 'I' for Inactive)
ROOT
ATOM      1  C   UNL d   1       1.878  -0.824  -0.632  0.00  0.00     0.077 C 
ATOM      2  C1  UNL d   1       0.518  -0.489  -0.094  0.00  0.00    -0.074 A 
ATOM      3  C2  UNL d   1      -0.636  -0.768  -0.834  0.00  0.00    -0.005 A 
ATOM      4  C3  UNL d   1      -1.894  -0.459  -0.317  0.00  0.00     0.006 A 
ATOM      5  C4  UNL d   1      -2.011   0.131   0.942  0.00  0.00    -0.005 A 
ATOM      6  C5  UNL d   1      -0.868   0.416   1.697  0.00  0.00    -0.074 A 
ATOM      7  C6  UNL d   1      -0.976   1.041   3.056  0.00  0.00     0.077 C 
ATOM      8  C7  UNL d   1       0.392   0.096   1.173  0.00  0.00    -0.001 A 
ENDROOT
TORSDOF 0
ENDMDL
