MODEL 1
REMARK minimizedAffinity -2.15764117
REMARK minimizedRMSD -1
REMARK  0 active torsions:
REMARK  status: ('A' for Active; 'I' for Inactive)
ROOT
ATOM      1  C   UNL d   1       0.430  -0.731  -1.088  0.00  0.00     0.077 C 
ATOM      2  C1  UNL d   1      -0.261  -0.267   0.159  0.00  0.00    -0.074 A 
ATOM      3  C2  UNL d   1      -1.549   0.276   0.108  0.00  0.00    -0.005 A 
ATOM      4  C3  UNL d   1      -2.183   0.695   1.277  0.00  0.00     0.006 A 
ATOM      5  C4  UNL d   1      -1.537   0.575   2.508  0.00  0.00    -0.005 A 
ATOM      6  C5  UNL d   1      -0.249   0.034   2.579  0.00  0.00    -0.074 A 
ATOM      7  C6  UNL d   1       0.456  -0.111   3.895  0.00  0.00     0.077 C 
ATOM      8  C7  UNL d   1       0.378  -0.391   1.400  0.00  0.00    -0.001 A 
ENDROOT
TORSDOF 0
ENDMDL
