MODEL 1
REMARK minimizedAffinity -3.72913551
REMARK minimizedRMSD -1
REMARK  0 active torsions:
REMARK  status: ('A' for Active; 'I' for Inactive)
ROOT
ATOM      1  C   UNL d   1      -3.371   0.353  -0.179  0.00  0.00     0.077 C 
ATOM      2  C1  UNL d   1      -2.049   0.335   0.531  0.00  0.00    -0.074 A 
ATOM      3  C2  UNL d   1      -1.917   0.867   1.817  0.00  0.00    -0.005 A 
ATOM      4  C3  UNL d   1      -0.684   0.834   2.468  0.00  0.00     0.006 A 
ATOM      5  C4  UNL d   1       0.428   0.270   1.840  0.00  0.00    -0.005 A 
ATOM      6  C5  UNL d   1       0.314  -0.268   0.554  0.00  0.00    -0.074 A 
ATOM      7  C6  UNL d   1       1.496  -0.886  -0.132  0.00  0.00     0.077 C 
ATOM      8  C7  UNL d   1      -0.930  -0.237  -0.091  0.00  0.00    -0.001 A 
ENDROOT
TORSDOF 0
ENDMDL
