MODEL 1
REMARK minimizedAffinity 0.11740718
REMARK minimizedRMSD -1
REMARK  0 active torsions:
REMARK  status: ('A' for Active; 'I' for Inactive)
ROOT
ATOM      1  C   UNL d   1      -1.475   0.011  -0.970  0.00  0.00     0.077 C 
ATOM      2  C1  UNL d   1      -0.947   0.081   0.432  0.00  0.00    -0.074 A 
ATOM      3  C2  UNL d   1      -1.797   0.359   1.507  0.00  0.00    -0.005 A 
ATOM      4  C3  UNL d   1      -1.294   0.411   2.807  0.00  0.00     0.006 A 
ATOM      5  C4  UNL d   1       0.063   0.186   3.045  0.00  0.00    -0.005 A 
ATOM      6  C5  UNL d   1       0.928  -0.094   1.982  0.00  0.00    -0.074 A 
ATOM      7  C6  UNL d   1       2.387  -0.348   2.221  0.00  0.00     0.077 C 
ATOM      8  C7  UNL d   1       0.413  -0.152   0.680  0.00  0.00    -0.001 A 
ENDROOT
TORSDOF 0
ENDMDL
