MODEL 1
REMARK minimizedAffinity -4.370502
REMARK minimizedRMSD -1
REMARK  0 active torsions:
REMARK  status: ('A' for Active; 'I' for Inactive)
ROOT
ATOM      1  C   UNL d   1       0.386  -1.119  -2.608  0.00  0.00     0.077 C 
ATOM      2  C1  UNL d   1       0.367  -0.827  -1.137  0.00  0.00    -0.074 A 
ATOM      3  C2  UNL d   1       1.468  -1.132  -0.329  0.00  0.00    -0.005 A 
ATOM      4  C3  UNL d   1       1.439  -0.847   1.036  0.00  0.00     0.006 A 
ATOM      5  C4  UNL d   1       0.312  -0.255   1.606  0.00  0.00    -0.005 A 
ATOM      6  C5  UNL d   1      -0.798   0.058   0.815  0.00  0.00    -0.074 A 
ATOM      7  C6  UNL d   1      -2.013   0.704   1.410  0.00  0.00     0.077 C 
ATOM      8  C7  UNL d   1      -0.759  -0.225  -0.557  0.00  0.00    -0.001 A 
ENDROOT
TORSDOF 0
ENDMDL
