MODEL 1
REMARK minimizedAffinity -5.53902102
REMARK minimizedRMSD -1
REMARK  0 active torsions:
REMARK  status: ('A' for Active; 'I' for Inactive)
ROOT
ATOM      1  C   UNL d   1      -1.140   0.659   2.366  0.00  0.00     0.077 C 
ATOM      2  C1  UNL d   1      -0.340   0.005   1.280  0.00  0.00    -0.074 A 
ATOM      3  C2  UNL d   1      -0.899  -0.234   0.020  0.00  0.00    -0.005 A 
ATOM      4  C3  UNL d   1      -0.139  -0.834  -0.984  0.00  0.00     0.006 A 
ATOM      5  C4  UNL d   1       1.185  -1.201  -0.739  0.00  0.00    -0.005 A 
ATOM      6  C5  UNL d   1       1.761  -0.969   0.514  0.00  0.00    -0.074 A 
ATOM      7  C6  UNL d   1       3.185  -1.349   0.791  0.00  0.00     0.077 C 
ATOM      8  C7  UNL d   1       0.993  -0.359   1.516  0.00  0.00    -0.001 A 
ENDROOT
TORSDOF 0
ENDMDL
