MODEL 1
REMARK minimizedAffinity -3.22981167
REMARK minimizedRMSD -1
REMARK  0 active torsions:
REMARK  status: ('A' for Active; 'I' for Inactive)
ROOT
ATOM      1  C   UNL d   1      -0.720  -0.603  -5.275  0.00  0.00     0.077 C 
ATOM      2  C1  UNL d   1       0.242  -0.197  -4.199  0.00  0.00    -0.074 A 
ATOM      3  C2  UNL d   1       1.464   0.404  -4.517  0.00  0.00    -0.005 A 
ATOM      4  C3  UNL d   1       2.345   0.785  -3.504  0.00  0.00     0.006 A 
ATOM      5  C4  UNL d   1       2.013   0.569  -2.166  0.00  0.00    -0.005 A 
ATOM      6  C5  UNL d   1       0.795  -0.030  -1.829  0.00  0.00    -0.074 A 
ATOM      7  C6  UNL d   1       0.418  -0.260  -0.396  0.00  0.00     0.077 C 
ATOM      8  C7  UNL d   1      -0.088  -0.403  -2.852  0.00  0.00    -0.001 A 
ENDROOT
TORSDOF 0
ENDMDL
