MODEL 1
REMARK minimizedAffinity -2.51251364
REMARK minimizedRMSD -1
REMARK  0 active torsions:
REMARK  status: ('A' for Active; 'I' for Inactive)
ROOT
ATOM      1  C   UNL d   1       0.219  -0.187   4.206  0.00  0.00     0.077 C 
ATOM      2  C1  UNL d   1      -0.021  -0.137   2.726  0.00  0.00    -0.074 A 
ATOM      3  C2  UNL d   1       0.949  -0.586   1.825  0.00  0.00    -0.005 A 
ATOM      4  C3  UNL d   1       0.707  -0.542   0.452  0.00  0.00     0.006 A 
ATOM      5  C4  UNL d   1      -0.505  -0.048  -0.033  0.00  0.00    -0.005 A 
ATOM      6  C5  UNL d   1      -1.487   0.404   0.854  0.00  0.00    -0.074 A 
ATOM      7  C6  UNL d   1      -2.799   0.928   0.350  0.00  0.00     0.077 C 
ATOM      8  C7  UNL d   1      -1.240   0.350   2.232  0.00  0.00    -0.001 A 
ENDROOT
TORSDOF 0
ENDMDL
