MODEL 1
REMARK minimizedAffinity -1.58036149
REMARK minimizedRMSD -1
REMARK  0 active torsions:
REMARK  status: ('A' for Active; 'I' for Inactive)
ROOT
ATOM      1  C   UNL d   1       1.549  -0.853   1.834  0.00  0.00     0.077 C 
ATOM      2  C1  UNL d   1       0.553  -0.472   0.779  0.00  0.00    -0.074 A 
ATOM      3  C2  UNL d   1      -0.721  -0.012   1.125  0.00  0.00    -0.005 A 
ATOM      4  C3  UNL d   1      -1.633   0.348   0.133  0.00  0.00     0.006 A 
ATOM      5  C4  UNL d   1      -1.280   0.252  -1.214  0.00  0.00    -0.005 A 
ATOM      6  C5  UNL d   1      -0.010  -0.205  -1.579  0.00  0.00    -0.074 A 
ATOM      7  C6  UNL d   1       0.388  -0.306  -3.022  0.00  0.00     0.077 C 
ATOM      8  C7  UNL d   1       0.903  -0.559  -0.576  0.00  0.00    -0.001 A 
ENDROOT
TORSDOF 0
ENDMDL
