MODEL 1
REMARK minimizedAffinity -1.86089706
REMARK minimizedRMSD -1
REMARK  1 active torsions:
REMARK  status: ('A' for Active; 'I' for Inactive)
REMARK    1  A    between atoms: C1_2  and  C2_3 
ROOT
ATOM      1  C2  UNL d   1      -2.624   0.087   2.525  0.00  0.00    -0.081 A 
ATOM      2  C3  UNL d   1      -1.601  -0.621   1.882  0.00  0.00     0.006 A 
ATOM      3  C4  UNL d   1      -0.423   0.027   1.501  0.00  0.00     0.002 A 
ATOM      4  C5  UNL d   1      -0.245   1.389   1.764  0.00  0.00    -0.080 A 
ATOM      5  C6  UNL d   1       1.027   2.089   1.388  0.00  0.00     0.076 C 
ATOM      6  C7  UNL d   1      -1.274   2.100   2.392  0.00  0.00     0.002 A 
ATOM      7  C8  UNL d   1      -2.452   1.453   2.772  0.00  0.00     0.006 A 
ENDROOT
BRANCH   1   8
ATOM      8  C1  UNL d   1      -3.868  -0.622   2.995  0.00  0.00     0.054 C 
ATOM      9  C   UNL d   1      -3.525  -1.879   3.782  0.00  0.00     0.018 C 
ENDBRANCH   1   8
TORSDOF 1
ENDMDL
