MODEL 1
REMARK minimizedAffinity 0.853428841
REMARK minimizedRMSD -1
REMARK  1 active torsions:
REMARK  status: ('A' for Active; 'I' for Inactive)
REMARK    1  A    between atoms: C1_2  and  C2_3 
ROOT
ATOM      1  C2  UNL d   1      -1.915   1.874   2.530  0.00  0.00    -0.081 A 
ATOM      2  C3  UNL d   1      -1.803   0.500   2.777  0.00  0.00     0.006 A 
ATOM      3  C4  UNL d   1      -0.762  -0.239   2.210  0.00  0.00     0.002 A 
ATOM      4  C5  UNL d   1       0.188   0.384   1.393  0.00  0.00    -0.080 A 
ATOM      5  C6  UNL d   1       1.327  -0.392   0.803  0.00  0.00     0.076 C 
ATOM      6  C7  UNL d   1       0.066   1.753   1.132  0.00  0.00     0.002 A 
ATOM      7  C8  UNL d   1      -0.975   2.492   1.698  0.00  0.00     0.006 A 
ENDROOT
BRANCH   1   8
ATOM      8  C1  UNL d   1      -2.999   2.686   3.192  0.00  0.00     0.054 C 
ATOM      9  C   UNL d   1      -3.866   1.820   4.095  0.00  0.00     0.018 C 
ENDBRANCH   1   8
TORSDOF 1
ENDMDL
