MODEL 1
REMARK minimizedAffinity -6.22474146
REMARK minimizedRMSD -1
REMARK  1 active torsions:
REMARK  status: ('A' for Active; 'I' for Inactive)
REMARK    1  A    between atoms: C1_2  and  C2_3 
ROOT
ATOM      1  C2  UNL d   1      -3.090   1.205   3.049  0.00  0.00    -0.081 A 
ATOM      2  C3  UNL d   1      -2.149   2.218   2.829  0.00  0.00     0.006 A 
ATOM      3  C4  UNL d   1      -0.982   1.957   2.107  0.00  0.00     0.002 A 
ATOM      4  C5  UNL d   1      -0.741   0.681   1.586  0.00  0.00    -0.080 A 
ATOM      5  C6  UNL d   1       0.493   0.394   0.783  0.00  0.00     0.076 C 
ATOM      6  C7  UNL d   1      -1.673  -0.336   1.821  0.00  0.00     0.002 A 
ATOM      7  C8  UNL d   1      -2.839  -0.075   2.543  0.00  0.00     0.006 A 
ENDROOT
BRANCH   1   8
ATOM      8  C1  UNL d   1      -4.379   1.500   3.772  0.00  0.00     0.054 C 
ATOM      9  C   UNL d   1      -4.121   1.954   5.202  0.00  0.00     0.018 C 
ENDBRANCH   1   8
TORSDOF 1
ENDMDL
