MODEL 1
REMARK minimizedAffinity -1.7467792
REMARK minimizedRMSD -1
REMARK  1 active torsions:
REMARK  status: ('A' for Active; 'I' for Inactive)
REMARK    1  A    between atoms: C1_2  and  C2_3 
ROOT
ATOM      1  C2  UNL d   1      -3.029   1.255   3.134  0.00  0.00    -0.081 A 
ATOM      2  C3  UNL d   1      -2.323   2.452   2.965  0.00  0.00     0.006 A 
ATOM      3  C4  UNL d   1      -1.138   2.477   2.226  0.00  0.00     0.002 A 
ATOM      4  C5  UNL d   1      -0.644   1.309   1.637  0.00  0.00    -0.080 A 
ATOM      5  C6  UNL d   1       0.611   1.328   0.816  0.00  0.00     0.076 C 
ATOM      6  C7  UNL d   1      -1.340   0.109   1.821  0.00  0.00     0.002 A 
ATOM      7  C8  UNL d   1      -2.524   0.083   2.561  0.00  0.00     0.006 A 
ENDROOT
BRANCH   1   8
ATOM      8  C1  UNL d   1      -4.341   1.237   3.877  0.00  0.00     0.054 C 
ATOM      9  C   UNL d   1      -4.414   2.361   4.899  0.00  0.00     0.018 C 
ENDBRANCH   1   8
TORSDOF 1
ENDMDL
