MODEL 1
REMARK minimizedAffinity 3.24653816
REMARK minimizedRMSD -1
REMARK  1 active torsions:
REMARK  status: ('A' for Active; 'I' for Inactive)
REMARK    1  A    between atoms: C1_2  and  C2_3 
ROOT
ATOM      1  C2  UNL d   1      -2.009   1.724   2.919  0.00  0.00    -0.081 A 
ATOM      2  C3  UNL d   1      -1.882   0.340   2.745  0.00  0.00     0.006 A 
ATOM      3  C4  UNL d   1      -0.847  -0.184   1.967  0.00  0.00     0.002 A 
ATOM      4  C5  UNL d   1       0.082   0.665   1.356  0.00  0.00    -0.080 A 
ATOM      5  C6  UNL d   1       1.215   0.114   0.542  0.00  0.00     0.076 C 
ATOM      6  C7  UNL d   1      -0.055   2.048   1.514  0.00  0.00     0.002 A 
ATOM      7  C8  UNL d   1      -1.090   2.573   2.292  0.00  0.00     0.006 A 
ENDROOT
BRANCH   1   8
ATOM      8  C1  UNL d   1      -3.085   2.289   3.810  0.00  0.00     0.054 C 
ATOM      9  C   UNL d   1      -4.155   1.250   4.113  0.00  0.00     0.018 C 
ENDBRANCH   1   8
TORSDOF 1
ENDMDL
