MODEL 1
REMARK minimizedAffinity -0.110304527
REMARK minimizedRMSD -1
REMARK  1 active torsions:
REMARK  status: ('A' for Active; 'I' for Inactive)
REMARK    1  A    between atoms: C1_2  and  C2_3 
ROOT
ATOM      1  C2  UNL d   1      -0.607   0.965   1.365  0.00  0.00    -0.081 A 
ATOM      2  C3  UNL d   1      -0.750   2.184   2.039  0.00  0.00     0.006 A 
ATOM      3  C4  UNL d   1      -1.868   2.423   2.841  0.00  0.00     0.002 A 
ATOM      4  C5  UNL d   1      -2.858   1.445   2.989  0.00  0.00    -0.080 A 
ATOM      5  C6  UNL d   1      -4.048   1.676   3.871  0.00  0.00     0.076 C 
ATOM      6  C7  UNL d   1      -2.723   0.234   2.301  0.00  0.00     0.002 A 
ATOM      7  C8  UNL d   1      -1.605  -0.005   1.499  0.00  0.00     0.006 A 
ENDROOT
BRANCH   1   8
ATOM      8  C1  UNL d   1       0.630   0.680   0.551  0.00  0.00     0.054 C 
ATOM      9  C   UNL d   1       1.370  -0.541   1.078  0.00  0.00     0.018 C 
ENDBRANCH   1   8
TORSDOF 1
ENDMDL
