MODEL 1
REMARK minimizedAffinity -1.16806865
REMARK minimizedRMSD -1
REMARK  1 active torsions:
REMARK  status: ('A' for Active; 'I' for Inactive)
REMARK    1  A    between atoms: C1_2  and  C2_3 
ROOT
ATOM      1  C2  UNL d   1       2.049   0.190   0.243  0.00  0.00    -0.081 A 
ATOM      2  C3  UNL d   1       0.897  -0.453   0.710  0.00  0.00     0.006 A 
ATOM      3  C4  UNL d   1      -0.068   0.256   1.430  0.00  0.00     0.002 A 
ATOM      4  C5  UNL d   1       0.100   1.620   1.689  0.00  0.00    -0.080 A 
ATOM      5  C6  UNL d   1      -0.942   2.400   2.435  0.00  0.00     0.076 C 
ATOM      6  C7  UNL d   1       1.260   2.259   1.237  0.00  0.00     0.002 A 
ATOM      7  C8  UNL d   1       2.225   1.551   0.518  0.00  0.00     0.006 A 
ENDROOT
BRANCH   1   8
ATOM      8  C1  UNL d   1       3.060  -0.556  -0.590  0.00  0.00     0.054 C 
ATOM      9  C   UNL d   1       3.448   0.235  -1.830  0.00  0.00     0.018 C 
ENDBRANCH   1   8
TORSDOF 1
ENDMDL
