MODEL 1
REMARK minimizedAffinity -0.977087617
REMARK minimizedRMSD -1
REMARK  1 active torsions:
REMARK  status: ('A' for Active; 'I' for Inactive)
REMARK    1  A    between atoms: C1_2  and  C2_3 
ROOT
ATOM      1  C2  UNL d   1      -2.606   0.991   3.003  0.00  0.00    -0.081 A 
ATOM      2  C3  UNL d   1      -1.704   2.059   2.935  0.00  0.00     0.006 A 
ATOM      3  C4  UNL d   1      -0.465   1.900   2.309  0.00  0.00     0.002 A 
ATOM      4  C5  UNL d   1      -0.111   0.674   1.735  0.00  0.00    -0.080 A 
ATOM      5  C6  UNL d   1       1.203   0.499   1.034  0.00  0.00     0.076 C 
ATOM      6  C7  UNL d   1      -1.006  -0.398   1.819  0.00  0.00     0.002 A 
ATOM      7  C8  UNL d   1      -2.245  -0.240   2.445  0.00  0.00     0.006 A 
ENDROOT
BRANCH   1   8
ATOM      8  C1  UNL d   1      -3.969   1.177   3.620  0.00  0.00     0.054 C 
ATOM      9  C   UNL d   1      -3.955   2.279   4.670  0.00  0.00     0.018 C 
ENDBRANCH   1   8
TORSDOF 1
ENDMDL
