MODEL 1
REMARK minimizedAffinity -4.77510023
REMARK minimizedRMSD -1
REMARK  1 active torsions:
REMARK  status: ('A' for Active; 'I' for Inactive)
REMARK    1  A    between atoms: C1_2  and  C2_3 
ROOT
ATOM      1  C2  UNL d   1      -0.803   1.064   1.509  0.00  0.00    -0.081 A 
ATOM      2  C3  UNL d   1      -1.004   2.396   1.890  0.00  0.00     0.006 A 
ATOM      3  C4  UNL d   1      -2.085   2.744   2.704  0.00  0.00     0.002 A 
ATOM      4  C5  UNL d   1      -2.977   1.766   3.156  0.00  0.00    -0.080 A 
ATOM      5  C6  UNL d   1      -4.124   2.122   4.054  0.00  0.00     0.076 C 
ATOM      6  C7  UNL d   1      -2.787   0.438   2.760  0.00  0.00     0.002 A 
ATOM      7  C8  UNL d   1      -1.707   0.089   1.946  0.00  0.00     0.006 A 
ENDROOT
BRANCH   1   8
ATOM      8  C1  UNL d   1       0.398   0.676   0.685  0.00  0.00     0.054 C 
ATOM      9  C   UNL d   1       0.933  -0.689   1.095  0.00  0.00     0.018 C 
ENDBRANCH   1   8
TORSDOF 1
ENDMDL
