MODEL 1
REMARK minimizedAffinity -0.552289844
REMARK minimizedRMSD -1
REMARK  1 active torsions:
REMARK  status: ('A' for Active; 'I' for Inactive)
REMARK    1  A    between atoms: C1_2  and  C2_3 
ROOT
ATOM      1  C2  UNL d   1      -1.723   1.848   2.263  0.00  0.00    -0.081 A 
ATOM      2  C3  UNL d   1      -0.459   2.442   2.157  0.00  0.00     0.006 A 
ATOM      3  C4  UNL d   1       0.570   1.799   1.465  0.00  0.00     0.002 A 
ATOM      4  C5  UNL d   1       0.351   0.556   0.861  0.00  0.00    -0.080 A 
ATOM      5  C6  UNL d   1       1.438  -0.131   0.089  0.00  0.00     0.076 C 
ATOM      6  C7  UNL d   1      -0.907  -0.045   0.982  0.00  0.00     0.002 A 
ATOM      7  C8  UNL d   1      -1.936   0.597   1.674  0.00  0.00     0.006 A 
ENDROOT
BRANCH   1   8
ATOM      8  C1  UNL d   1      -2.852   2.569   2.953  0.00  0.00     0.054 C 
ATOM      9  C   UNL d   1      -3.756   1.596   3.698  0.00  0.00     0.018 C 
ENDBRANCH   1   8
TORSDOF 1
ENDMDL
