MODEL 1
REMARK minimizedAffinity -2.70292926
REMARK minimizedRMSD -1
REMARK  1 active torsions:
REMARK  status: ('A' for Active; 'I' for Inactive)
REMARK    1  A    between atoms: C1_2  and  C2_3 
ROOT
ATOM      1  C2  UNL d   1      -0.951   0.029   1.240  0.00  0.00    -0.081 A 
ATOM      2  C3  UNL d   1       0.320  -0.006   0.654  0.00  0.00     0.006 A 
ATOM      3  C4  UNL d   1       1.065   1.167   0.507  0.00  0.00     0.002 A 
ATOM      4  C5  UNL d   1       0.555   2.392   0.950  0.00  0.00    -0.080 A 
ATOM      5  C6  UNL d   1       1.357   3.654   0.826  0.00  0.00     0.076 C 
ATOM      6  C7  UNL d   1      -0.722   2.430   1.521  0.00  0.00     0.002 A 
ATOM      7  C8  UNL d   1      -1.467   1.258   1.667  0.00  0.00     0.006 A 
ENDROOT
BRANCH   1   8
ATOM      8  C1  UNL d   1      -1.729  -1.243   1.459  0.00  0.00     0.054 C 
ATOM      9  C   UNL d   1      -2.707  -1.101   2.617  0.00  0.00     0.018 C 
ENDBRANCH   1   8
TORSDOF 1
ENDMDL
