MODEL 1
REMARK minimizedAffinity 1.83625412
REMARK minimizedRMSD -1
REMARK  1 active torsions:
REMARK  status: ('A' for Active; 'I' for Inactive)
REMARK    1  A    between atoms: C1_2  and  C2_3 
ROOT
ATOM      1  C2  UNL d   1      -2.752   1.741   2.998  0.00  0.00    -0.081 A 
ATOM      2  C3  UNL d   1      -1.805   0.711   2.947  0.00  0.00     0.006 A 
ATOM      3  C4  UNL d   1      -0.524   0.951   2.445  0.00  0.00     0.002 A 
ATOM      4  C5  UNL d   1      -0.166   2.226   1.994  0.00  0.00    -0.080 A 
ATOM      5  C6  UNL d   1       1.216   2.505   1.481  0.00  0.00     0.076 C 
ATOM      6  C7  UNL d   1      -1.117   3.251   2.029  0.00  0.00     0.002 A 
ATOM      7  C8  UNL d   1      -2.399   3.011   2.530  0.00  0.00     0.006 A 
ENDROOT
BRANCH   1   8
ATOM      8  C1  UNL d   1      -4.114   1.502   3.599  0.00  0.00     0.054 C 
ATOM      9  C   UNL d   1      -4.252   2.191   4.949  0.00  0.00     0.018 C 
ENDBRANCH   1   8
TORSDOF 1
ENDMDL
