MODEL 1
REMARK minimizedAffinity -0.662475049
REMARK minimizedRMSD -1
REMARK  0 active torsions:
REMARK  status: ('A' for Active; 'I' for Inactive)
ROOT
ATOM      1  C   UNL d   1      -0.049   3.227   0.225  0.00  0.00     0.172 C 
ATOM      2  N   UNL d   1      -1.098   3.688   1.104  0.00  0.00    -0.070 N 
ATOM      3  C1  UNL d   1      -1.960   4.720   0.845  0.00  0.00    -0.004 A 
ATOM      4  C2  UNL d   1      -2.806   4.844   1.926  0.00  0.00    -0.047 A 
ATOM      5  C3  UNL d   1      -2.439   3.853   2.868  0.00  0.00    -0.047 A 
ATOM      6  C4  UNL d   1      -1.378   3.152   2.333  0.00  0.00    -0.004 A 
ENDROOT
TORSDOF 0
ENDMDL
