MODEL 1
REMARK minimizedAffinity -0.758653522
REMARK minimizedRMSD -1
REMARK  0 active torsions:
REMARK  status: ('A' for Active; 'I' for Inactive)
ROOT
ATOM      1  C   UNL d   1      -5.999   2.999  -2.297  0.00  0.00     0.172 C 
ATOM      2  N   UNL d   1      -5.975   2.986  -3.741  0.00  0.00    -0.070 N 
ATOM      3  C1  UNL d   1      -5.925   4.090  -4.549  0.00  0.00    -0.004 A 
ATOM      4  C2  UNL d   1      -5.917   3.656  -5.857  0.00  0.00    -0.047 A 
ATOM      5  C3  UNL d   1      -5.964   2.242  -5.834  0.00  0.00    -0.047 A 
ATOM      6  C4  UNL d   1      -6.000   1.854  -4.512  0.00  0.00    -0.004 A 
ENDROOT
TORSDOF 0
ENDMDL
