MODEL 1
REMARK minimizedAffinity 6.18543386
REMARK minimizedRMSD -1
REMARK  0 active torsions:
REMARK  status: ('A' for Active; 'I' for Inactive)
ROOT
ATOM      1  C   UNL d   1      -1.774   5.545  -0.003  0.00  0.00     0.172 C 
ATOM      2  N   UNL d   1      -1.117   4.324   0.398  0.00  0.00    -0.070 N 
ATOM      3  C1  UNL d   1      -1.561   3.457   1.361  0.00  0.00    -0.004 A 
ATOM      4  C2  UNL d   1      -0.658   2.419   1.444  0.00  0.00    -0.047 A 
ATOM      5  C3  UNL d   1       0.364   2.671   0.498  0.00  0.00    -0.047 A 
ATOM      6  C4  UNL d   1       0.055   3.856  -0.135  0.00  0.00    -0.004 A 
ENDROOT
TORSDOF 0
ENDMDL
