MODEL 1
REMARK minimizedAffinity -3.57418442
REMARK minimizedRMSD -1
REMARK  0 active torsions:
REMARK  status: ('A' for Active; 'I' for Inactive)
ROOT
ATOM      1  C   UNL d   1      -5.996   5.542  -4.629  0.00  0.00     0.172 C 
ATOM      2  N   UNL d   1      -5.547   4.429  -3.826  0.00  0.00    -0.070 N 
ATOM      3  C1  UNL d   1      -4.807   4.520  -2.678  0.00  0.00    -0.004 A 
ATOM      4  C2  UNL d   1      -4.587   3.241  -2.214  0.00  0.00    -0.047 A 
ATOM      5  C3  UNL d   1      -5.216   2.350  -3.116  0.00  0.00    -0.047 A 
ATOM      6  C4  UNL d   1      -5.803   3.112  -4.104  0.00  0.00    -0.004 A 
ENDROOT
TORSDOF 0
ENDMDL
