MODEL 1
REMARK minimizedAffinity -1.66916025
REMARK minimizedRMSD -1
REMARK  0 active torsions:
REMARK  status: ('A' for Active; 'I' for Inactive)
ROOT
ATOM      1  C   UNL d   1      -5.999   2.261  -2.310  0.00  0.00     0.172 C 
ATOM      2  N   UNL d   1      -5.377   3.011  -3.375  0.00  0.00    -0.070 N 
ATOM      3  C1  UNL d   1      -5.999   3.443  -4.516  0.00  0.00    -0.004 A 
ATOM      4  C2  UNL d   1      -5.068   4.118  -5.275  0.00  0.00    -0.047 A 
ATOM      5  C3  UNL d   1      -3.844   4.091  -4.566  0.00  0.00    -0.047 A 
ATOM      6  C4  UNL d   1      -4.063   3.400  -3.394  0.00  0.00    -0.004 A 
ENDROOT
TORSDOF 0
ENDMDL
