MODEL 1
REMARK minimizedAffinity -3.27344918
REMARK minimizedRMSD -1
REMARK  0 active torsions:
REMARK  status: ('A' for Active; 'I' for Inactive)
ROOT
ATOM      1  C   UNL d   1      -4.495   3.347  -4.640  0.00  0.00     0.172 C 
ATOM      2  N   UNL d   1      -4.659   1.975  -5.057  0.00  0.00    -0.070 N 
ATOM      3  C1  UNL d   1      -3.673   1.172  -5.567  0.00  0.00    -0.004 A 
ATOM      4  C2  UNL d   1      -4.229  -0.059  -5.840  0.00  0.00    -0.047 A 
ATOM      5  C3  UNL d   1      -5.597   0.006  -5.482  0.00  0.00    -0.047 A 
ATOM      6  C4  UNL d   1      -5.836   1.276  -5.001  0.00  0.00    -0.004 A 
ENDROOT
TORSDOF 0
ENDMDL
