MODEL 1
REMARK minimizedAffinity -2.72002053
REMARK minimizedRMSD -1
REMARK  0 active torsions:
REMARK  status: ('A' for Active; 'I' for Inactive)
ROOT
ATOM      1  C   UNL d   1      -5.992   0.873  -4.879  0.00  0.00     0.172 C 
ATOM      2  N   UNL d   1      -4.869   1.780  -4.933  0.00  0.00    -0.070 N 
ATOM      3  C1  UNL d   1      -4.743   2.939  -4.214  0.00  0.00    -0.004 A 
ATOM      4  C2  UNL d   1      -3.535   3.512  -4.546  0.00  0.00    -0.047 A 
ATOM      5  C3  UNL d   1      -2.913   2.669  -5.498  0.00  0.00    -0.047 A 
ATOM      6  C4  UNL d   1      -3.760   1.604  -5.719  0.00  0.00    -0.004 A 
ENDROOT
TORSDOF 0
ENDMDL
