MODEL 1
REMARK minimizedAffinity -4.90825701
REMARK minimizedRMSD -1
REMARK  0 active torsions:
REMARK  status: ('A' for Active; 'I' for Inactive)
ROOT
ATOM      1  C   UNL d   1      -2.363  -1.984   1.294  0.00  0.00     0.023 A 
ATOM      2  C1  UNL d   1      -2.842  -0.711   0.987  0.00  0.00     0.003 A 
ATOM      3  C2  UNL d   1      -1.996   0.231   0.397  0.00  0.00     0.048 A 
ATOM      4  C3  UNL d   1      -0.673  -0.107   0.116  0.00  0.00     0.023 A 
ATOM      5  C4  UNL d   1      -0.190  -1.381   0.421  0.00  0.00     0.048 A 
ATOM      6  C5  UNL d   1      -1.038  -2.319   1.011  0.00  0.00     0.003 A 
ATOM      7  I   UNL d   1       0.587   1.293  -0.761  0.00  0.00    -0.146 I 
ENDROOT
TORSDOF 0
ENDMDL
