MODEL 1
REMARK minimizedAffinity -1.87319136
REMARK minimizedRMSD -1
REMARK  0 active torsions:
REMARK  status: ('A' for Active; 'I' for Inactive)
ROOT
ATOM      1  C   UNL d   1      -2.371   0.522   1.948  0.00  0.00     0.023 A 
ATOM      2  C1  UNL d   1      -2.189  -0.820   2.282  0.00  0.00     0.003 A 
ATOM      3  C2  UNL d   1      -1.097  -1.526   1.772  0.00  0.00     0.048 A 
ATOM      4  C3  UNL d   1      -0.191  -0.883   0.929  0.00  0.00     0.023 A 
ATOM      5  C4  UNL d   1      -0.370   0.460   0.592  0.00  0.00     0.048 A 
ATOM      6  C5  UNL d   1      -1.463   1.161   1.104  0.00  0.00     0.003 A 
ATOM      7  I   UNL d   1       1.434  -1.931   0.168  0.00  0.00    -0.146 I 
ENDROOT
TORSDOF 0
ENDMDL
