MODEL 1
REMARK minimizedAffinity -2.70847344
REMARK minimizedRMSD -1
REMARK  0 active torsions:
REMARK  status: ('A' for Active; 'I' for Inactive)
ROOT
ATOM      1  C   UNL d   1       0.006  -1.175   1.103  0.00  0.00     0.023 A 
ATOM      2  C1  UNL d   1      -0.545   0.106   1.114  0.00  0.00     0.003 A 
ATOM      3  C2  UNL d   1      -0.284   0.989   0.064  0.00  0.00     0.048 A 
ATOM      4  C3  UNL d   1       0.529   0.584  -0.994  0.00  0.00     0.023 A 
ATOM      5  C4  UNL d   1       1.083  -0.698  -1.009  0.00  0.00     0.048 A 
ATOM      6  C5  UNL d   1       0.819  -1.577   0.043  0.00  0.00     0.003 A 
ATOM      7  I   UNL d   1       0.920   1.896  -2.558  0.00  0.00    -0.146 I 
ENDROOT
TORSDOF 0
ENDMDL
