MODEL 1
REMARK minimizedAffinity -1.66813231
REMARK minimizedRMSD -1
REMARK  0 active torsions:
REMARK  status: ('A' for Active; 'I' for Inactive)
ROOT
ATOM      1  C   UNL d   1       2.449  -1.646   0.204  0.00  0.00     0.023 A 
ATOM      2  C1  UNL d   1       1.160  -2.016  -0.177  0.00  0.00     0.003 A 
ATOM      3  C2  UNL d   1       0.088  -1.149   0.045  0.00  0.00     0.048 A 
ATOM      4  C3  UNL d   1       0.314   0.088   0.648  0.00  0.00     0.023 A 
ATOM      5  C4  UNL d   1       1.603   0.464   1.030  0.00  0.00     0.048 A 
ATOM      6  C5  UNL d   1       2.671  -0.408   0.807  0.00  0.00     0.003 A 
ATOM      7  I   UNL d   1      -1.279   1.382   0.979  0.00  0.00    -0.146 I 
ENDROOT
TORSDOF 0
ENDMDL
