MODEL 1
REMARK minimizedAffinity -3.50298572
REMARK minimizedRMSD -1
REMARK  0 active torsions:
REMARK  status: ('A' for Active; 'I' for Inactive)
ROOT
ATOM      1  C   UNL d   1       0.464   1.759  -0.637  0.00  0.00     0.023 A 
ATOM      2  C1  UNL d   1       1.062   0.540  -0.958  0.00  0.00     0.003 A 
ATOM      3  C2  UNL d   1       0.619  -0.638  -0.352  0.00  0.00     0.048 A 
ATOM      4  C3  UNL d   1      -0.424  -0.590   0.572  0.00  0.00     0.023 A 
ATOM      5  C4  UNL d   1      -1.026   0.627   0.896  0.00  0.00     0.048 A 
ATOM      6  C5  UNL d   1      -0.579   1.802   0.289  0.00  0.00     0.003 A 
ATOM      7  I   UNL d   1      -1.085  -2.341   1.475  0.00  0.00    -0.146 I 
ENDROOT
TORSDOF 0
ENDMDL
