MODEL 1
REMARK minimizedAffinity 1.25506675
REMARK minimizedRMSD -1
REMARK  0 active torsions:
REMARK  status: ('A' for Active; 'I' for Inactive)
ROOT
ATOM      1  C   UNL d   1       0.974  -1.053  -0.415  0.00  0.00     0.023 A 
ATOM      2  C1  UNL d   1       0.017  -1.929   0.096  0.00  0.00     0.003 A 
ATOM      3  C2  UNL d   1      -1.104  -1.429   0.763  0.00  0.00     0.048 A 
ATOM      4  C3  UNL d   1      -1.261  -0.052   0.915  0.00  0.00     0.023 A 
ATOM      5  C4  UNL d   1      -0.306   0.829   0.404  0.00  0.00     0.048 A 
ATOM      6  C5  UNL d   1       0.813   0.324  -0.261  0.00  0.00     0.003 A 
ATOM      7  I   UNL d   1      -2.927   0.694   1.907  0.00  0.00    -0.146 I 
ENDROOT
TORSDOF 0
ENDMDL
