MODEL 1
REMARK minimizedAffinity 0.611314476
REMARK minimizedRMSD -1
REMARK  0 active torsions:
REMARK  status: ('A' for Active; 'I' for Inactive)
ROOT
ATOM      1  C   UNL d   1       1.189   2.658  -3.756  0.00  0.00     0.023 A 
ATOM      2  C1  UNL d   1       2.245   2.226  -2.953  0.00  0.00     0.003 A 
ATOM      3  C2  UNL d   1       1.985   1.583  -1.741  0.00  0.00     0.048 A 
ATOM      4  C3  UNL d   1       0.666   1.375  -1.338  0.00  0.00     0.023 A 
ATOM      5  C4  UNL d   1      -0.394   1.804  -2.138  0.00  0.00     0.048 A 
ATOM      6  C5  UNL d   1      -0.129   2.447  -3.349  0.00  0.00     0.003 A 
ATOM      7  I   UNL d   1       0.276   0.418   0.466  0.00  0.00    -0.146 I 
ENDROOT
TORSDOF 0
ENDMDL
