MODEL 1
REMARK minimizedAffinity -4.21163988
REMARK minimizedRMSD -1
REMARK  0 active torsions:
REMARK  status: ('A' for Active; 'I' for Inactive)
ROOT
ATOM      1  C   UNL d   1      -2.570  -1.042   1.010  0.00  0.00     0.023 A 
ATOM      2  C1  UNL d   1      -1.773   0.014   0.567  0.00  0.00     0.003 A 
ATOM      3  C2  UNL d   1      -0.393  -0.157   0.441  0.00  0.00     0.048 A 
ATOM      4  C3  UNL d   1       0.184  -1.386   0.760  0.00  0.00     0.023 A 
ATOM      5  C4  UNL d   1      -0.609  -2.445   1.203  0.00  0.00     0.048 A 
ATOM      6  C5  UNL d   1      -1.989  -2.270   1.328  0.00  0.00     0.003 A 
ATOM      7  I   UNL d   1       2.238  -1.642   0.573  0.00  0.00    -0.146 I 
ENDROOT
TORSDOF 0
ENDMDL
