MODEL 1
REMARK minimizedAffinity -3.86956692
REMARK minimizedRMSD -1
REMARK  0 active torsions:
REMARK  status: ('A' for Active; 'I' for Inactive)
ROOT
ATOM      1  C   UNL d   1      -3.168  -1.996   2.108  0.00  0.00     0.023 A 
ATOM      2  C1  UNL d   1      -3.063  -0.632   1.834  0.00  0.00     0.003 A 
ATOM      3  C2  UNL d   1      -1.932  -0.135   1.181  0.00  0.00     0.048 A 
ATOM      4  C3  UNL d   1      -0.912  -1.008   0.805  0.00  0.00     0.023 A 
ATOM      5  C4  UNL d   1      -1.014  -2.373   1.076  0.00  0.00     0.048 A 
ATOM      6  C5  UNL d   1      -2.145  -2.865   1.730  0.00  0.00     0.003 A 
ATOM      7  I   UNL d   1       0.771  -0.271  -0.167  0.00  0.00    -0.146 I 
ENDROOT
TORSDOF 0
ENDMDL
