MODEL 1
REMARK minimizedAffinity -4.27965117
REMARK minimizedRMSD -1
REMARK  0 active torsions:
REMARK  status: ('A' for Active; 'I' for Inactive)
ROOT
ATOM      1  C   UNL d   1      -2.907  -2.445   1.864  0.00  0.00     0.023 A 
ATOM      2  C1  UNL d   1      -1.789  -2.860   1.141  0.00  0.00     0.003 A 
ATOM      3  C2  UNL d   1      -0.906  -1.914   0.615  0.00  0.00     0.048 A 
ATOM      4  C3  UNL d   1      -1.147  -0.556   0.817  0.00  0.00     0.023 A 
ATOM      5  C4  UNL d   1      -2.264  -0.136   1.541  0.00  0.00     0.048 A 
ATOM      6  C5  UNL d   1      -3.144  -1.085   2.064  0.00  0.00     0.003 A 
ATOM      7  I   UNL d   1       0.166   0.853   0.036  0.00  0.00    -0.146 I 
ENDROOT
TORSDOF 0
ENDMDL
