MODEL 1
REMARK minimizedAffinity -4.53929758
REMARK minimizedRMSD -1
REMARK  0 active torsions:
REMARK  status: ('A' for Active; 'I' for Inactive)
ROOT
ATOM      1  C   UNL d   1      -2.194  -1.867   1.848  0.00  0.00     0.023 A 
ATOM      2  C1  UNL d   1      -2.628  -0.628   1.377  0.00  0.00     0.003 A 
ATOM      3  C2  UNL d   1      -1.747   0.207   0.686  0.00  0.00     0.048 A 
ATOM      4  C3  UNL d   1      -0.432  -0.205   0.470  0.00  0.00     0.023 A 
ATOM      5  C4  UNL d   1       0.007  -1.444   0.939  0.00  0.00     0.048 A 
ATOM      6  C5  UNL d   1      -0.878  -2.274   1.629  0.00  0.00     0.003 A 
ATOM      7  I   UNL d   1       0.882   1.035  -0.558  0.00  0.00    -0.146 I 
ENDROOT
TORSDOF 0
ENDMDL
