MODEL 1
REMARK minimizedAffinity -3.32287765
REMARK minimizedRMSD -1
REMARK  0 active torsions:
REMARK  status: ('A' for Active; 'I' for Inactive)
ROOT
ATOM      1  C   UNL d   1      -2.651  -0.170   1.529  0.00  0.00     0.023 A 
ATOM      2  C1  UNL d   1      -2.233  -1.500   1.565  0.00  0.00     0.003 A 
ATOM      3  C2  UNL d   1      -0.942  -1.839   1.154  0.00  0.00     0.048 A 
ATOM      4  C3  UNL d   1      -0.074  -0.842   0.709  0.00  0.00     0.023 A 
ATOM      5  C4  UNL d   1      -0.488   0.490   0.671  0.00  0.00     0.048 A 
ATOM      6  C5  UNL d   1      -1.780   0.824   1.082  0.00  0.00     0.003 A 
ATOM      7  I   UNL d   1       1.847  -1.344   0.097  0.00  0.00    -0.146 I 
ENDROOT
TORSDOF 0
ENDMDL
