MODEL 1
REMARK minimizedAffinity -3.25486016
REMARK minimizedRMSD -1
REMARK  0 active torsions:
REMARK  status: ('A' for Active; 'I' for Inactive)
ROOT
ATOM      1  C   UNL d   1       0.046  -0.136   0.790  0.00  0.00     0.023 A 
ATOM      2  C1  UNL d   1       0.057   1.257   0.715  0.00  0.00     0.003 A 
ATOM      3  C2  UNL d   1       0.360   1.889  -0.492  0.00  0.00     0.048 A 
ATOM      4  C3  UNL d   1       0.649   1.123  -1.621  0.00  0.00     0.023 A 
ATOM      5  C4  UNL d   1       0.638  -0.271  -1.550  0.00  0.00     0.048 A 
ATOM      6  C5  UNL d   1       0.335  -0.899  -0.341  0.00  0.00     0.003 A 
ATOM      7  I   UNL d   1       1.100   2.062  -3.419  0.00  0.00    -0.146 I 
ENDROOT
TORSDOF 0
ENDMDL
