MODEL 1
REMARK minimizedAffinity -4.51376581
REMARK minimizedRMSD -1
REMARK  0 active torsions:
REMARK  status: ('A' for Active; 'I' for Inactive)
ROOT
ATOM      1  C   UNL d   1      -2.564  -1.873   2.049  0.00  0.00     0.023 A 
ATOM      2  C1  UNL d   1      -2.787  -0.501   1.930  0.00  0.00     0.003 A 
ATOM      3  C2  UNL d   1      -1.989   0.267   1.079  0.00  0.00     0.048 A 
ATOM      4  C3  UNL d   1      -0.971  -0.345   0.348  0.00  0.00     0.023 A 
ATOM      5  C4  UNL d   1      -0.744  -1.717   0.463  0.00  0.00     0.048 A 
ATOM      6  C5  UNL d   1      -1.544  -2.480   1.316  0.00  0.00     0.003 A 
ATOM      7  I   UNL d   1       0.218   0.795  -0.920  0.00  0.00    -0.146 I 
ENDROOT
TORSDOF 0
ENDMDL
