MODEL 1
REMARK minimizedAffinity 3.84728503
REMARK minimizedRMSD -1
REMARK  0 active torsions:
REMARK  status: ('A' for Active; 'I' for Inactive)
ROOT
ATOM      1  C1  DEN d   1      -1.398  -5.972   3.988  0.00  0.00     0.130 A 
ATOM      2  C2  DEN d   1      -0.133  -5.981   3.258  0.00  0.00    -0.031 A 
ATOM      3  C3  DEN d   1      -0.440  -5.978   1.813  0.00  0.00     0.027 A 
ATOM      4  C4  DEN d   1      -2.739  -5.957   0.643  0.00  0.00     0.027 A 
ATOM      5  C5  DEN d   1      -4.101  -5.959   0.845  0.00  0.00    -0.003 A 
ATOM      6  C6  DEN d   1      -4.654  -5.999   2.098  0.00  0.00     0.001 A 
ATOM      7  C7  DEN d   1      -3.839  -5.994   3.199  0.00  0.00     0.017 A 
ATOM      8  C8  DEN d   1      -2.464  -6.000   3.004  0.00  0.00    -0.094 A 
ATOM      9  C9  DEN d   1      -1.925  -5.946   1.729  0.00  0.00    -0.072 A 
ENDROOT
TORSDOF 0
ENDMDL
