MODEL 1
REMARK minimizedAffinity 11.9287415
REMARK minimizedRMSD -1
REMARK  0 active torsions:
REMARK  status: ('A' for Active; 'I' for Inactive)
ROOT
ATOM      1  C1  DEN d   1      -1.559  -5.988   1.841  0.00  0.00     0.130 A 
ATOM      2  C2  DEN d   1      -1.247  -5.953   0.415  0.00  0.00    -0.031 A 
ATOM      3  C3  DEN d   1       0.222  -5.939   0.269  0.00  0.00     0.027 A 
ATOM      4  C4  DEN d   1       2.035  -5.973   2.103  0.00  0.00     0.027 A 
ATOM      5  C5  DEN d   1       2.257  -5.992   3.462  0.00  0.00    -0.003 A 
ATOM      6  C6  DEN d   1       1.230  -5.977   4.370  0.00  0.00     0.001 A 
ATOM      7  C7  DEN d   1      -0.066  -5.987   3.928  0.00  0.00     0.017 A 
ATOM      8  C8  DEN d   1      -0.297  -5.961   2.559  0.00  0.00    -0.094 A 
ATOM      9  C9  DEN d   1       0.753  -5.989   1.658  0.00  0.00    -0.072 A 
ENDROOT
TORSDOF 0
ENDMDL
