MODEL 1
REMARK minimizedAffinity 5.07758427
REMARK minimizedRMSD -1
REMARK  0 active torsions:
REMARK  status: ('A' for Active; 'I' for Inactive)
ROOT
ATOM      1  C1  DEN d   1      -5.974  -1.147   3.659  0.00  0.00     0.130 A 
ATOM      2  C2  DEN d   1      -5.927  -1.794   4.967  0.00  0.00    -0.031 A 
ATOM      3  C3  DEN d   1      -5.914  -0.737   5.998  0.00  0.00     0.027 A 
ATOM      4  C4  DEN d   1      -5.967   1.824   5.697  0.00  0.00     0.027 A 
ATOM      5  C5  DEN d   1      -5.998   2.846   4.773  0.00  0.00    -0.003 A 
ATOM      6  C6  DEN d   1      -5.989   2.610   3.424  0.00  0.00     0.001 A 
ATOM      7  C7  DEN d   1      -5.994   1.321   2.960  0.00  0.00     0.017 A 
ATOM      8  C8  DEN d   1      -5.955   0.287   3.885  0.00  0.00    -0.094 A 
ATOM      9  C9  DEN d   1      -5.977   0.545   5.245  0.00  0.00    -0.072 A 
ENDROOT
TORSDOF 0
ENDMDL
