MODEL 1
REMARK minimizedAffinity 6.50403214
REMARK minimizedRMSD -1
REMARK  0 active torsions:
REMARK  status: ('A' for Active; 'I' for Inactive)
ROOT
ATOM      1  C1  DEN d   1      -2.168  -0.088  -2.719  0.00  0.00     0.130 A 
ATOM      2  C2  DEN d   1      -3.529  -0.616  -2.702  0.00  0.00    -0.031 A 
ATOM      3  C3  DEN d   1      -3.497  -1.979  -3.269  0.00  0.00     0.027 A 
ATOM      4  C4  DEN d   1      -1.482  -3.317  -4.164  0.00  0.00     0.027 A 
ATOM      5  C5  DEN d   1      -0.125  -3.282  -4.397  0.00  0.00    -0.003 A 
ATOM      6  C6  DEN d   1       0.634  -2.176  -4.120  0.00  0.00     0.001 A 
ATOM      7  C7  DEN d   1       0.049  -1.075  -3.552  0.00  0.00     0.017 A 
ATOM      8  C8  DEN d   1      -1.320  -1.101  -3.322  0.00  0.00    -0.094 A 
ATOM      9  C9  DEN d   1      -2.069  -2.233  -3.597  0.00  0.00    -0.072 A 
ENDROOT
TORSDOF 0
ENDMDL
