MODEL 1
REMARK minimizedAffinity 6.58860874
REMARK minimizedRMSD -1
REMARK  0 active torsions:
REMARK  status: ('A' for Active; 'I' for Inactive)
ROOT
ATOM      1  C1  DEN d   1       0.508  -5.972   3.914  0.00  0.00     0.130 A 
ATOM      2  C2  DEN d   1       1.831  -5.993   3.295  0.00  0.00    -0.031 A 
ATOM      3  C3  DEN d   1       1.649  -5.995   1.830  0.00  0.00     0.027 A 
ATOM      4  C4  DEN d   1      -0.541  -5.962   0.467  0.00  0.00     0.027 A 
ATOM      5  C5  DEN d   1      -1.916  -5.954   0.551  0.00  0.00    -0.003 A 
ATOM      6  C6  DEN d   1      -2.574  -5.985   1.752  0.00  0.00     0.001 A 
ATOM      7  C7  DEN d   1      -1.857  -5.980   2.919  0.00  0.00     0.017 A 
ATOM      8  C8  DEN d   1      -0.470  -5.997   2.842  0.00  0.00    -0.094 A 
ATOM      9  C9  DEN d   1       0.176  -5.953   1.619  0.00  0.00    -0.072 A 
ENDROOT
TORSDOF 0
ENDMDL
