MODEL 1
REMARK minimizedAffinity 9.24920082
REMARK minimizedRMSD -1
REMARK  0 active torsions:
REMARK  status: ('A' for Active; 'I' for Inactive)
ROOT
ATOM      1  C1  DEN d   1      -0.120  -5.956   4.979  0.00  0.00     0.130 A 
ATOM      2  C2  DEN d   1       1.136  -5.996   5.723  0.00  0.00    -0.031 A 
ATOM      3  C3  DEN d   1       2.245  -5.972   4.748  0.00  0.00     0.027 A 
ATOM      4  C4  DEN d   1       2.140  -5.872   2.173  0.00  0.00     0.027 A 
ATOM      5  C5  DEN d   1       1.297  -5.835   1.085  0.00  0.00    -0.003 A 
ATOM      6  C6  DEN d   1      -0.066  -5.869   1.215  0.00  0.00     0.001 A 
ATOM      7  C7  DEN d   1      -0.628  -5.898   2.465  0.00  0.00     0.017 A 
ATOM      8  C8  DEN d   1       0.216  -5.943   3.567  0.00  0.00    -0.094 A 
ATOM      9  C9  DEN d   1       1.591  -5.895   3.414  0.00  0.00    -0.072 A 
ENDROOT
TORSDOF 0
ENDMDL
