MODEL 1
REMARK minimizedAffinity 11.9263878
REMARK minimizedRMSD -1
REMARK  0 active torsions:
REMARK  status: ('A' for Active; 'I' for Inactive)
ROOT
ATOM      1  C1  DEN d   1       2.157  -5.439   4.720  0.00  0.00     0.130 A 
ATOM      2  C2  DEN d   1       1.478  -5.258   6.000  0.00  0.00    -0.031 A 
ATOM      3  C3  DEN d   1       0.024  -5.364   5.764  0.00  0.00     0.027 A 
ATOM      4  C4  DEN d   1      -1.234  -5.793   3.554  0.00  0.00     0.027 A 
ATOM      5  C5  DEN d   1      -1.087  -6.000   2.200  0.00  0.00    -0.003 A 
ATOM      6  C6  DEN d   1       0.140  -6.000   1.591  0.00  0.00     0.001 A 
ATOM      7  C7  DEN d   1       1.272  -5.834   2.344  0.00  0.00     0.017 A 
ATOM      8  C8  DEN d   1       1.131  -5.618   3.709  0.00  0.00    -0.094 A 
ATOM      9  C9  DEN d   1      -0.117  -5.634   4.308  0.00  0.00    -0.072 A 
ENDROOT
TORSDOF 0
ENDMDL
