MODEL 1
REMARK minimizedAffinity 11.7871304
REMARK minimizedRMSD -1
REMARK  0 active torsions:
REMARK  status: ('A' for Active; 'I' for Inactive)
ROOT
ATOM      1  C1  DEN d   1       0.152  -5.513   5.155  0.00  0.00     0.130 A 
ATOM      2  C2  DEN d   1       1.425  -5.553   5.869  0.00  0.00    -0.031 A 
ATOM      3  C3  DEN d   1       2.502  -5.728   4.874  0.00  0.00     0.027 A 
ATOM      4  C4  DEN d   1       2.323  -5.936   2.309  0.00  0.00     0.027 A 
ATOM      5  C5  DEN d   1       1.450  -5.971   1.244  0.00  0.00    -0.003 A 
ATOM      6  C6  DEN d   1       0.093  -5.890   1.409  0.00  0.00     0.001 A 
ATOM      7  C7  DEN d   1      -0.430  -5.725   2.665  0.00  0.00     0.017 A 
ATOM      8  C8  DEN d   1       0.443  -5.697   3.744  0.00  0.00    -0.094 A 
ATOM      9  C9  DEN d   1       1.813  -5.768   3.556  0.00  0.00    -0.072 A 
ENDROOT
TORSDOF 0
ENDMDL
