MODEL 1
REMARK minimizedAffinity 2.51790309
REMARK minimizedRMSD -1
REMARK  0 active torsions:
REMARK  status: ('A' for Active; 'I' for Inactive)
ROOT
ATOM      1  C1  DEN d   1      -1.391  -5.641   3.000  0.00  0.00     0.130 A 
ATOM      2  C2  DEN d   1      -1.321  -6.000   1.586  0.00  0.00    -0.031 A 
ATOM      3  C3  DEN d   1       0.101  -5.999   1.186  0.00  0.00     0.027 A 
ATOM      4  C4  DEN d   1       2.188  -5.485   2.611  0.00  0.00     0.027 A 
ATOM      5  C5  DEN d   1       2.630  -5.119   3.863  0.00  0.00    -0.003 A 
ATOM      6  C6  DEN d   1       1.768  -4.870   4.898  0.00  0.00     0.001 A 
ATOM      7  C7  DEN d   1       0.420  -5.028   4.711  0.00  0.00     0.017 A 
ATOM      8  C8  DEN d   1      -0.034  -5.390   3.449  0.00  0.00    -0.094 A 
ATOM      9  C9  DEN d   1       0.855  -5.649   2.419  0.00  0.00    -0.072 A 
ENDROOT
TORSDOF 0
ENDMDL
