MODEL 1
REMARK minimizedAffinity 3.32908225
REMARK minimizedRMSD -1
REMARK  0 active torsions:
REMARK  status: ('A' for Active; 'I' for Inactive)
ROOT
ATOM      1  C1  DEN d   1      -0.893  -5.967   1.225  0.00  0.00     0.130 A 
ATOM      2  C2  DEN d   1      -0.483  -5.956   2.626  0.00  0.00    -0.031 A 
ATOM      3  C3  DEN d   1      -1.702  -5.963   3.459  0.00  0.00     0.027 A 
ATOM      4  C4  DEN d   1      -4.173  -5.995   2.719  0.00  0.00     0.027 A 
ATOM      5  C5  DEN d   1      -5.019  -5.997   1.632  0.00  0.00    -0.003 A 
ATOM      6  C6  DEN d   1      -4.554  -5.956   0.344  0.00  0.00     0.001 A 
ATOM      7  C7  DEN d   1      -3.204  -5.956   0.110  0.00  0.00     0.017 A 
ATOM      8  C8  DEN d   1      -2.345  -5.946   1.200  0.00  0.00    -0.094 A 
ATOM      9  C9  DEN d   1      -2.834  -6.000   2.494  0.00  0.00    -0.072 A 
ENDROOT
TORSDOF 0
ENDMDL
