MODEL 1
REMARK minimizedAffinity 5.05871248
REMARK minimizedRMSD -1
REMARK  0 active torsions:
REMARK  status: ('A' for Active; 'I' for Inactive)
ROOT
ATOM      1  C1  DEN d   1       0.303  -5.953   5.560  0.00  0.00     0.130 A 
ATOM      2  C2  DEN d   1       1.759  -5.977   5.673  0.00  0.00    -0.031 A 
ATOM      3  C3  DEN d   1       2.322  -5.995   4.308  0.00  0.00     0.027 A 
ATOM      4  C4  DEN d   1       1.089  -5.983   2.043  0.00  0.00     0.027 A 
ATOM      5  C5  DEN d   1      -0.149  -5.977   1.439  0.00  0.00    -0.003 A 
ATOM      6  C6  DEN d   1      -1.313  -5.996   2.160  0.00  0.00     0.001 A 
ATOM      7  C7  DEN d   1      -1.265  -5.977   3.528  0.00  0.00     0.017 A 
ATOM      8  C8  DEN d   1      -0.020  -5.991   4.145  0.00  0.00    -0.094 A 
ATOM      9  C9  DEN d   1       1.146  -5.959   3.399  0.00  0.00    -0.072 A 
ENDROOT
TORSDOF 0
ENDMDL
