MODEL 1
REMARK minimizedAffinity 13.0322628
REMARK minimizedRMSD -1
REMARK  0 active torsions:
REMARK  status: ('A' for Active; 'I' for Inactive)
ROOT
ATOM      1  C1  DEN d   1       0.599  -5.643   2.030  0.00  0.00     0.130 A 
ATOM      2  C2  DEN d   1      -0.766  -5.644   2.549  0.00  0.00    -0.031 A 
ATOM      3  C3  DEN d   1      -0.696  -5.765   4.019  0.00  0.00     0.027 A 
ATOM      4  C4  DEN d   1       1.384  -5.945   5.535  0.00  0.00     0.027 A 
ATOM      5  C5  DEN d   1       2.760  -5.999   5.550  0.00  0.00    -0.003 A 
ATOM      6  C6  DEN d   1       3.505  -5.972   4.401  0.00  0.00     0.001 A 
ATOM      7  C7  DEN d   1       2.879  -5.844   3.189  0.00  0.00     0.017 A 
ATOM      8  C8  DEN d   1       1.491  -5.797   3.165  0.00  0.00    -0.094 A 
ATOM      9  C9  DEN d   1       0.757  -5.813   4.338  0.00  0.00    -0.072 A 
ENDROOT
TORSDOF 0
ENDMDL
