MODEL 1
REMARK minimizedAffinity 2.23184133
REMARK minimizedRMSD -1
REMARK  0 active torsions:
REMARK  status: ('A' for Active; 'I' for Inactive)
ROOT
ATOM      1  C1  DEN d   1      -0.999  -5.996   3.626  0.00  0.00     0.130 A 
ATOM      2  C2  DEN d   1      -1.357  -5.964   2.210  0.00  0.00    -0.031 A 
ATOM      3  C3  DEN d   1      -0.107  -5.951   1.424  0.00  0.00     0.027 A 
ATOM      4  C4  DEN d   1       2.334  -5.983   2.257  0.00  0.00     0.027 A 
ATOM      5  C5  DEN d   1       3.139  -6.000   3.374  0.00  0.00    -0.003 A 
ATOM      6  C6  DEN d   1       2.625  -5.981   4.644  0.00  0.00     0.001 A 
ATOM      7  C7  DEN d   1       1.268  -5.992   4.827  0.00  0.00     0.017 A 
ATOM      8  C8  DEN d   1       0.450  -5.968   3.705  0.00  0.00    -0.094 A 
ATOM      9  C9  DEN d   1       0.988  -5.999   2.430  0.00  0.00    -0.072 A 
ENDROOT
TORSDOF 0
ENDMDL
