MODEL 1
REMARK minimizedAffinity 13.3068838
REMARK minimizedRMSD -1
REMARK  0 active torsions:
REMARK  status: ('A' for Active; 'I' for Inactive)
ROOT
ATOM      1  C1  DEN d   1       0.931  -1.736  -3.321  0.00  0.00     0.130 A 
ATOM      2  C2  DEN d   1      -0.174  -2.152  -4.180  0.00  0.00    -0.031 A 
ATOM      3  C3  DEN d   1      -1.397  -2.211  -3.355  0.00  0.00     0.027 A 
ATOM      4  C4  DEN d   1      -1.687  -1.696  -0.844  0.00  0.00     0.027 A 
ATOM      5  C5  DEN d   1      -1.032  -1.316   0.307  0.00  0.00    -0.003 A 
ATOM      6  C6  DEN d   1       0.317  -1.084   0.336  0.00  0.00     0.001 A 
ATOM      7  C7  DEN d   1       1.049  -1.186  -0.817  0.00  0.00     0.017 A 
ATOM      8  C8  DEN d   1       0.397  -1.576  -1.980  0.00  0.00    -0.094 A 
ATOM      9  C9  DEN d   1      -0.970  -1.794  -1.992  0.00  0.00    -0.072 A 
ENDROOT
TORSDOF 0
ENDMDL
