MODEL 1
REMARK minimizedAffinity 12.8194437
REMARK minimizedRMSD -1
REMARK  0 active torsions:
REMARK  status: ('A' for Active; 'I' for Inactive)
ROOT
ATOM      1  C1  DEN d   1      -1.532  -0.376  -2.631  0.00  0.00     0.130 A 
ATOM      2  C2  DEN d   1      -2.671  -0.879  -1.868  0.00  0.00    -0.031 A 
ATOM      3  C3  DEN d   1      -3.049  -2.193  -2.425  0.00  0.00     0.027 A 
ATOM      4  C4  DEN d   1      -1.984  -3.494  -4.381  0.00  0.00     0.027 A 
ATOM      5  C5  DEN d   1      -1.000  -3.465  -5.345  0.00  0.00    -0.003 A 
ATOM      6  C6  DEN d   1      -0.153  -2.399  -5.491  0.00  0.00     0.001 A 
ATOM      7  C7  DEN d   1      -0.244  -1.336  -4.633  0.00  0.00     0.017 A 
ATOM      8  C8  DEN d   1      -1.239  -1.354  -3.664  0.00  0.00    -0.094 A 
ATOM      9  C9  DEN d   1      -2.078  -2.447  -3.523  0.00  0.00    -0.072 A 
ENDROOT
TORSDOF 0
ENDMDL
