MODEL 1
REMARK minimizedAffinity -2.10965967
REMARK minimizedRMSD -1
REMARK  1 active torsions:
REMARK  status: ('A' for Active; 'I' for Inactive)
REMARK    1  A    between atoms: C3_4  and  O_7 
ROOT
ATOM      1  C   UNL d   1      -0.728   0.028  -0.100  0.00  0.00    -0.033 A 
ATOM      2  C1  UNL d   1      -0.108  -1.065   0.509  0.00  0.00     0.039 A 
ATOM      3  C2  UNL d   1       1.150  -0.918   1.097  0.00  0.00    -0.080 A 
ATOM      4  C3  UNL d   1       1.776   0.325   1.070  0.00  0.00     0.150 A 
ATOM      5  C4  UNL d   1       1.162   1.419   0.468  0.00  0.00    -0.007 A 
ATOM      6  C5  UNL d   1      -0.093   1.270  -0.120  0.00  0.00     0.039 A 
ENDROOT
BRANCH   4   7
ATOM      7  O   UNL d   1       3.006   0.516   1.626  0.00  0.00    -0.526 OA
ATOM      8  H5  UNL d   1       3.319  -0.333   1.979  0.00  0.00     0.418 HD
ENDBRANCH   4   7
TORSDOF 1
ENDMDL
