MODEL 1
REMARK minimizedAffinity -4.2049365
REMARK minimizedRMSD -1
REMARK  1 active torsions:
REMARK  status: ('A' for Active; 'I' for Inactive)
REMARK    1  A    between atoms: C3_4  and  O_7 
ROOT
ATOM      1  C   UNL d   1      -0.392   0.661  -0.056  0.00  0.00    -0.033 A 
ATOM      2  C1  UNL d   1       0.742   0.761  -0.864  0.00  0.00     0.039 A 
ATOM      3  C2  UNL d   1       0.678   0.390  -2.209  0.00  0.00    -0.080 A 
ATOM      4  C3  UNL d   1      -0.524  -0.078  -2.732  0.00  0.00     0.150 A 
ATOM      5  C4  UNL d   1      -1.659  -0.176  -1.933  0.00  0.00    -0.007 A 
ATOM      6  C5  UNL d   1      -1.593   0.194  -0.591  0.00  0.00     0.039 A 
ENDROOT
BRANCH   4   7
ATOM      7  O   UNL d   1      -0.634  -0.456  -4.037  0.00  0.00    -0.526 OA
ATOM      8  H5  UNL d   1       0.236  -0.361  -4.459  0.00  0.00     0.418 HD
ENDBRANCH   4   7
TORSDOF 1
ENDMDL
