MODEL 1
REMARK minimizedAffinity -3.73862672
REMARK minimizedRMSD -1
REMARK  1 active torsions:
REMARK  status: ('A' for Active; 'I' for Inactive)
REMARK    1  A    between atoms: C3_4  and  O_7 
ROOT
ATOM      1  C   UNL d   1       2.263   0.152   0.881  0.00  0.00    -0.033 A 
ATOM      2  C1  UNL d   1       2.103   1.086  -0.145  0.00  0.00     0.039 A 
ATOM      3  C2  UNL d   1       0.841   1.309  -0.698  0.00  0.00    -0.080 A 
ATOM      4  C3  UNL d   1      -0.252   0.592  -0.218  0.00  0.00     0.150 A 
ATOM      5  C4  UNL d   1      -0.101  -0.338   0.805  0.00  0.00    -0.007 A 
ATOM      6  C5  UNL d   1       1.161  -0.559   1.357  0.00  0.00     0.039 A 
ENDROOT
BRANCH   4   7
ATOM      7  O   UNL d   1      -1.502   0.771  -0.731  0.00  0.00    -0.526 OA
ATOM      8  H5  UNL d   1      -1.450   1.422  -1.450  0.00  0.00     0.418 HD
ENDBRANCH   4   7
TORSDOF 1
ENDMDL
