MODEL 1
REMARK minimizedAffinity -2.06163168
REMARK minimizedRMSD -1
REMARK  2 active torsions:
REMARK  status: ('A' for Active; 'I' for Inactive)
REMARK    1  A    between atoms: C2'_3  and  C1'_4 
REMARK    2  A    between atoms: C1'_4  and  C1_5 
ROOT
ATOM      1  C1  I4B d   1       1.362   0.048  -0.894  0.00  0.00    -0.075 A 
ATOM      2  C2  I4B d   1       1.364   1.110  -1.764  0.00  0.00     0.003 A 
ATOM      3  C3  I4B d   1       1.113   2.421  -1.289  0.00  0.00     0.002 A 
ATOM      4  C4  I4B d   1       0.816   2.615   0.044  0.00  0.00    -0.004 A 
ATOM      5  C5  I4B d   1       0.836   1.540   0.928  0.00  0.00     0.002 A 
ATOM      6  C6  I4B d   1       1.123   0.250   0.459  0.00  0.00     0.003 A 
ENDROOT
BRANCH   1   7
ATOM      7  C1' I4B d   1       1.598  -1.326  -1.435  0.00  0.00     0.060 C 
BRANCH   7   8
ATOM      8  C2' I4B d   1       1.012  -2.321  -0.454  0.00  0.00    -0.013 C 
ATOM      9  C4' I4B d   1      -0.142  -3.073  -1.063  0.00  0.00     0.013 C 
ATOM     10  C3' I4B d   1       2.107  -3.256  -0.033  0.00  0.00     0.013 C 
ENDBRANCH   7   8
ENDBRANCH   1   7
TORSDOF 2
ENDMDL
