MODEL 1
REMARK minimizedAffinity -0.54985702
REMARK minimizedRMSD -1
REMARK  2 active torsions:
REMARK  status: ('A' for Active; 'I' for Inactive)
REMARK    1  A    between atoms: C2'_3  and  C1'_4 
REMARK    2  A    between atoms: C1'_4  and  C1_5 
ROOT
ATOM      1  C1  I4B d   1       0.835   1.223   0.095  0.00  0.00    -0.075 A 
ATOM      2  C2  I4B d   1       1.060   2.151  -0.891  0.00  0.00     0.003 A 
ATOM      3  C3  I4B d   1       1.221   1.737  -2.236  0.00  0.00     0.002 A 
ATOM      4  C4  I4B d   1       1.199   0.392  -2.540  0.00  0.00    -0.004 A 
ATOM      5  C5  I4B d   1       0.948  -0.546  -1.542  0.00  0.00     0.002 A 
ATOM      6  C6  I4B d   1       0.753  -0.127  -0.218  0.00  0.00     0.003 A 
ENDROOT
BRANCH   1   7
ATOM      7  C1' I4B d   1       0.703   1.692   1.509  0.00  0.00     0.060 C 
BRANCH   7   8
ATOM      8  C2' I4B d   1       2.094   1.787   2.102  0.00  0.00    -0.013 C 
ATOM      9  C4' I4B d   1       3.088   1.002   1.287  0.00  0.00     0.013 C 
ATOM     10  C3' I4B d   1       2.472   3.236   2.167  0.00  0.00     0.013 C 
ENDBRANCH   7   8
ENDBRANCH   1   7
TORSDOF 2
ENDMDL
