MODEL 1
REMARK minimizedAffinity 6.80086803
REMARK minimizedRMSD -1
REMARK  2 active torsions:
REMARK  status: ('A' for Active; 'I' for Inactive)
REMARK    1  A    between atoms: C2'_3  and  C1'_4 
REMARK    2  A    between atoms: C1'_4  and  C1_5 
ROOT
ATOM      1  C1  I4B d   1       1.493   1.411   0.054  0.00  0.00    -0.075 A 
ATOM      2  C2  I4B d   1       0.785   0.315  -0.371  0.00  0.00     0.003 A 
ATOM      3  C3  I4B d   1       1.332  -0.984  -0.237  0.00  0.00     0.002 A 
ATOM      4  C4  I4B d   1       2.604  -1.135   0.278  0.00  0.00    -0.004 A 
ATOM      5  C5  I4B d   1       3.312  -0.025   0.729  0.00  0.00     0.002 A 
ATOM      6  C6  I4B d   1       2.749   1.256   0.627  0.00  0.00     0.003 A 
ENDROOT
BRANCH   1   7
ATOM      7  C1' I4B d   1       0.899   2.771  -0.133  0.00  0.00     0.060 C 
BRANCH   7   8
ATOM      8  C2' I4B d   1       0.818   3.044  -1.622  0.00  0.00    -0.013 C 
ATOM      9  C4' I4B d   1       0.924   4.518  -1.912  0.00  0.00     0.013 C 
ATOM     10  C3' I4B d   1       1.919   2.280  -2.293  0.00  0.00     0.013 C 
ENDBRANCH   7   8
ENDBRANCH   1   7
TORSDOF 2
ENDMDL
