MODEL 1
REMARK minimizedAffinity 0.110216007
REMARK minimizedRMSD -1
REMARK  2 active torsions:
REMARK  status: ('A' for Active; 'I' for Inactive)
REMARK    1  A    between atoms: C2'_3  and  C1'_4 
REMARK    2  A    between atoms: C1'_4  and  C1_5 
ROOT
ATOM      1  C1  I4B d   1       0.886   2.415  -0.091  0.00  0.00    -0.075 A 
ATOM      2  C2  I4B d   1       1.086   2.839  -1.381  0.00  0.00     0.003 A 
ATOM      3  C3  I4B d   1       1.347   4.205  -1.651  0.00  0.00     0.002 A 
ATOM      4  C4  I4B d   1       1.348   5.114  -0.613  0.00  0.00    -0.004 A 
ATOM      5  C5  I4B d   1       1.168   4.678   0.697  0.00  0.00     0.002 A 
ATOM      6  C6  I4B d   1       0.948   3.319   0.961  0.00  0.00     0.003 A 
ENDROOT
BRANCH   1   7
ATOM      7  C1' I4B d   1       0.581   0.971   0.154  0.00  0.00     0.060 C 
BRANCH   7   8
ATOM      8  C2' I4B d   1       0.952   0.197  -1.095  0.00  0.00    -0.013 C 
ATOM      9  C4' I4B d   1       2.321  -0.417  -0.968  0.00  0.00     0.013 C 
ATOM     10  C3' I4B d   1      -0.094  -0.854  -1.316  0.00  0.00     0.013 C 
ENDBRANCH   7   8
ENDBRANCH   1   7
TORSDOF 2
ENDMDL
