MODEL 1
REMARK minimizedAffinity 7.80721951
REMARK minimizedRMSD -1
REMARK  2 active torsions:
REMARK  status: ('A' for Active; 'I' for Inactive)
REMARK    1  A    between atoms: C2'_3  and  C1'_4 
REMARK    2  A    between atoms: C1'_4  and  C1_5 
ROOT
ATOM      1  C1  I4B d   1       0.624   1.293  -0.222  0.00  0.00    -0.075 A 
ATOM      2  C2  I4B d   1       0.853   0.059  -0.777  0.00  0.00     0.003 A 
ATOM      3  C3  I4B d   1       1.688  -0.876  -0.118  0.00  0.00     0.002 A 
ATOM      4  C4  I4B d   1       2.310  -0.518   1.061  0.00  0.00    -0.004 A 
ATOM      5  C5  I4B d   1       2.058   0.725   1.634  0.00  0.00     0.002 A 
ATOM      6  C6  I4B d   1       1.200   1.632   0.995  0.00  0.00     0.003 A 
ENDROOT
BRANCH   1   7
ATOM      7  C1' I4B d   1      -0.237   2.267  -0.961  0.00  0.00     0.060 C 
BRANCH   7   8
ATOM      8  C2' I4B d   1       0.649   3.046  -1.911  0.00  0.00    -0.013 C 
ATOM      9  C4' I4B d   1       1.201   4.283  -1.252  0.00  0.00     0.013 C 
ATOM     10  C3' I4B d   1       1.752   2.137  -2.366  0.00  0.00     0.013 C 
ENDBRANCH   7   8
ENDBRANCH   1   7
TORSDOF 2
ENDMDL
