MODEL 1
REMARK minimizedAffinity 7.14359713
REMARK minimizedRMSD -1
REMARK  2 active torsions:
REMARK  status: ('A' for Active; 'I' for Inactive)
REMARK    1  A    between atoms: C2'_3  and  C1'_4 
REMARK    2  A    between atoms: C1'_4  and  C1_5 
ROOT
ATOM      1  C1  I4B d   1       1.171   1.281  -0.004  0.00  0.00    -0.075 A 
ATOM      2  C2  I4B d   1       1.417  -0.002  -0.424  0.00  0.00     0.003 A 
ATOM      3  C3  I4B d   1       1.351  -0.326  -1.801  0.00  0.00     0.002 A 
ATOM      4  C4  I4B d   1       0.989   0.645  -2.711  0.00  0.00    -0.004 A 
ATOM      5  C5  I4B d   1       0.762   1.951  -2.286  0.00  0.00     0.002 A 
ATOM      6  C6  I4B d   1       0.866   2.274  -0.925  0.00  0.00     0.003 A 
ENDROOT
BRANCH   1   7
ATOM      7  C1' I4B d   1       1.217   1.581   1.461  0.00  0.00     0.060 C 
BRANCH   7   8
ATOM      8  C2' I4B d   1       0.257   2.721   1.734  0.00  0.00    -0.013 C 
ATOM      9  C4' I4B d   1      -0.789   2.323   2.742  0.00  0.00     0.013 C 
ATOM     10  C3' I4B d   1       1.057   3.894   2.218  0.00  0.00     0.013 C 
ENDBRANCH   7   8
ENDBRANCH   1   7
TORSDOF 2
ENDMDL
