MODEL 1
REMARK minimizedAffinity -3.29117537
REMARK minimizedRMSD -1
REMARK  2 active torsions:
REMARK  status: ('A' for Active; 'I' for Inactive)
REMARK    1  A    between atoms: C2'_3  and  C1'_4 
REMARK    2  A    between atoms: C1'_4  and  C1_5 
ROOT
ATOM      1  C1  I4B d   1       0.928   2.415  -0.851  0.00  0.00    -0.075 A 
ATOM      2  C2  I4B d   1       1.760   1.526  -1.484  0.00  0.00     0.003 A 
ATOM      3  C3  I4B d   1       2.002   0.250  -0.919  0.00  0.00     0.002 A 
ATOM      4  C4  I4B d   1       1.437  -0.073   0.297  0.00  0.00    -0.004 A 
ATOM      5  C5  I4B d   1       0.576   0.822   0.927  0.00  0.00     0.002 A 
ATOM      6  C6  I4B d   1       0.310   2.069   0.343  0.00  0.00     0.003 A 
ENDROOT
BRANCH   1   7
ATOM      7  C1' I4B d   1       0.720   3.766  -1.459  0.00  0.00     0.060 C 
BRANCH   7   8
ATOM      8  C2' I4B d   1       0.865   4.800  -0.361  0.00  0.00    -0.013 C 
ATOM      9  C4' I4B d   1       1.218   4.154   0.953  0.00  0.00     0.013 C 
ATOM     10  C3' I4B d   1       1.919   5.779  -0.783  0.00  0.00     0.013 C 
ENDBRANCH   7   8
ENDBRANCH   1   7
TORSDOF 2
ENDMDL
