MODEL 1
REMARK minimizedAffinity 4.14728785
REMARK minimizedRMSD -1
REMARK  2 active torsions:
REMARK  status: ('A' for Active; 'I' for Inactive)
REMARK    1  A    between atoms: C2'_3  and  C1'_4 
REMARK    2  A    between atoms: C1'_4  and  C1_5 
ROOT
ATOM      1  C1  I4B d   1       0.756   1.369  -1.139  0.00  0.00    -0.075 A 
ATOM      2  C2  I4B d   1       0.773  -0.003  -1.096  0.00  0.00     0.003 A 
ATOM      3  C3  I4B d   1       1.167  -0.674   0.087  0.00  0.00     0.002 A 
ATOM      4  C4  I4B d   1       1.583   0.061   1.179  0.00  0.00    -0.004 A 
ATOM      5  C5  I4B d   1       1.544   1.452   1.141  0.00  0.00     0.002 A 
ATOM      6  C6  I4B d   1       1.116   2.110  -0.021  0.00  0.00     0.003 A 
ENDROOT
BRANCH   1   7
ATOM      7  C1' I4B d   1       0.366   2.045  -2.415  0.00  0.00     0.060 C 
BRANCH   7   8
ATOM      8  C2' I4B d   1      -0.148   3.429  -2.073  0.00  0.00    -0.013 C 
ATOM      9  C4' I4B d   1       0.952   4.454  -2.157  0.00  0.00     0.013 C 
ATOM     10  C3' I4B d   1      -1.266   3.755  -3.017  0.00  0.00     0.013 C 
ENDBRANCH   7   8
ENDBRANCH   1   7
TORSDOF 2
ENDMDL
