MODEL 1
REMARK minimizedAffinity 4.11517811
REMARK minimizedRMSD -1
REMARK  2 active torsions:
REMARK  status: ('A' for Active; 'I' for Inactive)
REMARK    1  A    between atoms: C2'_3  and  C1'_4 
REMARK    2  A    between atoms: C1'_4  and  C1_5 
ROOT
ATOM      1  C1  I4B d   1       1.516   0.278  -0.794  0.00  0.00    -0.075 A 
ATOM      2  C2  I4B d   1       0.833   0.666   0.332  0.00  0.00     0.003 A 
ATOM      3  C3  I4B d   1       0.209   1.936   0.384  0.00  0.00     0.002 A 
ATOM      4  C4  I4B d   1       0.335   2.800  -0.684  0.00  0.00    -0.004 A 
ATOM      5  C5  I4B d   1       1.008   2.396  -1.833  0.00  0.00     0.002 A 
ATOM      6  C6  I4B d   1       1.592   1.123  -1.894  0.00  0.00     0.003 A 
ENDROOT
BRANCH   1   7
ATOM      7  C1' I4B d   1       2.191  -1.057  -0.803  0.00  0.00     0.060 C 
BRANCH   7   8
ATOM      8  C2' I4B d   1       3.461  -0.943   0.016  0.00  0.00    -0.013 C 
ATOM      9  C4' I4B d   1       4.167  -2.270   0.114  0.00  0.00     0.013 C 
ATOM     10  C3' I4B d   1       4.336   0.090  -0.628  0.00  0.00     0.013 C 
ENDBRANCH   7   8
ENDBRANCH   1   7
TORSDOF 2
ENDMDL
