MODEL 1
REMARK minimizedAffinity 7.63039255
REMARK minimizedRMSD -1
REMARK  2 active torsions:
REMARK  status: ('A' for Active; 'I' for Inactive)
REMARK    1  A    between atoms: C2'_3  and  C1'_4 
REMARK    2  A    between atoms: C1'_4  and  C1_5 
ROOT
ATOM      1  C1  I4B d   1       1.788   0.586  -0.366  0.00  0.00    -0.075 A 
ATOM      2  C2  I4B d   1       0.946   1.359   0.393  0.00  0.00     0.003 A 
ATOM      3  C3  I4B d   1       0.427   2.570  -0.126  0.00  0.00     0.002 A 
ATOM      4  C4  I4B d   1       0.814   2.992  -1.382  0.00  0.00    -0.004 A 
ATOM      5  C5  I4B d   1       1.650   2.195  -2.159  0.00  0.00     0.002 A 
ATOM      6  C6  I4B d   1       2.130   0.978  -1.654  0.00  0.00     0.003 A 
ENDROOT
BRANCH   1   7
ATOM      7  C1' I4B d   1       2.343  -0.670   0.226  0.00  0.00     0.060 C 
BRANCH   7   8
ATOM      8  C2' I4B d   1       3.693  -0.344   0.833  0.00  0.00    -0.013 C 
ATOM      9  C4' I4B d   1       4.583   0.353  -0.162  0.00  0.00     0.013 C 
ATOM     10  C3' I4B d   1       3.462   0.510   2.043  0.00  0.00     0.013 C 
ENDBRANCH   7   8
ENDBRANCH   1   7
TORSDOF 2
ENDMDL
