MODEL 1
REMARK minimizedAffinity 3.9895606
REMARK minimizedRMSD -1
REMARK  3 active torsions:
REMARK  status: ('A' for Active; 'I' for Inactive)
REMARK    1  A    between atoms: C3'_2  and  C2'_3 
REMARK    2  A    between atoms: C2'_3  and  C1'_4 
REMARK    3  A    between atoms: C1'_4  and  C1_5 
ROOT
ATOM      1  C1  N4B d   1      -3.333  -0.076  -5.182  0.00  0.00    -0.075 A 
ATOM      2  C2  N4B d   1      -4.672   0.230  -5.512  0.00  0.00     0.002 A 
ATOM      3  C3  N4B d   1      -5.701  -0.319  -4.787  0.00  0.00     0.002 A 
ATOM      4  C4  N4B d   1      -5.417  -1.187  -3.743  0.00  0.00    -0.004 A 
ATOM      5  C5  N4B d   1      -4.121  -1.457  -3.414  0.00  0.00     0.002 A 
ATOM      6  C6  N4B d   1      -3.077  -0.909  -4.132  0.00  0.00     0.002 A 
ENDROOT
BRANCH   1   7
ATOM      7  C1' N4B d   1      -2.178   0.432  -6.000  0.00  0.00     0.057 C 
BRANCH   7   8
ATOM      8  C2' N4B d   1      -1.915   1.892  -5.643  0.00  0.00     0.009 C 
BRANCH   8   9
ATOM      9  C3' N4B d   1      -3.138   2.557  -5.036  0.00  0.00     0.004 C 
ATOM     10  C4' N4B d   1      -2.805   3.410  -3.848  0.00  0.00     0.003 C 
ENDBRANCH   8   9
ENDBRANCH   7   8
ENDBRANCH   1   7
TORSDOF 3
ENDMDL
