MODEL 1
REMARK minimizedAffinity 7.06583881
REMARK minimizedRMSD -1
REMARK  1 active torsions:
REMARK  status: ('A' for Active; 'I' for Inactive)
REMARK    1  A    between atoms: N_2  and  C1_3 
ROOT
ATOM      1  C1  UNL d   1       0.763  -1.916   1.757  0.00  0.00     0.143 A 
ATOM      2  C2  UNL d   1      -0.255  -1.074   2.217  0.00  0.00    -0.057 A 
ATOM      3  C3  UNL d   1      -1.273  -1.553   3.050  0.00  0.00     0.033 A 
ATOM      4  C4  UNL d   1      -1.309  -2.895   3.413  0.00  0.00    -0.042 A 
ATOM      5  C5  UNL d   1      -0.322  -3.756   2.947  0.00  0.00     0.033 A 
ATOM      6  C6  UNL d   1       0.696  -3.270   2.121  0.00  0.00    -0.057 A 
ENDROOT
BRANCH   1   7
ATOM      7  N   UNL d   1       1.747  -1.522   0.848  0.00  0.00    -0.732 N 
ATOM      8  C   UNL d   1       1.554  -0.357   0.011  0.00  0.00     0.284 C 
ATOM      9  H3  UNL d   1       2.686  -1.608   1.231  0.00  0.00     0.395 HD
ENDBRANCH   1   7
TORSDOF 1
ENDMDL
