MODEL 1
REMARK minimizedAffinity -1.78730893
REMARK minimizedRMSD -1
REMARK  1 active torsions:
REMARK  status: ('A' for Active; 'I' for Inactive)
REMARK    1  A    between atoms: N_2  and  C1_3 
ROOT
ATOM      1  C1  UNL d   1      -0.114  -1.280   1.862  0.00  0.00     0.143 A 
ATOM      2  C2  UNL d   1      -0.515  -2.188   2.848  0.00  0.00    -0.057 A 
ATOM      3  C3  UNL d   1       0.067  -3.457   2.947  0.00  0.00     0.033 A 
ATOM      4  C4  UNL d   1       1.045  -3.853   2.039  0.00  0.00    -0.042 A 
ATOM      5  C5  UNL d   1       1.442  -2.976   1.036  0.00  0.00     0.033 A 
ATOM      6  C6  UNL d   1       0.861  -1.707   0.947  0.00  0.00    -0.057 A 
ENDROOT
BRANCH   1   7
ATOM      7  N   UNL d   1      -0.723  -0.041   1.651  0.00  0.00    -0.732 N 
ATOM      8  C   UNL d   1      -2.111   0.039   1.247  0.00  0.00     0.284 C 
ATOM      9  H3  UNL d   1      -0.453   0.649   2.349  0.00  0.00     0.395 HD
ENDBRANCH   1   7
TORSDOF 1
ENDMDL
