MODEL 1
REMARK minimizedAffinity -0.683988631
REMARK minimizedRMSD -1
REMARK  1 active torsions:
REMARK  status: ('A' for Active; 'I' for Inactive)
REMARK    1  A    between atoms: N_2  and  C1_3 
ROOT
ATOM      1  C1  UNL d   1       1.380  -2.555   1.144  0.00  0.00     0.143 A 
ATOM      2  C2  UNL d   1       1.703  -1.864  -0.029  0.00  0.00    -0.057 A 
ATOM      3  C3  UNL d   1       1.160  -0.603  -0.302  0.00  0.00     0.033 A 
ATOM      4  C4  UNL d   1       0.259  -0.021   0.583  0.00  0.00    -0.042 A 
ATOM      5  C5  UNL d   1      -0.097  -0.700   1.743  0.00  0.00     0.033 A 
ATOM      6  C6  UNL d   1       0.454  -1.956   2.013  0.00  0.00    -0.057 A 
ENDROOT
BRANCH   1   7
ATOM      7  N   UNL d   1       1.809  -3.854   1.425  0.00  0.00    -0.732 N 
ATOM      8  C   UNL d   1       3.104  -4.317   0.973  0.00  0.00     0.284 C 
ATOM      9  H3  UNL d   1       1.570  -4.146   2.370  0.00  0.00     0.395 HD
ENDBRANCH   1   7
TORSDOF 1
ENDMDL
