MODEL 1
REMARK minimizedAffinity -2.33425903
REMARK minimizedRMSD -1
REMARK  1 active torsions:
REMARK  status: ('A' for Active; 'I' for Inactive)
REMARK    1  A    between atoms: N_2  and  C1_3 
ROOT
ATOM      1  C1  UNL d   1       4.116   5.086   3.726  0.00  0.00     0.143 A 
ATOM      2  C2  UNL d   1       3.754   5.486   5.016  0.00  0.00    -0.057 A 
ATOM      3  C3  UNL d   1       2.455   5.925   5.303  0.00  0.00     0.033 A 
ATOM      4  C4  UNL d   1       1.501   5.999   4.293  0.00  0.00    -0.042 A 
ATOM      5  C5  UNL d   1       1.846   5.631   2.998  0.00  0.00     0.033 A 
ATOM      6  C6  UNL d   1       3.143   5.187   2.719  0.00  0.00    -0.057 A 
ENDROOT
BRANCH   1   7
ATOM      7  N   UNL d   1       5.417   4.733   3.357  0.00  0.00    -0.732 N 
ATOM      8  C   UNL d   1       5.997   5.235   2.130  0.00  0.00     0.284 C 
ATOM      9  H3  UNL d   1       6.057   4.729   4.148  0.00  0.00     0.395 HD
ENDBRANCH   1   7
TORSDOF 1
ENDMDL
