MODEL 1
REMARK minimizedAffinity 10.6417332
REMARK minimizedRMSD -1
REMARK  3 active torsions:
REMARK  status: ('A' for Active; 'I' for Inactive)
REMARK    1  A    between atoms: C3'_2  and  C2'_3 
REMARK    2  A    between atoms: C2'_3  and  C1'_4 
REMARK    3  A    between atoms: C1'_4  and  C1_5 
ROOT
ATOM      1  C1  N4B d   1      -0.807   3.589  -5.833  0.00  0.00    -0.075 A 
ATOM      2  C2  N4B d   1      -0.102   4.803  -5.986  0.00  0.00     0.002 A 
ATOM      3  C3  N4B d   1      -0.783   5.996  -5.999  0.00  0.00     0.002 A 
ATOM      4  C4  N4B d   1      -2.164   5.998  -5.879  0.00  0.00    -0.004 A 
ATOM      5  C5  N4B d   1      -2.836   4.824  -5.706  0.00  0.00     0.002 A 
ATOM      6  C6  N4B d   1      -2.164   3.618  -5.687  0.00  0.00     0.002 A 
ENDROOT
BRANCH   1   7
ATOM      7  C1' N4B d   1      -0.116   2.255  -5.899  0.00  0.00     0.057 C 
BRANCH   7   8
ATOM      8  C2' N4B d   1      -1.115   1.156  -5.551  0.00  0.00     0.009 C 
BRANCH   8   9
ATOM      9  C3' N4B d   1      -1.491   1.175  -4.079  0.00  0.00     0.004 C 
ATOM     10  C4' N4B d   1      -2.429   0.066  -3.705  0.00  0.00     0.003 C 
ENDBRANCH   8   9
ENDBRANCH   7   8
ENDBRANCH   1   7
TORSDOF 3
ENDMDL
