MODEL 1
REMARK minimizedAffinity 7.36189842
REMARK minimizedRMSD -1
REMARK  3 active torsions:
REMARK  status: ('A' for Active; 'I' for Inactive)
REMARK    1  A    between atoms: C3'_2  and  C2'_3 
REMARK    2  A    between atoms: C2'_3  and  C1'_4 
REMARK    3  A    between atoms: C1'_4  and  C1_5 
ROOT
ATOM      1  C1  N4B d   1       4.064   3.668   1.980  0.00  0.00    -0.075 A 
ATOM      2  C2  N4B d   1       5.023   2.864   2.635  0.00  0.00     0.002 A 
ATOM      3  C3  N4B d   1       5.974   3.445   3.437  0.00  0.00     0.002 A 
ATOM      4  C4  N4B d   1       5.998   4.824   3.583  0.00  0.00    -0.004 A 
ATOM      5  C5  N4B d   1       5.053   5.592   2.967  0.00  0.00     0.002 A 
ATOM      6  C6  N4B d   1       4.089   5.020   2.161  0.00  0.00     0.002 A 
ENDROOT
BRANCH   1   7
ATOM      7  C1' N4B d   1       3.058   3.086   1.025  0.00  0.00     0.057 C 
BRANCH   7   8
ATOM      8  C2' N4B d   1       3.519   3.344  -0.406  0.00  0.00     0.009 C 
BRANCH   8   9
ATOM      9  C3' N4B d   1       3.696   2.054  -1.188  0.00  0.00     0.004 C 
ATOM     10  C4' N4B d   1       5.132   1.764  -1.512  0.00  0.00     0.003 C 
ENDBRANCH   8   9
ENDBRANCH   7   8
ENDBRANCH   1   7
TORSDOF 3
ENDMDL
