MODEL 1
REMARK minimizedAffinity 4.99058533
REMARK minimizedRMSD -1
REMARK  3 active torsions:
REMARK  status: ('A' for Active; 'I' for Inactive)
REMARK    1  A    between atoms: C3'_2  and  C2'_3 
REMARK    2  A    between atoms: C2'_3  and  C1'_4 
REMARK    3  A    between atoms: C1'_4  and  C1_5 
ROOT
ATOM      1  C1  N4B d   1      -2.144  -3.653   0.271  0.00  0.00    -0.075 A 
ATOM      2  C2  N4B d   1      -2.365  -5.048   0.274  0.00  0.00     0.002 A 
ATOM      3  C3  N4B d   1      -3.160  -5.619  -0.689  0.00  0.00     0.002 A 
ATOM      4  C4  N4B d   1      -3.758  -4.817  -1.649  0.00  0.00    -0.004 A 
ATOM      5  C5  N4B d   1      -3.520  -3.474  -1.660  0.00  0.00     0.002 A 
ATOM      6  C6  N4B d   1      -2.719  -2.887  -0.701  0.00  0.00     0.002 A 
ENDROOT
BRANCH   1   7
ATOM      7  C1' N4B d   1      -1.352  -2.972   1.353  0.00  0.00     0.057 C 
BRANCH   7   8
ATOM      8  C2' N4B d   1      -1.430  -1.461   1.156  0.00  0.00     0.009 C 
BRANCH   8   9
ATOM      9  C3' N4B d   1      -0.072  -0.858   0.841  0.00  0.00     0.004 C 
ATOM     10  C4' N4B d   1       1.041  -1.860   0.919  0.00  0.00     0.003 C 
ENDBRANCH   8   9
ENDBRANCH   7   8
ENDBRANCH   1   7
TORSDOF 3
ENDMDL
