MODEL 1
REMARK minimizedAffinity -1.96437466
REMARK minimizedRMSD -1
REMARK  3 active torsions:
REMARK  status: ('A' for Active; 'I' for Inactive)
REMARK    1  A    between atoms: C3'_2  and  C2'_3 
REMARK    2  A    between atoms: C2'_3  and  C1'_4 
REMARK    3  A    between atoms: C1'_4  and  C1_5 
ROOT
ATOM      1  C1  N4B d   1       0.794   1.515   1.052  0.00  0.00    -0.075 A 
ATOM      2  C2  N4B d   1      -0.571   1.871   0.996  0.00  0.00     0.002 A 
ATOM      3  C3  N4B d   1      -1.420   1.205   0.146  0.00  0.00     0.002 A 
ATOM      4  C4  N4B d   1      -0.924   0.197  -0.667  0.00  0.00    -0.004 A 
ATOM      5  C5  N4B d   1       0.391  -0.158  -0.588  0.00  0.00     0.002 A 
ATOM      6  C6  N4B d   1       1.254   0.500   0.265  0.00  0.00     0.002 A 
ENDROOT
BRANCH   1   7
ATOM      7  C1' N4B d   1       1.778   2.272   1.903  0.00  0.00     0.057 C 
BRANCH   7   8
ATOM      8  C2' N4B d   1       3.041   2.540   1.090  0.00  0.00     0.009 C 
BRANCH   8   9
ATOM      9  C3' N4B d   1       4.000   3.464   1.820  0.00  0.00     0.004 C 
ATOM     10  C4' N4B d   1       4.674   4.442   0.904  0.00  0.00     0.003 C 
ENDBRANCH   8   9
ENDBRANCH   7   8
ENDBRANCH   1   7
TORSDOF 3
ENDMDL
