MODEL 1
REMARK minimizedAffinity 8.18880653
REMARK minimizedRMSD -1
REMARK  3 active torsions:
REMARK  status: ('A' for Active; 'I' for Inactive)
REMARK    1  A    between atoms: C3'_2  and  C2'_3 
REMARK    2  A    between atoms: C2'_3  and  C1'_4 
REMARK    3  A    between atoms: C1'_4  and  C1_5 
ROOT
ATOM      1  C1  N4B d   1       4.038   2.949  -5.940  0.00  0.00    -0.075 A 
ATOM      2  C2  N4B d   1       3.255   4.124  -5.964  0.00  0.00     0.002 A 
ATOM      3  C3  N4B d   1       3.863   5.355  -6.000  0.00  0.00     0.002 A 
ATOM      4  C4  N4B d   1       5.248   5.436  -5.993  0.00  0.00    -0.004 A 
ATOM      5  C5  N4B d   1       5.997   4.296  -5.995  0.00  0.00     0.002 A 
ATOM      6  C6  N4B d   1       5.399   3.052  -5.963  0.00  0.00     0.002 A 
ENDROOT
BRANCH   1   7
ATOM      7  C1' N4B d   1       3.419   1.584  -5.814  0.00  0.00     0.057 C 
BRANCH   7   8
ATOM      8  C2' N4B d   1       3.160   1.286  -4.340  0.00  0.00     0.009 C 
BRANCH   8   9
ATOM      9  C3' N4B d   1       1.700   0.962  -4.074  0.00  0.00     0.004 C 
ATOM     10  C4' N4B d   1       1.303   1.202  -2.648  0.00  0.00     0.003 C 
ENDBRANCH   8   9
ENDBRANCH   7   8
ENDBRANCH   1   7
TORSDOF 3
ENDMDL
