MODEL 1
REMARK minimizedAffinity 3.99296165
REMARK minimizedRMSD -1
REMARK  3 active torsions:
REMARK  status: ('A' for Active; 'I' for Inactive)
REMARK    1  A    between atoms: C3'_2  and  C2'_3 
REMARK    2  A    between atoms: C2'_3  and  C1'_4 
REMARK    3  A    between atoms: C1'_4  and  C1_5 
ROOT
ATOM      1  C1  N4B d   1      -1.833  -5.126  -3.219  0.00  0.00    -0.075 A 
ATOM      2  C2  N4B d   1      -1.864  -3.729  -3.015  0.00  0.00     0.002 A 
ATOM      3  C3  N4B d   1      -2.859  -3.168  -2.253  0.00  0.00     0.002 A 
ATOM      4  C4  N4B d   1      -3.841  -3.978  -1.702  0.00  0.00    -0.004 A 
ATOM      5  C5  N4B d   1      -3.789  -5.330  -1.882  0.00  0.00     0.002 A 
ATOM      6  C6  N4B d   1      -2.793  -5.908  -2.643  0.00  0.00     0.002 A 
ENDROOT
BRANCH   1   7
ATOM      7  C1' N4B d   1      -0.815  -5.776  -4.115  0.00  0.00     0.057 C 
BRANCH   7   8
ATOM      8  C2' N4B d   1       0.572  -5.607  -3.502  0.00  0.00     0.009 C 
BRANCH   8   9
ATOM      9  C3' N4B d   1       1.674  -5.999  -4.471  0.00  0.00     0.004 C 
ATOM     10  C4' N4B d   1       2.989  -5.355  -4.147  0.00  0.00     0.003 C 
ENDBRANCH   8   9
ENDBRANCH   7   8
ENDBRANCH   1   7
TORSDOF 3
ENDMDL
