MODEL 1
REMARK minimizedAffinity 3.88463449
REMARK minimizedRMSD -1
REMARK  3 active torsions:
REMARK  status: ('A' for Active; 'I' for Inactive)
REMARK    1  A    between atoms: C3'_2  and  C2'_3 
REMARK    2  A    between atoms: C2'_3  and  C1'_4 
REMARK    3  A    between atoms: C1'_4  and  C1_5 
ROOT
ATOM      1  C1  N4B d   1       2.404   2.666   1.805  0.00  0.00    -0.075 A 
ATOM      2  C2  N4B d   1       2.580   1.474   1.068  0.00  0.00     0.002 A 
ATOM      3  C3  N4B d   1       1.493   0.699   0.746  0.00  0.00     0.002 A 
ATOM      4  C4  N4B d   1       0.228   1.084   1.166  0.00  0.00    -0.004 A 
ATOM      5  C5  N4B d   1       0.064   2.250   1.855  0.00  0.00     0.002 A 
ATOM      6  C6  N4B d   1       1.147   3.041   2.182  0.00  0.00     0.002 A 
ENDROOT
BRANCH   1   7
ATOM      7  C1' N4B d   1       3.572   3.502   2.254  0.00  0.00     0.057 C 
BRANCH   7   8
ATOM      8  C2' N4B d   1       3.071   4.885   2.660  0.00  0.00     0.009 C 
BRANCH   8   9
ATOM      9  C3' N4B d   1       3.750   5.387   3.923  0.00  0.00     0.004 C 
ATOM     10  C4' N4B d   1       2.787   5.998   4.896  0.00  0.00     0.003 C 
ENDBRANCH   8   9
ENDBRANCH   7   8
ENDBRANCH   1   7
TORSDOF 3
ENDMDL
