MODEL 1
REMARK minimizedAffinity 8.34271336
REMARK minimizedRMSD -1
REMARK  3 active torsions:
REMARK  status: ('A' for Active; 'I' for Inactive)
REMARK    1  A    between atoms: C3'_2  and  C2'_3 
REMARK    2  A    between atoms: C2'_3  and  C1'_4 
REMARK    3  A    between atoms: C1'_4  and  C1_5 
ROOT
ATOM      1  C1  N4B d   1      -3.047  -1.298   2.036  0.00  0.00    -0.075 A 
ATOM      2  C2  N4B d   1      -2.223  -2.270   1.427  0.00  0.00     0.002 A 
ATOM      3  C3  N4B d   1      -1.714  -3.304   2.175  0.00  0.00     0.002 A 
ATOM      4  C4  N4B d   1      -1.998  -3.375   3.530  0.00  0.00    -0.004 A 
ATOM      5  C5  N4B d   1      -2.815  -2.446   4.105  0.00  0.00     0.002 A 
ATOM      6  C6  N4B d   1      -3.337  -1.404   3.365  0.00  0.00     0.002 A 
ENDROOT
BRANCH   1   7
ATOM      7  C1' N4B d   1      -3.557  -0.103   1.279  0.00  0.00     0.057 C 
BRANCH   7   8
ATOM      8  C2' N4B d   1      -2.404   0.528   0.503  0.00  0.00     0.009 C 
BRANCH   8   9
ATOM      9  C3' N4B d   1      -1.733   1.642   1.287  0.00  0.00     0.004 C 
ATOM     10  C4' N4B d   1      -0.277   1.382   1.534  0.00  0.00     0.003 C 
ENDBRANCH   8   9
ENDBRANCH   7   8
ENDBRANCH   1   7
TORSDOF 3
ENDMDL
