MODEL 1
REMARK minimizedAffinity 11.817874
REMARK minimizedRMSD -1
REMARK  3 active torsions:
REMARK  status: ('A' for Active; 'I' for Inactive)
REMARK    1  A    between atoms: C3'_2  and  C2'_3 
REMARK    2  A    between atoms: C2'_3  and  C1'_4 
REMARK    3  A    between atoms: C1'_4  and  C1_5 
ROOT
ATOM      1  C1  N4B d   1       5.583   3.741  -0.309  0.00  0.00    -0.075 A 
ATOM      2  C2  N4B d   1       5.980   2.998   0.823  0.00  0.00     0.002 A 
ATOM      3  C3  N4B d   1       5.663   3.444   2.083  0.00  0.00     0.002 A 
ATOM      4  C4  N4B d   1       4.969   4.635   2.235  0.00  0.00    -0.004 A 
ATOM      5  C5  N4B d   1       4.567   5.334   1.135  0.00  0.00     0.002 A 
ATOM      6  C6  N4B d   1       4.875   4.896  -0.138  0.00  0.00     0.002 A 
ENDROOT
BRANCH   1   7
ATOM      7  C1' N4B d   1       5.980   3.338  -1.703  0.00  0.00     0.057 C 
BRANCH   7   8
ATOM      8  C2' N4B d   1       4.738   2.894  -2.469  0.00  0.00     0.009 C 
BRANCH   8   9
ATOM      9  C3' N4B d   1       4.879   1.482  -3.012  0.00  0.00     0.004 C 
ATOM     10  C4' N4B d   1       3.652   1.012  -3.734  0.00  0.00     0.003 C 
ENDBRANCH   8   9
ENDBRANCH   7   8
ENDBRANCH   1   7
TORSDOF 3
ENDMDL
