MODEL 1
REMARK minimizedAffinity 3.02242279
REMARK minimizedRMSD -1
REMARK  3 active torsions:
REMARK  status: ('A' for Active; 'I' for Inactive)
REMARK    1  A    between atoms: C3'_2  and  C2'_3 
REMARK    2  A    between atoms: C2'_3  and  C1'_4 
REMARK    3  A    between atoms: C1'_4  and  C1_5 
ROOT
ATOM      1  C1  N4B d   1      -0.656   2.509   3.246  0.00  0.00    -0.075 A 
ATOM      2  C2  N4B d   1      -1.769   2.285   2.406  0.00  0.00     0.002 A 
ATOM      3  C3  N4B d   1      -1.603   1.650   1.200  0.00  0.00     0.002 A 
ATOM      4  C4  N4B d   1      -0.335   1.248   0.805  0.00  0.00    -0.004 A 
ATOM      5  C5  N4B d   1       0.731   1.445   1.634  0.00  0.00     0.002 A 
ATOM      6  C6  N4B d   1       0.578   2.078   2.850  0.00  0.00     0.002 A 
ENDROOT
BRANCH   1   7
ATOM      7  C1' N4B d   1      -0.774   3.275   4.535  0.00  0.00     0.057 C 
BRANCH   7   8
ATOM      8  C2' N4B d   1       0.594   3.834   4.913  0.00  0.00     0.009 C 
BRANCH   8   9
ATOM      9  C3' N4B d   1       0.480   5.102   5.742  0.00  0.00     0.004 C 
ATOM     10  C4' N4B d   1       1.789   5.819   5.889  0.00  0.00     0.003 C 
ENDBRANCH   8   9
ENDBRANCH   7   8
ENDBRANCH   1   7
TORSDOF 3
ENDMDL
