MODEL 1
REMARK minimizedAffinity 17.296381
REMARK minimizedRMSD -1
REMARK  3 active torsions:
REMARK  status: ('A' for Active; 'I' for Inactive)
REMARK    1  A    between atoms: C3'_2  and  C2'_3 
REMARK    2  A    between atoms: C2'_3  and  C1'_4 
REMARK    3  A    between atoms: C1'_4  and  C1_5 
ROOT
ATOM      1  C1  N4B d   1      -2.918  -3.477   0.821  0.00  0.00    -0.075 A 
ATOM      2  C2  N4B d   1      -2.622  -4.853   0.937  0.00  0.00     0.002 A 
ATOM      3  C3  N4B d   1      -3.143  -5.746   0.033  0.00  0.00     0.002 A 
ATOM      4  C4  N4B d   1      -3.973  -5.291  -0.980  0.00  0.00    -0.004 A 
ATOM      5  C5  N4B d   1      -4.233  -3.957  -1.101  0.00  0.00     0.002 A 
ATOM      6  C6  N4B d   1      -3.714  -3.048  -0.201  0.00  0.00     0.002 A 
ENDROOT
BRANCH   1   7
ATOM      7  C1' N4B d   1      -2.442  -2.474   1.836  0.00  0.00     0.057 C 
BRANCH   7   8
ATOM      8  C2' N4B d   1      -3.425  -1.309   1.888  0.00  0.00     0.009 C 
BRANCH   8   9
ATOM      9  C3' N4B d   1      -2.730   0.007   2.196  0.00  0.00     0.004 C 
ATOM     10  C4' N4B d   1      -3.652   1.186   2.101  0.00  0.00     0.003 C 
ENDBRANCH   8   9
ENDBRANCH   7   8
ENDBRANCH   1   7
TORSDOF 3
ENDMDL
