MODEL 1
REMARK minimizedAffinity -2.59819865
REMARK minimizedRMSD -1
REMARK  0 active torsions:
REMARK  status: ('A' for Active; 'I' for Inactive)
ROOT
ATOM      1  C   UNL d   1      -1.165   1.579   2.314  0.00  0.00    -0.002 A 
ATOM      2  C1  UNL d   1       0.171   1.605   2.688  0.00  0.00     0.010 A 
ATOM      3  C2  UNL d   1       1.131   0.921   1.941  0.00  0.00     0.041 A 
ATOM      4  C3  UNL d   1       0.723   0.205   0.799  0.00  0.00    -0.075 A 
ATOM      5  S   UNL d   1       1.723  -0.707  -0.270  0.00  0.00     0.015 SA
ATOM      6  C4  UNL d   1       0.401  -1.152  -1.248  0.00  0.00     0.022 A 
ATOM      7  C5  UNL d   1      -0.783  -0.627  -0.786  0.00  0.00     0.026 A 
ATOM      8  C6  UNL d   1      -0.617   0.164   0.401  0.00  0.00    -0.082 A 
ATOM      9  C7  UNL d   1      -1.567   0.867   1.181  0.00  0.00     0.045 A 
ENDROOT
TORSDOF 0
ENDMDL
