MODEL 1
REMARK minimizedAffinity -3.25337744
REMARK minimizedRMSD -1
REMARK  0 active torsions:
REMARK  status: ('A' for Active; 'I' for Inactive)
ROOT
ATOM      1  C   UNL d   1      -2.167   0.762   1.681  0.00  0.00    -0.002 A 
ATOM      2  C1  UNL d   1      -1.133   1.461   2.287  0.00  0.00     0.010 A 
ATOM      3  C2  UNL d   1       0.070   1.677   1.612  0.00  0.00     0.041 A 
ATOM      4  C3  UNL d   1       0.217   1.176   0.304  0.00  0.00    -0.075 A 
ATOM      5  S   UNL d   1       1.600   1.321  -0.716  0.00  0.00     0.015 SA
ATOM      6  C4  UNL d   1       0.850   0.459  -1.981  0.00  0.00     0.022 A 
ATOM      7  C5  UNL d   1      -0.424   0.063  -1.650  0.00  0.00     0.026 A 
ATOM      8  C6  UNL d   1      -0.810   0.470  -0.328  0.00  0.00    -0.082 A 
ATOM      9  C7  UNL d   1      -2.017   0.266   0.383  0.00  0.00     0.045 A 
ENDROOT
TORSDOF 0
ENDMDL
