MODEL 1
REMARK minimizedAffinity -2.29441714
REMARK minimizedRMSD -1
REMARK  0 active torsions:
REMARK  status: ('A' for Active; 'I' for Inactive)
ROOT
ATOM      1  C   UNL d   1      -1.370   0.728   2.379  0.00  0.00    -0.002 A 
ATOM      2  C1  UNL d   1      -0.437   1.732   2.165  0.00  0.00     0.010 A 
ATOM      3  C2  UNL d   1       0.362   1.726   1.020  0.00  0.00     0.041 A 
ATOM      4  C3  UNL d   1       0.204   0.686   0.083  0.00  0.00    -0.075 A 
ATOM      5  S   UNL d   1       1.071   0.474  -1.392  0.00  0.00     0.015 SA
ATOM      6  C4  UNL d   1       0.222  -0.954  -1.773  0.00  0.00     0.022 A 
ATOM      7  C5  UNL d   1      -0.704  -1.276  -0.809  0.00  0.00     0.026 A 
ATOM      8  C6  UNL d   1      -0.730  -0.336   0.276  0.00  0.00    -0.082 A 
ATOM      9  C7  UNL d   1      -1.524  -0.303   1.448  0.00  0.00     0.045 A 
ENDROOT
TORSDOF 0
ENDMDL
