MODEL 1
REMARK minimizedAffinity 0.820700705
REMARK minimizedRMSD -1
REMARK  0 active torsions:
REMARK  status: ('A' for Active; 'I' for Inactive)
ROOT
ATOM      1  C   UNL d   1       2.926  -0.089   1.943  0.00  0.00    -0.002 A 
ATOM      2  C1  UNL d   1       2.222   1.095   2.114  0.00  0.00     0.010 A 
ATOM      3  C2  UNL d   1       1.063   1.344   1.377  0.00  0.00     0.041 A 
ATOM      4  C3  UNL d   1       0.617   0.374   0.459  0.00  0.00    -0.075 A 
ATOM      5  S   UNL d   1      -0.778   0.462  -0.551  0.00  0.00     0.015 SA
ATOM      6  C4  UNL d   1      -0.473  -1.070  -1.233  0.00  0.00     0.022 A 
ATOM      7  C5  UNL d   1       0.661  -1.649  -0.714  0.00  0.00     0.026 A 
ATOM      8  C6  UNL d   1       1.307  -0.827   0.270  0.00  0.00    -0.082 A 
ATOM      9  C7  UNL d   1       2.480  -1.050   1.031  0.00  0.00     0.045 A 
ENDROOT
TORSDOF 0
ENDMDL
