MODEL 1
REMARK minimizedAffinity -2.50815272
REMARK minimizedRMSD -1
REMARK  0 active torsions:
REMARK  status: ('A' for Active; 'I' for Inactive)
ROOT
ATOM      1  C   UNL d   1      -1.961  -0.381   0.849  0.00  0.00    -0.002 A 
ATOM      2  C1  UNL d   1      -1.644   0.281   2.027  0.00  0.00     0.010 A 
ATOM      3  C2  UNL d   1      -0.346   0.236   2.539  0.00  0.00     0.041 A 
ATOM      4  C3  UNL d   1       0.638  -0.490   1.841  0.00  0.00    -0.075 A 
ATOM      5  S   UNL d   1       2.295  -0.683   2.279  0.00  0.00     0.015 SA
ATOM      6  C4  UNL d   1       2.621  -1.648   0.912  0.00  0.00     0.022 A 
ATOM      7  C5  UNL d   1       1.505  -1.829   0.130  0.00  0.00     0.026 A 
ATOM      8  C6  UNL d   1       0.344  -1.164   0.652  0.00  0.00    -0.082 A 
ATOM      9  C7  UNL d   1      -0.982  -1.101   0.159  0.00  0.00     0.045 A 
ENDROOT
TORSDOF 0
ENDMDL
