MODEL 1
REMARK minimizedAffinity -4.05412292
REMARK minimizedRMSD -1
REMARK  0 active torsions:
REMARK  status: ('A' for Active; 'I' for Inactive)
ROOT
ATOM      1  C   UNL d   1       0.018   1.222   1.959  0.00  0.00    -0.002 A 
ATOM      2  C1  UNL d   1      -0.439   2.223   1.113  0.00  0.00     0.010 A 
ATOM      3  C2  UNL d   1      -0.416   2.047  -0.272  0.00  0.00     0.041 A 
ATOM      4  C3  UNL d   1       0.076   0.836  -0.797  0.00  0.00    -0.075 A 
ATOM      5  S   UNL d   1       0.198   0.398  -2.460  0.00  0.00     0.015 SA
ATOM      6  C4  UNL d   1       0.859  -1.128  -2.087  0.00  0.00     0.022 A 
ATOM      7  C5  UNL d   1       0.990  -1.316  -0.731  0.00  0.00     0.026 A 
ATOM      8  C6  UNL d   1       0.540  -0.187   0.035  0.00  0.00    -0.082 A 
ATOM      9  C7  UNL d   1       0.505   0.022   1.434  0.00  0.00     0.045 A 
ENDROOT
TORSDOF 0
ENDMDL
