MODEL 1
REMARK minimizedAffinity 3.39611411
REMARK minimizedRMSD -1
REMARK  0 active torsions:
REMARK  status: ('A' for Active; 'I' for Inactive)
ROOT
ATOM      1  C   UNL d   1       1.199  -1.152   3.842  0.00  0.00     0.078 C 
ATOM      2  C1  UNL d   1       0.036  -0.710   3.005  0.00  0.00    -0.077 A 
ATOM      3  C2  UNL d   1       0.209  -0.348   1.664  0.00  0.00    -0.001 A 
ATOM      4  C3  UNL d   1      -0.881   0.071   0.899  0.00  0.00     0.003 A 
ATOM      5  C4  UNL d   1      -2.152   0.134   1.468  0.00  0.00    -0.005 A 
ATOM      6  C5  UNL d   1      -2.333  -0.223   2.803  0.00  0.00     0.003 A 
ATOM      7  C6  UNL d   1      -1.244  -0.642   3.569  0.00  0.00    -0.001 A 
ENDROOT
TORSDOF 0
ENDMDL
