MODEL 1
REMARK minimizedAffinity 6.17823124
REMARK minimizedRMSD -1
REMARK  0 active torsions:
REMARK  status: ('A' for Active; 'I' for Inactive)
ROOT
ATOM      1  C   UNL d   1      -3.784  -1.640   3.053  0.00  0.00     0.078 C 
ATOM      2  C1  UNL d   1      -3.238  -0.873   1.886  0.00  0.00    -0.077 A 
ATOM      3  C2  UNL d   1      -3.422  -1.326   0.574  0.00  0.00    -0.001 A 
ATOM      4  C3  UNL d   1      -2.900  -0.607  -0.502  0.00  0.00     0.003 A 
ATOM      5  C4  UNL d   1      -2.190   0.571  -0.277  0.00  0.00    -0.005 A 
ATOM      6  C5  UNL d   1      -2.000   1.029   1.025  0.00  0.00     0.003 A 
ATOM      7  C6  UNL d   1      -2.521   0.311   2.102  0.00  0.00    -0.001 A 
ENDROOT
TORSDOF 0
ENDMDL
