MODEL 1
REMARK minimizedAffinity 1.60410929
REMARK minimizedRMSD -1
REMARK  0 active torsions:
REMARK  status: ('A' for Active; 'I' for Inactive)
ROOT
ATOM      1  C   UNL d   1       1.090  -1.253   3.435  0.00  0.00     0.078 C 
ATOM      2  C1  UNL d   1       0.085  -0.655   2.497  0.00  0.00    -0.077 A 
ATOM      3  C2  UNL d   1       0.444  -0.284   1.195  0.00  0.00    -0.001 A 
ATOM      4  C3  UNL d   1      -0.500   0.281   0.336  0.00  0.00     0.003 A 
ATOM      5  C4  UNL d   1      -1.809   0.480   0.769  0.00  0.00    -0.005 A 
ATOM      6  C5  UNL d   1      -2.175   0.116   2.063  0.00  0.00     0.003 A 
ATOM      7  C6  UNL d   1      -1.233  -0.449   2.924  0.00  0.00    -0.001 A 
ENDROOT
TORSDOF 0
ENDMDL
