MODEL 1
REMARK minimizedAffinity 3.43431091
REMARK minimizedRMSD -1
REMARK  0 active torsions:
REMARK  status: ('A' for Active; 'I' for Inactive)
ROOT
ATOM      1  C   UNL d   1       1.149  -0.084   0.354  0.00  0.00     0.078 C 
ATOM      2  C1  UNL d   1      -0.349  -0.085   0.421  0.00  0.00    -0.077 A 
ATOM      3  C2  UNL d   1      -1.020   0.318   1.583  0.00  0.00    -0.001 A 
ATOM      4  C3  UNL d   1      -2.414   0.304   1.634  0.00  0.00     0.003 A 
ATOM      5  C4  UNL d   1      -3.151  -0.114   0.527  0.00  0.00    -0.005 A 
ATOM      6  C5  UNL d   1      -2.493  -0.518  -0.632  0.00  0.00     0.003 A 
ATOM      7  C6  UNL d   1      -1.098  -0.505  -0.685  0.00  0.00    -0.001 A 
ENDROOT
TORSDOF 0
ENDMDL
