MODEL 1
REMARK minimizedAffinity 0.544194102
REMARK minimizedRMSD -1
REMARK  0 active torsions:
REMARK  status: ('A' for Active; 'I' for Inactive)
ROOT
ATOM      1  C   UNL d   1       0.593  -0.109   2.095  0.00  0.00     0.078 C 
ATOM      2  C1  UNL d   1      -0.754  -0.535   2.596  0.00  0.00    -0.077 A 
ATOM      3  C2  UNL d   1      -0.883  -1.280   3.775  0.00  0.00    -0.001 A 
ATOM      4  C3  UNL d   1      -2.143  -1.678   4.224  0.00  0.00     0.003 A 
ATOM      5  C4  UNL d   1      -3.284  -1.336   3.501  0.00  0.00    -0.005 A 
ATOM      6  C5  UNL d   1      -3.166  -0.596   2.327  0.00  0.00     0.003 A 
ATOM      7  C6  UNL d   1      -1.906  -0.197   1.875  0.00  0.00    -0.001 A 
ENDROOT
TORSDOF 0
ENDMDL
