MODEL 1
REMARK minimizedAffinity -1.51571453
REMARK minimizedRMSD -1
REMARK  0 active torsions:
REMARK  status: ('A' for Active; 'I' for Inactive)
ROOT
ATOM      1  C   UNL d   1      -3.608  -1.493   3.442  0.00  0.00     0.078 C 
ATOM      2  C1  UNL d   1      -2.315  -0.916   2.948  0.00  0.00    -0.077 A 
ATOM      3  C2  UNL d   1      -2.301   0.120   2.007  0.00  0.00    -0.001 A 
ATOM      4  C3  UNL d   1      -1.089   0.641   1.548  0.00  0.00     0.003 A 
ATOM      5  C4  UNL d   1       0.117   0.131   2.025  0.00  0.00    -0.005 A 
ATOM      6  C5  UNL d   1       0.112  -0.902   2.960  0.00  0.00     0.003 A 
ATOM      7  C6  UNL d   1      -1.098  -1.424   3.420  0.00  0.00    -0.001 A 
ENDROOT
TORSDOF 0
ENDMDL
