MODEL 1
REMARK minimizedAffinity 0.754865348
REMARK minimizedRMSD -1
REMARK  0 active torsions:
REMARK  status: ('A' for Active; 'I' for Inactive)
ROOT
ATOM      1  C   UNL d   1       0.584  -0.977   3.973  0.00  0.00     0.078 C 
ATOM      2  C1  UNL d   1      -0.275  -0.525   2.831  0.00  0.00    -0.077 A 
ATOM      3  C2  UNL d   1      -1.639  -0.264   3.014  0.00  0.00    -0.001 A 
ATOM      4  C3  UNL d   1      -2.429   0.147   1.939  0.00  0.00     0.003 A 
ATOM      5  C4  UNL d   1      -1.865   0.300   0.674  0.00  0.00    -0.005 A 
ATOM      6  C5  UNL d   1      -0.510   0.040   0.482  0.00  0.00     0.003 A 
ATOM      7  C6  UNL d   1       0.282  -0.371   1.555  0.00  0.00    -0.001 A 
ENDROOT
TORSDOF 0
ENDMDL
