MODEL 1
REMARK minimizedAffinity -2.01426005
REMARK minimizedRMSD -1
REMARK  0 active torsions:
REMARK  status: ('A' for Active; 'I' for Inactive)
ROOT
ATOM      1  C   UNL d   1       2.997   5.999   1.862  0.00  0.00     0.078 C 
ATOM      2  C1  UNL d   1       3.973   5.299   2.759  0.00  0.00    -0.077 A 
ATOM      3  C2  UNL d   1       5.018   5.999   3.375  0.00  0.00    -0.001 A 
ATOM      4  C3  UNL d   1       5.925   5.333   4.200  0.00  0.00     0.003 A 
ATOM      5  C4  UNL d   1       5.798   3.962   4.417  0.00  0.00    -0.005 A 
ATOM      6  C5  UNL d   1       4.763   3.256   3.807  0.00  0.00     0.003 A 
ATOM      7  C6  UNL d   1       3.855   3.921   2.981  0.00  0.00    -0.001 A 
ENDROOT
TORSDOF 0
ENDMDL
