MODEL 1
REMARK minimizedAffinity -1.93702006
REMARK minimizedRMSD -1
REMARK  0 active torsions:
REMARK  status: ('A' for Active; 'I' for Inactive)
ROOT
ATOM      1  C   UNL d   1       0.151  -0.980   3.698  0.00  0.00     0.078 C 
ATOM      2  C1  UNL d   1      -0.603  -0.608   2.456  0.00  0.00    -0.077 A 
ATOM      3  C2  UNL d   1      -1.894  -0.070   2.530  0.00  0.00    -0.001 A 
ATOM      4  C3  UNL d   1      -2.588   0.262   1.365  0.00  0.00     0.003 A 
ATOM      5  C4  UNL d   1      -1.999   0.060   0.118  0.00  0.00    -0.005 A 
ATOM      6  C5  UNL d   1      -0.716  -0.476   0.035  0.00  0.00     0.003 A 
ATOM      7  C6  UNL d   1      -0.021  -0.809   1.198  0.00  0.00    -0.001 A 
ENDROOT
TORSDOF 0
ENDMDL
