MODEL 1
REMARK minimizedAffinity 0.491966099
REMARK minimizedRMSD -1
REMARK  0 active torsions:
REMARK  status: ('A' for Active; 'I' for Inactive)
ROOT
ATOM      1  O1  BZF d   1      -6.000  -1.163   5.950  0.00  0.00    -0.204 OA
ATOM      2  C2  BZF d   1      -6.000  -2.543   6.000  0.00  0.00     0.174 A 
ATOM      3  C3  BZF d   1      -5.582  -3.064   4.828  0.00  0.00    -0.012 A 
ATOM      4  C3A BZF d   1      -5.216  -1.938   4.025  0.00  0.00    -0.107 A 
ATOM      5  C4  BZF d   1      -4.713  -1.810   2.762  0.00  0.00     0.055 A 
ATOM      6  C5  BZF d   1      -4.535  -0.566   2.245  0.00  0.00    -0.016 A 
ATOM      7  C6  BZF d   1      -4.853   0.570   2.960  0.00  0.00     0.022 A 
ATOM      8  C7  BZF d   1      -5.350   0.493   4.219  0.00  0.00     0.029 A 
ATOM      9  C7A BZF d   1      -5.501  -0.762   4.756  0.00  0.00     0.058 A 
ENDROOT
TORSDOF 0
ENDMDL
