MODEL 1
REMARK minimizedAffinity 9.34755516
REMARK minimizedRMSD -1
REMARK  0 active torsions:
REMARK  status: ('A' for Active; 'I' for Inactive)
ROOT
ATOM      1  O1  BZF d   1      -3.420  -3.996  -5.968  0.00  0.00    -0.204 OA
ATOM      2  C2  BZF d   1      -3.458  -5.376  -5.953  0.00  0.00     0.174 A 
ATOM      3  C3  BZF d   1      -2.210  -5.889  -5.977  0.00  0.00    -0.012 A 
ATOM      4  C3A BZF d   1      -1.337  -4.757  -5.914  0.00  0.00    -0.107 A 
ATOM      5  C4  BZF d   1       0.021  -4.620  -5.889  0.00  0.00     0.055 A 
ATOM      6  C5  BZF d   1       0.559  -3.372  -5.901  0.00  0.00    -0.016 A 
ATOM      7  C6  BZF d   1      -0.230  -2.242  -5.945  0.00  0.00     0.022 A 
ATOM      8  C7  BZF d   1      -1.582  -2.327  -5.966  0.00  0.00     0.029 A 
ATOM      9  C7A BZF d   1      -2.130  -3.586  -5.920  0.00  0.00     0.058 A 
ENDROOT
TORSDOF 0
ENDMDL
