MODEL 1
REMARK minimizedAffinity 12.9348383
REMARK minimizedRMSD -1
REMARK  0 active torsions:
REMARK  status: ('A' for Active; 'I' for Inactive)
ROOT
ATOM      1  O1  BZF d   1       0.547   2.090  -0.877  0.00  0.00    -0.204 OA
ATOM      2  C2  BZF d   1       0.542   2.027   0.503  0.00  0.00     0.174 A 
ATOM      3  C3  BZF d   1      -0.056   3.116   1.028  0.00  0.00    -0.012 A 
ATOM      4  C3A BZF d   1      -0.531   3.864  -0.095  0.00  0.00    -0.107 A 
ATOM      5  C4  BZF d   1      -1.221   5.036  -0.219  0.00  0.00     0.055 A 
ATOM      6  C5  BZF d   1      -1.464   5.531  -1.462  0.00  0.00    -0.016 A 
ATOM      7  C6  BZF d   1      -1.029   4.883  -2.599  0.00  0.00     0.022 A 
ATOM      8  C7  BZF d   1      -0.345   3.716  -2.527  0.00  0.00     0.029 A 
ATOM      9  C7A BZF d   1      -0.126   3.196  -1.274  0.00  0.00     0.058 A 
ENDROOT
TORSDOF 0
ENDMDL
