MODEL 1
REMARK minimizedAffinity 9.73781109
REMARK minimizedRMSD -1
REMARK  0 active torsions:
REMARK  status: ('A' for Active; 'I' for Inactive)
ROOT
ATOM      1  O1  BZF d   1      -1.030   3.445   1.020  0.00  0.00    -0.204 OA
ATOM      2  C2  BZF d   1      -0.369   2.255   0.782  0.00  0.00     0.174 A 
ATOM      3  C3  BZF d   1       0.101   2.214  -0.481  0.00  0.00    -0.012 A 
ATOM      4  C3A BZF d   1      -0.209   3.494  -1.040  0.00  0.00    -0.107 A 
ATOM      5  C4  BZF d   1       0.017   4.066  -2.259  0.00  0.00     0.055 A 
ATOM      6  C5  BZF d   1      -0.479   5.307  -2.509  0.00  0.00    -0.016 A 
ATOM      7  C6  BZF d   1      -1.209   6.000  -1.567  0.00  0.00     0.022 A 
ATOM      8  C7  BZF d   1      -1.456   5.476  -0.342  0.00  0.00     0.029 A 
ATOM      9  C7A BZF d   1      -0.927   4.236  -0.074  0.00  0.00     0.058 A 
ENDROOT
TORSDOF 0
ENDMDL
