MODEL 1
REMARK minimizedAffinity 0.50336957
REMARK minimizedRMSD -1
REMARK  0 active torsions:
REMARK  status: ('A' for Active; 'I' for Inactive)
ROOT
ATOM      1  O1  BZF d   1      -5.810  -1.060   3.001  0.00  0.00    -0.204 OA
ATOM      2  C2  BZF d   1      -5.833   0.002   3.884  0.00  0.00     0.174 A 
ATOM      3  C3  BZF d   1      -5.957  -0.435   5.154  0.00  0.00    -0.012 A 
ATOM      4  C3A BZF d   1      -5.922  -1.863   5.066  0.00  0.00    -0.107 A 
ATOM      5  C4  BZF d   1      -5.986  -2.863   5.994  0.00  0.00     0.055 A 
ATOM      6  C5  BZF d   1      -5.999  -4.155   5.573  0.00  0.00    -0.016 A 
ATOM      7  C6  BZF d   1      -5.956  -4.483   4.234  0.00  0.00     0.022 A 
ATOM      8  C7  BZF d   1      -5.887  -3.526   3.277  0.00  0.00     0.029 A 
ATOM      9  C7A BZF d   1      -5.840  -2.220   3.700  0.00  0.00     0.058 A 
ENDROOT
TORSDOF 0
ENDMDL
