MODEL 1
REMARK minimizedAffinity -2.94769073
REMARK minimizedRMSD -1
REMARK  0 active torsions:
REMARK  status: ('A' for Active; 'I' for Inactive)
ROOT
ATOM      1  O1  BZF d   1      -5.005  -3.664  -6.000  0.00  0.00    -0.204 OA
ATOM      2  C2  BZF d   1      -5.765  -4.814  -5.909  0.00  0.00     0.174 A 
ATOM      3  C3  BZF d   1      -4.975  -5.905  -5.841  0.00  0.00    -0.012 A 
ATOM      4  C3A BZF d   1      -3.637  -5.399  -5.798  0.00  0.00    -0.107 A 
ATOM      5  C4  BZF d   1      -2.411  -5.994  -5.711  0.00  0.00     0.055 A 
ATOM      6  C5  BZF d   1      -1.296  -5.220  -5.767  0.00  0.00    -0.016 A 
ATOM      7  C6  BZF d   1      -1.370  -3.850  -5.914  0.00  0.00     0.022 A 
ATOM      8  C7  BZF d   1      -2.564  -3.214  -5.999  0.00  0.00     0.029 A 
ATOM      9  C7A BZF d   1      -3.693  -3.991  -5.910  0.00  0.00     0.058 A 
ENDROOT
TORSDOF 0
ENDMDL
