MODEL 1
REMARK minimizedAffinity 6.97166014
REMARK minimizedRMSD -1
REMARK  0 active torsions:
REMARK  status: ('A' for Active; 'I' for Inactive)
ROOT
ATOM      1  O1  BZF d   1      -5.152  -4.736  -5.923  0.00  0.00    -0.204 OA
ATOM      2  C2  BZF d   1      -5.478  -3.395  -5.990  0.00  0.00     0.174 A 
ATOM      3  C3  BZF d   1      -4.367  -2.630  -5.957  0.00  0.00    -0.012 A 
ATOM      4  C3A BZF d   1      -3.275  -3.554  -5.956  0.00  0.00    -0.107 A 
ATOM      5  C4  BZF d   1      -1.917  -3.403  -5.946  0.00  0.00     0.055 A 
ATOM      6  C5  BZF d   1      -1.130  -4.508  -5.875  0.00  0.00    -0.016 A 
ATOM      7  C6  BZF d   1      -1.665  -5.778  -5.807  0.00  0.00     0.022 A 
ATOM      8  C7  BZF d   1      -3.006  -5.978  -5.820  0.00  0.00     0.029 A 
ATOM      9  C7A BZF d   1      -3.803  -4.865  -5.925  0.00  0.00     0.058 A 
ENDROOT
TORSDOF 0
ENDMDL
