MODEL 1
REMARK minimizedAffinity -2.75605869
REMARK minimizedRMSD -1
REMARK  0 active torsions:
REMARK  status: ('A' for Active; 'I' for Inactive)
ROOT
ATOM      1  C   UNL d   1       1.457   0.149  -1.232  0.00  0.00     0.020 A 
ATOM      2  C1  UNL d   1       0.867   1.392  -1.457  0.00  0.00     0.020 A 
ATOM      3  C2  UNL d   1      -0.235   1.789  -0.697  0.00  0.00     0.034 A 
ATOM      4  C3  UNL d   1      -0.751   0.943   0.291  0.00  0.00     0.017 A 
ATOM      5  C4  UNL d   1      -0.158  -0.305   0.515  0.00  0.00     0.017 A 
ATOM      6  C5  UNL d   1       0.945  -0.698  -0.248  0.00  0.00     0.034 A 
ATOM      7 Cl   UNL d   1      -0.739  -1.404   1.716  0.00  0.00    -0.070 Cl
ATOM      8 Cl1  UNL d   1      -2.116   1.499   1.193  0.00  0.00    -0.070 Cl
ENDROOT
TORSDOF 0
ENDMDL
