MODEL 1
REMARK minimizedAffinity -3.01615262
REMARK minimizedRMSD -1
REMARK  0 active torsions:
REMARK  status: ('A' for Active; 'I' for Inactive)
ROOT
ATOM      1  C   UNL d   1       0.866   0.869  -1.903  0.00  0.00     0.020 A 
ATOM      2  C1  UNL d   1       1.542  -0.253  -1.425  0.00  0.00     0.020 A 
ATOM      3  C2  UNL d   1       1.147  -0.848  -0.224  0.00  0.00     0.034 A 
ATOM      4  C3  UNL d   1       0.073  -0.321   0.502  0.00  0.00     0.017 A 
ATOM      5  C4  UNL d   1      -0.605   0.805   0.021  0.00  0.00     0.017 A 
ATOM      6  C5  UNL d   1      -0.206   1.397  -1.181  0.00  0.00     0.034 A 
ATOM      7 Cl   UNL d   1      -1.940   1.512   0.861  0.00  0.00    -0.070 Cl
ATOM      8 Cl1  UNL d   1      -0.362  -1.107   1.978  0.00  0.00    -0.070 Cl
ENDROOT
TORSDOF 0
ENDMDL
