MODEL 1
REMARK minimizedAffinity -3.32251668
REMARK minimizedRMSD -1
REMARK  0 active torsions:
REMARK  status: ('A' for Active; 'I' for Inactive)
ROOT
ATOM      1  C   UNL d   1      -1.706   0.374   2.179  0.00  0.00     0.020 A 
ATOM      2  C1  UNL d   1      -1.970   1.706   1.862  0.00  0.00     0.020 A 
ATOM      3  C2  UNL d   1      -1.444   2.263   0.694  0.00  0.00     0.034 A 
ATOM      4  C3  UNL d   1      -0.652   1.487  -0.161  0.00  0.00     0.017 A 
ATOM      5  C4  UNL d   1      -0.388   0.150   0.158  0.00  0.00     0.017 A 
ATOM      6  C5  UNL d   1      -0.917  -0.402   1.329  0.00  0.00     0.034 A 
ATOM      7 Cl   UNL d   1       0.580  -0.869  -0.847  0.00  0.00    -0.070 Cl
ATOM      8 Cl1  UNL d   1      -0.035   2.241  -1.589  0.00  0.00    -0.070 Cl
ENDROOT
TORSDOF 0
ENDMDL
