MODEL 1
REMARK minimizedAffinity -4.98060179
REMARK minimizedRMSD -1
REMARK  0 active torsions:
REMARK  status: ('A' for Active; 'I' for Inactive)
ROOT
ATOM      1  C   UNL d   1      -2.081   1.783   0.181  0.00  0.00     0.020 A 
ATOM      2  C1  UNL d   1      -2.144   1.652   1.568  0.00  0.00     0.020 A 
ATOM      3  C2  UNL d   1      -1.342   0.712   2.218  0.00  0.00     0.034 A 
ATOM      4  C3  UNL d   1      -0.473  -0.101   1.481  0.00  0.00     0.017 A 
ATOM      5  C4  UNL d   1      -0.410   0.031   0.089  0.00  0.00     0.017 A 
ATOM      6  C5  UNL d   1      -1.215   0.974  -0.557  0.00  0.00     0.034 A 
ATOM      7 Cl   UNL d   1       0.638  -0.936  -0.887  0.00  0.00    -0.070 Cl
ATOM      8 Cl1  UNL d   1       0.491  -1.242   2.351  0.00  0.00    -0.070 Cl
ENDROOT
TORSDOF 0
ENDMDL
