MODEL 1
REMARK minimizedAffinity -3.2571342
REMARK minimizedRMSD -1
REMARK  0 active torsions:
REMARK  status: ('A' for Active; 'I' for Inactive)
ROOT
ATOM      1  C   UNL d   1      -1.218   2.031  -0.207  0.00  0.00     0.020 A 
ATOM      2  C1  UNL d   1      -1.554   1.899   1.140  0.00  0.00     0.020 A 
ATOM      3  C2  UNL d   1      -1.085   0.808   1.873  0.00  0.00     0.034 A 
ATOM      4  C3  UNL d   1      -0.276  -0.157   1.261  0.00  0.00     0.017 A 
ATOM      5  C4  UNL d   1       0.061  -0.024  -0.091  0.00  0.00     0.017 A 
ATOM      6  C5  UNL d   1      -0.412   1.071  -0.821  0.00  0.00     0.034 A 
ATOM      7 Cl   UNL d   1       1.054  -1.173  -0.915  0.00  0.00    -0.070 Cl
ATOM      8 Cl1  UNL d   1       0.269  -1.480   2.229  0.00  0.00    -0.070 Cl
ENDROOT
TORSDOF 0
ENDMDL
