MODEL 1
REMARK minimizedAffinity -4.79279089
REMARK minimizedRMSD -1
REMARK  0 active torsions:
REMARK  status: ('A' for Active; 'I' for Inactive)
ROOT
ATOM      1  C   UNL d   1      -1.704   2.538  -0.259  0.00  0.00     0.020 A 
ATOM      2  C1  UNL d   1      -2.328   2.185   0.937  0.00  0.00     0.020 A 
ATOM      3  C2  UNL d   1      -1.876   1.080   1.661  0.00  0.00     0.034 A 
ATOM      4  C3  UNL d   1      -0.797   0.324   1.190  0.00  0.00     0.017 A 
ATOM      5  C4  UNL d   1      -0.170   0.679  -0.010  0.00  0.00     0.017 A 
ATOM      6  C5  UNL d   1      -0.627   1.786  -0.731  0.00  0.00     0.034 A 
ATOM      7 Cl   UNL d   1       1.168  -0.206  -0.654  0.00  0.00    -0.070 Cl
ATOM      8 Cl1  UNL d   1      -0.290  -1.030   2.138  0.00  0.00    -0.070 Cl
ENDROOT
TORSDOF 0
ENDMDL
