MODEL 1
REMARK minimizedAffinity -0.0204069931
REMARK minimizedRMSD -1
REMARK  0 active torsions:
REMARK  status: ('A' for Active; 'I' for Inactive)
ROOT
ATOM      1  C   UNL d   1      -1.658   1.990   1.417  0.00  0.00     0.020 A 
ATOM      2  C1  UNL d   1      -1.347   2.242   0.082  0.00  0.00     0.020 A 
ATOM      3  C2  UNL d   1      -0.497   1.377  -0.612  0.00  0.00     0.034 A 
ATOM      4  C3  UNL d   1       0.045   0.258   0.030  0.00  0.00     0.017 A 
ATOM      5  C4  UNL d   1      -0.268   0.006   1.371  0.00  0.00     0.017 A 
ATOM      6  C5  UNL d   1      -1.120   0.875   2.060  0.00  0.00     0.034 A 
ATOM      7 Cl   UNL d   1       0.362  -1.355   2.230  0.00  0.00    -0.070 Cl
ATOM      8 Cl1  UNL d   1       1.088  -0.769  -0.889  0.00  0.00    -0.070 Cl
ENDROOT
TORSDOF 0
ENDMDL
