MODEL 1
REMARK minimizedAffinity -3.67246509
REMARK minimizedRMSD -1
REMARK  0 active torsions:
REMARK  status: ('A' for Active; 'I' for Inactive)
ROOT
ATOM      1  C   UNL d   1      -2.084   1.846   1.723  0.00  0.00     0.020 A 
ATOM      2  C1  UNL d   1      -2.608   1.715   0.438  0.00  0.00     0.020 A 
ATOM      3  C2  UNL d   1      -1.897   1.012  -0.537  0.00  0.00     0.034 A 
ATOM      4  C3  UNL d   1      -0.658   0.439  -0.229  0.00  0.00     0.017 A 
ATOM      5  C4  UNL d   1      -0.133   0.572   1.061  0.00  0.00     0.017 A 
ATOM      6  C5  UNL d   1      -0.849   1.276   2.034  0.00  0.00     0.034 A 
ATOM      7 Cl   UNL d   1       1.390  -0.107   1.516  0.00  0.00    -0.070 Cl
ATOM      8 Cl1  UNL d   1       0.167  -0.415  -1.484  0.00  0.00    -0.070 Cl
ENDROOT
TORSDOF 0
ENDMDL
