MODEL 1
REMARK minimizedAffinity -2.39624858
REMARK minimizedRMSD -1
REMARK  0 active torsions:
REMARK  status: ('A' for Active; 'I' for Inactive)
ROOT
ATOM      1  C   UNL d   1      -1.895   1.364   1.789  0.00  0.00     0.020 A 
ATOM      2  C1  UNL d   1      -1.562   0.023   1.977  0.00  0.00     0.020 A 
ATOM      3  C2  UNL d   1      -0.627  -0.589   1.139  0.00  0.00     0.034 A 
ATOM      4  C3  UNL d   1      -0.021   0.141   0.110  0.00  0.00     0.017 A 
ATOM      5  C4  UNL d   1      -0.355   1.487  -0.078  0.00  0.00     0.017 A 
ATOM      6  C5  UNL d   1      -1.292   2.094   0.764  0.00  0.00     0.034 A 
ATOM      7 Cl   UNL d   1       0.352   2.451  -1.326  0.00  0.00    -0.070 Cl
ATOM      8 Cl1  UNL d   1       1.127  -0.680  -0.887  0.00  0.00    -0.070 Cl
ENDROOT
TORSDOF 0
ENDMDL
