MODEL 1
REMARK minimizedAffinity -3.52579927
REMARK minimizedRMSD -1
REMARK  0 active torsions:
REMARK  status: ('A' for Active; 'I' for Inactive)
ROOT
ATOM      1  C   UNL d   1       0.391  -0.972  -0.926  0.00  0.00     0.020 A 
ATOM      2  C1  UNL d   1      -0.176   0.275  -1.184  0.00  0.00     0.020 A 
ATOM      3  C2  UNL d   1      -0.794   0.987  -0.153  0.00  0.00     0.034 A 
ATOM      4  C3  UNL d   1      -0.846   0.452   1.139  0.00  0.00     0.017 A 
ATOM      5  C4  UNL d   1      -0.277  -0.800   1.396  0.00  0.00     0.017 A 
ATOM      6  C5  UNL d   1       0.341  -1.509   0.361  0.00  0.00     0.034 A 
ATOM      7 Cl   UNL d   1      -0.302  -1.525   2.965  0.00  0.00    -0.070 Cl
ATOM      8 Cl1  UNL d   1      -1.626   1.387   2.365  0.00  0.00    -0.070 Cl
ENDROOT
TORSDOF 0
ENDMDL
