MODEL 1
REMARK minimizedAffinity -4.02979946
REMARK minimizedRMSD -1
REMARK  0 active torsions:
REMARK  status: ('A' for Active; 'I' for Inactive)
ROOT
ATOM      1  C   UNL d   1      -1.684   1.848   1.134  0.00  0.00     0.020 A 
ATOM      2  C1  UNL d   1      -1.365   1.789  -0.222  0.00  0.00     0.020 A 
ATOM      3  C2  UNL d   1      -0.567   0.751  -0.706  0.00  0.00     0.034 A 
ATOM      4  C3  UNL d   1      -0.083  -0.232   0.166  0.00  0.00     0.017 A 
ATOM      5  C4  UNL d   1      -0.403  -0.171   1.527  0.00  0.00     0.017 A 
ATOM      6  C5  UNL d   1      -1.204   0.871   2.007  0.00  0.00     0.034 A 
ATOM      7 Cl   UNL d   1       0.156  -1.346   2.664  0.00  0.00    -0.070 Cl
ATOM      8 Cl1  UNL d   1       0.899  -1.486  -0.502  0.00  0.00    -0.070 Cl
ENDROOT
TORSDOF 0
ENDMDL
