MODEL 1
REMARK minimizedAffinity -5.01096487
REMARK minimizedRMSD -1
REMARK  0 active torsions:
REMARK  status: ('A' for Active; 'I' for Inactive)
ROOT
ATOM      1  C   UNL d   1      -1.877   1.918   1.384  0.00  0.00     0.020 A 
ATOM      2  C1  UNL d   1      -1.540   2.031   0.036  0.00  0.00     0.020 A 
ATOM      3  C2  UNL d   1      -0.616   1.149  -0.529  0.00  0.00     0.034 A 
ATOM      4  C3  UNL d   1      -0.026   0.150   0.255  0.00  0.00     0.017 A 
ATOM      5  C4  UNL d   1      -0.366   0.038   1.608  0.00  0.00     0.017 A 
ATOM      6  C5  UNL d   1      -1.291   0.924   2.168  0.00  0.00     0.034 A 
ATOM      7 Cl   UNL d   1       0.320  -1.168   2.638  0.00  0.00    -0.070 Cl
ATOM      8 Cl1  UNL d   1       1.107  -0.906  -0.510  0.00  0.00    -0.070 Cl
ENDROOT
TORSDOF 0
ENDMDL
