MODEL 1
REMARK minimizedAffinity -1.84082866
REMARK minimizedRMSD -1
REMARK  0 active torsions:
REMARK  status: ('A' for Active; 'I' for Inactive)
ROOT
ATOM      1  C   UNL d   1      -1.850   1.739   1.422  0.00  0.00     0.020 A 
ATOM      2  C1  UNL d   1      -1.878   1.749   0.028  0.00  0.00     0.020 A 
ATOM      3  C2  UNL d   1      -1.016   0.920  -0.693  0.00  0.00     0.034 A 
ATOM      4  C3  UNL d   1      -0.123   0.078  -0.021  0.00  0.00     0.017 A 
ATOM      5  C4  UNL d   1      -0.096   0.068   1.378  0.00  0.00     0.017 A 
ATOM      6  C5  UNL d   1      -0.961   0.900   2.096  0.00  0.00     0.034 A 
ATOM      7 Cl   UNL d   1       0.978  -0.944   2.277  0.00  0.00    -0.070 Cl
ATOM      8 Cl1  UNL d   1       0.914  -0.921  -0.977  0.00  0.00    -0.070 Cl
ENDROOT
TORSDOF 0
ENDMDL
