MODEL 1
REMARK minimizedAffinity -2.54064155
REMARK minimizedRMSD -1
REMARK  0 active torsions:
REMARK  status: ('A' for Active; 'I' for Inactive)
ROOT
ATOM      1  C   UNL d   1      -1.558   0.338   2.263  0.00  0.00     0.020 A 
ATOM      2  C1  UNL d   1      -2.037   1.601   1.916  0.00  0.00     0.020 A 
ATOM      3  C2  UNL d   1      -1.606   2.211   0.736  0.00  0.00     0.034 A 
ATOM      4  C3  UNL d   1      -0.693   1.558  -0.101  0.00  0.00     0.017 A 
ATOM      5  C4  UNL d   1      -0.213   0.291   0.249  0.00  0.00     0.017 A 
ATOM      6  C5  UNL d   1      -0.648  -0.315   1.431  0.00  0.00     0.034 A 
ATOM      7 Cl   UNL d   1       0.915  -0.576  -0.733  0.00  0.00    -0.070 Cl
ATOM      8 Cl1  UNL d   1      -0.203   2.372  -1.545  0.00  0.00    -0.070 Cl
ENDROOT
TORSDOF 0
ENDMDL
