MODEL 1
REMARK minimizedAffinity 10.2591782
REMARK minimizedRMSD -1
REMARK  1 active torsions:
REMARK  status: ('A' for Active; 'I' for Inactive)
REMARK    1  A    between atoms: C1_2  and  C2_3 
ROOT
ATOM      1  C2  UNL d   1       3.774  -1.138  -3.324  0.00  0.00    -0.076 A 
ATOM      2  C3  UNL d   1       3.332  -2.338  -3.909  0.00  0.00     0.004 A 
ATOM      3  C4  UNL d   1       2.659  -3.298  -3.156  0.00  0.00    -0.003 A 
ATOM      4  C5  UNL d   1       2.416  -3.074  -1.805  0.00  0.00     0.000 A 
ATOM      5  C6  UNL d   1       2.832  -1.882  -1.212  0.00  0.00     0.000 A 
ATOM      6  C7  UNL d   1       3.497  -0.897  -1.962  0.00  0.00    -0.073 A 
ATOM      7  C8  UNL d   1       3.928   0.367  -1.270  0.00  0.00     0.078 C 
ENDROOT
BRANCH   1   8
ATOM      8  C1  UNL d   1       4.522  -0.146  -4.185  0.00  0.00     0.053 C 
ATOM      9  C   UNL d   1       5.992  -0.503  -4.342  0.00  0.00     0.018 C 
ENDBRANCH   1   8
TORSDOF 1
ENDMDL
