MODEL 1
REMARK minimizedAffinity 10.0438814
REMARK minimizedRMSD -1
REMARK  1 active torsions:
REMARK  status: ('A' for Active; 'I' for Inactive)
REMARK    1  A    between atoms: C1_2  and  C2_3 
ROOT
ATOM      1  C2  UNL d   1       2.096  -3.039   3.170  0.00  0.00    -0.076 A 
ATOM      2  C3  UNL d   1       1.967  -2.661   1.822  0.00  0.00     0.004 A 
ATOM      3  C4  UNL d   1       1.338  -1.467   1.469  0.00  0.00    -0.003 A 
ATOM      4  C5  UNL d   1       0.830  -0.633   2.459  0.00  0.00     0.000 A 
ATOM      5  C6  UNL d   1       0.966  -0.984   3.801  0.00  0.00     0.000 A 
ATOM      6  C7  UNL d   1       1.611  -2.175   4.175  0.00  0.00    -0.073 A 
ATOM      7  C8  UNL d   1       1.724  -2.507   5.638  0.00  0.00     0.078 C 
ENDROOT
BRANCH   1   8
ATOM      8  C1  UNL d   1       2.763  -4.357   3.491  0.00  0.00     0.053 C 
ATOM      9  C   UNL d   1       1.792  -5.376   4.068  0.00  0.00     0.018 C 
ENDBRANCH   1   8
TORSDOF 1
ENDMDL
