MODEL 1
REMARK minimizedAffinity 7.32202101
REMARK minimizedRMSD -1
REMARK  1 active torsions:
REMARK  status: ('A' for Active; 'I' for Inactive)
REMARK    1  A    between atoms: C1_2  and  C2_3 
ROOT
ATOM      1  C2  UNL d   1      -5.262  -3.235  -3.623  0.00  0.00    -0.076 A 
ATOM      2  C3  UNL d   1      -5.731  -2.664  -4.819  0.00  0.00     0.004 A 
ATOM      3  C4  UNL d   1      -5.785  -3.410  -5.996  0.00  0.00    -0.003 A 
ATOM      4  C5  UNL d   1      -5.372  -4.737  -5.995  0.00  0.00     0.000 A 
ATOM      5  C6  UNL d   1      -4.921  -5.324  -4.813  0.00  0.00     0.000 A 
ATOM      6  C7  UNL d   1      -4.875  -4.592  -3.615  0.00  0.00    -0.073 A 
ATOM      7  C8  UNL d   1      -4.375  -5.273  -2.371  0.00  0.00     0.078 C 
ENDROOT
BRANCH   1   8
ATOM      8  C1  UNL d   1      -5.201  -2.370  -2.384  0.00  0.00     0.053 C 
ATOM      9  C   UNL d   1      -5.176  -3.189  -1.103  0.00  0.00     0.018 C 
ENDBRANCH   1   8
TORSDOF 1
ENDMDL
