MODEL 1
REMARK minimizedAffinity 4.44043398
REMARK minimizedRMSD -1
REMARK  1 active torsions:
REMARK  status: ('A' for Active; 'I' for Inactive)
REMARK    1  A    between atoms: C1_2  and  C2_3 
ROOT
ATOM      1  C2  UNL d   1      -0.178  -2.493  -0.025  0.00  0.00    -0.076 A 
ATOM      2  C3  UNL d   1      -0.042  -1.125  -0.318  0.00  0.00     0.004 A 
ATOM      3  C4  UNL d   1      -1.018  -0.208   0.070  0.00  0.00    -0.003 A 
ATOM      4  C5  UNL d   1      -2.145  -0.645   0.757  0.00  0.00     0.000 A 
ATOM      5  C6  UNL d   1      -2.288  -1.996   1.072  0.00  0.00     0.000 A 
ATOM      6  C7  UNL d   1      -1.306  -2.931   0.703  0.00  0.00    -0.073 A 
ATOM      7  C8  UNL d   1      -1.514  -4.377   1.062  0.00  0.00     0.078 C 
ENDROOT
BRANCH   1   8
ATOM      8  C1  UNL d   1       0.899  -3.445  -0.495  0.00  0.00     0.053 C 
ATOM      9  C   UNL d   1       1.441  -3.080  -1.868  0.00  0.00     0.018 C 
ENDBRANCH   1   8
TORSDOF 1
ENDMDL
