MODEL 1
REMARK minimizedAffinity 2.3655901
REMARK minimizedRMSD -1
REMARK  1 active torsions:
REMARK  status: ('A' for Active; 'I' for Inactive)
REMARK    1  A    between atoms: C1_2  and  C2_3 
ROOT
ATOM      1  C2  UNL d   1       1.173  -0.701   1.517  0.00  0.00    -0.076 A 
ATOM      2  C3  UNL d   1       2.537  -0.360   1.483  0.00  0.00     0.004 A 
ATOM      3  C4  UNL d   1       2.958   0.862   0.961  0.00  0.00    -0.003 A 
ATOM      4  C5  UNL d   1       2.022   1.763   0.465  0.00  0.00     0.000 A 
ATOM      5  C6  UNL d   1       0.664   1.449   0.507  0.00  0.00     0.000 A 
ATOM      6  C7  UNL d   1       0.222   0.228   1.045  0.00  0.00    -0.073 A 
ATOM      7  C8  UNL d   1      -1.254  -0.062   1.059  0.00  0.00     0.078 C 
ENDROOT
BRANCH   1   8
ATOM      8  C1  UNL d   1       0.778  -2.052   2.069  0.00  0.00     0.053 C 
ATOM      9  C   UNL d   1       1.807  -2.607   3.042  0.00  0.00     0.018 C 
ENDBRANCH   1   8
TORSDOF 1
ENDMDL
