MODEL 1
REMARK minimizedAffinity -0.473478675
REMARK minimizedRMSD -1
REMARK  1 active torsions:
REMARK  status: ('A' for Active; 'I' for Inactive)
REMARK    1  A    between atoms: C1_2  and  C2_3 
ROOT
ATOM      1  C2  UNL d   1       1.654  -1.235   4.210  0.00  0.00    -0.076 A 
ATOM      2  C3  UNL d   1       1.245  -0.070   4.882  0.00  0.00     0.004 A 
ATOM      3  C4  UNL d   1       1.045   1.125   4.192  0.00  0.00    -0.003 A 
ATOM      4  C5  UNL d   1       1.251   1.174   2.818  0.00  0.00     0.000 A 
ATOM      5  C6  UNL d   1       1.640   0.024   2.132  0.00  0.00     0.000 A 
ATOM      6  C7  UNL d   1       1.829  -1.193   2.810  0.00  0.00    -0.073 A 
ATOM      7  C8  UNL d   1       2.255  -2.400   2.021  0.00  0.00     0.078 C 
ENDROOT
BRANCH   1   8
ATOM      8  C1  UNL d   1       1.880  -2.494   5.015  0.00  0.00     0.053 C 
ATOM      9  C   UNL d   1       0.754  -2.767   5.999  0.00  0.00     0.018 C 
ENDBRANCH   1   8
TORSDOF 1
ENDMDL
