MODEL 1
REMARK minimizedAffinity -3.68533397
REMARK minimizedRMSD -1
REMARK  1 active torsions:
REMARK  status: ('A' for Active; 'I' for Inactive)
REMARK    1  A    between atoms: C1_2  and  C2_3 
ROOT
ATOM      1  C2  UNL d   1      -5.325  -3.894  -3.662  0.00  0.00    -0.076 A 
ATOM      2  C3  UNL d   1      -5.887  -3.365  -4.837  0.00  0.00     0.004 A 
ATOM      3  C4  UNL d   1      -5.995  -4.138  -5.992  0.00  0.00    -0.003 A 
ATOM      4  C5  UNL d   1      -5.543  -5.453  -5.990  0.00  0.00     0.000 A 
ATOM      5  C6  UNL d   1      -5.000  -6.000  -4.828  0.00  0.00     0.000 A 
ATOM      6  C7  UNL d   1      -4.899  -5.239  -3.651  0.00  0.00    -0.073 A 
ATOM      7  C8  UNL d   1      -4.298  -5.877  -2.428  0.00  0.00     0.078 C 
ENDROOT
BRANCH   1   8
ATOM      8  C1  UNL d   1      -5.210  -2.999  -2.449  0.00  0.00     0.053 C 
ATOM      9  C   UNL d   1      -4.155  -1.917  -2.621  0.00  0.00     0.018 C 
ENDBRANCH   1   8
TORSDOF 1
ENDMDL
