MODEL 1
REMARK minimizedAffinity 2.36140776
REMARK minimizedRMSD -1
REMARK  1 active torsions:
REMARK  status: ('A' for Active; 'I' for Inactive)
REMARK    1  A    between atoms: C1_2  and  C2_3 
ROOT
ATOM      1  C2  UNL d   1      -5.719  -5.250  -4.012  0.00  0.00    -0.076 A 
ATOM      2  C3  UNL d   1      -5.828  -5.988  -2.820  0.00  0.00     0.004 A 
ATOM      3  C4  UNL d   1      -5.967  -5.347  -1.590  0.00  0.00    -0.003 A 
ATOM      4  C5  UNL d   1      -5.999  -3.958  -1.532  0.00  0.00     0.000 A 
ATOM      5  C6  UNL d   1      -5.910  -3.211  -2.705  0.00  0.00     0.000 A 
ATOM      6  C7  UNL d   1      -5.786  -3.841  -3.955  0.00  0.00    -0.073 A 
ATOM      7  C8  UNL d   1      -5.687  -2.986  -5.189  0.00  0.00     0.078 C 
ENDROOT
BRANCH   1   8
ATOM      8  C1  UNL d   1      -5.543  -5.999  -5.314  0.00  0.00     0.053 C 
ATOM      9  C   UNL d   1      -4.110  -5.957  -5.821  0.00  0.00     0.018 C 
ENDBRANCH   1   8
TORSDOF 1
ENDMDL
