MODEL 1
REMARK minimizedAffinity 2.80321145
REMARK minimizedRMSD -1
REMARK  1 active torsions:
REMARK  status: ('A' for Active; 'I' for Inactive)
REMARK    1  A    between atoms: C1_2  and  C2_3 
ROOT
ATOM      1  C2  UNL d   1      -4.948   1.286  -3.590  0.00  0.00    -0.076 A 
ATOM      2  C3  UNL d   1      -5.630   0.057  -3.607  0.00  0.00     0.004 A 
ATOM      3  C4  UNL d   1      -5.846  -0.627  -4.802  0.00  0.00    -0.003 A 
ATOM      4  C5  UNL d   1      -5.384  -0.093  -6.000  0.00  0.00     0.000 A 
ATOM      5  C6  UNL d   1      -4.690   1.117  -5.999  0.00  0.00     0.000 A 
ATOM      6  C7  UNL d   1      -4.449   1.811  -4.801  0.00  0.00    -0.073 A 
ATOM      7  C8  UNL d   1      -3.700   3.114  -4.860  0.00  0.00     0.078 C 
ENDROOT
BRANCH   1   8
ATOM      8  C1  UNL d   1      -4.766   1.995  -2.267  0.00  0.00     0.053 C 
ATOM      9  C   UNL d   1      -5.816   3.071  -2.033  0.00  0.00     0.018 C 
ENDBRANCH   1   8
TORSDOF 1
ENDMDL
