MODEL 1
REMARK minimizedAffinity -1.32835329
REMARK minimizedRMSD -1
REMARK  1 active torsions:
REMARK  status: ('A' for Active; 'I' for Inactive)
REMARK    1  A    between atoms: C1_2  and  C2_3 
ROOT
ATOM      1  C2  UNL d   1       1.066   1.501   1.618  0.00  0.00    -0.076 A 
ATOM      2  C3  UNL d   1       0.548   2.691   1.079  0.00  0.00     0.004 A 
ATOM      3  C4  UNL d   1       1.392   3.679   0.576  0.00  0.00    -0.003 A 
ATOM      4  C5  UNL d   1       2.770   3.492   0.601  0.00  0.00     0.000 A 
ATOM      5  C6  UNL d   1       3.301   2.309   1.116  0.00  0.00     0.000 A 
ATOM      6  C7  UNL d   1       2.463   1.297   1.613  0.00  0.00    -0.073 A 
ATOM      7  C8  UNL d   1       3.090   0.045   2.161  0.00  0.00     0.078 C 
ENDROOT
BRANCH   1   8
ATOM      8  C1  UNL d   1       0.103   0.477   2.175  0.00  0.00     0.053 C 
ATOM      9  C   UNL d   1      -0.182  -0.649   1.193  0.00  0.00     0.018 C 
ENDBRANCH   1   8
TORSDOF 1
ENDMDL
