MODEL 1
REMARK minimizedAffinity -4.3398838
REMARK minimizedRMSD -1
REMARK  0 active torsions:
REMARK  status: ('A' for Active; 'I' for Inactive)
ROOT
ATOM      1  C4' PXY d   1       1.612   5.393  -0.264  0.00  0.00     0.077 C 
ATOM      2  C1' PXY d   1       0.976  -0.298  -1.059  0.00  0.00     0.077 C 
ATOM      3  C1  PXY d   1       1.135   1.194  -0.840  0.00  0.00    -0.082 A 
ATOM      4  C2  PXY d   1       1.402   1.982  -1.869  0.00  0.00     0.003 A 
ATOM      5  C3  PXY d   1       1.581   3.328  -1.684  0.00  0.00     0.003 A 
ATOM      6  C4  PXY d   1       1.433   3.882  -0.440  0.00  0.00    -0.082 A 
ATOM      7  C5  PXY d   1       1.150   3.087   0.613  0.00  0.00     0.003 A 
ATOM      8  C6  PXY d   1       1.013   1.717   0.411  0.00  0.00     0.003 A 
ENDROOT
TORSDOF 0
ENDMDL
