MODEL 1
REMARK minimizedAffinity -2.54620647
REMARK minimizedRMSD -1
REMARK  0 active torsions:
REMARK  status: ('A' for Active; 'I' for Inactive)
ROOT
ATOM      1  C4' PXY d   1       1.649   5.204  -0.732  0.00  0.00     0.077 C 
ATOM      2  C1' PXY d   1       0.438  -0.387  -1.566  0.00  0.00     0.077 C 
ATOM      3  C1  PXY d   1       0.751   1.079  -1.335  0.00  0.00    -0.082 A 
ATOM      4  C2  PXY d   1       0.848   1.898  -2.370  0.00  0.00     0.003 A 
ATOM      5  C3  PXY d   1       1.162   3.219  -2.181  0.00  0.00     0.003 A 
ATOM      6  C4  PXY d   1       1.325   3.719  -0.917  0.00  0.00    -0.082 A 
ATOM      7  C5  PXY d   1       1.217   2.892   0.144  0.00  0.00     0.003 A 
ATOM      8  C6  PXY d   1       0.938   1.545  -0.071  0.00  0.00     0.003 A 
ENDROOT
TORSDOF 0
ENDMDL
