MODEL 1
REMARK minimizedAffinity -0.186032206
REMARK minimizedRMSD -1
REMARK  0 active torsions:
REMARK  status: ('A' for Active; 'I' for Inactive)
ROOT
ATOM      1  C4' PXY d   1       1.695   5.170  -1.070  0.00  0.00     0.077 C 
ATOM      2  C1' PXY d   1       1.101  -0.555  -0.540  0.00  0.00     0.077 C 
ATOM      3  C1  PXY d   1       1.250   0.948  -0.668  0.00  0.00    -0.082 A 
ATOM      4  C2  PXY d   1       1.450   1.487  -1.860  0.00  0.00     0.003 A 
ATOM      5  C3  PXY d   1       1.619   2.841  -1.989  0.00  0.00     0.003 A 
ATOM      6  C4  PXY d   1       1.529   3.658  -0.895  0.00  0.00    -0.082 A 
ATOM      7  C5  PXY d   1       1.314   3.118   0.323  0.00  0.00     0.003 A 
ATOM      8  C6  PXY d   1       1.187   1.736   0.439  0.00  0.00     0.003 A 
ENDROOT
TORSDOF 0
ENDMDL
