MODEL 1
REMARK minimizedAffinity 3.74057031
REMARK minimizedRMSD -1
REMARK  0 active torsions:
REMARK  status: ('A' for Active; 'I' for Inactive)
ROOT
ATOM      1  C4' PXY d   1       0.656   0.617  -1.753  0.00  0.00     0.077 C 
ATOM      2  C1' PXY d   1       2.490   5.994  -0.687  0.00  0.00     0.077 C 
ATOM      3  C1  PXY d   1       2.015   4.580  -0.956  0.00  0.00    -0.082 A 
ATOM      4  C2  PXY d   1       1.774   4.195  -2.199  0.00  0.00     0.003 A 
ATOM      5  C3  PXY d   1       1.313   2.930  -2.457  0.00  0.00     0.003 A 
ATOM      6  C4  PXY d   1       1.147   2.032  -1.436  0.00  0.00    -0.082 A 
ATOM      7  C5  PXY d   1       1.400   2.414  -0.166  0.00  0.00     0.003 A 
ATOM      8  C6  PXY d   1       1.828   3.715   0.078  0.00  0.00     0.003 A 
ENDROOT
TORSDOF 0
ENDMDL
