MODEL 1
REMARK minimizedAffinity -3.42525601
REMARK minimizedRMSD -1
REMARK  0 active torsions:
REMARK  status: ('A' for Active; 'I' for Inactive)
ROOT
ATOM      1  C4' PXY d   1       1.304   5.166  -0.734  0.00  0.00     0.077 C 
ATOM      2  C1' PXY d   1       0.959  -0.596  -0.443  0.00  0.00     0.077 C 
ATOM      3  C1  PXY d   1       1.041   0.916  -0.509  0.00  0.00    -0.082 A 
ATOM      4  C2  PXY d   1       1.394   1.503  -1.641  0.00  0.00     0.003 A 
ATOM      5  C3  PXY d   1       1.504   2.868  -1.710  0.00  0.00     0.003 A 
ATOM      6  C4  PXY d   1       1.199   3.643  -0.623  0.00  0.00    -0.082 A 
ATOM      7  C5  PXY d   1       0.827   3.052   0.532  0.00  0.00     0.003 A 
ATOM      8  C6  PXY d   1       0.761   1.663   0.593  0.00  0.00     0.003 A 
ENDROOT
TORSDOF 0
ENDMDL
