MODEL 1
REMARK minimizedAffinity -1.20550764
REMARK minimizedRMSD -1
REMARK  0 active torsions:
REMARK  status: ('A' for Active; 'I' for Inactive)
ROOT
ATOM      1  C4' PXY d   1       0.397   0.182  -1.188  0.00  0.00     0.077 C 
ATOM      2  C1' PXY d   1       1.810   5.787  -1.093  0.00  0.00     0.077 C 
ATOM      3  C1  PXY d   1       1.445   4.315  -1.106  0.00  0.00    -0.082 A 
ATOM      4  C2  PXY d   1       1.230   3.705  -2.261  0.00  0.00     0.003 A 
ATOM      5  C3  PXY d   1       0.868   2.383  -2.289  0.00  0.00     0.003 A 
ATOM      6  C4  PXY d   1       0.777   1.664  -1.127  0.00  0.00    -0.082 A 
ATOM      7  C5  PXY d   1       1.006   2.277   0.054  0.00  0.00     0.003 A 
ATOM      8  C6  PXY d   1       1.332   3.630   0.064  0.00  0.00     0.003 A 
ENDROOT
TORSDOF 0
ENDMDL
