MODEL 1
REMARK minimizedAffinity -4.04673195
REMARK minimizedRMSD -1
REMARK  0 active torsions:
REMARK  status: ('A' for Active; 'I' for Inactive)
ROOT
ATOM      1  C4' PXY d   1       1.110  -0.116  -2.153  0.00  0.00     0.077 C 
ATOM      2  C1' PXY d   1       1.903   5.283  -0.246  0.00  0.00     0.077 C 
ATOM      3  C1  PXY d   1       1.703   3.862  -0.736  0.00  0.00    -0.082 A 
ATOM      4  C2  PXY d   1       1.361   3.648  -1.996  0.00  0.00     0.003 A 
ATOM      5  C3  PXY d   1       1.144   2.371  -2.448  0.00  0.00     0.003 A 
ATOM      6  C4  PXY d   1       1.332   1.300  -1.616  0.00  0.00    -0.082 A 
ATOM      7  C5  PXY d   1       1.692   1.511  -0.332  0.00  0.00     0.003 A 
ATOM      8  C6  PXY d   1       1.866   2.816   0.118  0.00  0.00     0.003 A 
ENDROOT
TORSDOF 0
ENDMDL
