MODEL 1
REMARK minimizedAffinity -3.50048995
REMARK minimizedRMSD -1
REMARK  0 active torsions:
REMARK  status: ('A' for Active; 'I' for Inactive)
ROOT
ATOM      1  C4' PXY d   1       1.288   5.070  -0.365  0.00  0.00     0.077 C 
ATOM      2  C1' PXY d   1       0.524  -0.659  -0.458  0.00  0.00     0.077 C 
ATOM      3  C1  PXY d   1       0.715   0.844  -0.424  0.00  0.00    -0.082 A 
ATOM      4  C2  PXY d   1       1.150   1.473  -1.504  0.00  0.00     0.003 A 
ATOM      5  C3  PXY d   1       1.360   2.828  -1.481  0.00  0.00     0.003 A 
ATOM      6  C4  PXY d   1       1.071   3.554  -0.357  0.00  0.00    -0.082 A 
ATOM      7  C5  PXY d   1       0.616   2.922   0.746  0.00  0.00     0.003 A 
ATOM      8  C6  PXY d   1       0.449   1.540   0.714  0.00  0.00     0.003 A 
ENDROOT
TORSDOF 0
ENDMDL
