MODEL 1
REMARK minimizedAffinity -4.64458418
REMARK minimizedRMSD -1
REMARK  0 active torsions:
REMARK  status: ('A' for Active; 'I' for Inactive)
ROOT
ATOM      1  C4' PXY d   1       1.856   5.031  -0.381  0.00  0.00     0.077 C 
ATOM      2  C1' PXY d   1       0.817  -0.650  -0.651  0.00  0.00     0.077 C 
ATOM      3  C1  PXY d   1       1.083   0.841  -0.569  0.00  0.00    -0.082 A 
ATOM      4  C2  PXY d   1       1.318   1.525  -1.676  0.00  0.00     0.003 A 
ATOM      5  C3  PXY d   1       1.592   2.867  -1.618  0.00  0.00     0.003 A 
ATOM      6  C4  PXY d   1       1.573   3.526  -0.417  0.00  0.00    -0.082 A 
ATOM      7  C5  PXY d   1       1.323   2.837   0.716  0.00  0.00     0.003 A 
ATOM      8  C6  PXY d   1       1.088   1.467   0.639  0.00  0.00     0.003 A 
ENDROOT
TORSDOF 0
ENDMDL
