MODEL 1
REMARK minimizedAffinity -0.970244706
REMARK minimizedRMSD -1
REMARK  0 active torsions:
REMARK  status: ('A' for Active; 'I' for Inactive)
ROOT
ATOM      1  C4' PXY d   1       1.529   5.715  -0.367  0.00  0.00     0.077 C 
ATOM      2  C1' PXY d   1       0.927   0.021  -1.162  0.00  0.00     0.077 C 
ATOM      3  C1  PXY d   1       1.078   1.514  -0.942  0.00  0.00    -0.082 A 
ATOM      4  C2  PXY d   1       1.262   2.313  -1.981  0.00  0.00     0.003 A 
ATOM      5  C3  PXY d   1       1.432   3.661  -1.798  0.00  0.00     0.003 A 
ATOM      6  C4  PXY d   1       1.362   4.203  -0.543  0.00  0.00    -0.082 A 
ATOM      7  C5  PXY d   1       1.164   3.396   0.521  0.00  0.00     0.003 A 
ATOM      8  C6  PXY d   1       1.034   2.026   0.318  0.00  0.00     0.003 A 
ENDROOT
TORSDOF 0
ENDMDL
