MODEL 1
REMARK minimizedAffinity -1.73371387
REMARK minimizedRMSD -1
REMARK  0 active torsions:
REMARK  status: ('A' for Active; 'I' for Inactive)
ROOT
ATOM      1  C4' PXY d   1       1.573   5.565  -0.801  0.00  0.00     0.077 C 
ATOM      2  C1' PXY d   1       1.358  -0.204  -0.506  0.00  0.00     0.077 C 
ATOM      3  C1  PXY d   1       1.407   1.309  -0.572  0.00  0.00    -0.082 A 
ATOM      4  C2  PXY d   1       1.615   1.907  -1.734  0.00  0.00     0.003 A 
ATOM      5  C3  PXY d   1       1.694   3.274  -1.807  0.00  0.00     0.003 A 
ATOM      6  C4  PXY d   1       1.506   4.039  -0.688  0.00  0.00    -0.082 A 
ATOM      7  C5  PXY d   1       1.283   3.438   0.500  0.00  0.00     0.003 A 
ATOM      8  C6  PXY d   1       1.247   2.048   0.560  0.00  0.00     0.003 A 
ENDROOT
TORSDOF 0
ENDMDL
