MODEL 1
REMARK minimizedAffinity -2.21282363
REMARK minimizedRMSD -1
REMARK  0 active torsions:
REMARK  status: ('A' for Active; 'I' for Inactive)
ROOT
ATOM      1  C4' PXY d   1       1.314   5.006  -0.343  0.00  0.00     0.077 C 
ATOM      2  C1' PXY d   1       0.966  -0.544  -1.922  0.00  0.00     0.077 C 
ATOM      3  C1  PXY d   1       1.055   0.916  -1.520  0.00  0.00    -0.082 A 
ATOM      4  C2  PXY d   1       1.749   1.257  -0.447  0.00  0.00     0.003 A 
ATOM      5  C3  PXY d   1       1.814   2.569  -0.051  0.00  0.00     0.003 A 
ATOM      6  C4  PXY d   1       1.205   3.546  -0.791  0.00  0.00    -0.082 A 
ATOM      7  C5  PXY d   1       0.504   3.207  -1.893  0.00  0.00     0.003 A 
ATOM      8  C6  PXY d   1       0.416   1.866  -2.255  0.00  0.00     0.003 A 
ENDROOT
TORSDOF 0
ENDMDL
