MODEL 1
REMARK minimizedAffinity 5.04045057
REMARK minimizedRMSD -1
REMARK  0 active torsions:
REMARK  status: ('A' for Active; 'I' for Inactive)
ROOT
ATOM      1  C4' PXY d   1       1.530   4.930  -0.976  0.00  0.00     0.077 C 
ATOM      2  C1' PXY d   1       1.208  -0.702  -2.238  0.00  0.00     0.077 C 
ATOM      3  C1  PXY d   1       1.288   0.778  -1.919  0.00  0.00    -0.082 A 
ATOM      4  C2  PXY d   1       2.135   1.203  -0.996  0.00  0.00     0.003 A 
ATOM      5  C3  PXY d   1       2.197   2.534  -0.672  0.00  0.00     0.003 A 
ATOM      6  C4  PXY d   1       1.423   3.446  -1.338  0.00  0.00    -0.082 A 
ATOM      7  C5  PXY d   1       0.564   3.021  -2.289  0.00  0.00     0.003 A 
ATOM      8  C6  PXY d   1       0.486   1.661  -2.573  0.00  0.00     0.003 A 
ENDROOT
TORSDOF 0
ENDMDL
