MODEL 1
REMARK minimizedAffinity 2.48130727
REMARK minimizedRMSD -1
REMARK  0 active torsions:
REMARK  status: ('A' for Active; 'I' for Inactive)
ROOT
ATOM      1  C4' PXY d   1       2.988  -0.079  -0.304  0.00  0.00     0.077 C 
ATOM      2  C1' PXY d   1       1.068   5.310  -1.130  0.00  0.00     0.077 C 
ATOM      3  C1  PXY d   1       1.573   3.900  -0.901  0.00  0.00    -0.082 A 
ATOM      4  C2  PXY d   1       2.068   3.209  -1.916  0.00  0.00     0.003 A 
ATOM      5  C3  PXY d   1       2.500   1.921  -1.733  0.00  0.00     0.003 A 
ATOM      6  C4  PXY d   1       2.474   1.352  -0.487  0.00  0.00    -0.082 A 
ATOM      7  C5  PXY d   1       1.981   2.054   0.555  0.00  0.00     0.003 A 
ATOM      8  C6  PXY d   1       1.510   3.345   0.340  0.00  0.00     0.003 A 
ENDROOT
TORSDOF 0
ENDMDL
