MODEL 1
REMARK minimizedAffinity 3.87617135
REMARK minimizedRMSD -1
REMARK  0 active torsions:
REMARK  status: ('A' for Active; 'I' for Inactive)
ROOT
ATOM      1  C4' PXY d   1       1.471  -0.408  -0.829  0.00  0.00     0.077 C 
ATOM      2  C1' PXY d   1       1.455   5.358  -0.421  0.00  0.00     0.077 C 
ATOM      3  C1  PXY d   1       1.455   3.847  -0.541  0.00  0.00    -0.082 A 
ATOM      4  C2  PXY d   1       1.348   3.105   0.550  0.00  0.00     0.003 A 
ATOM      5  C3  PXY d   1       1.378   1.737   0.463  0.00  0.00     0.003 A 
ATOM      6  C4  PXY d   1       1.466   1.121  -0.757  0.00  0.00    -0.082 A 
ATOM      7  C5  PXY d   1       1.565   1.872  -1.875  0.00  0.00     0.003 A 
ATOM      8  C6  PXY d   1       1.574   3.259  -1.762  0.00  0.00     0.003 A 
ENDROOT
TORSDOF 0
ENDMDL
