MODEL 1
REMARK minimizedAffinity -2.12305188
REMARK minimizedRMSD -1
REMARK  0 active torsions:
REMARK  status: ('A' for Active; 'I' for Inactive)
ROOT
ATOM      1  C4' PXY d   1       0.452  -2.984  -0.358  0.00  0.00     0.077 C 
ATOM      2  C1' PXY d   1       1.956   2.378  -1.908  0.00  0.00     0.077 C 
ATOM      3  C1  PXY d   1       1.556   0.970  -1.513  0.00  0.00    -0.082 A 
ATOM      4  C2  PXY d   1       1.422   0.663  -0.233  0.00  0.00     0.003 A 
ATOM      5  C3  PXY d   1       1.092  -0.614   0.143  0.00  0.00     0.003 A 
ATOM      6  C4  PXY d   1       0.845  -1.573  -0.803  0.00  0.00    -0.082 A 
ATOM      7  C5  PXY d   1       0.970  -1.264  -2.112  0.00  0.00     0.003 A 
ATOM      8  C6  PXY d   1       1.346   0.027  -2.471  0.00  0.00     0.003 A 
ENDROOT
TORSDOF 0
ENDMDL
