MODEL 1
REMARK minimizedAffinity 1.55428159
REMARK minimizedRMSD -1
REMARK  0 active torsions:
REMARK  status: ('A' for Active; 'I' for Inactive)
ROOT
ATOM      1  C4' PXY d   1       3.018   2.118   2.457  0.00  0.00     0.077 C 
ATOM      2  C1' PXY d   1       1.016   0.180  -2.608  0.00  0.00     0.077 C 
ATOM      3  C1  PXY d   1       1.537   0.700  -1.282  0.00  0.00    -0.082 A 
ATOM      4  C2  PXY d   1       2.523   0.064  -0.672  0.00  0.00     0.003 A 
ATOM      5  C3  PXY d   1       2.985   0.502   0.543  0.00  0.00     0.003 A 
ATOM      6  C4  PXY d   1       2.467   1.634   1.113  0.00  0.00    -0.082 A 
ATOM      7  C5  PXY d   1       1.468   2.295   0.491  0.00  0.00     0.003 A 
ATOM      8  C6  PXY d   1       0.985   1.810  -0.721  0.00  0.00     0.003 A 
ENDROOT
TORSDOF 0
ENDMDL
