MODEL 1
REMARK minimizedAffinity 8.31543064
REMARK minimizedRMSD -1
REMARK  0 active torsions:
REMARK  status: ('A' for Active; 'I' for Inactive)
ROOT
ATOM      1  C4' PXY d   1       2.833   6.000  -0.702  0.00  0.00     0.077 C 
ATOM      2  C1' PXY d   1       0.074   1.896  -3.695  0.00  0.00     0.077 C 
ATOM      3  C1  PXY d   1       0.801   2.963  -2.902  0.00  0.00    -0.082 A 
ATOM      4  C2  PXY d   1       0.433   4.229  -3.018  0.00  0.00     0.003 A 
ATOM      5  C3  PXY d   1       1.101   5.211  -2.332  0.00  0.00     0.003 A 
ATOM      6  C4  PXY d   1       2.121   4.888  -1.477  0.00  0.00    -0.082 A 
ATOM      7  C5  PXY d   1       2.495   3.597  -1.345  0.00  0.00     0.003 A 
ATOM      8  C6  PXY d   1       1.832   2.620  -2.082  0.00  0.00     0.003 A 
ENDROOT
TORSDOF 0
ENDMDL
