MODEL 1
REMARK minimizedAffinity 2.46267271
REMARK minimizedRMSD -1
REMARK  0 active torsions:
REMARK  status: ('A' for Active; 'I' for Inactive)
ROOT
ATOM      1  C4' PXY d   1       2.083   5.077  -1.255  0.00  0.00     0.077 C 
ATOM      2  C1' PXY d   1       0.866  -0.538  -1.887  0.00  0.00     0.077 C 
ATOM      3  C1  PXY d   1       1.185   0.933  -1.709  0.00  0.00    -0.082 A 
ATOM      4  C2  PXY d   1       0.856   1.794  -2.658  0.00  0.00     0.003 A 
ATOM      5  C3  PXY d   1       1.166   3.123  -2.526  0.00  0.00     0.003 A 
ATOM      6  C4  PXY d   1       1.772   3.584  -1.388  0.00  0.00    -0.082 A 
ATOM      7  C5  PXY d   1       2.102   2.714  -0.411  0.00  0.00     0.003 A 
ATOM      8  C6  PXY d   1       1.816   1.362  -0.582  0.00  0.00     0.003 A 
ENDROOT
TORSDOF 0
ENDMDL
