MODEL 1
REMARK minimizedAffinity -4.70470333
REMARK minimizedRMSD -1
REMARK  0 active torsions:
REMARK  status: ('A' for Active; 'I' for Inactive)
ROOT
ATOM      1  C4' PXY d   1       1.594  -0.310  -0.955  0.00  0.00     0.077 C 
ATOM      2  C1' PXY d   1       1.014   5.326   0.192  0.00  0.00     0.077 C 
ATOM      3  C1  PXY d   1       1.164   3.850  -0.122  0.00  0.00    -0.082 A 
ATOM      4  C2  PXY d   1       0.939   2.954   0.825  0.00  0.00     0.003 A 
ATOM      5  C3  PXY d   1       1.102   1.617   0.568  0.00  0.00     0.003 A 
ATOM      6  C4  PXY d   1       1.446   1.190  -0.687  0.00  0.00    -0.082 A 
ATOM      7  C5  PXY d   1       1.666   2.098  -1.661  0.00  0.00     0.003 A 
ATOM      8  C6  PXY d   1       1.537   3.452  -1.369  0.00  0.00     0.003 A 
ENDROOT
TORSDOF 0
ENDMDL
