MODEL 1
REMARK minimizedAffinity -6.18653202
REMARK minimizedRMSD -1
REMARK  2 active torsions:
REMARK  status: ('A' for Active; 'I' for Inactive)
REMARK    1  A    between atoms: C1_2  and  C2_3 
REMARK    2  A    between atoms: C2_3  and  C3_4 
ROOT
ATOM      1  C3  UNL d   1       0.055   0.021   0.062  0.00  0.00    -0.075 A 
ATOM      2  C4  UNL d   1       0.222  -1.312  -0.342  0.00  0.00     0.002 A 
ATOM      3  C5  UNL d   1       1.415  -1.987  -0.081  0.00  0.00     0.002 A 
ATOM      4  C6  UNL d   1       2.457  -1.338   0.576  0.00  0.00    -0.004 A 
ATOM      5  C7  UNL d   1       2.309  -0.009   0.967  0.00  0.00     0.002 A 
ATOM      6  C8  UNL d   1       1.115   0.668   0.711  0.00  0.00     0.002 A 
ENDROOT
BRANCH   1   7
ATOM      7  C2  UNL d   1      -1.243   0.748  -0.191  0.00  0.00     0.056 C 
BRANCH   7   8
ATOM      8  C1  UNL d   1      -2.199   0.754   1.007  0.00  0.00     0.007 C 
ATOM      9  C   UNL d   1      -3.406   1.660   0.807  0.00  0.00     0.009 C 
ENDBRANCH   7   8
ENDBRANCH   1   7
TORSDOF 2
ENDMDL
