MODEL 1
REMARK minimizedAffinity -4.44278955
REMARK minimizedRMSD -1
REMARK  2 active torsions:
REMARK  status: ('A' for Active; 'I' for Inactive)
REMARK    1  A    between atoms: C1_2  and  C2_3 
REMARK    2  A    between atoms: C2_3  and  C3_4 
ROOT
ATOM      1  C3  UNL d   1      -0.211  -0.013  -0.247  0.00  0.00    -0.075 A 
ATOM      2  C4  UNL d   1       0.178  -1.256  -0.768  0.00  0.00     0.002 A 
ATOM      3  C5  UNL d   1       1.399  -1.825  -0.406  0.00  0.00     0.002 A 
ATOM      4  C6  UNL d   1       2.250  -1.156   0.471  0.00  0.00    -0.004 A 
ATOM      5  C7  UNL d   1       1.881   0.087   0.982  0.00  0.00     0.002 A 
ATOM      6  C8  UNL d   1       0.658   0.656   0.624  0.00  0.00     0.002 A 
ENDROOT
BRANCH   1   7
ATOM      7  C2  UNL d   1      -1.544   0.594  -0.612  0.00  0.00     0.056 C 
BRANCH   7   8
ATOM      8  C1  UNL d   1      -2.496   0.768   0.575  0.00  0.00     0.007 C 
ATOM      9  C   UNL d   1      -3.963   0.817   0.167  0.00  0.00     0.009 C 
ENDBRANCH   7   8
ENDBRANCH   1   7
TORSDOF 2
ENDMDL
