MODEL 1
REMARK minimizedAffinity -3.63724709
REMARK minimizedRMSD -1
REMARK  2 active torsions:
REMARK  status: ('A' for Active; 'I' for Inactive)
REMARK    1  A    between atoms: C1_2  and  C2_3 
REMARK    2  A    between atoms: C2_3  and  C3_4 
ROOT
ATOM      1  C3  UNL d   1      -0.158  -0.003  -0.193  0.00  0.00    -0.075 A 
ATOM      2  C4  UNL d   1       0.203  -1.038  -1.069  0.00  0.00     0.002 A 
ATOM      3  C5  UNL d   1       1.345  -1.802  -0.829  0.00  0.00     0.002 A 
ATOM      4  C6  UNL d   1       2.145  -1.537   0.280  0.00  0.00    -0.004 A 
ATOM      5  C7  UNL d   1       1.805  -0.501   1.148  0.00  0.00     0.002 A 
ATOM      6  C8  UNL d   1       0.661   0.263   0.913  0.00  0.00     0.002 A 
ENDROOT
BRANCH   1   7
ATOM      7  C2  UNL d   1      -1.408   0.809  -0.430  0.00  0.00     0.056 C 
BRANCH   7   8
ATOM      8  C1  UNL d   1      -2.290   0.973   0.812  0.00  0.00     0.007 C 
ATOM      9  C   UNL d   1      -3.773   0.771   0.527  0.00  0.00     0.009 C 
ENDBRANCH   7   8
ENDBRANCH   1   7
TORSDOF 2
ENDMDL
