MODEL 1
REMARK minimizedAffinity -4.72995424
REMARK minimizedRMSD -1
REMARK  2 active torsions:
REMARK  status: ('A' for Active; 'I' for Inactive)
REMARK    1  A    between atoms: C1_2  and  C2_3 
REMARK    2  A    between atoms: C2_3  and  C3_4 
ROOT
ATOM      1  C3  UNL d   1      -0.722   0.925  -0.167  0.00  0.00    -0.075 A 
ATOM      2  C4  UNL d   1      -0.221  -0.371   0.024  0.00  0.00     0.002 A 
ATOM      3  C5  UNL d   1       1.129  -0.573   0.314  0.00  0.00     0.002 A 
ATOM      4  C6  UNL d   1       1.995   0.514   0.405  0.00  0.00    -0.004 A 
ATOM      5  C7  UNL d   1       1.512   1.804   0.201  0.00  0.00     0.002 A 
ATOM      6  C8  UNL d   1       0.161   2.010  -0.085  0.00  0.00     0.002 A 
ENDROOT
BRANCH   1   7
ATOM      7  C2  UNL d   1      -2.187   1.153  -0.451  0.00  0.00     0.056 C 
BRANCH   7   8
ATOM      8  C1  UNL d   1      -2.964   1.756   0.724  0.00  0.00     0.007 C 
ATOM      9  C   UNL d   1      -4.401   1.259   0.812  0.00  0.00     0.009 C 
ENDBRANCH   7   8
ENDBRANCH   1   7
TORSDOF 2
ENDMDL
