MODEL 1
REMARK minimizedAffinity 9.17127228
REMARK minimizedRMSD -1
REMARK  0 active torsions:
REMARK  status: ('A' for Active; 'I' for Inactive)
ROOT
ATOM      1  C4' PXY d   1       0.261   4.777   2.499  0.00  0.00     0.077 C 
ATOM      2  C1' PXY d   1       4.524   2.426  -0.618  0.00  0.00     0.077 C 
ATOM      3  C1  PXY d   1       3.399   3.033   0.197  0.00  0.00    -0.082 A 
ATOM      4  C2  PXY d   1       3.375   4.338   0.409  0.00  0.00     0.003 A 
ATOM      5  C3  PXY d   1       2.382   4.899   1.171  0.00  0.00     0.003 A 
ATOM      6  C4  PXY d   1       1.373   4.123   1.675  0.00  0.00    -0.082 A 
ATOM      7  C5  PXY d   1       1.384   2.791   1.453  0.00  0.00     0.003 A 
ATOM      8  C6  PXY d   1       2.424   2.236   0.713  0.00  0.00     0.003 A 
ENDROOT
TORSDOF 0
ENDMDL
