MODEL 1
REMARK minimizedAffinity -2.07920718
REMARK minimizedRMSD -1
REMARK  0 active torsions:
REMARK  status: ('A' for Active; 'I' for Inactive)
ROOT
ATOM      1  C4' PXY d   1      -1.303  -2.257   0.538  0.00  0.00     0.077 C 
ATOM      2  C1' PXY d   1       1.078   3.010   0.628  0.00  0.00     0.077 C 
ATOM      3  C1  PXY d   1       0.448   1.631   0.616  0.00  0.00    -0.082 A 
ATOM      4  C2  PXY d   1       1.007   0.662  -0.091  0.00  0.00     0.003 A 
ATOM      5  C3  PXY d   1       0.432  -0.582  -0.139  0.00  0.00     0.003 A 
ATOM      6  C4  PXY d   1      -0.697  -0.852   0.587  0.00  0.00    -0.082 A 
ATOM      7  C5  PXY d   1      -1.267   0.128   1.319  0.00  0.00     0.003 A 
ATOM      8  C6  PXY d   1      -0.692   1.395   1.322  0.00  0.00     0.003 A 
ENDROOT
TORSDOF 0
ENDMDL
