MODEL 1
REMARK minimizedAffinity 4.92764425
REMARK minimizedRMSD -1
REMARK  0 active torsions:
REMARK  status: ('A' for Active; 'I' for Inactive)
ROOT
ATOM      1  C4' PXY d   1       4.363   1.158  -4.322  0.00  0.00     0.077 C 
ATOM      2  C1' PXY d   1       3.000   3.966   0.544  0.00  0.00     0.077 C 
ATOM      3  C1  PXY d   1       3.367   3.223  -0.726  0.00  0.00    -0.082 A 
ATOM      4  C2  PXY d   1       3.024   3.727  -1.900  0.00  0.00     0.003 A 
ATOM      5  C3  PXY d   1       3.320   3.053  -3.057  0.00  0.00     0.003 A 
ATOM      6  C4  PXY d   1       4.021   1.878  -3.014  0.00  0.00    -0.082 A 
ATOM      7  C5  PXY d   1       4.385   1.363  -1.820  0.00  0.00     0.003 A 
ATOM      8  C6  PXY d   1       4.039   2.042  -0.655  0.00  0.00     0.003 A 
ENDROOT
TORSDOF 0
ENDMDL
