MODEL 1
REMARK minimizedAffinity 2.67912912
REMARK minimizedRMSD -1
REMARK  0 active torsions:
REMARK  status: ('A' for Active; 'I' for Inactive)
ROOT
ATOM      1  C4' PXY d   1      -3.444   0.758   1.656  0.00  0.00     0.077 C 
ATOM      2  C1' PXY d   1       0.908  -0.493  -1.937  0.00  0.00     0.077 C 
ATOM      3  C1  PXY d   1      -0.238  -0.178  -0.996  0.00  0.00    -0.082 A 
ATOM      4  C2  PXY d   1      -0.669   1.068  -0.885  0.00  0.00     0.003 A 
ATOM      5  C3  PXY d   1      -1.683   1.377  -0.015  0.00  0.00     0.003 A 
ATOM      6  C4  PXY d   1      -2.297   0.391   0.711  0.00  0.00    -0.082 A 
ATOM      7  C5  PXY d   1      -1.869  -0.884   0.596  0.00  0.00     0.003 A 
ATOM      8  C6  PXY d   1      -0.812  -1.170  -0.262  0.00  0.00     0.003 A 
ENDROOT
TORSDOF 0
ENDMDL
