MODEL 1
REMARK minimizedAffinity -3.34579921
REMARK minimizedRMSD -1
REMARK  0 active torsions:
REMARK  status: ('A' for Active; 'I' for Inactive)
ROOT
ATOM      1  C4' PXY d   1       0.765   2.594   0.426  0.00  0.00     0.077 C 
ATOM      2  C1' PXY d   1      -1.024  -2.896   0.166  0.00  0.00     0.077 C 
ATOM      3  C1  PXY d   1      -0.546  -1.459   0.225  0.00  0.00    -0.082 A 
ATOM      4  C2  PXY d   1      -0.726  -0.755   1.330  0.00  0.00     0.003 A 
ATOM      5  C3  PXY d   1      -0.329   0.556   1.390  0.00  0.00     0.003 A 
ATOM      6  C4  PXY d   1       0.307   1.137   0.325  0.00  0.00    -0.082 A 
ATOM      7  C5  PXY d   1       0.504   0.421  -0.803  0.00  0.00     0.003 A 
ATOM      8  C6  PXY d   1       0.057  -0.896  -0.857  0.00  0.00     0.003 A 
ENDROOT
TORSDOF 0
ENDMDL
