MODEL 1
REMARK minimizedAffinity -0.886596441
REMARK minimizedRMSD -1
REMARK  0 active torsions:
REMARK  status: ('A' for Active; 'I' for Inactive)
ROOT
ATOM      1  C4' PXY d   1       0.368  -0.803  -2.867  0.00  0.00     0.077 C 
ATOM      2  C1' PXY d   1      -1.417  -0.832   2.631  0.00  0.00     0.077 C 
ATOM      3  C1  PXY d   1      -0.950  -0.812   1.189  0.00  0.00    -0.082 A 
ATOM      4  C2  PXY d   1      -1.076  -1.899   0.445  0.00  0.00     0.003 A 
ATOM      5  C3  PXY d   1      -0.630  -1.907  -0.851  0.00  0.00     0.003 A 
ATOM      6  C4  PXY d   1      -0.098  -0.775  -1.409  0.00  0.00    -0.082 A 
ATOM      7  C5  PXY d   1       0.024   0.341  -0.659  0.00  0.00     0.003 A 
ATOM      8  C6  PXY d   1      -0.397   0.317   0.667  0.00  0.00     0.003 A 
ENDROOT
TORSDOF 0
ENDMDL
