MODEL 1
REMARK minimizedAffinity -0.50669992
REMARK minimizedRMSD -1
REMARK  0 active torsions:
REMARK  status: ('A' for Active; 'I' for Inactive)
ROOT
ATOM      1  C4' PXY d   1       0.347  -0.784  -2.584  0.00  0.00     0.077 C 
ATOM      2  C1' PXY d   1      -1.239  -0.805   2.975  0.00  0.00     0.077 C 
ATOM      3  C1  PXY d   1      -0.824  -0.786   1.517  0.00  0.00    -0.082 A 
ATOM      4  C2  PXY d   1      -1.046  -1.848   0.760  0.00  0.00     0.003 A 
ATOM      5  C3  PXY d   1      -0.648  -1.861  -0.552  0.00  0.00     0.003 A 
ATOM      6  C4  PXY d   1      -0.064  -0.755  -1.109  0.00  0.00    -0.082 A 
ATOM      7  C5  PXY d   1       0.157   0.337  -0.346  0.00  0.00     0.003 A 
ATOM      8  C6  PXY d   1      -0.217   0.314   0.994  0.00  0.00     0.003 A 
ENDROOT
TORSDOF 0
ENDMDL
