MODEL 1
REMARK minimizedAffinity -2.29408669
REMARK minimizedRMSD -1
REMARK  0 active torsions:
REMARK  status: ('A' for Active; 'I' for Inactive)
ROOT
ATOM      1  C4' PXY d   1      -0.384   0.016  -0.396  0.00  0.00     0.077 C 
ATOM      2  C1' PXY d   1       3.127   4.165   1.573  0.00  0.00     0.077 C 
ATOM      3  C1  PXY d   1       2.217   3.069   1.055  0.00  0.00    -0.082 A 
ATOM      4  C2  PXY d   1       1.049   3.387   0.519  0.00  0.00     0.003 A 
ATOM      5  C3  PXY d   1       0.200   2.407   0.075  0.00  0.00     0.003 A 
ATOM      6  C4  PXY d   1       0.572   1.090   0.131  0.00  0.00    -0.082 A 
ATOM      7  C5  PXY d   1       1.766   0.758   0.666  0.00  0.00     0.003 A 
ATOM      8  C6  PXY d   1       2.596   1.766   1.149  0.00  0.00     0.003 A 
ENDROOT
TORSDOF 0
ENDMDL
