MODEL 1
REMARK minimizedAffinity -1.83382547
REMARK minimizedRMSD -1
REMARK  0 active torsions:
REMARK  status: ('A' for Active; 'I' for Inactive)
ROOT
ATOM      1  C4' PXY d   1       0.048   2.664   0.277  0.00  0.00     0.077 C 
ATOM      2  C1' PXY d   1      -0.588  -3.081   0.274  0.00  0.00     0.077 C 
ATOM      3  C1  PXY d   1      -0.412  -1.576   0.266  0.00  0.00    -0.082 A 
ATOM      4  C2  PXY d   1      -0.729  -0.874   1.342  0.00  0.00     0.003 A 
ATOM      5  C3  PXY d   1      -0.606   0.492   1.340  0.00  0.00     0.003 A 
ATOM      6  C4  PXY d   1      -0.104   1.141   0.244  0.00  0.00    -0.082 A 
ATOM      7  C5  PXY d   1       0.232   0.431  -0.854  0.00  0.00     0.003 A 
ATOM      8  C6  PXY d   1       0.061  -0.950  -0.847  0.00  0.00     0.003 A 
ENDROOT
TORSDOF 0
ENDMDL
