MODEL 1
REMARK minimizedAffinity -3.52226925
REMARK minimizedRMSD -1
REMARK  0 active torsions:
REMARK  status: ('A' for Active; 'I' for Inactive)
ROOT
ATOM      1  C4' PXY d   1       0.819   2.403   0.401  0.00  0.00     0.077 C 
ATOM      2  C1' PXY d   1      -1.197  -3.007   0.130  0.00  0.00     0.077 C 
ATOM      3  C1  PXY d   1      -0.660  -1.591   0.191  0.00  0.00    -0.082 A 
ATOM      4  C2  PXY d   1      -0.767  -0.899   1.314  0.00  0.00     0.003 A 
ATOM      5  C3  PXY d   1      -0.315   0.394   1.377  0.00  0.00     0.003 A 
ATOM      6  C4  PXY d   1       0.300   0.967   0.296  0.00  0.00    -0.082 A 
ATOM      7  C5  PXY d   1       0.422   0.264  -0.850  0.00  0.00     0.003 A 
ATOM      8  C6  PXY d   1      -0.080  -1.033  -0.906  0.00  0.00     0.003 A 
ENDROOT
TORSDOF 0
ENDMDL
