MODEL 1
REMARK minimizedAffinity -2.80947304
REMARK minimizedRMSD -1
REMARK  0 active torsions:
REMARK  status: ('A' for Active; 'I' for Inactive)
ROOT
ATOM      1  C4' PXY d   1      -0.054   2.788   0.329  0.00  0.00     0.077 C 
ATOM      2  C1' PXY d   1      -1.023  -2.901   0.671  0.00  0.00     0.077 C 
ATOM      3  C1  PXY d   1      -0.759  -1.411   0.573  0.00  0.00    -0.082 A 
ATOM      4  C2  PXY d   1      -1.152  -0.612   1.551  0.00  0.00     0.003 A 
ATOM      5  C3  PXY d   1      -0.950   0.742   1.464  0.00  0.00     0.003 A 
ATOM      6  C4  PXY d   1      -0.291   1.276   0.390  0.00  0.00    -0.082 A 
ATOM      7  C5  PXY d   1       0.123   0.466  -0.607  0.00  0.00     0.003 A 
ATOM      8  C6  PXY d   1      -0.128  -0.901  -0.519  0.00  0.00     0.003 A 
ENDROOT
TORSDOF 0
ENDMDL
