MODEL 1
REMARK minimizedAffinity -3.94954443
REMARK minimizedRMSD -1
REMARK  0 active torsions:
REMARK  status: ('A' for Active; 'I' for Inactive)
ROOT
ATOM      1  C4' PXY d   1       1.551   2.990   0.232  0.00  0.00     0.077 C 
ATOM      2  C1' PXY d   1      -1.170  -2.103   0.507  0.00  0.00     0.077 C 
ATOM      3  C1  PXY d   1      -0.462  -0.765   0.423  0.00  0.00    -0.082 A 
ATOM      4  C2  PXY d   1       0.666  -0.578   1.090  0.00  0.00     0.003 A 
ATOM      5  C3  PXY d   1       1.302   0.636   1.052  0.00  0.00     0.003 A 
ATOM      6  C4  PXY d   1       0.807   1.653   0.280  0.00  0.00    -0.082 A 
ATOM      7  C5  PXY d   1      -0.337   1.467  -0.412  0.00  0.00     0.003 A 
ATOM      8  C6  PXY d   1      -0.989   0.240  -0.327  0.00  0.00     0.003 A 
ENDROOT
TORSDOF 0
ENDMDL
