MODEL 1
REMARK minimizedAffinity -3.49043441
REMARK minimizedRMSD -1
REMARK  0 active torsions:
REMARK  status: ('A' for Active; 'I' for Inactive)
ROOT
ATOM      1  C4' PXY d   1       1.514   2.819   0.348  0.00  0.00     0.077 C 
ATOM      2  C1' PXY d   1      -1.763  -1.903   0.971  0.00  0.00     0.077 C 
ATOM      3  C1  PXY d   1      -0.906  -0.665   0.795  0.00  0.00    -0.082 A 
ATOM      4  C2  PXY d   1       0.032  -0.386   1.686  0.00  0.00     0.003 A 
ATOM      5  C3  PXY d   1       0.794   0.747   1.559  0.00  0.00     0.003 A 
ATOM      6  C4  PXY d   1       0.631   1.575   0.481  0.00  0.00    -0.082 A 
ATOM      7  C5  PXY d   1      -0.316   1.291  -0.438  0.00  0.00     0.003 A 
ATOM      8  C6  PXY d   1      -1.108   0.159  -0.269  0.00  0.00     0.003 A 
ENDROOT
TORSDOF 0
ENDMDL
