MODEL 1
REMARK minimizedAffinity -5.78009224
REMARK minimizedRMSD -1
REMARK  0 active torsions:
REMARK  status: ('A' for Active; 'I' for Inactive)
ROOT
ATOM      1  C4' PXY d   1      -0.129   1.549  -0.333  0.00  0.00     0.077 C 
ATOM      2  C1' PXY d   1      -0.002  -4.184  -1.056  0.00  0.00     0.077 C 
ATOM      3  C1  PXY d   1      -0.027  -2.679  -0.877  0.00  0.00    -0.082 A 
ATOM      4  C2  PXY d   1      -0.319  -2.167   0.307  0.00  0.00     0.003 A 
ATOM      5  C3  PXY d   1      -0.378  -0.808   0.480  0.00  0.00     0.003 A 
ATOM      6  C4  PXY d   1      -0.082   0.035  -0.558  0.00  0.00    -0.082 A 
ATOM      7  C5  PXY d   1       0.228  -0.480  -1.766  0.00  0.00     0.003 A 
ATOM      8  C6  PXY d   1       0.241  -1.862  -1.931  0.00  0.00     0.003 A 
ENDROOT
TORSDOF 0
ENDMDL
