MODEL 1
REMARK minimizedAffinity -2.7561667
REMARK minimizedRMSD -1
REMARK  0 active torsions:
REMARK  status: ('A' for Active; 'I' for Inactive)
ROOT
ATOM      1  C4' PXY d   1      -0.766  -3.509  -3.004  0.00  0.00     0.077 C 
ATOM      2  C1' PXY d   1      -0.551   0.974   0.639  0.00  0.00     0.077 C 
ATOM      3  C1  PXY d   1      -0.607  -0.210  -0.306  0.00  0.00    -0.082 A 
ATOM      4  C2  PXY d   1      -0.201  -0.067  -1.557  0.00  0.00     0.003 A 
ATOM      5  C3  PXY d   1      -0.275  -1.119  -2.434  0.00  0.00     0.003 A 
ATOM      6  C4  PXY d   1      -0.719  -2.343  -2.012  0.00  0.00    -0.082 A 
ATOM      7  C5  PXY d   1      -1.125  -2.499  -0.734  0.00  0.00     0.003 A 
ATOM      8  C6  PXY d   1      -1.081  -1.409   0.130  0.00  0.00     0.003 A 
ENDROOT
TORSDOF 0
ENDMDL
