MODEL 1
REMARK minimizedAffinity -5.25956774
REMARK minimizedRMSD -1
REMARK  0 active torsions:
REMARK  status: ('A' for Active; 'I' for Inactive)
ROOT
ATOM      1  C4' PXY d   1       0.688  -3.614  -2.393  0.00  0.00     0.077 C 
ATOM      2  C1' PXY d   1      -1.459  -0.024   1.597  0.00  0.00     0.077 C 
ATOM      3  C1  PXY d   1      -0.896  -0.975   0.559  0.00  0.00    -0.082 A 
ATOM      4  C2  PXY d   1      -0.246  -0.492  -0.487  0.00  0.00     0.003 A 
ATOM      5  C3  PXY d   1       0.242  -1.336  -1.451  0.00  0.00     0.003 A 
ATOM      6  C4  PXY d   1       0.110  -2.692  -1.316  0.00  0.00    -0.082 A 
ATOM      7  C5  PXY d   1      -0.543  -3.194  -0.246  0.00  0.00     0.003 A 
ATOM      8  C6  PXY d   1      -1.067  -2.318   0.700  0.00  0.00     0.003 A 
ENDROOT
TORSDOF 0
ENDMDL
