MODEL 1
REMARK minimizedAffinity -4.19521618
REMARK minimizedRMSD -1
REMARK  0 active torsions:
REMARK  status: ('A' for Active; 'I' for Inactive)
ROOT
ATOM      1  C4' PXY d   1       1.107   2.594  -0.082  0.00  0.00     0.077 C 
ATOM      2  C1' PXY d   1      -1.050  -2.673   0.932  0.00  0.00     0.077 C 
ATOM      3  C1  PXY d   1      -0.487  -1.293   0.653  0.00  0.00    -0.082 A 
ATOM      4  C2  PXY d   1       0.402  -0.769   1.482  0.00  0.00     0.003 A 
ATOM      5  C3  PXY d   1       0.897   0.490   1.263  0.00  0.00     0.003 A 
ATOM      6  C4  PXY d   1       0.519   1.200   0.155  0.00  0.00    -0.082 A 
ATOM      7  C5  PXY d   1      -0.380   0.669  -0.701  0.00  0.00     0.003 A 
ATOM      8  C6  PXY d   1      -0.901  -0.595  -0.438  0.00  0.00     0.003 A 
ENDROOT
TORSDOF 0
ENDMDL
