MODEL 1
REMARK minimizedAffinity -0.70303762
REMARK minimizedRMSD -1
REMARK  1 active torsions:
REMARK  status: ('A' for Active; 'I' for Inactive)
REMARK    1  A    between atoms: N_2  and  C1_3 
ROOT
ATOM      1  C1  UNL d   1       3.383   5.396   4.102  0.00  0.00     0.143 A 
ATOM      2  C2  UNL d   1       4.030   5.995   5.189  0.00  0.00    -0.057 A 
ATOM      3  C3  UNL d   1       4.999   5.304   5.928  0.00  0.00     0.033 A 
ATOM      4  C4  UNL d   1       5.318   3.989   5.609  0.00  0.00    -0.042 A 
ATOM      5  C5  UNL d   1       4.670   3.365   4.548  0.00  0.00     0.033 A 
ATOM      6  C6  UNL d   1       3.709   4.062   3.810  0.00  0.00    -0.057 A 
ENDROOT
BRANCH   1   7
ATOM      7  N   UNL d   1       2.341   5.996   3.391  0.00  0.00    -0.732 N 
ATOM      8  C   UNL d   1       0.994   5.999   3.919  0.00  0.00     0.284 C 
ATOM      9  H3  UNL d   1       2.621   6.874   2.959  0.00  0.00     0.395 HD
ENDBRANCH   1   7
TORSDOF 1
ENDMDL
