MODEL 1
REMARK minimizedAffinity 13.1440229
REMARK minimizedRMSD -1
REMARK  1 active torsions:
REMARK  status: ('A' for Active; 'I' for Inactive)
REMARK    1  A    between atoms: N_2  and  C1_3 
ROOT
ATOM      1  C1  UNL d   1       3.549  -0.767  -0.250  0.00  0.00     0.143 A 
ATOM      2  C2  UNL d   1       4.527  -0.610   0.738  0.00  0.00    -0.057 A 
ATOM      3  C3  UNL d   1       4.837  -1.648   1.625  0.00  0.00     0.033 A 
ATOM      4  C4  UNL d   1       4.153  -2.857   1.556  0.00  0.00    -0.042 A 
ATOM      5  C5  UNL d   1       3.160  -3.027   0.598  0.00  0.00     0.033 A 
ATOM      6  C6  UNL d   1       2.859  -1.989  -0.289  0.00  0.00    -0.057 A 
ENDROOT
BRANCH   1   7
ATOM      7  N   UNL d   1       3.126   0.260  -1.097  0.00  0.00    -0.732 N 
ATOM      8  C   UNL d   1       2.128   1.212  -0.659  0.00  0.00     0.284 C 
ATOM      9  H3  UNL d   1       3.895   0.675  -1.619  0.00  0.00     0.395 HD
ENDBRANCH   1   7
TORSDOF 1
ENDMDL
