MODEL 1
REMARK minimizedAffinity 8.05667591
REMARK minimizedRMSD -1
REMARK  1 active torsions:
REMARK  status: ('A' for Active; 'I' for Inactive)
REMARK    1  A    between atoms: N_2  and  C1_3 
ROOT
ATOM      1  C1  UNL d   1       2.692  -2.614  -0.910  0.00  0.00     0.143 A 
ATOM      2  C2  UNL d   1       3.646  -2.145  -1.819  0.00  0.00    -0.057 A 
ATOM      3  C3  UNL d   1       3.401  -2.151  -3.197  0.00  0.00     0.033 A 
ATOM      4  C4  UNL d   1       2.204  -2.656  -3.695  0.00  0.00    -0.042 A 
ATOM      5  C5  UNL d   1       1.251  -3.150  -2.812  0.00  0.00     0.033 A 
ATOM      6  C6  UNL d   1       1.499  -3.135  -1.436  0.00  0.00    -0.057 A 
ENDROOT
BRANCH   1   7
ATOM      7  N   UNL d   1       2.915  -2.724   0.465  0.00  0.00    -0.732 N 
ATOM      8  C   UNL d   1       4.095  -2.144   1.069  0.00  0.00     0.284 C 
ATOM      9  H3  UNL d   1       2.064  -2.597   1.008  0.00  0.00     0.395 HD
ENDBRANCH   1   7
TORSDOF 1
ENDMDL
