MODEL 1
REMARK minimizedAffinity 5.89017153
REMARK minimizedRMSD -1
REMARK  1 active torsions:
REMARK  status: ('A' for Active; 'I' for Inactive)
REMARK    1  A    between atoms: N_2  and  C1_3 
ROOT
ATOM      1  C1  UNL d   1      -4.720   2.233   2.175  0.00  0.00     0.143 A 
ATOM      2  C2  UNL d   1      -4.638   0.957   1.607  0.00  0.00    -0.057 A 
ATOM      3  C3  UNL d   1      -4.112   0.766   0.323  0.00  0.00     0.033 A 
ATOM      4  C4  UNL d   1      -3.684   1.855  -0.429  0.00  0.00    -0.042 A 
ATOM      5  C5  UNL d   1      -3.779   3.135   0.106  0.00  0.00     0.033 A 
ATOM      6  C6  UNL d   1      -4.299   3.318   1.391  0.00  0.00    -0.057 A 
ENDROOT
BRANCH   1   7
ATOM      7  N   UNL d   1      -5.324   2.498   3.406  0.00  0.00    -0.732 N 
ATOM      8  C   UNL d   1      -5.616   3.858   3.806  0.00  0.00     0.284 C 
ATOM      9  H3  UNL d   1      -6.059   1.832   3.630  0.00  0.00     0.395 HD
ENDBRANCH   1   7
TORSDOF 1
ENDMDL
