MODEL 1
REMARK minimizedAffinity -2.0769906
REMARK minimizedRMSD -1
REMARK  1 active torsions:
REMARK  status: ('A' for Active; 'I' for Inactive)
REMARK    1  A    between atoms: N_2  and  C1_3 
ROOT
ATOM      1  C1  UNL d   1       1.644   5.201   4.938  0.00  0.00     0.143 A 
ATOM      2  C2  UNL d   1       2.720   6.000   5.341  0.00  0.00    -0.057 A 
ATOM      3  C3  UNL d   1       3.992   5.454   5.548  0.00  0.00     0.033 A 
ATOM      4  C4  UNL d   1       4.206   4.090   5.383  0.00  0.00    -0.042 A 
ATOM      5  C5  UNL d   1       3.146   3.272   5.007  0.00  0.00     0.033 A 
ATOM      6  C6  UNL d   1       1.879   3.824   4.795  0.00  0.00    -0.057 A 
ENDROOT
BRANCH   1   7
ATOM      7  N   UNL d   1       0.334   5.667   4.811  0.00  0.00    -0.732 N 
ATOM      8  C   UNL d   1      -0.474   5.923   5.985  0.00  0.00     0.284 C 
ATOM      9  H3  UNL d   1       0.240   6.369   4.081  0.00  0.00     0.395 HD
ENDBRANCH   1   7
TORSDOF 1
ENDMDL
