MODEL 1
REMARK minimizedAffinity 4.48991585
REMARK minimizedRMSD -1
REMARK  0 active torsions:
REMARK  status: ('A' for Active; 'I' for Inactive)
ROOT
ATOM      1  C1  BNZ d   1       3.077   0.385   0.861  0.00  0.00     0.000 A 
ATOM      2  C2  BNZ d   1       3.178  -0.920   1.263  0.00  0.00     0.000 A 
ATOM      3  C3  BNZ d   1       2.081  -1.735   1.274  0.00  0.00     0.000 A 
ATOM      4  C4  BNZ d   1       0.879  -1.235   0.922  0.00  0.00     0.000 A 
ATOM      5  C5  BNZ d   1       0.760   0.082   0.523  0.00  0.00     0.000 A 
ATOM      6  C6  BNZ d   1       1.873   0.889   0.476  0.00  0.00     0.000 A 
ENDROOT
TORSDOF 0
ENDMDL
