MODEL 1
REMARK minimizedAffinity -1.36131859
REMARK minimizedRMSD -1
REMARK  0 active torsions:
REMARK  status: ('A' for Active; 'I' for Inactive)
ROOT
ATOM      1  C1  BNZ d   1       2.073  -4.260  -4.623  0.00  0.00     0.000 A 
ATOM      2  C2  BNZ d   1       2.046  -5.139  -5.673  0.00  0.00     0.000 A 
ATOM      3  C3  BNZ d   1       0.994  -5.996  -5.841  0.00  0.00     0.000 A 
ATOM      4  C4  BNZ d   1      -0.008  -6.000  -4.940  0.00  0.00     0.000 A 
ATOM      5  C5  BNZ d   1       0.009  -5.126  -3.871  0.00  0.00     0.000 A 
ATOM      6  C6  BNZ d   1       1.050  -4.238  -3.726  0.00  0.00     0.000 A 
ENDROOT
TORSDOF 0
ENDMDL
