MODEL 1
REMARK minimizedAffinity 12.3159361
REMARK minimizedRMSD -1
REMARK  0 active torsions:
REMARK  status: ('A' for Active; 'I' for Inactive)
ROOT
ATOM      1  C1  BNZ d   1       2.295  -6.000  -5.975  0.00  0.00     0.000 A 
ATOM      2  C2  BNZ d   1       0.927  -5.999  -5.916  0.00  0.00     0.000 A 
ATOM      3  C3  BNZ d   1       0.278  -5.964  -4.714  0.00  0.00     0.000 A 
ATOM      4  C4  BNZ d   1       0.996  -5.969  -3.572  0.00  0.00     0.000 A 
ATOM      5  C5  BNZ d   1       2.376  -5.978  -3.614  0.00  0.00     0.000 A 
ATOM      6  C6  BNZ d   1       3.026  -5.975  -4.827  0.00  0.00     0.000 A 
ENDROOT
TORSDOF 0
ENDMDL
