MODEL 1
REMARK minimizedAffinity 13.8045397
REMARK minimizedRMSD -1
REMARK  0 active torsions:
REMARK  status: ('A' for Active; 'I' for Inactive)
ROOT
ATOM      1  C1  BNZ d   1       4.456  -1.456  -1.077  0.00  0.00     0.000 A 
ATOM      2  C2  BNZ d   1       4.922  -1.486  -2.364  0.00  0.00     0.000 A 
ATOM      3  C3  BNZ d   1       5.150  -0.327  -3.053  0.00  0.00     0.000 A 
ATOM      4  C4  BNZ d   1       4.874   0.856  -2.469  0.00  0.00     0.000 A 
ATOM      5  C5  BNZ d   1       4.395   0.903  -1.175  0.00  0.00     0.000 A 
ATOM      6  C6  BNZ d   1       4.204  -0.264  -0.471  0.00  0.00     0.000 A 
ENDROOT
TORSDOF 0
ENDMDL
