MODEL 1
REMARK minimizedAffinity 1.09380555
REMARK minimizedRMSD -1
REMARK  0 active torsions:
REMARK  status: ('A' for Active; 'I' for Inactive)
ROOT
ATOM      1  C1  BNZ d   1       3.051  -4.862  -5.999  0.00  0.00     0.000 A 
ATOM      2  C2  BNZ d   1       2.265  -5.984  -5.999  0.00  0.00     0.000 A 
ATOM      3  C3  BNZ d   1       1.067  -5.999  -5.342  0.00  0.00     0.000 A 
ATOM      4  C4  BNZ d   1       0.675  -4.908  -4.653  0.00  0.00     0.000 A 
ATOM      5  C5  BNZ d   1       1.460  -3.772  -4.636  0.00  0.00     0.000 A 
ATOM      6  C6  BNZ d   1       2.648  -3.748  -5.331  0.00  0.00     0.000 A 
ENDROOT
TORSDOF 0
ENDMDL
