MODEL 1
REMARK minimizedAffinity 11.3970308
REMARK minimizedRMSD -1
REMARK  0 active torsions:
REMARK  status: ('A' for Active; 'I' for Inactive)
ROOT
ATOM      1  C1  BNZ d   1       0.506  -4.816  -2.662  0.00  0.00     0.000 A 
ATOM      2  C2  BNZ d   1       0.699  -5.994  -3.332  0.00  0.00     0.000 A 
ATOM      3  C3  BNZ d   1       1.144  -6.000  -4.624  0.00  0.00     0.000 A 
ATOM      4  C4  BNZ d   1       1.358  -4.828  -5.257  0.00  0.00     0.000 A 
ATOM      5  C5  BNZ d   1       1.160  -3.631  -4.597  0.00  0.00     0.000 A 
ATOM      6  C6  BNZ d   1       0.748  -3.630  -3.284  0.00  0.00     0.000 A 
ENDROOT
TORSDOF 0
ENDMDL
