MODEL 1
REMARK minimizedAffinity 14.0730896
REMARK minimizedRMSD -1
REMARK  0 active torsions:
REMARK  status: ('A' for Active; 'I' for Inactive)
ROOT
ATOM      1  C1  BNZ d   1      -2.234   6.000  -4.651  0.00  0.00     0.000 A 
ATOM      2  C2  BNZ d   1      -2.221   5.612  -3.338  0.00  0.00     0.000 A 
ATOM      3  C3  BNZ d   1      -2.349   4.295  -2.995  0.00  0.00     0.000 A 
ATOM      4  C4  BNZ d   1      -2.530   3.373  -3.963  0.00  0.00     0.000 A 
ATOM      5  C5  BNZ d   1      -2.555   3.749  -5.291  0.00  0.00     0.000 A 
ATOM      6  C6  BNZ d   1      -2.387   5.071  -5.634  0.00  0.00     0.000 A 
ENDROOT
TORSDOF 0
ENDMDL
