MODEL 1
REMARK minimizedAffinity 2.93656635
REMARK minimizedRMSD -1
REMARK  0 active torsions:
REMARK  status: ('A' for Active; 'I' for Inactive)
ROOT
ATOM      1  C1  BNZ d   1       0.365  -5.982  -4.866  0.00  0.00     0.000 A 
ATOM      2  C2  BNZ d   1       0.511  -5.033  -3.890  0.00  0.00     0.000 A 
ATOM      3  C3  BNZ d   1       1.494  -4.088  -3.974  0.00  0.00     0.000 A 
ATOM      4  C4  BNZ d   1       2.355  -4.117  -5.012  0.00  0.00     0.000 A 
ATOM      5  C5  BNZ d   1       2.227  -5.073  -6.000  0.00  0.00     0.000 A 
ATOM      6  C6  BNZ d   1       1.212  -6.000  -5.932  0.00  0.00     0.000 A 
ENDROOT
TORSDOF 0
ENDMDL
