MODEL 1
REMARK minimizedAffinity 5.07472229
REMARK minimizedRMSD -1
REMARK  0 active torsions:
REMARK  status: ('A' for Active; 'I' for Inactive)
ROOT
ATOM      1  C1  BNZ d   1      -3.753  -3.657   5.162  0.00  0.00     0.000 A 
ATOM      2  C2  BNZ d   1      -4.851  -4.350   5.596  0.00  0.00     0.000 A 
ATOM      3  C3  BNZ d   1      -5.981  -3.693   5.995  0.00  0.00     0.000 A 
ATOM      4  C4  BNZ d   1      -5.997  -2.344   5.999  0.00  0.00     0.000 A 
ATOM      5  C5  BNZ d   1      -4.895  -1.631   5.573  0.00  0.00     0.000 A 
ATOM      6  C6  BNZ d   1      -3.773  -2.296   5.134  0.00  0.00     0.000 A 
ENDROOT
TORSDOF 0
ENDMDL
