MODEL 1
REMARK minimizedAffinity 9.65088272
REMARK minimizedRMSD -1
REMARK  0 active torsions:
REMARK  status: ('A' for Active; 'I' for Inactive)
ROOT
ATOM      1  C1  BNZ d   1      -0.626  -3.755   1.337  0.00  0.00     0.000 A 
ATOM      2  C2  BNZ d   1      -0.355  -5.071   1.605  0.00  0.00     0.000 A 
ATOM      3  C3  BNZ d   1       0.934  -5.506   1.741  0.00  0.00     0.000 A 
ATOM      4  C4  BNZ d   1       1.949  -4.635   1.571  0.00  0.00     0.000 A 
ATOM      5  C5  BNZ d   1       1.692  -3.308   1.291  0.00  0.00     0.000 A 
ATOM      6  C6  BNZ d   1       0.393  -2.865   1.193  0.00  0.00     0.000 A 
ENDROOT
TORSDOF 0
ENDMDL
