MODEL 1
REMARK minimizedAffinity 10.1224298
REMARK minimizedRMSD -1
REMARK  0 active torsions:
REMARK  status: ('A' for Active; 'I' for Inactive)
ROOT
ATOM      1  C1  BNZ d   1       2.224  -5.725   1.195  0.00  0.00     0.000 A 
ATOM      2  C2  BNZ d   1       1.230  -5.196   1.975  0.00  0.00     0.000 A 
ATOM      3  C3  BNZ d   1       0.510  -4.113   1.552  0.00  0.00     0.000 A 
ATOM      4  C4  BNZ d   1       0.812  -3.537   0.370  0.00  0.00     0.000 A 
ATOM      5  C5  BNZ d   1       1.818  -4.053  -0.422  0.00  0.00     0.000 A 
ATOM      6  C6  BNZ d   1       2.514  -5.167  -0.011  0.00  0.00     0.000 A 
ENDROOT
TORSDOF 0
ENDMDL
