MODEL 1
REMARK minimizedAffinity 3.74503469
REMARK minimizedRMSD -1
REMARK  0 active torsions:
REMARK  status: ('A' for Active; 'I' for Inactive)
ROOT
ATOM      1  C1  BNZ d   1      -1.482   3.644  -4.614  0.00  0.00     0.000 A 
ATOM      2  C2  BNZ d   1      -1.179   4.842  -5.204  0.00  0.00     0.000 A 
ATOM      3  C3  BNZ d   1      -1.163   5.997  -4.474  0.00  0.00     0.000 A 
ATOM      4  C4  BNZ d   1      -1.487   5.959  -3.166  0.00  0.00     0.000 A 
ATOM      5  C5  BNZ d   1      -1.804   4.761  -2.559  0.00  0.00     0.000 A 
ATOM      6  C6  BNZ d   1      -1.782   3.594  -3.288  0.00  0.00     0.000 A 
ENDROOT
TORSDOF 0
ENDMDL
