MODEL 1
REMARK minimizedAffinity 8.57863998
REMARK minimizedRMSD -1
REMARK  0 active torsions:
REMARK  status: ('A' for Active; 'I' for Inactive)
ROOT
ATOM      1  C1  BNZ d   1       0.537   2.492  -0.123  0.00  0.00     0.000 A 
ATOM      2  C2  BNZ d   1      -0.763   2.422  -0.549  0.00  0.00     0.000 A 
ATOM      3  C3  BNZ d   1      -1.060   2.348  -1.881  0.00  0.00     0.000 A 
ATOM      4  C4  BNZ d   1      -0.061   2.384  -2.786  0.00  0.00     0.000 A 
ATOM      5  C5  BNZ d   1       1.254   2.463  -2.373  0.00  0.00     0.000 A 
ATOM      6  C6  BNZ d   1       1.551   2.499  -1.030  0.00  0.00     0.000 A 
ENDROOT
TORSDOF 0
ENDMDL
