MODEL 1
REMARK minimizedAffinity 4.97179461
REMARK minimizedRMSD -1
REMARK  0 active torsions:
REMARK  status: ('A' for Active; 'I' for Inactive)
ROOT
ATOM      1  C1  BNZ d   1       1.272  -6.000  -4.253  0.00  0.00     0.000 A 
ATOM      2  C2  BNZ d   1       0.743  -6.000  -2.989  0.00  0.00     0.000 A 
ATOM      3  C3  BNZ d   1       0.566  -4.830  -2.305  0.00  0.00     0.000 A 
ATOM      4  C4  BNZ d   1       0.953  -3.667  -2.867  0.00  0.00     0.000 A 
ATOM      5  C5  BNZ d   1       1.497  -3.652  -4.136  0.00  0.00     0.000 A 
ATOM      6  C6  BNZ d   1       1.638  -4.827  -4.838  0.00  0.00     0.000 A 
ENDROOT
TORSDOF 0
ENDMDL
