MODEL 1
REMARK minimizedAffinity 5.04840708
REMARK minimizedRMSD -1
REMARK  0 active torsions:
REMARK  status: ('A' for Active; 'I' for Inactive)
ROOT
ATOM      1  C1  BNZ d   1       0.762  -5.999  -3.732  0.00  0.00     0.000 A 
ATOM      2  C2  BNZ d   1       1.225  -5.998  -5.021  0.00  0.00     0.000 A 
ATOM      3  C3  BNZ d   1       1.769  -4.870  -5.568  0.00  0.00     0.000 A 
ATOM      4  C4  BNZ d   1       1.813  -3.735  -4.840  0.00  0.00     0.000 A 
ATOM      5  C5  BNZ d   1       1.342  -3.718  -3.543  0.00  0.00     0.000 A 
ATOM      6  C6  BNZ d   1       0.831  -4.866  -2.982  0.00  0.00     0.000 A 
ENDROOT
TORSDOF 0
ENDMDL
