MODEL 1
REMARK minimizedAffinity -2.52929044
REMARK minimizedRMSD -1
REMARK  0 active torsions:
REMARK  status: ('A' for Active; 'I' for Inactive)
ROOT
ATOM      1  C1  DEN d   1      -3.148   1.615  -4.234  0.00  0.00     0.130 A 
ATOM      2  C2  DEN d   1      -3.431   0.829  -3.036  0.00  0.00    -0.031 A 
ATOM      3  C3  DEN d   1      -2.358   1.089  -2.056  0.00  0.00     0.027 A 
ATOM      4  C4  DEN d   1      -0.299   2.627  -2.273  0.00  0.00     0.027 A 
ATOM      5  C5  DEN d   1       0.374   3.490  -3.109  0.00  0.00    -0.003 A 
ATOM      6  C6  DEN d   1      -0.057   3.760  -4.381  0.00  0.00     0.001 A 
ATOM      7  C7  DEN d   1      -1.219   3.196  -4.837  0.00  0.00     0.017 A 
ATOM      8  C8  DEN d   1      -1.900   2.319  -4.003  0.00  0.00    -0.094 A 
ATOM      9  C9  DEN d   1      -1.454   2.068  -2.716  0.00  0.00    -0.072 A 
ENDROOT
TORSDOF 0
ENDMDL
