MODEL 1
REMARK minimizedAffinity -0.435995281
REMARK minimizedRMSD -1
REMARK  0 active torsions:
REMARK  status: ('A' for Active; 'I' for Inactive)
ROOT
ATOM      1  C1  DEN d   1       0.354  -4.872  -4.792  0.00  0.00     0.130 A 
ATOM      2  C2  DEN d   1      -0.086  -5.566  -6.000  0.00  0.00    -0.031 A 
ATOM      3  C3  DEN d   1      -1.493  -5.970  -5.808  0.00  0.00     0.027 A 
ATOM      4  C4  DEN d   1      -3.028  -5.586  -3.771  0.00  0.00     0.027 A 
ATOM      5  C5  DEN d   1      -3.098  -5.055  -2.502  0.00  0.00    -0.003 A 
ATOM      6  C6  DEN d   1      -2.021  -4.460  -1.899  0.00  0.00     0.001 A 
ATOM      7  C7  DEN d   1      -0.840  -4.343  -2.583  0.00  0.00     0.017 A 
ATOM      8  C8  DEN d   1      -0.760  -4.883  -3.860  0.00  0.00    -0.094 A 
ATOM      9  C9  DEN d   1      -1.863  -5.469  -4.457  0.00  0.00    -0.072 A 
ENDROOT
TORSDOF 0
ENDMDL
