MODEL 1
REMARK minimizedAffinity 4.33665228
REMARK minimizedRMSD -1
REMARK  0 active torsions:
REMARK  status: ('A' for Active; 'I' for Inactive)
ROOT
ATOM      1  C1  DEN d   1       0.691  -4.459  -3.896  0.00  0.00     0.130 A 
ATOM      2  C2  DEN d   1       1.571  -4.882  -4.982  0.00  0.00    -0.031 A 
ATOM      3  C3  DEN d   1       0.746  -5.564  -5.999  0.00  0.00     0.027 A 
ATOM      4  C4  DEN d   1      -1.797  -6.000  -6.000  0.00  0.00     0.027 A 
ATOM      5  C5  DEN d   1      -2.964  -5.837  -5.287  0.00  0.00    -0.003 A 
ATOM      6  C6  DEN d   1      -2.989  -5.238  -4.055  0.00  0.00     0.001 A 
ATOM      7  C7  DEN d   1      -1.831  -4.740  -3.518  0.00  0.00     0.017 A 
ATOM      8  C8  DEN d   1      -0.649  -4.907  -4.228  0.00  0.00    -0.094 A 
ATOM      9  C9  DEN d   1      -0.646  -5.504  -5.477  0.00  0.00    -0.072 A 
ENDROOT
TORSDOF 0
ENDMDL
