MODEL 1
REMARK minimizedAffinity 6.78842354
REMARK minimizedRMSD -1
REMARK  0 active torsions:
REMARK  status: ('A' for Active; 'I' for Inactive)
ROOT
ATOM      1  C1  DEN d   1      -1.914  -4.506  -2.567  0.00  0.00     0.130 A 
ATOM      2  C2  DEN d   1      -0.859  -3.825  -1.823  0.00  0.00    -0.031 A 
ATOM      3  C3  DEN d   1       0.371  -3.859  -2.639  0.00  0.00     0.027 A 
ATOM      4  C4  DEN d   1       0.741  -4.893  -4.973  0.00  0.00     0.027 A 
ATOM      5  C5  DEN d   1       0.143  -5.589  -6.000  0.00  0.00    -0.003 A 
ATOM      6  C6  DEN d   1      -1.162  -6.000  -5.941  0.00  0.00     0.001 A 
ATOM      7  C7  DEN d   1      -1.926  -5.678  -4.850  0.00  0.00     0.017 A 
ATOM      8  C8  DEN d   1      -1.328  -4.982  -3.807  0.00  0.00    -0.094 A 
ATOM      9  C9  DEN d   1      -0.011  -4.565  -3.892  0.00  0.00    -0.072 A 
ENDROOT
TORSDOF 0
ENDMDL
