MODEL 1
REMARK minimizedAffinity 6.64510441
REMARK minimizedRMSD -1
REMARK  0 active torsions:
REMARK  status: ('A' for Active; 'I' for Inactive)
ROOT
ATOM      1  C1  DEN d   1       0.767  -1.941   0.439  0.00  0.00     0.130 A 
ATOM      2  C2  DEN d   1       0.880  -0.488   0.542  0.00  0.00    -0.031 A 
ATOM      3  C3  DEN d   1      -0.481   0.081   0.469  0.00  0.00     0.027 A 
ATOM      4  C4  DEN d   1      -2.739  -1.139   0.212  0.00  0.00     0.027 A 
ATOM      5  C5  DEN d   1      -3.340  -2.371   0.072  0.00  0.00    -0.003 A 
ATOM      6  C6  DEN d   1      -2.617  -3.533   0.012  0.00  0.00     0.001 A 
ATOM      7  C7  DEN d   1      -1.254  -3.492   0.136  0.00  0.00     0.017 A 
ATOM      8  C8  DEN d   1      -0.640  -2.253   0.270  0.00  0.00    -0.094 A 
ATOM      9  C9  DEN d   1      -1.389  -1.091   0.341  0.00  0.00    -0.072 A 
ENDROOT
TORSDOF 0
ENDMDL
