MODEL 1
REMARK minimizedAffinity 1.21657538
REMARK minimizedRMSD -1
REMARK  0 active torsions:
REMARK  status: ('A' for Active; 'I' for Inactive)
ROOT
ATOM      1  C1  DEN d   1      -1.665  -4.637  -3.883  0.00  0.00     0.130 A 
ATOM      2  C2  DEN d   1      -2.525  -5.229  -4.904  0.00  0.00    -0.031 A 
ATOM      3  C3  DEN d   1      -1.660  -5.866  -5.916  0.00  0.00     0.027 A 
ATOM      4  C4  DEN d   1       0.914  -5.998  -5.999  0.00  0.00     0.027 A 
ATOM      5  C5  DEN d   1       2.078  -5.633  -5.359  0.00  0.00    -0.003 A 
ATOM      6  C6  DEN d   1       2.077  -4.887  -4.210  0.00  0.00     0.001 A 
ATOM      7  C7  DEN d   1       0.886  -4.521  -3.641  0.00  0.00     0.017 A 
ATOM      8  C8  DEN d   1      -0.291  -4.879  -4.284  0.00  0.00    -0.094 A 
ATOM      9  C9  DEN d   1      -0.269  -5.643  -5.438  0.00  0.00    -0.072 A 
ENDROOT
TORSDOF 0
ENDMDL
