MODEL 1
REMARK minimizedAffinity 10.4768772
REMARK minimizedRMSD -1
REMARK  0 active torsions:
REMARK  status: ('A' for Active; 'I' for Inactive)
ROOT
ATOM      1  C1  DEN d   1      -4.122   2.769  -4.382  0.00  0.00     0.130 A 
ATOM      2  C2  DEN d   1      -4.419   1.463  -3.800  0.00  0.00    -0.031 A 
ATOM      3  C3  DEN d   1      -3.177   0.940  -3.195  0.00  0.00     0.027 A 
ATOM      4  C4  DEN d   1      -0.838   2.023  -3.098  0.00  0.00     0.027 A 
ATOM      5  C5  DEN d   1      -0.094   3.122  -3.465  0.00  0.00    -0.003 A 
ATOM      6  C6  DEN d   1      -0.628   4.157  -4.187  0.00  0.00     0.001 A 
ATOM      7  C7  DEN d   1      -1.955   4.135  -4.526  0.00  0.00     0.017 A 
ATOM      8  C8  DEN d   1      -2.710   3.026  -4.166  0.00  0.00    -0.094 A 
ATOM      9  C9  DEN d   1      -2.155   1.996  -3.426  0.00  0.00    -0.072 A 
ENDROOT
TORSDOF 0
ENDMDL
