MODEL 1
REMARK minimizedAffinity 5.55002499
REMARK minimizedRMSD -1
REMARK  0 active torsions:
REMARK  status: ('A' for Active; 'I' for Inactive)
ROOT
ATOM      1  C1  DEN d   1      -2.901   1.883  -2.607  0.00  0.00     0.130 A 
ATOM      2  C2  DEN d   1      -3.414   1.905  -3.975  0.00  0.00    -0.031 A 
ATOM      3  C3  DEN d   1      -4.705   1.189  -3.989  0.00  0.00     0.027 A 
ATOM      4  C4  DEN d   1      -5.956   0.059  -2.037  0.00  0.00     0.027 A 
ATOM      5  C5  DEN d   1      -5.909  -0.230  -0.691  0.00  0.00    -0.003 A 
ATOM      6  C6  DEN d   1      -4.849   0.132   0.097  0.00  0.00     0.001 A 
ATOM      7  C7  DEN d   1      -3.813   0.845  -0.445  0.00  0.00     0.017 A 
ATOM      8  C8  DEN d   1      -3.850   1.134  -1.803  0.00  0.00    -0.094 A 
ATOM      9  C9  DEN d   1      -4.936   0.769  -2.581  0.00  0.00    -0.072 A 
ENDROOT
TORSDOF 0
ENDMDL
