MODEL 1
REMARK minimizedAffinity 4.39484262
REMARK minimizedRMSD -1
REMARK  0 active torsions:
REMARK  status: ('A' for Active; 'I' for Inactive)
ROOT
ATOM      1  C1  DEN d   1      -1.279  -5.536  -5.998  0.00  0.00     0.130 A 
ATOM      2  C2  DEN d   1       0.162  -5.379  -5.824  0.00  0.00    -0.031 A 
ATOM      3  C3  DEN d   1       0.423  -5.107  -4.396  0.00  0.00     0.027 A 
ATOM      4  C4  DEN d   1      -1.257  -4.919  -2.448  0.00  0.00     0.027 A 
ATOM      5  C5  DEN d   1      -2.590  -4.965  -2.107  0.00  0.00    -0.003 A 
ATOM      6  C6  DEN d   1      -3.575  -5.170  -3.037  0.00  0.00     0.001 A 
ATOM      7  C7  DEN d   1      -3.237  -5.381  -4.348  0.00  0.00     0.017 A 
ATOM      8  C8  DEN d   1      -1.895  -5.328  -4.700  0.00  0.00    -0.094 A 
ATOM      9  C9  DEN d   1      -0.914  -5.132  -3.743  0.00  0.00    -0.072 A 
ENDROOT
TORSDOF 0
ENDMDL
