MODEL 1
REMARK minimizedAffinity 5.79398584
REMARK minimizedRMSD -1
REMARK  0 active torsions:
REMARK  status: ('A' for Active; 'I' for Inactive)
ROOT
ATOM      1  C1  DEN d   1       0.250  -3.437  -0.139  0.00  0.00     0.130 A 
ATOM      2  C2  DEN d   1      -1.128  -3.863   0.087  0.00  0.00    -0.031 A 
ATOM      3  C3  DEN d   1      -1.925  -2.668   0.430  0.00  0.00     0.027 A 
ATOM      4  C4  DEN d   1      -1.164  -0.212   0.626  0.00  0.00     0.027 A 
ATOM      5  C5  DEN d   1      -0.086   0.640   0.537  0.00  0.00    -0.003 A 
ATOM      6  C6  DEN d   1       1.177   0.191   0.251  0.00  0.00     0.001 A 
ATOM      7  C7  DEN d   1       1.384  -1.139   0.001  0.00  0.00     0.017 A 
ATOM      8  C8  DEN d   1       0.302  -2.005   0.096  0.00  0.00    -0.094 A 
ATOM      9  C9  DEN d   1      -0.968  -1.531   0.374  0.00  0.00    -0.072 A 
ENDROOT
TORSDOF 0
ENDMDL
