MODEL 1
REMARK minimizedAffinity 0.23260738
REMARK minimizedRMSD -1
REMARK  0 active torsions:
REMARK  status: ('A' for Active; 'I' for Inactive)
ROOT
ATOM      1  C1  DEN d   1      -0.173  -0.448   0.784  0.00  0.00     0.130 A 
ATOM      2  C2  DEN d   1       0.070   0.010  -0.581  0.00  0.00    -0.031 A 
ATOM      3  C3  DEN d   1       1.499  -0.205  -0.887  0.00  0.00     0.027 A 
ATOM      4  C4  DEN d   1       3.346  -1.203   0.611  0.00  0.00     0.027 A 
ATOM      5  C5  DEN d   1       3.623  -1.725   1.856  0.00  0.00    -0.003 A 
ATOM      6  C6  DEN d   1       2.669  -1.825   2.834  0.00  0.00     0.001 A 
ATOM      7  C7  DEN d   1       1.382  -1.439   2.569  0.00  0.00     0.017 A 
ATOM      8  C8  DEN d   1       1.097  -0.905   1.318  0.00  0.00    -0.094 A 
ATOM      9  C9  DEN d   1       2.072  -0.824   0.339  0.00  0.00    -0.072 A 
ENDROOT
TORSDOF 0
ENDMDL
