MODEL 1
REMARK minimizedAffinity 6.71951246
REMARK minimizedRMSD -1
REMARK  0 active torsions:
REMARK  status: ('A' for Active; 'I' for Inactive)
ROOT
ATOM      1  C1  DEN d   1      -2.578   1.754  -1.875  0.00  0.00     0.130 A 
ATOM      2  C2  DEN d   1      -2.683   1.807  -3.331  0.00  0.00    -0.031 A 
ATOM      3  C3  DEN d   1      -3.796   0.927  -3.740  0.00  0.00     0.027 A 
ATOM      4  C4  DEN d   1      -5.360  -0.502  -2.269  0.00  0.00     0.027 A 
ATOM      5  C5  DEN d   1      -5.650  -0.881  -0.977  0.00  0.00    -0.003 A 
ATOM      6  C6  DEN d   1      -4.921  -0.438   0.095  0.00  0.00     0.001 A 
ATOM      7  C7  DEN d   1      -3.893   0.446  -0.103  0.00  0.00     0.017 A 
ATOM      8  C8  DEN d   1      -3.590   0.826  -1.403  0.00  0.00    -0.094 A 
ATOM      9  C9  DEN d   1      -4.347   0.377  -2.472  0.00  0.00    -0.072 A 
ENDROOT
TORSDOF 0
ENDMDL
