MODEL 1
REMARK minimizedAffinity 6.89223242
REMARK minimizedRMSD -1
REMARK  0 active torsions:
REMARK  status: ('A' for Active; 'I' for Inactive)
ROOT
ATOM      1  C1  DEN d   1      -3.863   2.043  -3.895  0.00  0.00     0.130 A 
ATOM      2  C2  DEN d   1      -2.422   2.279  -3.884  0.00  0.00    -0.031 A 
ATOM      3  C3  DEN d   1      -1.820   1.381  -2.878  0.00  0.00     0.027 A 
ATOM      4  C4  DEN d   1      -2.973  -0.346  -1.348  0.00  0.00     0.027 A 
ATOM      5  C5  DEN d   1      -4.183  -0.896  -0.989  0.00  0.00    -0.003 A 
ATOM      6  C6  DEN d   1      -5.366  -0.484  -1.544  0.00  0.00     0.001 A 
ATOM      7  C7  DEN d   1      -5.359   0.475  -2.522  0.00  0.00     0.017 A 
ATOM      8  C8  DEN d   1      -4.143   1.039  -2.885  0.00  0.00    -0.094 A 
ATOM      9  C9  DEN d   1      -2.957   0.601  -2.321  0.00  0.00    -0.072 A 
ENDROOT
TORSDOF 0
ENDMDL
