MODEL 1
REMARK minimizedAffinity -2.6445508
REMARK minimizedRMSD -1
REMARK  1 active torsions:
REMARK  status: ('A' for Active; 'I' for Inactive)
REMARK    1  A    between atoms: C1_2  and  C2_3 
ROOT
ATOM      1  C2  UNL d   1      -0.097  -1.280   1.424  0.00  0.00    -0.081 A 
ATOM      2  C3  UNL d   1      -0.325  -1.988   2.611  0.00  0.00     0.006 A 
ATOM      3  C4  UNL d   1       0.417  -3.134   2.905  0.00  0.00     0.002 A 
ATOM      4  C5  UNL d   1       1.403  -3.588   2.022  0.00  0.00    -0.080 A 
ATOM      5  C6  UNL d   1       2.227  -4.800   2.340  0.00  0.00     0.076 C 
ATOM      6  C7  UNL d   1       1.618  -2.891   0.828  0.00  0.00     0.002 A 
ATOM      7  C8  UNL d   1       0.876  -1.745   0.533  0.00  0.00     0.006 A 
ENDROOT
BRANCH   1   8
ATOM      8  C1  UNL d   1      -0.850  -0.007   1.135  0.00  0.00     0.054 C 
ATOM      9  C   UNL d   1      -2.277  -0.077   1.659  0.00  0.00     0.018 C 
ENDBRANCH   1   8
TORSDOF 1
ENDMDL
