MODEL 1
REMARK minimizedAffinity 3.92871928
REMARK minimizedRMSD -1
REMARK  1 active torsions:
REMARK  status: ('A' for Active; 'I' for Inactive)
REMARK    1  A    between atoms: C1_2  and  C2_3 
ROOT
ATOM      1  C2  UNL d   1      -0.777  -1.513   1.621  0.00  0.00    -0.081 A 
ATOM      2  C3  UNL d   1      -2.124  -1.234   1.357  0.00  0.00     0.006 A 
ATOM      3  C4  UNL d   1      -2.499  -0.630   0.155  0.00  0.00     0.002 A 
ATOM      4  C5  UNL d   1      -1.536  -0.303  -0.806  0.00  0.00    -0.080 A 
ATOM      5  C6  UNL d   1      -1.929   0.319  -2.113  0.00  0.00     0.076 C 
ATOM      6  C7  UNL d   1      -0.189  -0.566  -0.535  0.00  0.00     0.002 A 
ATOM      7  C8  UNL d   1       0.187  -1.169   0.667  0.00  0.00     0.006 A 
ENDROOT
BRANCH   1   8
ATOM      8  C1  UNL d   1      -0.376  -2.223   2.889  0.00  0.00     0.054 C 
ATOM      9  C   UNL d   1      -1.533  -3.031   3.460  0.00  0.00     0.018 C 
ENDBRANCH   1   8
TORSDOF 1
ENDMDL
