MODEL 1
REMARK minimizedAffinity 4.29727793
REMARK minimizedRMSD -1
REMARK  1 active torsions:
REMARK  status: ('A' for Active; 'I' for Inactive)
REMARK    1  A    between atoms: C1_2  and  C2_3 
ROOT
ATOM      1  C2  UNL d   1       1.054   2.872  -2.691  0.00  0.00    -0.081 A 
ATOM      2  C3  UNL d   1       0.325   2.429  -1.582  0.00  0.00     0.006 A 
ATOM      3  C4  UNL d   1      -1.072   2.428  -1.607  0.00  0.00     0.002 A 
ATOM      4  C5  UNL d   1      -1.762   2.862  -2.744  0.00  0.00    -0.080 A 
ATOM      5  C6  UNL d   1      -3.260   2.838  -2.796  0.00  0.00     0.076 C 
ATOM      6  C7  UNL d   1      -1.033   3.321  -3.846  0.00  0.00     0.002 A 
ATOM      7  C8  UNL d   1       0.364   3.323  -3.821  0.00  0.00     0.006 A 
ENDROOT
BRANCH   1   8
ATOM      8  C1  UNL d   1       2.561   2.813  -2.691  0.00  0.00     0.054 C 
ATOM      9  C   UNL d   1       3.066   1.561  -1.989  0.00  0.00     0.018 C 
ENDBRANCH   1   8
TORSDOF 1
ENDMDL
