MODEL 1
REMARK minimizedAffinity -2.49125886
REMARK minimizedRMSD -1
REMARK  1 active torsions:
REMARK  status: ('A' for Active; 'I' for Inactive)
REMARK    1  A    between atoms: C1_2  and  C2_3 
ROOT
ATOM      1  C2  UNL d   1      -2.127  -0.671   1.944  0.00  0.00    -0.081 A 
ATOM      2  C3  UNL d   1      -1.384  -0.517   0.768  0.00  0.00     0.006 A 
ATOM      3  C4  UNL d   1      -0.163  -1.176   0.610  0.00  0.00     0.002 A 
ATOM      4  C5  UNL d   1       0.332  -2.006   1.621  0.00  0.00    -0.080 A 
ATOM      5  C6  UNL d   1       1.627  -2.743   1.452  0.00  0.00     0.076 C 
ATOM      6  C7  UNL d   1      -0.402  -2.147   2.804  0.00  0.00     0.002 A 
ATOM      7  C8  UNL d   1      -1.623  -1.487   2.963  0.00  0.00     0.006 A 
ENDROOT
BRANCH   1   8
ATOM      8  C1  UNL d   1      -3.476  -0.014   2.091  0.00  0.00     0.054 C 
ATOM      9  C   UNL d   1      -4.549  -0.775   1.327  0.00  0.00     0.018 C 
ENDBRANCH   1   8
TORSDOF 1
ENDMDL
