MODEL 1
REMARK minimizedAffinity 5.51709032
REMARK minimizedRMSD -1
REMARK  1 active torsions:
REMARK  status: ('A' for Active; 'I' for Inactive)
REMARK    1  A    between atoms: C1_2  and  C2_3 
ROOT
ATOM      1  C2  UNL d   1      -0.814  -1.669   1.879  0.00  0.00    -0.076 A 
ATOM      2  C3  UNL d   1      -1.578  -0.597   2.371  0.00  0.00     0.004 A 
ATOM      3  C4  UNL d   1      -1.012   0.664   2.554  0.00  0.00    -0.003 A 
ATOM      4  C5  UNL d   1       0.328   0.873   2.246  0.00  0.00     0.000 A 
ATOM      5  C6  UNL d   1       1.097  -0.175   1.740  0.00  0.00     0.000 A 
ATOM      6  C7  UNL d   1       0.537  -1.448   1.535  0.00  0.00    -0.073 A 
ATOM      7  C8  UNL d   1       1.414  -2.543   0.993  0.00  0.00     0.078 C 
ENDROOT
BRANCH   1   8
ATOM      8  C1  UNL d   1      -1.475  -3.020   1.728  0.00  0.00     0.053 C 
ATOM      9  C   UNL d   1      -2.296  -3.407   2.948  0.00  0.00     0.018 C 
ENDBRANCH   1   8
TORSDOF 1
ENDMDL
