MODEL 1
REMARK minimizedAffinity 4.64498472
REMARK minimizedRMSD -1
REMARK  1 active torsions:
REMARK  status: ('A' for Active; 'I' for Inactive)
REMARK    1  A    between atoms: C1_2  and  C2_3 
ROOT
ATOM      1  C2  UNL d   1       0.361  -1.030   0.728  0.00  0.00    -0.076 A 
ATOM      2  C3  UNL d   1       1.260  -2.110   0.758  0.00  0.00     0.004 A 
ATOM      3  C4  UNL d   1       1.256  -3.016   1.817  0.00  0.00    -0.003 A 
ATOM      4  C5  UNL d   1       0.353  -2.858   2.862  0.00  0.00     0.000 A 
ATOM      5  C6  UNL d   1      -0.559  -1.803   2.839  0.00  0.00     0.000 A 
ATOM      6  C7  UNL d   1      -0.579  -0.889   1.771  0.00  0.00    -0.073 A 
ATOM      7  C8  UNL d   1      -1.579   0.234   1.801  0.00  0.00     0.078 C 
ENDROOT
BRANCH   1   8
ATOM      8  C1  UNL d   1       0.429  -0.063  -0.433  0.00  0.00     0.053 C 
ATOM      9  C   UNL d   1      -0.782  -0.163  -1.347  0.00  0.00     0.018 C 
ENDBRANCH   1   8
TORSDOF 1
ENDMDL
