MODEL 1
REMARK minimizedAffinity 2.82867694
REMARK minimizedRMSD -1
REMARK  1 active torsions:
REMARK  status: ('A' for Active; 'I' for Inactive)
REMARK    1  A    between atoms: C1_2  and  C2_3 
ROOT
ATOM      1  C2  UNL d   1       0.815  -1.953   1.296  0.00  0.00    -0.076 A 
ATOM      2  C3  UNL d   1      -0.293  -1.633   2.100  0.00  0.00     0.004 A 
ATOM      3  C4  UNL d   1      -0.799  -2.548   3.021  0.00  0.00    -0.003 A 
ATOM      4  C5  UNL d   1      -0.204  -3.798   3.155  0.00  0.00     0.000 A 
ATOM      5  C6  UNL d   1       0.906  -4.126   2.378  0.00  0.00     0.000 A 
ATOM      6  C7  UNL d   1       1.439  -3.209   1.456  0.00  0.00    -0.073 A 
ATOM      7  C8  UNL d   1       2.634  -3.617   0.640  0.00  0.00     0.078 C 
ENDROOT
BRANCH   1   8
ATOM      8  C1  UNL d   1       1.302  -0.930   0.295  0.00  0.00     0.053 C 
ATOM      9  C   UNL d   1       0.162  -0.262  -0.458  0.00  0.00     0.018 C 
ENDBRANCH   1   8
TORSDOF 1
ENDMDL
