MODEL 1
REMARK minimizedAffinity 9.29938507
REMARK minimizedRMSD -1
REMARK  1 active torsions:
REMARK  status: ('A' for Active; 'I' for Inactive)
REMARK    1  A    between atoms: C1_2  and  C2_3 
ROOT
ATOM      1  C2  UNL d   1       3.909  -0.879  -0.046  0.00  0.00    -0.076 A 
ATOM      2  C3  UNL d   1       3.295  -2.125  -0.260  0.00  0.00     0.004 A 
ATOM      3  C4  UNL d   1       4.022  -3.310  -0.155  0.00  0.00    -0.003 A 
ATOM      4  C5  UNL d   1       5.374  -3.268   0.165  0.00  0.00     0.000 A 
ATOM      5  C6  UNL d   1       5.995  -2.041   0.397  0.00  0.00     0.000 A 
ATOM      6  C7  UNL d   1       5.273  -0.838   0.312  0.00  0.00    -0.073 A 
ATOM      7  C8  UNL d   1       5.995   0.457   0.566  0.00  0.00     0.078 C 
ENDROOT
BRANCH   1   8
ATOM      8  C1  UNL d   1       3.076   0.374  -0.200  0.00  0.00     0.053 C 
ATOM      9  C   UNL d   1       1.964   0.213  -1.224  0.00  0.00     0.018 C 
ENDBRANCH   1   8
TORSDOF 1
ENDMDL
