MODEL 1
REMARK minimizedAffinity 5.99622011
REMARK minimizedRMSD -1
REMARK  1 active torsions:
REMARK  status: ('A' for Active; 'I' for Inactive)
REMARK    1  A    between atoms: C1_2  and  C2_3 
ROOT
ATOM      1  C2  UNL d   1       1.049  -1.481   1.008  0.00  0.00    -0.076 A 
ATOM      2  C3  UNL d   1       1.700  -2.724   1.089  0.00  0.00     0.004 A 
ATOM      3  C4  UNL d   1       1.372  -3.642   2.086  0.00  0.00    -0.003 A 
ATOM      4  C5  UNL d   1       0.387  -3.332   3.016  0.00  0.00     0.000 A 
ATOM      5  C6  UNL d   1      -0.282  -2.111   2.940  0.00  0.00     0.000 A 
ATOM      6  C7  UNL d   1       0.025  -1.181   1.932  0.00  0.00    -0.073 A 
ATOM      7  C8  UNL d   1      -0.724   0.123   1.901  0.00  0.00     0.078 C 
ENDROOT
BRANCH   1   8
ATOM      8  C1  UNL d   1       1.466  -0.514  -0.077  0.00  0.00     0.053 C 
ATOM      9  C   UNL d   1       2.976  -0.426  -0.230  0.00  0.00     0.018 C 
ENDBRANCH   1   8
TORSDOF 1
ENDMDL
