MODEL 1
REMARK minimizedAffinity 0.295171499
REMARK minimizedRMSD -1
REMARK  1 active torsions:
REMARK  status: ('A' for Active; 'I' for Inactive)
REMARK    1  A    between atoms: C1_2  and  C2_3 
ROOT
ATOM      1  C2  UNL d   1       1.338  -0.963   0.448  0.00  0.00    -0.076 A 
ATOM      2  C3  UNL d   1       0.390  -0.036   0.913  0.00  0.00     0.004 A 
ATOM      3  C4  UNL d   1      -0.362  -0.291   2.059  0.00  0.00    -0.003 A 
ATOM      4  C5  UNL d   1      -0.177  -1.479   2.759  0.00  0.00     0.000 A 
ATOM      5  C6  UNL d   1       0.772  -2.402   2.322  0.00  0.00     0.000 A 
ATOM      6  C7  UNL d   1       1.550  -2.152   1.178  0.00  0.00    -0.073 A 
ATOM      7  C8  UNL d   1       2.555  -3.186   0.748  0.00  0.00     0.078 C 
ENDROOT
BRANCH   1   8
ATOM      8  C1  UNL d   1       2.104  -0.644  -0.816  0.00  0.00     0.053 C 
ATOM      9  C   UNL d   1       3.224   0.359  -0.581  0.00  0.00     0.018 C 
ENDBRANCH   1   8
TORSDOF 1
ENDMDL
