MODEL 1
REMARK minimizedAffinity 8.19729137
REMARK minimizedRMSD -1
REMARK  1 active torsions:
REMARK  status: ('A' for Active; 'I' for Inactive)
REMARK    1  A    between atoms: C1_2  and  C2_3 
ROOT
ATOM      1  C2  UNL d   1      -3.914  -0.071   1.508  0.00  0.00    -0.076 A 
ATOM      2  C3  UNL d   1      -3.270  -0.787   0.484  0.00  0.00     0.004 A 
ATOM      3  C4  UNL d   1      -1.882  -0.768   0.358  0.00  0.00    -0.003 A 
ATOM      4  C5  UNL d   1      -1.115  -0.031   1.255  0.00  0.00     0.000 A 
ATOM      5  C6  UNL d   1      -1.736   0.671   2.287  0.00  0.00     0.000 A 
ATOM      6  C7  UNL d   1      -3.133   0.649   2.438  0.00  0.00    -0.073 A 
ATOM      7  C8  UNL d   1      -3.750   1.429   3.566  0.00  0.00     0.078 C 
ENDROOT
BRANCH   1   8
ATOM      8  C1  UNL d   1      -5.424  -0.108   1.579  0.00  0.00     0.053 C 
ATOM      9  C   UNL d   1      -5.998  -1.431   1.096  0.00  0.00     0.018 C 
ENDBRANCH   1   8
TORSDOF 1
ENDMDL
