MODEL 1
REMARK minimizedAffinity 7.00371027
REMARK minimizedRMSD -1
REMARK  1 active torsions:
REMARK  status: ('A' for Active; 'I' for Inactive)
REMARK    1  A    between atoms: C1_2  and  C2_3 
ROOT
ATOM      1  C2  UNL d   1       5.056   2.231  -1.362  0.00  0.00    -0.077 A 
ATOM      2  C3  UNL d   1       3.901   1.497  -1.667  0.00  0.00     0.002 A 
ATOM      3  C4  UNL d   1       3.003   1.141  -0.659  0.00  0.00     0.002 A 
ATOM      4  C5  UNL d   1       3.249   1.517   0.660  0.00  0.00    -0.004 A 
ATOM      5  C6  UNL d   1       4.396   2.245   0.974  0.00  0.00     0.002 A 
ATOM      6  C7  UNL d   1       5.295   2.602  -0.033  0.00  0.00     0.002 A 
ENDROOT
BRANCH   1   7
ATOM      7  C1  UNL d   1       5.999   2.659  -2.455  0.00  0.00     0.055 C 
ATOM      8  C   UNL d   1       6.000   4.171  -2.626  0.00  0.00     0.019 C 
ENDBRANCH   1   7
TORSDOF 1
ENDMDL
