MODEL 1
REMARK minimizedAffinity 11.3221483
REMARK minimizedRMSD -1
REMARK  1 active torsions:
REMARK  status: ('A' for Active; 'I' for Inactive)
REMARK    1  A    between atoms: C1_2  and  C2_3 
ROOT
ATOM      1  C2  UNL d   1       5.965   4.245  -1.811  0.00  0.00    -0.077 A 
ATOM      2  C3  UNL d   1       5.963   3.816  -0.476  0.00  0.00     0.002 A 
ATOM      3  C4  UNL d   1       5.977   2.454  -0.172  0.00  0.00     0.002 A 
ATOM      4  C5  UNL d   1       5.999   1.509  -1.196  0.00  0.00    -0.004 A 
ATOM      5  C6  UNL d   1       6.000   1.925  -2.527  0.00  0.00     0.002 A 
ATOM      6  C7  UNL d   1       5.984   3.287  -2.833  0.00  0.00     0.002 A 
ENDROOT
BRANCH   1   7
ATOM      7  C1  UNL d   1       5.999   5.714  -2.142  0.00  0.00     0.055 C 
ATOM      8  C   UNL d   1       5.377   5.990  -3.503  0.00  0.00     0.019 C 
ENDBRANCH   1   7
TORSDOF 1
ENDMDL
