MODEL 1
REMARK minimizedAffinity 9.16147327
REMARK minimizedRMSD -1
REMARK  1 active torsions:
REMARK  status: ('A' for Active; 'I' for Inactive)
REMARK    1  A    between atoms: C1_2  and  C2_3 
ROOT
ATOM      1  C2  UNL d   1      -1.392  -2.797  -3.563  0.00  0.00    -0.077 A 
ATOM      2  C3  UNL d   1      -2.034  -4.015  -3.830  0.00  0.00     0.002 A 
ATOM      3  C4  UNL d   1      -3.090  -4.073  -4.742  0.00  0.00     0.002 A 
ATOM      4  C5  UNL d   1      -3.511  -2.917  -5.397  0.00  0.00    -0.004 A 
ATOM      5  C6  UNL d   1      -2.881  -1.701  -5.137  0.00  0.00     0.002 A 
ATOM      6  C7  UNL d   1      -1.826  -1.641  -4.225  0.00  0.00     0.002 A 
ENDROOT
BRANCH   1   7
ATOM      7  C1  UNL d   1      -0.221  -2.742  -2.618  0.00  0.00     0.055 C 
ATOM      8  C   UNL d   1      -0.562  -1.956  -1.360  0.00  0.00     0.019 C 
ENDBRANCH   1   7
TORSDOF 1
ENDMDL
