MODEL 1
REMARK minimizedAffinity 1.99932969
REMARK minimizedRMSD -1
REMARK  1 active torsions:
REMARK  status: ('A' for Active; 'I' for Inactive)
REMARK    1  A    between atoms: C1_2  and  C2_3 
ROOT
ATOM      1  C2  UNL d   1       1.647   2.761   1.799  0.00  0.00    -0.077 A 
ATOM      2  C3  UNL d   1       2.747   1.928   1.553  0.00  0.00     0.002 A 
ATOM      3  C4  UNL d   1       2.854   1.239   0.343  0.00  0.00     0.002 A 
ATOM      4  C5  UNL d   1       1.867   1.379  -0.630  0.00  0.00    -0.004 A 
ATOM      5  C6  UNL d   1       0.768   2.204  -0.394  0.00  0.00     0.002 A 
ATOM      6  C7  UNL d   1       0.659   2.892   0.815  0.00  0.00     0.002 A 
ENDROOT
BRANCH   1   7
ATOM      7  C1  UNL d   1       1.554   3.544   3.083  0.00  0.00     0.055 C 
ATOM      8  C   UNL d   1       1.344   2.625   4.278  0.00  0.00     0.019 C 
ENDBRANCH   1   7
TORSDOF 1
ENDMDL
