MODEL 1
REMARK minimizedAffinity 4.29526806
REMARK minimizedRMSD -1
REMARK  1 active torsions:
REMARK  status: ('A' for Active; 'I' for Inactive)
REMARK    1  A    between atoms: C1_2  and  C2_3 
ROOT
ATOM      1  C2  UNL d   1       4.112   1.928  -0.270  0.00  0.00    -0.077 A 
ATOM      2  C3  UNL d   1       3.610   1.633  -1.545  0.00  0.00     0.002 A 
ATOM      3  C4  UNL d   1       4.299   2.046  -2.688  0.00  0.00     0.002 A 
ATOM      4  C5  UNL d   1       5.494   2.752  -2.567  0.00  0.00    -0.004 A 
ATOM      5  C6  UNL d   1       6.000   3.052  -1.303  0.00  0.00     0.002 A 
ATOM      6  C7  UNL d   1       5.313   2.641  -0.159  0.00  0.00     0.002 A 
ENDROOT
BRANCH   1   7
ATOM      7  C1  UNL d   1       3.397   1.442   0.964  0.00  0.00     0.055 C 
ATOM      8  C   UNL d   1       3.798   2.248   2.190  0.00  0.00     0.019 C 
ENDBRANCH   1   7
TORSDOF 1
ENDMDL
