MODEL 1
REMARK minimizedAffinity -2.45563245
REMARK minimizedRMSD -1
REMARK  1 active torsions:
REMARK  status: ('A' for Active; 'I' for Inactive)
REMARK    1  A    between atoms: C1_2  and  C2_3 
ROOT
ATOM      1  C2  UNL d   1       3.869   1.252   0.021  0.00  0.00    -0.077 A 
ATOM      2  C3  UNL d   1       3.413   1.406  -1.296  0.00  0.00     0.002 A 
ATOM      3  C4  UNL d   1       4.244   1.963  -2.270  0.00  0.00     0.002 A 
ATOM      4  C5  UNL d   1       5.536   2.365  -1.939  0.00  0.00    -0.004 A 
ATOM      5  C6  UNL d   1       5.998   2.217  -0.632  0.00  0.00     0.002 A 
ATOM      6  C7  UNL d   1       5.169   1.662   0.343  0.00  0.00     0.002 A 
ENDROOT
BRANCH   1   7
ATOM      7  C1  UNL d   1       2.992   0.606   1.061  0.00  0.00     0.055 C 
ATOM      8  C   UNL d   1       3.805   0.145   2.262  0.00  0.00     0.019 C 
ENDBRANCH   1   7
TORSDOF 1
ENDMDL
