MODEL 1
REMARK minimizedAffinity 4.8195715
REMARK minimizedRMSD -1
REMARK  1 active torsions:
REMARK  status: ('A' for Active; 'I' for Inactive)
REMARK    1  A    between atoms: C1_2  and  C2_3 
ROOT
ATOM      1  C2  UNL d   1       3.297   0.878  -0.010  0.00  0.00    -0.077 A 
ATOM      2  C3  UNL d   1       3.407   1.150  -1.381  0.00  0.00     0.002 A 
ATOM      3  C4  UNL d   1       4.378   2.037  -1.850  0.00  0.00     0.002 A 
ATOM      4  C5  UNL d   1       5.249   2.655  -0.956  0.00  0.00    -0.004 A 
ATOM      5  C6  UNL d   1       5.146   2.393   0.410  0.00  0.00     0.002 A 
ATOM      6  C7  UNL d   1       4.175   1.508   0.881  0.00  0.00     0.002 A 
ENDROOT
BRANCH   1   7
ATOM      7  C1  UNL d   1       2.282  -0.115   0.492  0.00  0.00     0.055 C 
ATOM      8  C   UNL d   1       2.781  -0.834   1.738  0.00  0.00     0.019 C 
ENDBRANCH   1   7
TORSDOF 1
ENDMDL
