MODEL 1
REMARK minimizedAffinity 4.35616779
REMARK minimizedRMSD -1
REMARK  0 active torsions:
REMARK  status: ('A' for Active; 'I' for Inactive)
ROOT
ATOM      1  C   UNL d   1       0.768  -3.336   3.910  0.00  0.00    -0.002 A 
ATOM      2  C1  UNL d   1      -0.455  -2.687   4.006  0.00  0.00     0.010 A 
ATOM      3  C2  UNL d   1      -0.865  -1.794   3.014  0.00  0.00     0.041 A 
ATOM      4  C3  UNL d   1      -0.018  -1.563   1.912  0.00  0.00    -0.075 A 
ATOM      5  S   UNL d   1      -0.312  -0.513   0.577  0.00  0.00     0.015 SA
ATOM      6  C4  UNL d   1       1.178  -0.901  -0.152  0.00  0.00     0.022 A 
ATOM      7  C5  UNL d   1       1.896  -1.807   0.591  0.00  0.00     0.026 A 
ATOM      8  C6  UNL d   1       1.218  -2.205   1.793  0.00  0.00    -0.082 A 
ATOM      9  C7  UNL d   1       1.606  -3.104   2.816  0.00  0.00     0.045 A 
ENDROOT
TORSDOF 0
ENDMDL
