MODEL 1
REMARK minimizedAffinity 6.66196585
REMARK minimizedRMSD -1
REMARK  0 active torsions:
REMARK  status: ('A' for Active; 'I' for Inactive)
ROOT
ATOM      1  C   UNL d   1       5.444  -1.368   1.290  0.00  0.00    -0.002 A 
ATOM      2  C1  UNL d   1       5.102  -2.620   0.799  0.00  0.00     0.010 A 
ATOM      3  C2  UNL d   1       3.789  -2.899   0.417  0.00  0.00     0.041 A 
ATOM      4  C3  UNL d   1       2.815  -1.887   0.535  0.00  0.00    -0.075 A 
ATOM      5  S   UNL d   1       1.144  -2.000   0.127  0.00  0.00     0.015 SA
ATOM      6  C4  UNL d   1       0.845  -0.388   0.593  0.00  0.00     0.022 A 
ATOM      7  C5  UNL d   1       1.981   0.236   1.051  0.00  0.00     0.026 A 
ATOM      8  C6  UNL d   1       3.136  -0.618   1.025  0.00  0.00    -0.082 A 
ATOM      9  C7  UNL d   1       4.476  -0.367   1.405  0.00  0.00     0.045 A 
ENDROOT
TORSDOF 0
ENDMDL
