MODEL 1
REMARK minimizedAffinity 7.27055216
REMARK minimizedRMSD -1
REMARK  0 active torsions:
REMARK  status: ('A' for Active; 'I' for Inactive)
ROOT
ATOM      1  C   UNL d   1      -0.433   2.362  -4.624  0.00  0.00    -0.002 A 
ATOM      2  C1  UNL d   1      -0.612   2.932  -3.372  0.00  0.00     0.010 A 
ATOM      3  C2  UNL d   1       0.446   2.996  -2.462  0.00  0.00     0.041 A 
ATOM      4  C3  UNL d   1       1.699   2.474  -2.837  0.00  0.00    -0.075 A 
ATOM      5  S   UNL d   1       3.138   2.443  -1.888  0.00  0.00     0.015 SA
ATOM      6  C4  UNL d   1       4.025   1.673  -3.123  0.00  0.00     0.022 A 
ATOM      7  C5  UNL d   1       3.258   1.437  -4.239  0.00  0.00     0.026 A 
ATOM      8  C6  UNL d   1       1.905   1.895  -4.093  0.00  0.00    -0.082 A 
ATOM      9  C7  UNL d   1       0.812   1.845  -4.992  0.00  0.00     0.045 A 
ENDROOT
TORSDOF 0
ENDMDL
