MODEL 1
REMARK minimizedAffinity 12.2067833
REMARK minimizedRMSD -1
REMARK  0 active torsions:
REMARK  status: ('A' for Active; 'I' for Inactive)
ROOT
ATOM      1  C   UNL d   1       0.751  -3.322   4.788  0.00  0.00    -0.002 A 
ATOM      2  C1  UNL d   1       1.799  -3.501   3.897  0.00  0.00     0.010 A 
ATOM      3  C2  UNL d   1       1.714  -3.009   2.593  0.00  0.00     0.041 A 
ATOM      4  C3  UNL d   1       0.548  -2.324   2.197  0.00  0.00    -0.075 A 
ATOM      5  S   UNL d   1       0.223  -1.633   0.652  0.00  0.00     0.015 SA
ATOM      6  C4  UNL d   1      -1.315  -1.083   1.139  0.00  0.00     0.022 A 
ATOM      7  C5  UNL d   1      -1.590  -1.410   2.446  0.00  0.00     0.026 A 
ATOM      8  C6  UNL d   1      -0.520  -2.131   3.078  0.00  0.00    -0.082 A 
ATOM      9  C7  UNL d   1      -0.405  -2.643   4.392  0.00  0.00     0.045 A 
ENDROOT
TORSDOF 0
ENDMDL
