MODEL 1
REMARK minimizedAffinity 5.47658587
REMARK minimizedRMSD -1
REMARK  0 active torsions:
REMARK  status: ('A' for Active; 'I' for Inactive)
ROOT
ATOM      1  C   UNL d   1      -2.925  -1.062  -0.593  0.00  0.00    -0.002 A 
ATOM      2  C1  UNL d   1      -2.419  -2.313  -0.915  0.00  0.00     0.010 A 
ATOM      3  C2  UNL d   1      -1.087  -2.632  -0.646  0.00  0.00     0.041 A 
ATOM      4  C3  UNL d   1      -0.263  -1.663  -0.040  0.00  0.00    -0.075 A 
ATOM      5  S   UNL d   1       1.400  -1.830   0.384  0.00  0.00     0.015 SA
ATOM      6  C4  UNL d   1       1.478  -0.244   1.003  0.00  0.00     0.022 A 
ATOM      7  C5  UNL d   1       0.274   0.411   0.896  0.00  0.00     0.026 A 
ATOM      8  C6  UNL d   1      -0.749  -0.396   0.294  0.00  0.00    -0.082 A 
ATOM      9  C7  UNL d   1      -2.104  -0.103   0.008  0.00  0.00     0.045 A 
ENDROOT
TORSDOF 0
ENDMDL
