MODEL 1
REMARK minimizedAffinity 15.8933048
REMARK minimizedRMSD -1
REMARK  0 active torsions:
REMARK  status: ('A' for Active; 'I' for Inactive)
ROOT
ATOM      1  C   UNL d   1       0.370  -3.320   4.690  0.00  0.00    -0.002 A 
ATOM      2  C1  UNL d   1       1.602  -3.430   4.061  0.00  0.00     0.010 A 
ATOM      3  C2  UNL d   1       1.861  -2.732   2.880  0.00  0.00     0.041 A 
ATOM      4  C3  UNL d   1       0.851  -1.912   2.337  0.00  0.00    -0.075 A 
ATOM      5  S   UNL d   1       0.943  -0.963   0.901  0.00  0.00     0.015 SA
ATOM      6  C4  UNL d   1      -0.651  -0.389   1.089  0.00  0.00     0.022 A 
ATOM      7  C5  UNL d   1      -1.253  -0.899   2.215  0.00  0.00     0.026 A 
ATOM      8  C6  UNL d   1      -0.397  -1.785   2.953  0.00  0.00    -0.082 A 
ATOM      9  C7  UNL d   1      -0.629  -2.506   4.149  0.00  0.00     0.045 A 
ENDROOT
TORSDOF 0
ENDMDL
