MODEL 1
REMARK minimizedAffinity -1.52984989
REMARK minimizedRMSD -1
REMARK  0 active torsions:
REMARK  status: ('A' for Active; 'I' for Inactive)
ROOT
ATOM      1  C   UNL d   1      -3.742  -1.448  -5.995  0.00  0.00    -0.002 A 
ATOM      2  C1  UNL d   1      -5.017  -1.994  -5.994  0.00  0.00     0.010 A 
ATOM      3  C2  UNL d   1      -5.197  -3.379  -5.993  0.00  0.00     0.041 A 
ATOM      4  C3  UNL d   1      -4.062  -4.214  -5.991  0.00  0.00    -0.075 A 
ATOM      5  S   UNL d   1      -4.039  -5.937  -5.989  0.00  0.00     0.015 SA
ATOM      6  C4  UNL d   1      -2.336  -5.989  -5.988  0.00  0.00     0.022 A 
ATOM      7  C5  UNL d   1      -1.781  -4.731  -5.990  0.00  0.00     0.026 A 
ATOM      8  C6  UNL d   1      -2.767  -3.687  -5.992  0.00  0.00    -0.082 A 
ATOM      9  C7  UNL d   1      -2.618  -2.279  -5.994  0.00  0.00     0.045 A 
ENDROOT
TORSDOF 0
ENDMDL
