MODEL 1
REMARK minimizedAffinity 2.14426064
REMARK minimizedRMSD -1
REMARK  0 active torsions:
REMARK  status: ('A' for Active; 'I' for Inactive)
ROOT
ATOM      1  C   UNL d   1      -1.879  -5.998  -5.796  0.00  0.00    -0.002 A 
ATOM      2  C1  UNL d   1      -1.174  -4.856  -5.444  0.00  0.00     0.010 A 
ATOM      3  C2  UNL d   1      -1.832  -3.634  -5.288  0.00  0.00     0.041 A 
ATOM      4  C3  UNL d   1      -3.224  -3.579  -5.491  0.00  0.00    -0.075 A 
ATOM      5  S   UNL d   1      -4.241  -2.193  -5.355  0.00  0.00     0.015 SA
ATOM      6  C4  UNL d   1      -5.636  -3.085  -5.760  0.00  0.00     0.022 A 
ATOM      7  C5  UNL d   1      -5.352  -4.409  -5.997  0.00  0.00     0.026 A 
ATOM      8  C6  UNL d   1      -3.957  -4.716  -5.845  0.00  0.00    -0.082 A 
ATOM      9  C7  UNL d   1      -3.261  -5.939  -5.997  0.00  0.00     0.045 A 
ENDROOT
TORSDOF 0
ENDMDL
