MODEL 1
REMARK minimizedAffinity -2.60574794
REMARK minimizedRMSD -1
REMARK  0 active torsions:
REMARK  status: ('A' for Active; 'I' for Inactive)
ROOT
ATOM      1  C   UNL d   1      -1.028   1.339   2.405  0.00  0.00     0.077 C 
ATOM      2  C1  UNL d   1      -0.068   0.590   1.529  0.00  0.00    -0.074 A 
ATOM      3  C2  UNL d   1       1.089   0.013   2.060  0.00  0.00    -0.005 A 
ATOM      4  C3  UNL d   1       1.968  -0.689   1.234  0.00  0.00     0.006 A 
ATOM      5  C4  UNL d   1       1.697  -0.820  -0.128  0.00  0.00    -0.005 A 
ATOM      6  C5  UNL d   1       0.544  -0.250  -0.677  0.00  0.00    -0.074 A 
ATOM      7  C6  UNL d   1       0.234  -0.390  -2.138  0.00  0.00     0.077 C 
ATOM      8  C7  UNL d   1      -0.337   0.448   0.161  0.00  0.00    -0.001 A 
ENDROOT
TORSDOF 0
ENDMDL
