MODEL 1
REMARK minimizedAffinity -4.0861516
REMARK minimizedRMSD -1
REMARK  0 active torsions:
REMARK  status: ('A' for Active; 'I' for Inactive)
ROOT
ATOM      1  C   UNL d   1      -1.068  -1.160  -4.724  0.00  0.00     0.077 C 
ATOM      2  C1  UNL d   1      -0.018  -0.486  -3.891  0.00  0.00    -0.074 A 
ATOM      3  C2  UNL d   1       0.887   0.413  -4.465  0.00  0.00    -0.005 A 
ATOM      4  C3  UNL d   1       1.852   1.039  -3.676  0.00  0.00     0.006 A 
ATOM      5  C4  UNL d   1       1.922   0.773  -2.308  0.00  0.00    -0.005 A 
ATOM      6  C5  UNL d   1       1.026  -0.123  -1.717  0.00  0.00    -0.074 A 
ATOM      7  C6  UNL d   1       1.081  -0.413  -0.247  0.00  0.00     0.077 C 
ATOM      8  C7  UNL d   1       0.054  -0.743  -2.515  0.00  0.00    -0.001 A 
ENDROOT
TORSDOF 0
ENDMDL
