MODEL 1
REMARK minimizedAffinity -3.62507987
REMARK minimizedRMSD -1
REMARK  0 active torsions:
REMARK  status: ('A' for Active; 'I' for Inactive)
ROOT
ATOM      1  C   UNL d   1      -0.732   1.778   3.675  0.00  0.00     0.077 C 
ATOM      2  C1  UNL d   1      -0.536   1.124   2.339  0.00  0.00    -0.074 A 
ATOM      3  C2  UNL d   1       0.746   0.924   1.818  0.00  0.00    -0.005 A 
ATOM      4  C3  UNL d   1       0.913   0.307   0.578  0.00  0.00     0.006 A 
ATOM      5  C4  UNL d   1      -0.199  -0.117  -0.151  0.00  0.00    -0.005 A 
ATOM      6  C5  UNL d   1      -1.489   0.074   0.355  0.00  0.00    -0.074 A 
ATOM      7  C6  UNL d   1      -2.694  -0.385  -0.411  0.00  0.00     0.077 C 
ATOM      8  C7  UNL d   1      -1.648   0.689   1.605  0.00  0.00    -0.001 A 
ENDROOT
TORSDOF 0
ENDMDL
