MODEL 1
REMARK minimizedAffinity -5.20259905
REMARK minimizedRMSD -1
REMARK  0 active torsions:
REMARK  status: ('A' for Active; 'I' for Inactive)
ROOT
ATOM      1  C   UNL d   1       0.803  -0.536  -1.180  0.00  0.00     0.077 C 
ATOM      2  C1  UNL d   1      -0.140  -0.164  -0.075  0.00  0.00    -0.074 A 
ATOM      3  C2  UNL d   1      -1.523  -0.297  -0.235  0.00  0.00    -0.005 A 
ATOM      4  C3  UNL d   1      -2.388   0.044   0.805  0.00  0.00     0.006 A 
ATOM      5  C4  UNL d   1      -1.879   0.520   2.014  0.00  0.00    -0.005 A 
ATOM      6  C5  UNL d   1      -0.499   0.659   2.193  0.00  0.00    -0.074 A 
ATOM      7  C6  UNL d   1       0.064   1.160   3.489  0.00  0.00     0.077 C 
ATOM      8  C7  UNL d   1       0.363   0.308   1.146  0.00  0.00    -0.001 A 
ENDROOT
TORSDOF 0
ENDMDL
