MODEL 1
REMARK minimizedAffinity -4.65668297
REMARK minimizedRMSD -1
REMARK  0 active torsions:
REMARK  status: ('A' for Active; 'I' for Inactive)
ROOT
ATOM      1  C   UNL d   1      -0.701   1.696   3.342  0.00  0.00     0.077 C 
ATOM      2  C1  UNL d   1      -0.654   0.999   2.015  0.00  0.00    -0.074 A 
ATOM      3  C2  UNL d   1      -1.795   0.906   1.211  0.00  0.00    -0.005 A 
ATOM      4  C3  UNL d   1      -1.734   0.263  -0.025  0.00  0.00     0.006 A 
ATOM      5  C4  UNL d   1      -0.533  -0.292  -0.469  0.00  0.00    -0.005 A 
ATOM      6  C5  UNL d   1       0.618  -0.208   0.320  0.00  0.00    -0.074 A 
ATOM      7  C6  UNL d   1       1.919  -0.791  -0.147  0.00  0.00     0.077 C 
ATOM      8  C7  UNL d   1       0.550   0.445   1.558  0.00  0.00    -0.001 A 
ENDROOT
TORSDOF 0
ENDMDL
