MODEL 1
REMARK minimizedAffinity -3.8758688
REMARK minimizedRMSD -1
REMARK  0 active torsions:
REMARK  status: ('A' for Active; 'I' for Inactive)
ROOT
ATOM      1  C   UNL d   1      -3.151   0.158   2.248  0.00  0.00     0.077 C 
ATOM      2  C1  UNL d   1      -1.764   0.511   1.800  0.00  0.00    -0.074 A 
ATOM      3  C2  UNL d   1      -0.961   1.371   2.556  0.00  0.00    -0.005 A 
ATOM      4  C3  UNL d   1       0.331   1.682   2.131  0.00  0.00     0.006 A 
ATOM      5  C4  UNL d   1       0.831   1.139   0.948  0.00  0.00    -0.005 A 
ATOM      6  C5  UNL d   1       0.043   0.277   0.179  0.00  0.00    -0.074 A 
ATOM      7  C6  UNL d   1       0.570  -0.324  -1.091  0.00  0.00     0.077 C 
ATOM      8  C7  UNL d   1      -1.251  -0.037   0.616  0.00  0.00    -0.001 A 
ENDROOT
TORSDOF 0
ENDMDL
