MODEL 1
REMARK minimizedAffinity -5.19240856
REMARK minimizedRMSD -1
REMARK  0 active torsions:
REMARK  status: ('A' for Active; 'I' for Inactive)
ROOT
ATOM      1  C   UNL d   1       0.519   0.176  -1.870  0.00  0.00     0.077 C 
ATOM      2  C1  UNL d   1      -0.304   0.175  -0.616  0.00  0.00    -0.074 A 
ATOM      3  C2  UNL d   1      -1.681  -0.068  -0.660  0.00  0.00    -0.005 A 
ATOM      4  C3  UNL d   1      -2.431  -0.075   0.516  0.00  0.00     0.006 A 
ATOM      5  C4  UNL d   1      -1.814   0.159   1.745  0.00  0.00    -0.005 A 
ATOM      6  C5  UNL d   1      -0.438   0.402   1.809  0.00  0.00    -0.074 A 
ATOM      7  C6  UNL d   1       0.243   0.645   3.123  0.00  0.00     0.077 C 
ATOM      8  C7  UNL d   1       0.310   0.401   0.624  0.00  0.00    -0.001 A 
ENDROOT
TORSDOF 0
ENDMDL
