MODEL 1
REMARK minimizedAffinity -3.89400482
REMARK minimizedRMSD -1
REMARK  0 active torsions:
REMARK  status: ('A' for Active; 'I' for Inactive)
ROOT
ATOM      1  C   UNL d   1       0.469  -0.290  -1.127  0.00  0.00     0.077 C 
ATOM      2  C1  UNL d   1      -0.492  -0.006  -0.011  0.00  0.00    -0.074 A 
ATOM      3  C2  UNL d   1      -1.874  -0.068  -0.218  0.00  0.00    -0.005 A 
ATOM      4  C3  UNL d   1      -2.755   0.189   0.832  0.00  0.00     0.006 A 
ATOM      5  C4  UNL d   1      -2.265   0.512   2.098  0.00  0.00    -0.005 A 
ATOM      6  C5  UNL d   1      -0.886   0.579   2.324  0.00  0.00    -0.074 A 
ATOM      7  C6  UNL d   1      -0.342   0.914   3.681  0.00  0.00     0.077 C 
ATOM      8  C7  UNL d   1      -0.007   0.311   1.266  0.00  0.00    -0.001 A 
ENDROOT
TORSDOF 0
ENDMDL
