MODEL 1
REMARK minimizedAffinity -3.46367645
REMARK minimizedRMSD -1
REMARK  0 active torsions:
REMARK  status: ('A' for Active; 'I' for Inactive)
ROOT
ATOM      1  C   UNL d   1      -0.227  -0.586  -2.606  0.00  0.00     0.077 C 
ATOM      2  C1  UNL d   1      -0.062  -0.037  -1.220  0.00  0.00    -0.074 A 
ATOM      3  C2  UNL d   1       1.183   0.414  -0.769  0.00  0.00    -0.005 A 
ATOM      4  C3  UNL d   1       1.319   0.931   0.520  0.00  0.00     0.006 A 
ATOM      5  C4  UNL d   1       0.214   1.002   1.369  0.00  0.00    -0.005 A 
ATOM      6  C5  UNL d   1      -1.039   0.557   0.935  0.00  0.00    -0.074 A 
ATOM      7  C6  UNL d   1      -2.239   0.636   1.831  0.00  0.00     0.077 C 
ATOM      8  C7  UNL d   1      -1.169   0.046  -0.364  0.00  0.00    -0.001 A 
ENDROOT
TORSDOF 0
ENDMDL
