MODEL 1
REMARK minimizedAffinity 2.79808903
REMARK minimizedRMSD -1
REMARK  0 active torsions:
REMARK  status: ('A' for Active; 'I' for Inactive)
ROOT
ATOM      1  C   UNL d   1       5.957   5.963   5.111  0.00  0.00     0.023 A 
ATOM      2  C1  UNL d   1       5.548   4.958   5.988  0.00  0.00     0.003 A 
ATOM      3  C2  UNL d   1       4.635   3.990   5.565  0.00  0.00     0.048 A 
ATOM      4  C3  UNL d   1       4.136   4.031   4.264  0.00  0.00     0.023 A 
ATOM      5  C4  UNL d   1       4.544   5.033   3.382  0.00  0.00     0.048 A 
ATOM      6  C5  UNL d   1       5.456   6.000   3.810  0.00  0.00     0.003 A 
ATOM      7  I   UNL d   1       2.778   2.591   3.632  0.00  0.00    -0.146 I 
ENDROOT
TORSDOF 0
ENDMDL
