MODEL 1
REMARK minimizedAffinity 9.13921356
REMARK minimizedRMSD -1
REMARK  0 active torsions:
REMARK  status: ('A' for Active; 'I' for Inactive)
ROOT
ATOM      1  C   UNL d   1       4.192   5.747   4.573  0.00  0.00     0.023 A 
ATOM      2  C1  UNL d   1       4.649   5.196   5.770  0.00  0.00     0.003 A 
ATOM      3  C2  UNL d   1       5.168   3.900   5.790  0.00  0.00     0.048 A 
ATOM      4  C3  UNL d   1       5.227   3.160   4.610  0.00  0.00     0.023 A 
ATOM      5  C4  UNL d   1       4.771   3.707   3.409  0.00  0.00     0.048 A 
ATOM      6  C5  UNL d   1       4.253   5.004   3.394  0.00  0.00     0.003 A 
ATOM      7  I   UNL d   1       5.999   1.231   4.638  0.00  0.00    -0.146 I 
ENDROOT
TORSDOF 0
ENDMDL
