MODEL 1
REMARK minimizedAffinity 10.0852871
REMARK minimizedRMSD -1
REMARK  0 active torsions:
REMARK  status: ('A' for Active; 'I' for Inactive)
ROOT
ATOM      1  C   UNL d   1       2.928   0.129   2.125  0.00  0.00     0.023 A 
ATOM      2  C1  UNL d   1       1.963   0.640   1.257  0.00  0.00     0.003 A 
ATOM      3  C2  UNL d   1       1.833   0.118  -0.031  0.00  0.00     0.048 A 
ATOM      4  C3  UNL d   1       2.672  -0.917  -0.445  0.00  0.00     0.023 A 
ATOM      5  C4  UNL d   1       3.638  -1.432   0.420  0.00  0.00     0.048 A 
ATOM      6  C5  UNL d   1       3.765  -0.906   1.707  0.00  0.00     0.003 A 
ATOM      7  I   UNL d   1       2.480  -1.697  -2.362  0.00  0.00    -0.146 I 
ENDROOT
TORSDOF 0
ENDMDL
