MODEL 1
REMARK minimizedAffinity 7.38286352
REMARK minimizedRMSD -1
REMARK  0 active torsions:
REMARK  status: ('A' for Active; 'I' for Inactive)
ROOT
ATOM      1  C   UNL d   1       4.521   2.747  -0.990  0.00  0.00     0.023 A 
ATOM      2  C1  UNL d   1       4.685   1.628  -1.807  0.00  0.00     0.003 A 
ATOM      3  C2  UNL d   1       3.956   0.465  -1.554  0.00  0.00     0.048 A 
ATOM      4  C3  UNL d   1       3.063   0.427  -0.484  0.00  0.00     0.023 A 
ATOM      5  C4  UNL d   1       2.894   1.545   0.335  0.00  0.00     0.048 A 
ATOM      6  C5  UNL d   1       3.626   2.706   0.079  0.00  0.00     0.003 A 
ATOM      7  I   UNL d   1       1.976  -1.303  -0.106  0.00  0.00    -0.146 I 
ENDROOT
TORSDOF 0
ENDMDL
