MODEL 1
REMARK minimizedAffinity 6.05311012
REMARK minimizedRMSD -1
REMARK  0 active torsions:
REMARK  status: ('A' for Active; 'I' for Inactive)
ROOT
ATOM      1  C   UNL d   1       5.396   3.180  -0.705  0.00  0.00     0.023 A 
ATOM      2  C1  UNL d   1       5.077   2.403  -1.819  0.00  0.00     0.003 A 
ATOM      3  C2  UNL d   1       4.189   1.332  -1.693  0.00  0.00     0.048 A 
ATOM      4  C3  UNL d   1       3.624   1.044  -0.451  0.00  0.00     0.023 A 
ATOM      5  C4  UNL d   1       3.940   1.820   0.666  0.00  0.00     0.048 A 
ATOM      6  C5  UNL d   1       4.828   2.889   0.536  0.00  0.00     0.003 A 
ATOM      7  I   UNL d   1       2.303  -0.549  -0.262  0.00  0.00    -0.146 I 
ENDROOT
TORSDOF 0
ENDMDL
