MODEL 1
REMARK minimizedAffinity 5.70010948
REMARK minimizedRMSD -1
REMARK  0 active torsions:
REMARK  status: ('A' for Active; 'I' for Inactive)
ROOT
ATOM      1  C   UNL d   1      -3.580   1.227  -5.232  0.00  0.00     0.023 A 
ATOM      2  C1  UNL d   1      -2.591   0.954  -4.287  0.00  0.00     0.003 A 
ATOM      3  C2  UNL d   1      -2.941   0.719  -2.956  0.00  0.00     0.048 A 
ATOM      4  C3  UNL d   1      -4.282   0.758  -2.576  0.00  0.00     0.023 A 
ATOM      5  C4  UNL d   1      -5.276   1.030  -3.519  0.00  0.00     0.048 A 
ATOM      6  C5  UNL d   1      -4.921   1.265  -4.848  0.00  0.00     0.003 A 
ATOM      7  I   UNL d   1      -4.806   0.409  -0.596  0.00  0.00    -0.146 I 
ENDROOT
TORSDOF 0
ENDMDL
