MODEL 1
REMARK minimizedAffinity 17.6872597
REMARK minimizedRMSD -1
REMARK  0 active torsions:
REMARK  status: ('A' for Active; 'I' for Inactive)
ROOT
ATOM      1  C   UNL d   1      -5.844   0.799  -5.700  0.00  0.00     0.023 A 
ATOM      2  C1  UNL d   1      -4.661   1.475  -6.000  0.00  0.00     0.003 A 
ATOM      3  C2  UNL d   1      -3.567   1.388  -5.136  0.00  0.00     0.048 A 
ATOM      4  C3  UNL d   1      -3.662   0.621  -3.975  0.00  0.00     0.023 A 
ATOM      5  C4  UNL d   1      -4.843  -0.058  -3.672  0.00  0.00     0.048 A 
ATOM      6  C5  UNL d   1      -5.935   0.033  -4.538  0.00  0.00     0.003 A 
ATOM      7  I   UNL d   1      -2.035   0.489  -2.689  0.00  0.00    -0.146 I 
ENDROOT
TORSDOF 0
ENDMDL
