MODEL 1
REMARK minimizedAffinity 3.33966184
REMARK minimizedRMSD -1
REMARK  1 active torsions:
REMARK  status: ('A' for Active; 'I' for Inactive)
REMARK    1  A    between atoms: N_2  and  C1_3 
ROOT
ATOM      1  C1  UNL d   1       1.859   4.583   3.626  0.00  0.00     0.143 A 
ATOM      2  C2  UNL d   1       0.866   5.286   4.317  0.00  0.00    -0.057 A 
ATOM      3  C3  UNL d   1       1.161   6.000   5.485  0.00  0.00     0.033 A 
ATOM      4  C4  UNL d   1       2.453   6.000   6.000  0.00  0.00    -0.042 A 
ATOM      5  C5  UNL d   1       3.450   5.288   5.344  0.00  0.00     0.033 A 
ATOM      6  C6  UNL d   1       3.151   4.582   4.174  0.00  0.00    -0.057 A 
ENDROOT
BRANCH   1   7
ATOM      7  N   UNL d   1       1.609   3.774   2.515  0.00  0.00    -0.732 N 
ATOM      8  C   UNL d   1       2.687   3.380   1.633  0.00  0.00     0.284 C 
ATOM      9  H3  UNL d   1       0.945   3.030   2.718  0.00  0.00     0.395 HD
ENDBRANCH   1   7
TORSDOF 1
ENDMDL
