MODEL 1
REMARK minimizedAffinity -3.06860352
REMARK minimizedRMSD -1
REMARK  1 active torsions:
REMARK  status: ('A' for Active; 'I' for Inactive)
REMARK    1  A    between atoms: N_2  and  C1_3 
ROOT
ATOM      1  C1  UNL d   1      -2.640   0.651  -4.282  0.00  0.00     0.143 A 
ATOM      2  C2  UNL d   1      -3.165  -0.612  -4.576  0.00  0.00    -0.057 A 
ATOM      3  C3  UNL d   1      -2.948  -1.704  -3.727  0.00  0.00     0.033 A 
ATOM      4  C4  UNL d   1      -2.175  -1.558  -2.580  0.00  0.00    -0.042 A 
ATOM      5  C5  UNL d   1      -1.622  -0.317  -2.281  0.00  0.00     0.033 A 
ATOM      6  C6  UNL d   1      -1.848   0.771  -3.130  0.00  0.00    -0.057 A 
ENDROOT
BRANCH   1   7
ATOM      7  N   UNL d   1      -2.738   1.752  -5.137  0.00  0.00    -0.732 N 
ATOM      8  C   UNL d   1      -3.808   2.714  -4.980  0.00  0.00     0.284 C 
ATOM      9  H3  UNL d   1      -1.832   2.168  -5.340  0.00  0.00     0.395 HD
ENDBRANCH   1   7
TORSDOF 1
ENDMDL
