MODEL 1
REMARK minimizedAffinity 5.11678839
REMARK minimizedRMSD -1
REMARK  1 active torsions:
REMARK  status: ('A' for Active; 'I' for Inactive)
REMARK    1  A    between atoms: N_2  and  C1_3 
ROOT
ATOM      1  C1  UNL d   1      -2.197   0.840   3.019  0.00  0.00     0.143 A 
ATOM      2  C2  UNL d   1      -0.878   0.909   3.479  0.00  0.00    -0.057 A 
ATOM      3  C3  UNL d   1       0.106   0.035   2.999  0.00  0.00     0.033 A 
ATOM      4  C4  UNL d   1      -0.221  -0.945   2.068  0.00  0.00    -0.042 A 
ATOM      5  C5  UNL d   1      -1.531  -1.048   1.615  0.00  0.00     0.033 A 
ATOM      6  C6  UNL d   1      -2.507  -0.169   2.093  0.00  0.00    -0.057 A 
ENDROOT
BRANCH   1   7
ATOM      7  N   UNL d   1      -3.241   1.615   3.530  0.00  0.00    -0.732 N 
ATOM      8  C   UNL d   1      -3.235   2.038   4.914  0.00  0.00     0.284 C 
ATOM      9  H3  UNL d   1      -3.548   2.332   2.877  0.00  0.00     0.395 HD
ENDBRANCH   1   7
TORSDOF 1
ENDMDL
