MODEL 1
REMARK minimizedAffinity 3.71414971
REMARK minimizedRMSD -1
REMARK  1 active torsions:
REMARK  status: ('A' for Active; 'I' for Inactive)
REMARK    1  A    between atoms: N_2  and  C1_3 
ROOT
ATOM      1  C1  UNL d   1       1.082  -1.263  -0.679  0.00  0.00     0.143 A 
ATOM      2  C2  UNL d   1      -0.244  -1.511  -0.308  0.00  0.00    -0.057 A 
ATOM      3  C3  UNL d   1      -0.641  -1.478   1.034  0.00  0.00     0.033 A 
ATOM      4  C4  UNL d   1       0.290  -1.224   2.035  0.00  0.00    -0.042 A 
ATOM      5  C5  UNL d   1       1.619  -0.998   1.692  0.00  0.00     0.033 A 
ATOM      6  C6  UNL d   1       2.008  -1.026   0.349  0.00  0.00    -0.057 A 
ENDROOT
BRANCH   1   7
ATOM      7  N   UNL d   1       1.558  -1.378  -1.987  0.00  0.00    -0.732 N 
ATOM      8  C   UNL d   1       2.903  -1.847  -2.243  0.00  0.00     0.284 C 
ATOM      9  H3  UNL d   1       0.859  -1.754  -2.623  0.00  0.00     0.395 HD
ENDBRANCH   1   7
TORSDOF 1
ENDMDL
