MODEL 1
REMARK minimizedAffinity 3.3541503
REMARK minimizedRMSD -1
REMARK  1 active torsions:
REMARK  status: ('A' for Active; 'I' for Inactive)
REMARK    1  A    between atoms: N_2  and  C1_3 
ROOT
ATOM      1  C1  UNL d   1      -1.148   0.110   2.642  0.00  0.00     0.143 A 
ATOM      2  C2  UNL d   1       0.244   0.250   2.646  0.00  0.00    -0.057 A 
ATOM      3  C3  UNL d   1       1.082  -0.823   2.321  0.00  0.00     0.033 A 
ATOM      4  C4  UNL d   1       0.541  -2.067   2.012  0.00  0.00    -0.042 A 
ATOM      5  C5  UNL d   1      -0.839  -2.235   2.025  0.00  0.00     0.033 A 
ATOM      6  C6  UNL d   1      -1.671  -1.158   2.345  0.00  0.00    -0.057 A 
ENDROOT
BRANCH   1   7
ATOM      7  N   UNL d   1      -2.032   1.112   3.052  0.00  0.00    -0.732 N 
ATOM      8  C   UNL d   1      -3.434   1.048   2.700  0.00  0.00     0.284 C 
ATOM      9  H3  UNL d   1      -1.856   1.418   4.007  0.00  0.00     0.395 HD
ENDBRANCH   1   7
TORSDOF 1
ENDMDL
