MODEL 1
REMARK minimizedAffinity -1.37021387
REMARK minimizedRMSD -1
REMARK  1 active torsions:
REMARK  status: ('A' for Active; 'I' for Inactive)
REMARK    1  A    between atoms: N_2  and  C1_3 
ROOT
ATOM      1  C1  UNL d   1      -1.834   0.527   3.120  0.00  0.00     0.143 A 
ATOM      2  C2  UNL d   1      -0.618   0.324   3.782  0.00  0.00    -0.057 A 
ATOM      3  C3  UNL d   1       0.308  -0.622   3.325  0.00  0.00     0.033 A 
ATOM      4  C4  UNL d   1       0.020  -1.405   2.213  0.00  0.00    -0.042 A 
ATOM      5  C5  UNL d   1      -1.193  -1.239   1.554  0.00  0.00     0.033 A 
ATOM      6  C6  UNL d   1      -2.111  -0.288   2.011  0.00  0.00    -0.057 A 
ENDROOT
BRANCH   1   7
ATOM      7  N   UNL d   1      -2.838   1.382   3.582  0.00  0.00    -0.732 N 
ATOM      8  C   UNL d   1      -4.218   0.948   3.617  0.00  0.00     0.284 C 
ATOM      9  H3  UNL d   1      -2.548   1.914   4.400  0.00  0.00     0.395 HD
ENDBRANCH   1   7
TORSDOF 1
ENDMDL
