MODEL 1
REMARK minimizedAffinity 2.98312521
REMARK minimizedRMSD -1
REMARK  1 active torsions:
REMARK  status: ('A' for Active; 'I' for Inactive)
REMARK    1  A    between atoms: N_2  and  C1_3 
ROOT
ATOM      1  C1  UNL d   1       0.890  -1.373   1.215  0.00  0.00     0.143 A 
ATOM      2  C2  UNL d   1       0.977  -1.628   2.588  0.00  0.00    -0.057 A 
ATOM      3  C3  UNL d   1       0.051  -1.086   3.487  0.00  0.00     0.033 A 
ATOM      4  C4  UNL d   1      -0.965  -0.253   3.030  0.00  0.00    -0.042 A 
ATOM      5  C5  UNL d   1      -1.056   0.034   1.673  0.00  0.00     0.033 A 
ATOM      6  C6  UNL d   1      -0.132  -0.516   0.779  0.00  0.00    -0.057 A 
ENDROOT
BRANCH   1   7
ATOM      7  N   UNL d   1       1.838  -1.803   0.283  0.00  0.00    -0.732 N 
ATOM      8  C   UNL d   1       2.133  -1.006  -0.889  0.00  0.00     0.284 C 
ATOM      9  H3  UNL d   1       2.658  -2.213   0.723  0.00  0.00     0.395 HD
ENDBRANCH   1   7
TORSDOF 1
ENDMDL
