MODEL 1
REMARK minimizedAffinity 14.0836296
REMARK minimizedRMSD -1
REMARK  0 active torsions:
REMARK  status: ('A' for Active; 'I' for Inactive)
ROOT
ATOM      1  N1  IND d   1      -5.999   5.185   1.652  0.00  0.00    -0.196 N 
ATOM      2  C2  IND d   1      -5.081   5.909   2.361  0.00  0.00     0.054 A 
ATOM      3  C3  IND d   1      -3.864   5.325   2.288  0.00  0.00    -0.031 A 
ATOM      4  C4  IND d   1      -3.128   3.235   0.978  0.00  0.00     0.051 A 
ATOM      5  C5  IND d   1      -3.620   2.216   0.210  0.00  0.00    -0.031 A 
ATOM      6  C6  IND d   1      -4.956   2.135  -0.125  0.00  0.00     0.015 A 
ATOM      7  C7  IND d   1      -5.852   3.080   0.288  0.00  0.00    -0.016 A 
ATOM      8  C8  IND d   1      -5.358   4.112   1.073  0.00  0.00    -0.047 A 
ATOM      9  C9  IND d   1      -4.011   4.176   1.451  0.00  0.00    -0.096 A 
ATOM     10  HN1 IND d   1      -6.835   5.369   1.580  0.00  0.00     0.298 HD
ENDROOT
TORSDOF 0
ENDMDL
