MODEL 1
REMARK minimizedAffinity 6.04835415
REMARK minimizedRMSD -1
REMARK  0 active torsions:
REMARK  status: ('A' for Active; 'I' for Inactive)
ROOT
ATOM      1  N1  IND d   1       1.757   4.302  -0.787  0.00  0.00    -0.196 N 
ATOM      2  C2  IND d   1       1.293   5.462  -1.343  0.00  0.00     0.054 A 
ATOM      3  C3  IND d   1      -0.058   5.455  -1.387  0.00  0.00    -0.031 A 
ATOM      4  C4  IND d   1      -1.714   3.689  -0.509  0.00  0.00     0.051 A 
ATOM      5  C5  IND d   1      -1.764   2.442   0.046  0.00  0.00    -0.031 A 
ATOM      6  C6  IND d   1      -0.620   1.737   0.360  0.00  0.00     0.015 A 
ATOM      7  C7  IND d   1       0.623   2.261   0.141  0.00  0.00    -0.016 A 
ATOM      8  C8  IND d   1       0.677   3.525  -0.429  0.00  0.00    -0.047 A 
ATOM      9  C9  IND d   1      -0.480   4.227  -0.790  0.00  0.00    -0.096 A 
ATOM     10  HN1 IND d   1       2.584   4.093  -0.679  0.00  0.00     0.298 HD
ENDROOT
TORSDOF 0
ENDMDL
