MODEL 1
REMARK minimizedAffinity 14.976944
REMARK minimizedRMSD -1
REMARK  0 active torsions:
REMARK  status: ('A' for Active; 'I' for Inactive)
ROOT
ATOM      1  N1  IND d   1       2.331   4.856  -0.532  0.00  0.00    -0.196 N 
ATOM      2  C2  IND d   1       2.203   5.847  -1.465  0.00  0.00     0.054 A 
ATOM      3  C3  IND d   1       0.905   5.998  -1.815  0.00  0.00    -0.031 A 
ATOM      4  C4  IND d   1      -1.184   4.798  -0.908  0.00  0.00     0.051 A 
ATOM      5  C5  IND d   1      -1.568   3.789  -0.070  0.00  0.00    -0.031 A 
ATOM      6  C6  IND d   1      -0.654   3.071   0.673  0.00  0.00     0.015 A 
ATOM      7  C7  IND d   1       0.683   3.345   0.615  0.00  0.00    -0.016 A 
ATOM      8  C8  IND d   1       1.078   4.364  -0.239  0.00  0.00    -0.047 A 
ATOM      9  C9  IND d   1       0.159   5.068  -1.028  0.00  0.00    -0.096 A 
ATOM     10  HN1 IND d   1       3.070   4.586  -0.185  0.00  0.00     0.298 HD
ENDROOT
TORSDOF 0
ENDMDL
