MODEL 1
REMARK minimizedAffinity 13.8459234
REMARK minimizedRMSD -1
REMARK  0 active torsions:
REMARK  status: ('A' for Active; 'I' for Inactive)
ROOT
ATOM      1  N1  IND d   1      -5.999   4.771   1.545  0.00  0.00    -0.196 N 
ATOM      2  C2  IND d   1      -5.289   5.746   2.189  0.00  0.00     0.054 A 
ATOM      3  C3  IND d   1      -3.977   5.421   2.232  0.00  0.00    -0.031 A 
ATOM      4  C4  IND d   1      -2.761   3.391   1.220  0.00  0.00     0.051 A 
ATOM      5  C5  IND d   1      -2.992   2.211   0.570  0.00  0.00    -0.031 A 
ATOM      6  C6  IND d   1      -4.262   1.818   0.202  0.00  0.00     0.015 A 
ATOM      7  C7  IND d   1      -5.353   2.598   0.461  0.00  0.00    -0.016 A 
ATOM      8  C8  IND d   1      -5.123   3.794   1.128  0.00  0.00    -0.047 A 
ATOM      9  C9  IND d   1      -3.841   4.178   1.541  0.00  0.00    -0.096 A 
ATOM     10  HN1 IND d   1      -6.850   4.769   1.422  0.00  0.00     0.298 HD
ENDROOT
TORSDOF 0
ENDMDL
