MODEL 1
REMARK minimizedAffinity 2.4133296
REMARK minimizedRMSD -1
REMARK  0 active torsions:
REMARK  status: ('A' for Active; 'I' for Inactive)
ROOT
ATOM      1  N1  IND d   1       2.657  -0.676   3.235  0.00  0.00    -0.196 N 
ATOM      2  C2  IND d   1       2.085  -0.462   2.011  0.00  0.00     0.054 A 
ATOM      3  C3  IND d   1       2.764  -1.130   1.052  0.00  0.00    -0.031 A 
ATOM      4  C4  IND d   1       4.780  -2.715   1.277  0.00  0.00     0.051 A 
ATOM      5  C5  IND d   1       5.676  -3.196   2.191  0.00  0.00    -0.031 A 
ATOM      6  C6  IND d   1       5.608  -2.856   3.527  0.00  0.00     0.015 A 
ATOM      7  C7  IND d   1       4.631  -2.028   4.002  0.00  0.00    -0.016 A 
ATOM      8  C8  IND d   1       3.724  -1.533   3.076  0.00  0.00    -0.047 A 
ATOM      9  C9  IND d   1       3.813  -1.841   1.713  0.00  0.00    -0.096 A 
ATOM     10  HN1 IND d   1       2.394  -0.333   3.978  0.00  0.00     0.298 HD
ENDROOT
TORSDOF 0
ENDMDL
