MODEL 1
REMARK minimizedAffinity 7.26221752
REMARK minimizedRMSD -1
REMARK  0 active torsions:
REMARK  status: ('A' for Active; 'I' for Inactive)
ROOT
ATOM      1  N1  IND d   1      -0.889   2.351  -1.282  0.00  0.00    -0.196 N 
ATOM      2  C2  IND d   1      -1.704   2.724  -0.249  0.00  0.00     0.054 A 
ATOM      3  C3  IND d   1      -1.544   1.889   0.802  0.00  0.00    -0.031 A 
ATOM      4  C4  IND d   1       0.073  -0.094   1.083  0.00  0.00     0.051 A 
ATOM      5  C5  IND d   1       0.990  -0.842   0.399  0.00  0.00    -0.031 A 
ATOM      6  C6  IND d   1       1.336  -0.556  -0.906  0.00  0.00     0.015 A 
ATOM      7  C7  IND d   1       0.784   0.500  -1.575  0.00  0.00    -0.016 A 
ATOM      8  C8  IND d   1      -0.152   1.257  -0.885  0.00  0.00    -0.047 A 
ATOM      9  C9  IND d   1      -0.539   0.946   0.425  0.00  0.00    -0.096 A 
ATOM     10  HN1 IND d   1      -0.845   2.735  -2.050  0.00  0.00     0.298 HD
ENDROOT
TORSDOF 0
ENDMDL
