MODEL 1
REMARK minimizedAffinity 10.6227694
REMARK minimizedRMSD -1
REMARK  0 active torsions:
REMARK  status: ('A' for Active; 'I' for Inactive)
ROOT
ATOM      1  N1  IND d   1       0.318   0.584  -2.801  0.00  0.00    -0.196 N 
ATOM      2  C2  IND d   1      -0.524   0.375  -3.857  0.00  0.00     0.054 A 
ATOM      3  C3  IND d   1      -1.583   1.212  -3.788  0.00  0.00    -0.031 A 
ATOM      4  C4  IND d   1      -2.084   3.077  -2.085  0.00  0.00     0.051 A 
ATOM      5  C5  IND d   1      -1.625   3.623  -0.919  0.00  0.00    -0.031 A 
ATOM      6  C6  IND d   1      -0.470   3.177  -0.310  0.00  0.00     0.015 A 
ATOM      7  C7  IND d   1       0.278   2.171  -0.853  0.00  0.00    -0.016 A 
ATOM      8  C8  IND d   1      -0.189   1.609  -2.033  0.00  0.00    -0.047 A 
ATOM      9  C9  IND d   1      -1.383   2.029  -2.633  0.00  0.00    -0.096 A 
ATOM     10  HN1 IND d   1       1.042   0.148  -2.643  0.00  0.00     0.298 HD
ENDROOT
TORSDOF 0
ENDMDL
