MODEL 1
REMARK minimizedAffinity -0.1056045
REMARK minimizedRMSD -1
REMARK  1 active torsions:
REMARK  status: ('A' for Active; 'I' for Inactive)
REMARK    1  A    between atoms: C1_2  and  C2_3 
ROOT
ATOM      1  C2  UNL d   1      -0.004   0.255   0.890  0.00  0.00    -0.073 A 
ATOM      2  C3  UNL d   1      -0.549  -1.030   1.000  0.00  0.00    -0.002 A 
ATOM      3  C4  UNL d   1      -0.282  -1.995   0.028  0.00  0.00     0.004 A 
ATOM      4  C5  UNL d   1       0.537  -1.689  -1.059  0.00  0.00    -0.004 A 
ATOM      5  C6  UNL d   1       1.101  -0.415  -1.180  0.00  0.00    -0.075 A 
ATOM      6  C7  UNL d   1       1.983  -0.069  -2.344  0.00  0.00     0.076 C 
ATOM      7  C8  UNL d   1       0.826   0.550  -0.202  0.00  0.00     0.001 A 
ENDROOT
BRANCH   1   8
ATOM      8  C1  UNL d   1      -0.284   1.298   1.940  0.00  0.00     0.053 C 
ATOM      9  C   UNL d   1       0.891   1.484   2.887  0.00  0.00     0.018 C 
ENDBRANCH   1   8
TORSDOF 1
ENDMDL
