MODEL 1
REMARK minimizedAffinity -2.81808853
REMARK minimizedRMSD -1
REMARK  1 active torsions:
REMARK  status: ('A' for Active; 'I' for Inactive)
REMARK    1  A    between atoms: C1_2  and  C2_3 
ROOT
ATOM      1  C2  UNL d   1      -0.608   0.465   2.994  0.00  0.00    -0.073 A 
ATOM      2  C3  UNL d   1      -0.461  -0.122   1.732  0.00  0.00    -0.002 A 
ATOM      3  C4  UNL d   1      -1.574  -0.321   0.914  0.00  0.00     0.004 A 
ATOM      4  C5  UNL d   1      -2.842   0.070   1.345  0.00  0.00    -0.004 A 
ATOM      5  C6  UNL d   1      -3.007   0.668   2.598  0.00  0.00    -0.075 A 
ATOM      6  C7  UNL d   1      -4.364   1.093   3.077  0.00  0.00     0.076 C 
ATOM      7  C8  UNL d   1      -1.885   0.863   3.415  0.00  0.00     0.001 A 
ENDROOT
BRANCH   1   8
ATOM      8  C1  UNL d   1       0.591   0.688   3.878  0.00  0.00     0.053 C 
ATOM      9  C   UNL d   1       1.668   1.507   3.184  0.00  0.00     0.018 C 
ENDBRANCH   1   8
TORSDOF 1
ENDMDL
