MODEL 1
REMARK minimizedAffinity -3.27851081
REMARK minimizedRMSD -1
REMARK  1 active torsions:
REMARK  status: ('A' for Active; 'I' for Inactive)
REMARK    1  A    between atoms: C1_2  and  C2_3 
ROOT
ATOM      1  C2  UNL d   1      -2.210   0.099   1.511  0.00  0.00    -0.073 A 
ATOM      2  C3  UNL d   1      -3.385  -0.357   0.903  0.00  0.00    -0.002 A 
ATOM      3  C4  UNL d   1      -4.621   0.175   1.272  0.00  0.00     0.004 A 
ATOM      4  C5  UNL d   1      -4.695   1.170   2.247  0.00  0.00    -0.004 A 
ATOM      5  C6  UNL d   1      -3.531   1.646   2.858  0.00  0.00    -0.075 A 
ATOM      6  C7  UNL d   1      -3.593   2.715   3.909  0.00  0.00     0.076 C 
ATOM      7  C8  UNL d   1      -2.293   1.106   2.484  0.00  0.00     0.001 A 
ENDROOT
BRANCH   1   8
ATOM      8  C1  UNL d   1      -0.872  -0.468   1.112  0.00  0.00     0.053 C 
ATOM      9  C   UNL d   1      -0.353   0.151  -0.177  0.00  0.00     0.018 C 
ENDBRANCH   1   8
TORSDOF 1
ENDMDL
