MODEL 1
REMARK minimizedAffinity 0.723034441
REMARK minimizedRMSD -1
REMARK  1 active torsions:
REMARK  status: ('A' for Active; 'I' for Inactive)
REMARK    1  A    between atoms: C1_2  and  C2_3 
ROOT
ATOM      1  C2  UNL d   1      -3.189   3.319  -5.500  0.00  0.00    -0.073 A 
ATOM      2  C3  UNL d   1      -3.919   2.144  -5.290  0.00  0.00    -0.002 A 
ATOM      3  C4  UNL d   1      -5.315   2.169  -5.301  0.00  0.00     0.004 A 
ATOM      4  C5  UNL d   1      -5.993   3.366  -5.529  0.00  0.00    -0.004 A 
ATOM      5  C6  UNL d   1      -5.281   4.549  -5.753  0.00  0.00    -0.075 A 
ATOM      6  C7  UNL d   1      -5.997   5.845  -5.998  0.00  0.00     0.076 C 
ATOM      7  C8  UNL d   1      -3.881   4.516  -5.738  0.00  0.00     0.001 A 
ENDROOT
BRANCH   1   8
ATOM      8  C1  UNL d   1      -1.683   3.296  -5.495  0.00  0.00     0.053 C 
ATOM      9  C   UNL d   1      -1.096   4.507  -4.788  0.00  0.00     0.018 C 
ENDBRANCH   1   8
TORSDOF 1
ENDMDL
