MODEL 1
REMARK minimizedAffinity -3.81211972
REMARK minimizedRMSD -1
REMARK  1 active torsions:
REMARK  status: ('A' for Active; 'I' for Inactive)
REMARK    1  A    between atoms: C1_2  and  C2_3 
ROOT
ATOM      1  C2  UNL d   1      -1.778  -0.054   1.966  0.00  0.00    -0.073 A 
ATOM      2  C3  UNL d   1      -2.968  -0.659   1.546  0.00  0.00    -0.002 A 
ATOM      3  C4  UNL d   1      -4.202  -0.120   1.914  0.00  0.00     0.004 A 
ATOM      4  C5  UNL d   1      -4.258   1.031   2.699  0.00  0.00    -0.004 A 
ATOM      5  C6  UNL d   1      -3.080   1.657   3.119  0.00  0.00    -0.075 A 
ATOM      6  C7  UNL d   1      -3.124   2.895   3.966  0.00  0.00     0.076 C 
ATOM      7  C8  UNL d   1      -1.846   1.108   2.748  0.00  0.00     0.001 A 
ENDROOT
BRANCH   1   8
ATOM      8  C1  UNL d   1      -0.444  -0.629   1.566  0.00  0.00     0.053 C 
ATOM      9  C   UNL d   1      -0.054  -0.232   0.151  0.00  0.00     0.018 C 
ENDBRANCH   1   8
TORSDOF 1
ENDMDL
