MODEL 1
REMARK minimizedAffinity -0.902925432
REMARK minimizedRMSD -1
REMARK  1 active torsions:
REMARK  status: ('A' for Active; 'I' for Inactive)
REMARK    1  A    between atoms: C1_2  and  C2_3 
ROOT
ATOM      1  C2  UNL d   1      -4.115   0.981   2.144  0.00  0.00    -0.073 A 
ATOM      2  C3  UNL d   1      -4.994   1.897   2.731  0.00  0.00    -0.002 A 
ATOM      3  C4  UNL d   1      -4.544   2.769   3.723  0.00  0.00     0.004 A 
ATOM      4  C5  UNL d   1      -3.211   2.739   4.133  0.00  0.00    -0.004 A 
ATOM      5  C6  UNL d   1      -2.314   1.839   3.549  0.00  0.00    -0.075 A 
ATOM      6  C7  UNL d   1      -0.878   1.792   3.980  0.00  0.00     0.076 C 
ATOM      7  C8  UNL d   1      -2.775   0.964   2.555  0.00  0.00     0.001 A 
ENDROOT
BRANCH   1   8
ATOM      8  C1  UNL d   1      -4.595   0.041   1.068  0.00  0.00     0.053 C 
ATOM      9  C   UNL d   1      -4.424  -1.416   1.466  0.00  0.00     0.018 C 
ENDBRANCH   1   8
TORSDOF 1
ENDMDL
