MODEL 1
REMARK minimizedAffinity -5.26576328
REMARK minimizedRMSD -1
REMARK  1 active torsions:
REMARK  status: ('A' for Active; 'I' for Inactive)
REMARK    1  A    between atoms: C1_2  and  C2_3 
ROOT
ATOM      1  C2  UNL d   1      -2.286   1.249   2.726  0.00  0.00    -0.073 A 
ATOM      2  C3  UNL d   1      -3.602   0.970   2.339  0.00  0.00    -0.002 A 
ATOM      3  C4  UNL d   1      -3.860   0.012   1.357  0.00  0.00     0.004 A 
ATOM      4  C5  UNL d   1      -2.807  -0.680   0.758  0.00  0.00    -0.004 A 
ATOM      5  C6  UNL d   1      -1.486  -0.423   1.140  0.00  0.00    -0.075 A 
ATOM      6  C7  UNL d   1      -0.343  -1.157   0.504  0.00  0.00     0.076 C 
ATOM      7  C8  UNL d   1      -1.236   0.542   2.125  0.00  0.00     0.001 A 
ENDROOT
BRANCH   1   8
ATOM      8  C1  UNL d   1      -2.004   2.278   3.790  0.00  0.00     0.053 C 
ATOM      9  C   UNL d   1      -3.053   3.379   3.812  0.00  0.00     0.018 C 
ENDBRANCH   1   8
TORSDOF 1
ENDMDL
