MODEL 1
REMARK minimizedAffinity -3.27371764
REMARK minimizedRMSD -1
REMARK  1 active torsions:
REMARK  status: ('A' for Active; 'I' for Inactive)
REMARK    1  A    between atoms: C1_2  and  C2_3 
ROOT
ATOM      1  C2  UNL d   1      -0.554  -0.122   0.310  0.00  0.00    -0.073 A 
ATOM      2  C3  UNL d   1      -0.168  -1.445   0.555  0.00  0.00    -0.002 A 
ATOM      3  C4  UNL d   1       0.655  -2.118  -0.348  0.00  0.00     0.004 A 
ATOM      4  C5  UNL d   1       1.106  -1.474  -1.501  0.00  0.00    -0.004 A 
ATOM      5  C6  UNL d   1       0.741  -0.149  -1.757  0.00  0.00    -0.075 A 
ATOM      6  C7  UNL d   1       1.215   0.557  -2.994  0.00  0.00     0.076 C 
ATOM      7  C8  UNL d   1      -0.089   0.519  -0.847  0.00  0.00     0.001 A 
ENDROOT
BRANCH   1   8
ATOM      8  C1  UNL d   1      -1.438   0.611   1.286  0.00  0.00     0.053 C 
ATOM      9  C   UNL d   1      -2.908   0.282   1.082  0.00  0.00     0.018 C 
ENDBRANCH   1   8
TORSDOF 1
ENDMDL
