MODEL 1
REMARK minimizedAffinity -1.77491176
REMARK minimizedRMSD -1
REMARK  1 active torsions:
REMARK  status: ('A' for Active; 'I' for Inactive)
REMARK    1  A    between atoms: C1_2  and  C2_3 
ROOT
ATOM      1  C2  UNL d   1       1.190   1.265   0.739  0.00  0.00    -0.073 A 
ATOM      2  C3  UNL d   1       0.395   0.266   1.310  0.00  0.00    -0.002 A 
ATOM      3  C4  UNL d   1      -0.249  -0.671   0.501  0.00  0.00     0.004 A 
ATOM      4  C5  UNL d   1      -0.099  -0.623  -0.885  0.00  0.00    -0.004 A 
ATOM      5  C6  UNL d   1       0.702   0.361  -1.474  0.00  0.00    -0.075 A 
ATOM      6  C7  UNL d   1       0.872   0.429  -2.963  0.00  0.00     0.076 C 
ATOM      7  C8  UNL d   1       1.343   1.300  -0.654  0.00  0.00     0.001 A 
ENDROOT
BRANCH   1   8
ATOM      8  C1  UNL d   1       1.893   2.275   1.609  0.00  0.00     0.053 C 
ATOM      9  C   UNL d   1       1.903   1.858   3.072  0.00  0.00     0.018 C 
ENDBRANCH   1   8
TORSDOF 1
ENDMDL
