MODEL 1
REMARK minimizedAffinity -0.725384653
REMARK minimizedRMSD -1
REMARK  1 active torsions:
REMARK  status: ('A' for Active; 'I' for Inactive)
REMARK    1  A    between atoms: C1_2  and  C2_3 
ROOT
ATOM      1  C2  UNL d   1       1.192   0.811  -1.180  0.00  0.00    -0.073 A 
ATOM      2  C3  UNL d   1      -0.002   1.540  -1.216  0.00  0.00    -0.002 A 
ATOM      3  C4  UNL d   1      -1.196   0.957  -0.790  0.00  0.00     0.004 A 
ATOM      4  C5  UNL d   1      -1.208  -0.355  -0.318  0.00  0.00    -0.004 A 
ATOM      5  C6  UNL d   1      -0.023  -1.095  -0.263  0.00  0.00    -0.075 A 
ATOM      6  C7  UNL d   1      -0.018  -2.509   0.241  0.00  0.00     0.076 C 
ATOM      7  C8  UNL d   1       1.172  -0.504  -0.695  0.00  0.00     0.001 A 
ENDROOT
BRANCH   1   8
ATOM      8  C1  UNL d   1       2.485   1.438  -1.633  0.00  0.00     0.053 C 
ATOM      9  C   UNL d   1       3.672   0.509  -1.430  0.00  0.00     0.018 C 
ENDBRANCH   1   8
TORSDOF 1
ENDMDL
