MODEL 1
REMARK minimizedAffinity 0.524486721
REMARK minimizedRMSD -1
REMARK  1 active torsions:
REMARK  status: ('A' for Active; 'I' for Inactive)
REMARK    1  A    between atoms: C1_2  and  C2_3 
ROOT
ATOM      1  C2  UNL d   1       3.162  -0.360  -0.646  0.00  0.00    -0.073 A 
ATOM      2  C3  UNL d   1       1.978  -0.917  -0.150  0.00  0.00    -0.002 A 
ATOM      3  C4  UNL d   1       0.848  -0.120   0.035  0.00  0.00     0.004 A 
ATOM      4  C5  UNL d   1       0.887   1.238  -0.279  0.00  0.00    -0.004 A 
ATOM      5  C6  UNL d   1       2.058   1.811  -0.787  0.00  0.00    -0.075 A 
ATOM      6  C7  UNL d   1       2.118   3.271  -1.128  0.00  0.00     0.076 C 
ATOM      7  C8  UNL d   1       3.190   1.004  -0.968  0.00  0.00     0.001 A 
ENDROOT
BRANCH   1   8
ATOM      8  C1  UNL d   1       4.383  -1.219  -0.854  0.00  0.00     0.053 C 
ATOM      9  C   UNL d   1       4.020  -2.667  -1.141  0.00  0.00     0.018 C 
ENDBRANCH   1   8
TORSDOF 1
ENDMDL
