MODEL 1
REMARK minimizedAffinity 6.57253075
REMARK minimizedRMSD -1
REMARK  1 active torsions:
REMARK  status: ('A' for Active; 'I' for Inactive)
REMARK    1  A    between atoms: C1_2  and  C2_3 
ROOT
ATOM      1  C2  UNL d   1      -1.349  -2.282  -0.434  0.00  0.00    -0.073 A 
ATOM      2  C3  UNL d   1      -1.317  -2.432  -1.825  0.00  0.00    -0.002 A 
ATOM      3  C4  UNL d   1      -0.504  -1.608  -2.605  0.00  0.00     0.004 A 
ATOM      4  C5  UNL d   1       0.288  -0.630  -2.002  0.00  0.00    -0.004 A 
ATOM      5  C6  UNL d   1       0.278  -0.472  -0.612  0.00  0.00    -0.075 A 
ATOM      6  C7  UNL d   1       1.122   0.576   0.051  0.00  0.00     0.076 C 
ATOM      7  C8  UNL d   1      -0.543  -1.302   0.163  0.00  0.00     0.001 A 
ENDROOT
BRANCH   1   8
ATOM      8  C1  UNL d   1      -2.220  -3.174   0.412  0.00  0.00     0.053 C 
ATOM      9  C   UNL d   1      -3.615  -2.599   0.598  0.00  0.00     0.018 C 
ENDBRANCH   1   8
TORSDOF 1
ENDMDL
