MODEL 1
REMARK minimizedAffinity 0.26185748
REMARK minimizedRMSD -1
REMARK  3 active torsions:
REMARK  status: ('A' for Active; 'I' for Inactive)
REMARK    1  A    between atoms: C3'_2  and  C2'_3 
REMARK    2  A    between atoms: C2'_3  and  C1'_4 
REMARK    3  A    between atoms: C1'_4  and  C1_5 
ROOT
ATOM      1  C1  N4B d   1       5.031  -4.338   3.266  0.00  0.00    -0.075 A 
ATOM      2  C2  N4B d   1       5.454  -3.099   3.794  0.00  0.00     0.002 A 
ATOM      3  C3  N4B d   1       5.579  -2.938   5.152  0.00  0.00     0.002 A 
ATOM      4  C4  N4B d   1       5.269  -3.992   5.999  0.00  0.00    -0.004 A 
ATOM      5  C5  N4B d   1       4.885  -5.194   5.479  0.00  0.00     0.002 A 
ATOM      6  C6  N4B d   1       4.760  -5.371   4.116  0.00  0.00     0.002 A 
ENDROOT
BRANCH   1   7
ATOM      7  C1' N4B d   1       4.798  -4.535   1.793  0.00  0.00     0.057 C 
BRANCH   7   8
ATOM      8  C2' N4B d   1       3.303  -4.435   1.505  0.00  0.00     0.009 C 
BRANCH   8   9
ATOM      9  C3' N4B d   1       2.905  -3.041   1.050  0.00  0.00     0.004 C 
ATOM     10  C4' N4B d   1       1.826  -2.440   1.900  0.00  0.00     0.003 C 
ENDBRANCH   8   9
ENDBRANCH   7   8
ENDBRANCH   1   7
TORSDOF 3
ENDMDL
