MODEL 1
REMARK minimizedAffinity 10.7967672
REMARK minimizedRMSD -1
REMARK  3 active torsions:
REMARK  status: ('A' for Active; 'I' for Inactive)
REMARK    1  A    between atoms: C3'_2  and  C2'_3 
REMARK    2  A    between atoms: C2'_3  and  C1'_4 
REMARK    3  A    between atoms: C1'_4  and  C1_5 
ROOT
ATOM      1  C1  N4B d   1       2.338  -0.897   0.192  0.00  0.00    -0.075 A 
ATOM      2  C2  N4B d   1       1.438   0.191   0.207  0.00  0.00     0.002 A 
ATOM      3  C3  N4B d   1       1.874   1.448  -0.133  0.00  0.00     0.002 A 
ATOM      4  C4  N4B d   1       3.204   1.644  -0.473  0.00  0.00    -0.004 A 
ATOM      5  C5  N4B d   1       4.062   0.583  -0.510  0.00  0.00     0.002 A 
ATOM      6  C6  N4B d   1       3.636  -0.686  -0.174  0.00  0.00     0.002 A 
ENDROOT
BRANCH   1   7
ATOM      7  C1' N4B d   1       1.928  -2.273   0.639  0.00  0.00     0.057 C 
BRANCH   7   8
ATOM      8  C2' N4B d   1       3.068  -3.249   0.365  0.00  0.00     0.009 C 
BRANCH   8   9
ATOM      9  C3' N4B d   1       3.629  -3.842   1.646  0.00  0.00     0.004 C 
ATOM     10  C4' N4B d   1       5.095  -4.142   1.555  0.00  0.00     0.003 C 
ENDBRANCH   8   9
ENDBRANCH   7   8
ENDBRANCH   1   7
TORSDOF 3
ENDMDL
