MODEL 1
REMARK minimizedAffinity 4.29484844
REMARK minimizedRMSD -1
REMARK  3 active torsions:
REMARK  status: ('A' for Active; 'I' for Inactive)
REMARK    1  A    between atoms: C3'_2  and  C2'_3 
REMARK    2  A    between atoms: C2'_3  and  C1'_4 
REMARK    3  A    between atoms: C1'_4  and  C1_5 
ROOT
ATOM      1  C1  N4B d   1       1.576  -2.291   1.266  0.00  0.00    -0.075 A 
ATOM      2  C2  N4B d   1       1.806  -1.079   0.579  0.00  0.00     0.002 A 
ATOM      3  C3  N4B d   1       3.019  -0.850  -0.022  0.00  0.00     0.002 A 
ATOM      4  C4  N4B d   1       4.019  -1.806   0.066  0.00  0.00    -0.004 A 
ATOM      5  C5  N4B d   1       3.781  -2.985   0.709  0.00  0.00     0.002 A 
ATOM      6  C6  N4B d   1       2.565  -3.231   1.315  0.00  0.00     0.002 A 
ENDROOT
BRANCH   1   7
ATOM      7  C1' N4B d   1       0.296  -2.551   2.012  0.00  0.00     0.057 C 
BRANCH   7   8
ATOM      8  C2' N4B d   1       0.065  -1.427   3.017  0.00  0.00     0.009 C 
BRANCH   8   9
ATOM      9  C3' N4B d   1      -1.123  -1.708   3.921  0.00  0.00     0.004 C 
ATOM     10  C4' N4B d   1      -1.691  -3.081   3.724  0.00  0.00     0.003 C 
ENDBRANCH   8   9
ENDBRANCH   7   8
ENDBRANCH   1   7
TORSDOF 3
ENDMDL
