MODEL 1
REMARK minimizedAffinity 2.19470882
REMARK minimizedRMSD -1
REMARK  3 active torsions:
REMARK  status: ('A' for Active; 'I' for Inactive)
REMARK    1  A    between atoms: C3'_2  and  C2'_3 
REMARK    2  A    between atoms: C2'_3  and  C1'_4 
REMARK    3  A    between atoms: C1'_4  and  C1_5 
ROOT
ATOM      1  C1  N4B d   1       3.576  -2.511   0.594  0.00  0.00    -0.075 A 
ATOM      2  C2  N4B d   1       4.788  -1.852   0.293  0.00  0.00     0.002 A 
ATOM      3  C3  N4B d   1       5.987  -2.460   0.571  0.00  0.00     0.002 A 
ATOM      4  C4  N4B d   1       6.000  -3.714   1.165  0.00  0.00    -0.004 A 
ATOM      5  C5  N4B d   1       4.825  -4.354   1.429  0.00  0.00     0.002 A 
ATOM      6  C6  N4B d   1       3.612  -3.757   1.151  0.00  0.00     0.002 A 
ENDROOT
BRANCH   1   7
ATOM      7  C1' N4B d   1       2.240  -1.851   0.388  0.00  0.00     0.057 C 
BRANCH   7   8
ATOM      8  C2' N4B d   1       2.416  -0.638  -0.521  0.00  0.00     0.009 C 
BRANCH   8   9
ATOM      9  C3' N4B d   1       2.909   0.578   0.244  0.00  0.00     0.004 C 
ATOM     10  C4' N4B d   1       3.816   1.449  -0.572  0.00  0.00     0.003 C 
ENDBRANCH   8   9
ENDBRANCH   7   8
ENDBRANCH   1   7
TORSDOF 3
ENDMDL
