MODEL 1
REMARK minimizedAffinity 11.2512913
REMARK minimizedRMSD -1
REMARK  3 active torsions:
REMARK  status: ('A' for Active; 'I' for Inactive)
REMARK    1  A    between atoms: C3'_2  and  C2'_3 
REMARK    2  A    between atoms: C2'_3  and  C1'_4 
REMARK    3  A    between atoms: C1'_4  and  C1_5 
ROOT
ATOM      1  C1  N4B d   1       4.103   2.353   3.002  0.00  0.00    -0.075 A 
ATOM      2  C2  N4B d   1       4.049   2.612   1.615  0.00  0.00     0.002 A 
ATOM      3  C3  N4B d   1       4.167   3.899   1.152  0.00  0.00     0.002 A 
ATOM      4  C4  N4B d   1       4.321   4.941   2.054  0.00  0.00    -0.004 A 
ATOM      5  C5  N4B d   1       4.397   4.680   3.390  0.00  0.00     0.002 A 
ATOM      6  C6  N4B d   1       4.283   3.391   3.870  0.00  0.00     0.002 A 
ENDROOT
BRANCH   1   7
ATOM      7  C1' N4B d   1       3.892   0.973   3.561  0.00  0.00     0.057 C 
BRANCH   7   8
ATOM      8  C2' N4B d   1       2.396   0.719   3.720  0.00  0.00     0.009 C 
BRANCH   8   9
ATOM      9  C3' N4B d   1       1.870  -0.251   2.676  0.00  0.00     0.004 C 
ATOM     10  C4' N4B d   1       0.372  -0.325   2.654  0.00  0.00     0.003 C 
ENDBRANCH   8   9
ENDBRANCH   7   8
ENDBRANCH   1   7
TORSDOF 3
ENDMDL
