MODEL 1
REMARK minimizedAffinity 16.3226776
REMARK minimizedRMSD -1
REMARK  3 active torsions:
REMARK  status: ('A' for Active; 'I' for Inactive)
REMARK    1  A    between atoms: C3'_2  and  C2'_3 
REMARK    2  A    between atoms: C2'_3  and  C1'_4 
REMARK    3  A    between atoms: C1'_4  and  C1_5 
ROOT
ATOM      1  C1  N4B d   1       0.538   3.185   0.841  0.00  0.00    -0.075 A 
ATOM      2  C2  N4B d   1      -0.633   3.043   1.618  0.00  0.00     0.002 A 
ATOM      3  C3  N4B d   1      -1.427   4.135   1.868  0.00  0.00     0.002 A 
ATOM      4  C4  N4B d   1      -1.062   5.377   1.370  0.00  0.00    -0.004 A 
ATOM      5  C5  N4B d   1       0.057   5.501   0.600  0.00  0.00     0.002 A 
ATOM      6  C6  N4B d   1       0.862   4.411   0.337  0.00  0.00     0.002 A 
ENDROOT
BRANCH   1   7
ATOM      7  C1' N4B d   1       1.483   2.037   0.613  0.00  0.00     0.057 C 
BRANCH   7   8
ATOM      8  C2' N4B d   1       1.495   1.144   1.850  0.00  0.00     0.009 C 
BRANCH   8   9
ATOM      9  C3' N4B d   1       0.767  -0.167   1.612  0.00  0.00     0.004 C 
ATOM     10  C4' N4B d   1      -0.154  -0.533   2.738  0.00  0.00     0.003 C 
ENDBRANCH   8   9
ENDBRANCH   7   8
ENDBRANCH   1   7
TORSDOF 3
ENDMDL
