MODEL 1
REMARK minimizedAffinity 11.9097605
REMARK minimizedRMSD -1
REMARK  3 active torsions:
REMARK  status: ('A' for Active; 'I' for Inactive)
REMARK    1  A    between atoms: C3'_2  and  C2'_3 
REMARK    2  A    between atoms: C2'_3  and  C1'_4 
REMARK    3  A    between atoms: C1'_4  and  C1_5 
ROOT
ATOM      1  C1  N4B d   1       3.496   3.427   1.757  0.00  0.00    -0.075 A 
ATOM      2  C2  N4B d   1       3.818   4.193   2.898  0.00  0.00     0.002 A 
ATOM      3  C3  N4B d   1       4.282   3.574   4.033  0.00  0.00     0.002 A 
ATOM      4  C4  N4B d   1       4.415   2.194   4.055  0.00  0.00    -0.004 A 
ATOM      5  C5  N4B d   1       4.127   1.463   2.940  0.00  0.00     0.002 A 
ATOM      6  C6  N4B d   1       3.663   2.072   1.791  0.00  0.00     0.002 A 
ENDROOT
BRANCH   1   7
ATOM      7  C1' N4B d   1       2.904   4.050   0.523  0.00  0.00     0.057 C 
BRANCH   7   8
ATOM      8  C2' N4B d   1       1.444   3.623   0.397  0.00  0.00     0.009 C 
BRANCH   8   9
ATOM      9  C3' N4B d   1       0.490   4.733   0.801  0.00  0.00     0.004 C 
ATOM     10  C4' N4B d   1      -0.716   4.814  -0.086  0.00  0.00     0.003 C 
ENDBRANCH   8   9
ENDBRANCH   7   8
ENDBRANCH   1   7
TORSDOF 3
ENDMDL
