MODEL 1
REMARK minimizedAffinity 9.65410042
REMARK minimizedRMSD -1
REMARK  3 active torsions:
REMARK  status: ('A' for Active; 'I' for Inactive)
REMARK    1  A    between atoms: C3'_2  and  C2'_3 
REMARK    2  A    between atoms: C2'_3  and  C1'_4 
REMARK    3  A    between atoms: C1'_4  and  C1_5 
ROOT
ATOM      1  C1  N4B d   1       3.659   1.737   3.940  0.00  0.00    -0.075 A 
ATOM      2  C2  N4B d   1       3.882   1.557   2.557  0.00  0.00     0.002 A 
ATOM      3  C3  N4B d   1       4.139   2.643   1.756  0.00  0.00     0.002 A 
ATOM      4  C4  N4B d   1       4.160   3.914   2.310  0.00  0.00    -0.004 A 
ATOM      5  C5  N4B d   1       3.970   4.077   3.651  0.00  0.00     0.002 A 
ATOM      6  C6  N4B d   1       3.714   2.994   4.469  0.00  0.00     0.002 A 
ENDROOT
BRANCH   1   7
ATOM      7  C1' N4B d   1       3.289   0.591   4.841  0.00  0.00     0.057 C 
BRANCH   7   8
ATOM      8  C2' N4B d   1       1.792   0.324   4.722  0.00  0.00     0.009 C 
BRANCH   8   9
ATOM      9  C3' N4B d   1       1.498  -0.890   3.857  0.00  0.00     0.004 C 
ATOM     10  C4' N4B d   1       0.697  -0.552   2.635  0.00  0.00     0.003 C 
ENDBRANCH   8   9
ENDBRANCH   7   8
ENDBRANCH   1   7
TORSDOF 3
ENDMDL
