MODEL 1
REMARK minimizedAffinity 16.8412132
REMARK minimizedRMSD -1
REMARK  3 active torsions:
REMARK  status: ('A' for Active; 'I' for Inactive)
REMARK    1  A    between atoms: C3'_2  and  C2'_3 
REMARK    2  A    between atoms: C2'_3  and  C1'_4 
REMARK    3  A    between atoms: C1'_4  and  C1_5 
ROOT
ATOM      1  C1  N4B d   1      -1.027  -2.593  -2.577  0.00  0.00    -0.075 A 
ATOM      2  C2  N4B d   1      -0.306  -2.030  -1.501  0.00  0.00     0.002 A 
ATOM      3  C3  N4B d   1       0.546  -0.975  -1.723  0.00  0.00     0.002 A 
ATOM      4  C4  N4B d   1       0.707  -0.482  -3.009  0.00  0.00    -0.004 A 
ATOM      5  C5  N4B d   1      -0.012  -1.016  -4.039  0.00  0.00     0.002 A 
ATOM      6  C6  N4B d   1      -0.875  -2.073  -3.830  0.00  0.00     0.002 A 
ENDROOT
BRANCH   1   7
ATOM      7  C1' N4B d   1      -1.904  -3.802  -2.398  0.00  0.00     0.057 C 
BRANCH   7   8
ATOM      8  C2' N4B d   1      -1.226  -5.011  -3.035  0.00  0.00     0.009 C 
BRANCH   8   9
ATOM      9  C3' N4B d   1      -2.132  -5.709  -4.035  0.00  0.00     0.004 C 
ATOM     10  C4' N4B d   1      -1.827  -5.334  -5.455  0.00  0.00     0.003 C 
ENDBRANCH   8   9
ENDBRANCH   7   8
ENDBRANCH   1   7
TORSDOF 3
ENDMDL
