MODEL 1
REMARK minimizedAffinity 11.4520845
REMARK minimizedRMSD -1
REMARK  1 active torsions:
REMARK  status: ('A' for Active; 'I' for Inactive)
REMARK    1  A    between atoms: C1_2  and  C2_3 
ROOT
ATOM      1  C2  UNL d   1       1.542   4.796   0.076  0.00  0.00    -0.073 A 
ATOM      2  C3  UNL d   1       0.843   5.998   0.235  0.00  0.00    -0.002 A 
ATOM      3  C4  UNL d   1      -0.445   5.999   0.770  0.00  0.00     0.004 A 
ATOM      4  C5  UNL d   1      -1.046   4.801   1.157  0.00  0.00    -0.004 A 
ATOM      5  C6  UNL d   1      -0.359   3.591   1.017  0.00  0.00    -0.075 A 
ATOM      6  C7  UNL d   1      -0.991   2.293   1.427  0.00  0.00     0.076 C 
ATOM      7  C8  UNL d   1       0.934   3.598   0.477  0.00  0.00     0.001 A 
ENDROOT
BRANCH   1   8
ATOM      8  C1  UNL d   1       2.936   4.791  -0.495  0.00  0.00     0.053 C 
ATOM      9  C   UNL d   1       3.744   5.995  -0.038  0.00  0.00     0.018 C 
ENDBRANCH   1   8
TORSDOF 1
ENDMDL
