MODEL 1
REMARK minimizedAffinity 14.1346874
REMARK minimizedRMSD -1
REMARK  1 active torsions:
REMARK  status: ('A' for Active; 'I' for Inactive)
REMARK    1  A    between atoms: C1_2  and  C2_3 
ROOT
ATOM      1  C2  UNL d   1       3.555  -3.793  -5.260  0.00  0.00    -0.073 A 
ATOM      2  C3  UNL d   1       3.251  -3.686  -3.898  0.00  0.00    -0.002 A 
ATOM      3  C4  UNL d   1       3.478  -2.488  -3.218  0.00  0.00     0.004 A 
ATOM      4  C5  UNL d   1       4.003  -1.386  -3.892  0.00  0.00    -0.004 A 
ATOM      5  C6  UNL d   1       4.302  -1.471  -5.256  0.00  0.00    -0.075 A 
ATOM      6  C7  UNL d   1       4.870  -0.295  -5.996  0.00  0.00     0.076 C 
ATOM      7  C8  UNL d   1       4.074  -2.678  -5.931  0.00  0.00     0.001 A 
ENDROOT
BRANCH   1   8
ATOM      8  C1  UNL d   1       3.305  -5.082  -6.000  0.00  0.00     0.053 C 
ATOM      9  C   UNL d   1       4.528  -5.986  -5.998  0.00  0.00     0.018 C 
ENDBRANCH   1   8
TORSDOF 1
ENDMDL
