MODEL 1
REMARK minimizedAffinity 12.760088
REMARK minimizedRMSD -1
REMARK  1 active torsions:
REMARK  status: ('A' for Active; 'I' for Inactive)
REMARK    1  A    between atoms: C1_2  and  C2_3 
ROOT
ATOM      1  C2  UNL d   1      -2.233   1.823  -0.681  0.00  0.00    -0.073 A 
ATOM      2  C3  UNL d   1      -2.921   2.987  -1.042  0.00  0.00    -0.002 A 
ATOM      3  C4  UNL d   1      -3.366   3.164  -2.353  0.00  0.00     0.004 A 
ATOM      4  C5  UNL d   1      -3.134   2.179  -3.312  0.00  0.00    -0.004 A 
ATOM      5  C6  UNL d   1      -2.458   1.004  -2.968  0.00  0.00    -0.075 A 
ATOM      6  C7  UNL d   1      -2.198  -0.064  -3.989  0.00  0.00     0.076 C 
ATOM      7  C8  UNL d   1      -2.012   0.834  -1.650  0.00  0.00     0.001 A 
ENDROOT
BRANCH   1   8
ATOM      8  C1  UNL d   1      -1.756   1.624   0.735  0.00  0.00     0.053 C 
ATOM      9  C   UNL d   1      -0.848   2.753   1.195  0.00  0.00     0.018 C 
ENDBRANCH   1   8
TORSDOF 1
ENDMDL
