MODEL 1
REMARK minimizedAffinity 21.3073559
REMARK minimizedRMSD -1
REMARK  1 active torsions:
REMARK  status: ('A' for Active; 'I' for Inactive)
REMARK    1  A    between atoms: C1_2  and  C2_3 
ROOT
ATOM      1  C2  UNL d   1      -1.948   0.794  -1.160  0.00  0.00    -0.073 A 
ATOM      2  C3  UNL d   1      -1.827  -0.412  -1.860  0.00  0.00    -0.002 A 
ATOM      3  C4  UNL d   1      -2.254  -0.504  -3.185  0.00  0.00     0.004 A 
ATOM      4  C5  UNL d   1      -2.798   0.609  -3.826  0.00  0.00    -0.004 A 
ATOM      5  C6  UNL d   1      -2.916   1.826  -3.147  0.00  0.00    -0.075 A 
ATOM      6  C7  UNL d   1      -3.502   3.032  -3.822  0.00  0.00     0.076 C 
ATOM      7  C8  UNL d   1      -2.488   1.910  -1.816  0.00  0.00     0.001 A 
ENDROOT
BRANCH   1   8
ATOM      8  C1  UNL d   1      -1.483   0.900   0.269  0.00  0.00     0.053 C 
ATOM      9  C   UNL d   1      -0.700   2.179   0.521  0.00  0.00     0.018 C 
ENDBRANCH   1   8
TORSDOF 1
ENDMDL
