MODEL 1
REMARK minimizedAffinity 8.46154881
REMARK minimizedRMSD -1
REMARK  1 active torsions:
REMARK  status: ('A' for Active; 'I' for Inactive)
REMARK    1  A    between atoms: C1_2  and  C2_3 
ROOT
ATOM      1  C2  UNL d   1       0.985  -2.396   3.496  0.00  0.00    -0.073 A 
ATOM      2  C3  UNL d   1       1.182  -3.081   4.700  0.00  0.00    -0.002 A 
ATOM      3  C4  UNL d   1       1.679  -2.412   5.819  0.00  0.00     0.004 A 
ATOM      4  C5  UNL d   1       1.977  -1.052   5.749  0.00  0.00    -0.004 A 
ATOM      5  C6  UNL d   1       1.776  -0.346   4.558  0.00  0.00    -0.075 A 
ATOM      6  C7  UNL d   1       2.094   1.117   4.465  0.00  0.00     0.076 C 
ATOM      7  C8  UNL d   1       1.279  -1.026   3.437  0.00  0.00     0.001 A 
ENDROOT
BRANCH   1   8
ATOM      8  C1  UNL d   1       0.443  -3.113   2.287  0.00  0.00     0.053 C 
ATOM      9  C   UNL d   1      -0.938  -2.609   1.897  0.00  0.00     0.018 C 
ENDBRANCH   1   8
TORSDOF 1
ENDMDL
