MODEL 1
REMARK minimizedAffinity 4.69027042
REMARK minimizedRMSD -1
REMARK  1 active torsions:
REMARK  status: ('A' for Active; 'I' for Inactive)
REMARK    1  A    between atoms: C1_2  and  C2_3 
ROOT
ATOM      1  C2  UNL d   1      -2.308  -0.681  -0.756  0.00  0.00    -0.073 A 
ATOM      2  C3  UNL d   1      -2.205  -1.701  -1.708  0.00  0.00    -0.002 A 
ATOM      3  C4  UNL d   1      -2.453  -1.435  -3.055  0.00  0.00     0.004 A 
ATOM      4  C5  UNL d   1      -2.799  -0.148  -3.465  0.00  0.00    -0.004 A 
ATOM      5  C6  UNL d   1      -2.896   0.888  -2.530  0.00  0.00    -0.075 A 
ATOM      6  C7  UNL d   1      -3.270   2.278  -2.954  0.00  0.00     0.076 C 
ATOM      7  C8  UNL d   1      -2.648   0.613  -1.178  0.00  0.00     0.001 A 
ENDROOT
BRANCH   1   8
ATOM      8  C1  UNL d   1      -2.035  -0.961   0.699  0.00  0.00     0.053 C 
ATOM      9  C   UNL d   1      -1.174  -2.200   0.889  0.00  0.00     0.018 C 
ENDBRANCH   1   8
TORSDOF 1
ENDMDL
