MODEL 1
REMARK minimizedAffinity 2.563205
REMARK minimizedRMSD -1
REMARK  0 active torsions:
REMARK  status: ('A' for Active; 'I' for Inactive)
ROOT
ATOM      1  C   UNL d   1       1.887   0.750   1.585  0.00  0.00     0.020 A 
ATOM      2  C1  UNL d   1       1.533  -0.485   1.044  0.00  0.00     0.020 A 
ATOM      3  C2  UNL d   1       0.496  -0.568   0.112  0.00  0.00     0.034 A 
ATOM      4  C3  UNL d   1      -0.190   0.587  -0.282  0.00  0.00     0.017 A 
ATOM      5  C4  UNL d   1       0.166   1.826   0.262  0.00  0.00     0.017 A 
ATOM      6  C5  UNL d   1       1.205   1.903   1.195  0.00  0.00     0.034 A 
ATOM      7 Cl   UNL d   1      -0.634   3.295  -0.175  0.00  0.00    -0.070 Cl
ATOM      8 Cl1  UNL d   1      -1.461   0.411  -1.439  0.00  0.00    -0.070 Cl
ENDROOT
TORSDOF 0
ENDMDL
