MODEL 1
REMARK minimizedAffinity 7.79197121
REMARK minimizedRMSD -1
REMARK  0 active torsions:
REMARK  status: ('A' for Active; 'I' for Inactive)
ROOT
ATOM      1  C   UNL d   1      -4.873   0.425   0.033  0.00  0.00     0.020 A 
ATOM      2  C1  UNL d   1      -5.496   0.882   1.193  0.00  0.00     0.020 A 
ATOM      3  C2  UNL d   1      -4.794   1.687   2.092  0.00  0.00     0.034 A 
ATOM      4  C3  UNL d   1      -3.464   2.038   1.832  0.00  0.00     0.017 A 
ATOM      5  C4  UNL d   1      -2.839   1.579   0.667  0.00  0.00     0.017 A 
ATOM      6  C5  UNL d   1      -3.547   0.773  -0.230  0.00  0.00     0.034 A 
ATOM      7 Cl   UNL d   1      -1.201   1.970   0.278  0.00  0.00    -0.070 Cl
ATOM      8 Cl1  UNL d   1      -2.657   3.038   2.987  0.00  0.00    -0.070 Cl
ENDROOT
TORSDOF 0
ENDMDL
