MODEL 1
REMARK minimizedAffinity 4.04484797
REMARK minimizedRMSD -1
REMARK  0 active torsions:
REMARK  status: ('A' for Active; 'I' for Inactive)
ROOT
ATOM      1  C   UNL d   1      -5.642   4.798  -4.017  0.00  0.00     0.020 A 
ATOM      2  C1  UNL d   1      -5.991   4.140  -2.838  0.00  0.00     0.020 A 
ATOM      3  C2  UNL d   1      -5.317   2.976  -2.463  0.00  0.00     0.034 A 
ATOM      4  C3  UNL d   1      -4.291   2.466  -3.267  0.00  0.00     0.017 A 
ATOM      5  C4  UNL d   1      -3.942   3.127  -4.450  0.00  0.00     0.017 A 
ATOM      6  C5  UNL d   1      -4.620   4.292  -4.821  0.00  0.00     0.034 A 
ATOM      7 Cl   UNL d   1      -2.687   2.559  -5.493  0.00  0.00    -0.070 Cl
ATOM      8 Cl1  UNL d   1      -3.501   1.022  -2.741  0.00  0.00    -0.070 Cl
ENDROOT
TORSDOF 0
ENDMDL
