MODEL 1
REMARK minimizedAffinity 3.66652274
REMARK minimizedRMSD -1
REMARK  0 active torsions:
REMARK  status: ('A' for Active; 'I' for Inactive)
ROOT
ATOM      1  C   UNL d   1      -3.335   2.645   2.154  0.00  0.00     0.020 A 
ATOM      2  C1  UNL d   1      -4.313   1.762   1.697  0.00  0.00     0.020 A 
ATOM      3  C2  UNL d   1      -4.092   1.015   0.538  0.00  0.00     0.034 A 
ATOM      4  C3  UNL d   1      -2.891   1.149  -0.168  0.00  0.00     0.017 A 
ATOM      5  C4  UNL d   1      -1.910   2.035   0.292  0.00  0.00     0.017 A 
ATOM      6  C5  UNL d   1      -2.136   2.781   1.453  0.00  0.00     0.034 A 
ATOM      7 Cl   UNL d   1      -0.403   2.254  -0.525  0.00  0.00    -0.070 Cl
ATOM      8 Cl1  UNL d   1      -2.685   0.193  -1.592  0.00  0.00    -0.070 Cl
ENDROOT
TORSDOF 0
ENDMDL
