MODEL 1
REMARK minimizedAffinity 0.545204997
REMARK minimizedRMSD -1
REMARK  0 active torsions:
REMARK  status: ('A' for Active; 'I' for Inactive)
ROOT
ATOM      1  C   UNL d   1      -5.055   0.301   0.093  0.00  0.00     0.020 A 
ATOM      2  C1  UNL d   1      -4.219  -0.055  -0.964  0.00  0.00     0.020 A 
ATOM      3  C2  UNL d   1      -2.906   0.420  -1.007  0.00  0.00     0.034 A 
ATOM      4  C3  UNL d   1      -2.426   1.253   0.010  0.00  0.00     0.017 A 
ATOM      5  C4  UNL d   1      -3.266   1.609   1.071  0.00  0.00     0.017 A 
ATOM      6  C5  UNL d   1      -4.579   1.131   1.109  0.00  0.00     0.034 A 
ATOM      7 Cl   UNL d   1      -2.744   2.633   2.363  0.00  0.00    -0.070 Cl
ATOM      8 Cl1  UNL d   1      -0.792   1.802  -0.106  0.00  0.00    -0.070 Cl
ENDROOT
TORSDOF 0
ENDMDL
