MODEL 1
REMARK minimizedAffinity 8.27432156
REMARK minimizedRMSD -1
REMARK  0 active torsions:
REMARK  status: ('A' for Active; 'I' for Inactive)
ROOT
ATOM      1  C   UNL d   1       2.760  -1.667  -0.192  0.00  0.00     0.020 A 
ATOM      2  C1  UNL d   1       3.627  -1.427   0.873  0.00  0.00     0.020 A 
ATOM      3  C2  UNL d   1       3.639  -0.177   1.496  0.00  0.00     0.034 A 
ATOM      4  C3  UNL d   1       2.781   0.837   1.055  0.00  0.00     0.017 A 
ATOM      5  C4  UNL d   1       1.910   0.595  -0.013  0.00  0.00     0.017 A 
ATOM      6  C5  UNL d   1       1.903  -0.658  -0.634  0.00  0.00     0.034 A 
ATOM      7 Cl   UNL d   1       0.823   1.797  -0.613  0.00  0.00    -0.070 Cl
ATOM      8 Cl1  UNL d   1       2.849   2.358   1.873  0.00  0.00    -0.070 Cl
ENDROOT
TORSDOF 0
ENDMDL
