MODEL 1
REMARK minimizedAffinity 4.46459246
REMARK minimizedRMSD -1
REMARK  0 active torsions:
REMARK  status: ('A' for Active; 'I' for Inactive)
ROOT
ATOM      1  C   UNL d   1      -1.200   3.142   2.461  0.00  0.00     0.020 A 
ATOM      2  C1  UNL d   1      -0.571   3.754   1.377  0.00  0.00     0.020 A 
ATOM      3  C2  UNL d   1       0.454   3.091   0.699  0.00  0.00     0.034 A 
ATOM      4  C3  UNL d   1       0.854   1.812   1.104  0.00  0.00     0.017 A 
ATOM      5  C4  UNL d   1       0.222   1.198   2.192  0.00  0.00     0.017 A 
ATOM      6  C5  UNL d   1      -0.804   1.867   2.867  0.00  0.00     0.034 A 
ATOM      7 Cl   UNL d   1       0.660  -0.378   2.749  0.00  0.00    -0.070 Cl
ATOM      8 Cl1  UNL d   1       2.128   1.050   0.219  0.00  0.00    -0.070 Cl
ENDROOT
TORSDOF 0
ENDMDL
