MODEL 1
REMARK minimizedAffinity 1.75364339
REMARK minimizedRMSD -1
REMARK  0 active torsions:
REMARK  status: ('A' for Active; 'I' for Inactive)
ROOT
ATOM      1  C   UNL d   1      -4.374   1.038   1.691  0.00  0.00     0.020 A 
ATOM      2  C1  UNL d   1      -5.104   0.541   0.612  0.00  0.00     0.020 A 
ATOM      3  C2  UNL d   1      -4.470   0.301  -0.609  0.00  0.00     0.034 A 
ATOM      4  C3  UNL d   1      -3.102   0.559  -0.754  0.00  0.00     0.017 A 
ATOM      5  C4  UNL d   1      -2.370   1.058   0.330  0.00  0.00     0.017 A 
ATOM      6  C5  UNL d   1      -3.010   1.296   1.550  0.00  0.00     0.034 A 
ATOM      7 Cl   UNL d   1      -0.679   1.401   0.227  0.00  0.00    -0.070 Cl
ATOM      8 Cl1  UNL d   1      -2.383   0.239  -2.292  0.00  0.00    -0.070 Cl
ENDROOT
TORSDOF 0
ENDMDL
