MODEL 1
REMARK minimizedAffinity 1.01781404
REMARK minimizedRMSD -1
REMARK  0 active torsions:
REMARK  status: ('A' for Active; 'I' for Inactive)
ROOT
ATOM      1  C   UNL d   1      -5.385   2.360  -4.733  0.00  0.00     0.020 A 
ATOM      2  C1  UNL d   1      -4.087   2.693  -5.119  0.00  0.00     0.020 A 
ATOM      3  C2  UNL d   1      -2.995   2.118  -4.466  0.00  0.00     0.034 A 
ATOM      4  C3  UNL d   1      -3.199   1.206  -3.423  0.00  0.00     0.017 A 
ATOM      5  C4  UNL d   1      -4.502   0.872  -3.037  0.00  0.00     0.017 A 
ATOM      6  C5  UNL d   1      -5.592   1.451  -3.695  0.00  0.00     0.034 A 
ATOM      7 Cl   UNL d   1      -4.833  -0.244  -1.760  0.00  0.00    -0.070 Cl
ATOM      8 Cl1  UNL d   1      -1.803   0.533  -2.660  0.00  0.00    -0.070 Cl
ENDROOT
TORSDOF 0
ENDMDL
