MODEL 1
REMARK minimizedAffinity 4.20969534
REMARK minimizedRMSD -1
REMARK  0 active torsions:
REMARK  status: ('A' for Active; 'I' for Inactive)
ROOT
ATOM      1  C   UNL d   1       3.477   0.122   1.122  0.00  0.00     0.020 A 
ATOM      2  C1  UNL d   1       3.576  -1.144   0.547  0.00  0.00     0.020 A 
ATOM      3  C2  UNL d   1       2.681  -1.528  -0.454  0.00  0.00     0.034 A 
ATOM      4  C3  UNL d   1       1.683  -0.645  -0.883  0.00  0.00     0.017 A 
ATOM      5  C4  UNL d   1       1.585   0.626  -0.305  0.00  0.00     0.017 A 
ATOM      6  C5  UNL d   1       2.484   1.005   0.697  0.00  0.00     0.034 A 
ATOM      7 Cl   UNL d   1       0.381   1.771  -0.782  0.00  0.00    -0.070 Cl
ATOM      8 Cl1  UNL d   1       0.611  -1.186  -2.125  0.00  0.00    -0.070 Cl
ENDROOT
TORSDOF 0
ENDMDL
