MODEL 1
REMARK minimizedAffinity 0.877414405
REMARK minimizedRMSD -1
REMARK  0 active torsions:
REMARK  status: ('A' for Active; 'I' for Inactive)
ROOT
ATOM      1  C   UNL d   1      -5.629   2.165  -3.768  0.00  0.00     0.020 A 
ATOM      2  C1  UNL d   1      -5.067   1.242  -4.650  0.00  0.00     0.020 A 
ATOM      3  C2  UNL d   1      -4.607   0.012  -4.174  0.00  0.00     0.034 A 
ATOM      4  C3  UNL d   1      -4.708  -0.299  -2.813  0.00  0.00     0.017 A 
ATOM      5  C4  UNL d   1      -5.272   0.628  -1.929  0.00  0.00     0.017 A 
ATOM      6  C5  UNL d   1      -5.731   1.858  -2.410  0.00  0.00     0.034 A 
ATOM      7 Cl   UNL d   1      -5.430   0.316  -0.236  0.00  0.00    -0.070 Cl
ATOM      8 Cl1  UNL d   1      -4.120  -1.838  -2.295  0.00  0.00    -0.070 Cl
ENDROOT
TORSDOF 0
ENDMDL
