MODEL 1
REMARK minimizedAffinity 5.47635698
REMARK minimizedRMSD -1
REMARK  0 active torsions:
REMARK  status: ('A' for Active; 'I' for Inactive)
ROOT
ATOM      1  C   UNL d   1       3.340  -0.318  -0.051  0.00  0.00     0.020 A 
ATOM      2  C1  UNL d   1       2.638  -0.650  -1.209  0.00  0.00     0.020 A 
ATOM      3  C2  UNL d   1       1.746  -1.724  -1.201  0.00  0.00     0.034 A 
ATOM      4  C3  UNL d   1       1.552  -2.470  -0.033  0.00  0.00     0.017 A 
ATOM      5  C4  UNL d   1       2.257  -2.137   1.129  0.00  0.00     0.017 A 
ATOM      6  C5  UNL d   1       3.150  -1.060   1.116  0.00  0.00     0.034 A 
ATOM      7 Cl   UNL d   1       2.071  -3.011   2.608  0.00  0.00    -0.070 Cl
ATOM      8 Cl1  UNL d   1       0.433  -3.785  -0.096  0.00  0.00    -0.070 Cl
ENDROOT
TORSDOF 0
ENDMDL
