MODEL 1
REMARK minimizedAffinity -1.00608075
REMARK minimizedRMSD -1
REMARK  0 active torsions:
REMARK  status: ('A' for Active; 'I' for Inactive)
ROOT
ATOM      1  C2' OXE d   1       0.506  -0.983   2.380  0.00  0.00     0.078 C 
ATOM      2  C1' OXE d   1      -1.892   0.370   1.834  0.00  0.00     0.078 C 
ATOM      3  C1  OXE d   1      -0.999   0.024   0.669  0.00  0.00    -0.078 A 
ATOM      4  C2  OXE d   1       0.194  -0.597   0.950  0.00  0.00    -0.078 A 
ATOM      5  C3  OXE d   1       1.030  -0.987  -0.092  0.00  0.00     0.003 A 
ATOM      6  C4  OXE d   1       0.740  -0.616  -1.411  0.00  0.00    -0.002 A 
ATOM      7  C5  OXE d   1      -0.451   0.051  -1.715  0.00  0.00    -0.002 A 
ATOM      8  C6  OXE d   1      -1.350   0.341  -0.694  0.00  0.00     0.003 A 
ENDROOT
TORSDOF 0
ENDMDL
