MODEL 1
REMARK minimizedAffinity -1.85363078
REMARK minimizedRMSD -1
REMARK  0 active torsions:
REMARK  status: ('A' for Active; 'I' for Inactive)
ROOT
ATOM      1  C2' OXE d   1      -1.979   0.344   1.470  0.00  0.00     0.078 C 
ATOM      2  C1' OXE d   1      -0.107   0.411  -0.621  0.00  0.00     0.078 C 
ATOM      3  C1  OXE d   1       0.351  -0.115   0.717  0.00  0.00    -0.078 A 
ATOM      4  C2  OXE d   1      -0.559  -0.100   1.747  0.00  0.00    -0.078 A 
ATOM      5  C3  OXE d   1      -0.204  -0.625   2.987  0.00  0.00     0.003 A 
ATOM      6  C4  OXE d   1       1.114  -1.025   3.237  0.00  0.00    -0.002 A 
ATOM      7  C5  OXE d   1       2.066  -1.011   2.212  0.00  0.00    -0.002 A 
ATOM      8  C6  OXE d   1       1.691  -0.600   0.938  0.00  0.00     0.003 A 
ENDROOT
TORSDOF 0
ENDMDL
