MODEL 1
REMARK minimizedAffinity -4.71481371
REMARK minimizedRMSD -1
REMARK  0 active torsions:
REMARK  status: ('A' for Active; 'I' for Inactive)
ROOT
ATOM      1  C2' OXE d   1      -1.889   0.398   1.407  0.00  0.00     0.078 C 
ATOM      2  C1' OXE d   1      -0.268   0.579  -0.877  0.00  0.00     0.078 C 
ATOM      3  C1  OXE d   1       0.348   0.017   0.380  0.00  0.00    -0.078 A 
ATOM      4  C2  OXE d   1      -0.439  -0.025   1.505  0.00  0.00    -0.078 A 
ATOM      5  C3  OXE d   1       0.063  -0.584   2.677  0.00  0.00     0.003 A 
ATOM      6  C4  OXE d   1       1.408  -0.963   2.762  0.00  0.00    -0.002 A 
ATOM      7  C5  OXE d   1       2.238  -0.892   1.638  0.00  0.00    -0.002 A 
ATOM      8  C6  OXE d   1       1.713  -0.445   0.431  0.00  0.00     0.003 A 
ENDROOT
TORSDOF 0
ENDMDL
