MODEL 1
REMARK minimizedAffinity -3.93192506
REMARK minimizedRMSD -1
REMARK  0 active torsions:
REMARK  status: ('A' for Active; 'I' for Inactive)
ROOT
ATOM      1  C2' OXE d   1      -1.929   0.624   1.523  0.00  0.00     0.078 C 
ATOM      2  C1' OXE d   1      -0.215   1.014  -0.666  0.00  0.00     0.078 C 
ATOM      3  C1  OXE d   1       0.364   0.389   0.579  0.00  0.00    -0.078 A 
ATOM      4  C2  OXE d   1      -0.470   0.246   1.661  0.00  0.00    -0.078 A 
ATOM      5  C3  OXE d   1      -0.001  -0.374   2.816  0.00  0.00     0.003 A 
ATOM      6  C4  OXE d   1       1.352  -0.713   2.939  0.00  0.00    -0.002 A 
ATOM      7  C5  OXE d   1       2.228  -0.538   1.862  0.00  0.00    -0.002 A 
ATOM      8  C6  OXE d   1       1.742  -0.029   0.663  0.00  0.00     0.003 A 
ENDROOT
TORSDOF 0
ENDMDL
