MODEL 1
REMARK minimizedAffinity -4.8715744
REMARK minimizedRMSD -1
REMARK  0 active torsions:
REMARK  status: ('A' for Active; 'I' for Inactive)
ROOT
ATOM      1  C2' OXE d   1      -2.109   0.131   1.385  0.00  0.00     0.078 C 
ATOM      2  C1' OXE d   1      -0.535   0.166  -0.939  0.00  0.00     0.078 C 
ATOM      3  C1  OXE d   1       0.141  -0.184   0.363  0.00  0.00    -0.078 A 
ATOM      4  C2  OXE d   1      -0.627  -0.153   1.502  0.00  0.00    -0.078 A 
ATOM      5  C3  OXE d   1      -0.066  -0.521   2.722  0.00  0.00     0.003 A 
ATOM      6  C4  OXE d   1       1.308  -0.772   2.823  0.00  0.00    -0.002 A 
ATOM      7  C5  OXE d   1       2.116  -0.770   1.682  0.00  0.00    -0.002 A 
ATOM      8  C6  OXE d   1       1.541  -0.520   0.440  0.00  0.00     0.003 A 
ENDROOT
TORSDOF 0
ENDMDL
