MODEL 1
REMARK minimizedAffinity -4.36933374
REMARK minimizedRMSD -1
REMARK  0 active torsions:
REMARK  status: ('A' for Active; 'I' for Inactive)
ROOT
ATOM      1  C2' OXE d   1      -1.608   0.393   2.032  0.00  0.00     0.078 C 
ATOM      2  C1' OXE d   1       0.886  -0.418   3.032  0.00  0.00     0.078 C 
ATOM      3  C1  OXE d   1       0.720  -0.339   1.535  0.00  0.00    -0.078 A 
ATOM      4  C2  OXE d   1      -0.518   0.013   1.054  0.00  0.00    -0.078 A 
ATOM      5  C3  OXE d   1      -0.710   0.154  -0.318  0.00  0.00     0.003 A 
ATOM      6  C4  OXE d   1       0.301  -0.209  -1.216  0.00  0.00    -0.002 A 
ATOM      7  C5  OXE d   1       1.557  -0.609  -0.747  0.00  0.00    -0.002 A 
ATOM      8  C6  OXE d   1       1.796  -0.639   0.622  0.00  0.00     0.003 A 
ENDROOT
TORSDOF 0
ENDMDL
