MODEL 1
REMARK minimizedAffinity -3.41496944
REMARK minimizedRMSD -1
REMARK  0 active torsions:
REMARK  status: ('A' for Active; 'I' for Inactive)
ROOT
ATOM      1  C2' OXE d   1      -0.397   0.108  -1.242  0.00  0.00     0.078 C 
ATOM      2  C1' OXE d   1      -2.031   0.184   1.039  0.00  0.00     0.078 C 
ATOM      3  C1  OXE d   1      -0.560  -0.083   1.236  0.00  0.00    -0.078 A 
ATOM      4  C2  OXE d   1       0.224  -0.165   0.110  0.00  0.00    -0.078 A 
ATOM      5  C3  OXE d   1       1.597  -0.356   0.239  0.00  0.00     0.003 A 
ATOM      6  C4  OXE d   1       2.162  -0.618   1.493  0.00  0.00    -0.002 A 
ATOM      7  C5  OXE d   1       1.374  -0.578   2.649  0.00  0.00    -0.002 A 
ATOM      8  C6  OXE d   1       0.022  -0.271   2.542  0.00  0.00     0.003 A 
ENDROOT
TORSDOF 0
ENDMDL
