MODEL 1
REMARK minimizedAffinity -2.92991328
REMARK minimizedRMSD -1
REMARK  0 active torsions:
REMARK  status: ('A' for Active; 'I' for Inactive)
ROOT
ATOM      1  C2' OXE d   1      -2.006  -0.035   1.627  0.00  0.00     0.078 C 
ATOM      2  C1' OXE d   1       0.556  -0.772   2.506  0.00  0.00     0.078 C 
ATOM      3  C1  OXE d   1       0.397  -0.368   1.062  0.00  0.00    -0.078 A 
ATOM      4  C2  OXE d   1      -0.869  -0.054   0.629  0.00  0.00    -0.078 A 
ATOM      5  C3  OXE d   1      -1.062   0.378  -0.680  0.00  0.00     0.003 A 
ATOM      6  C4  OXE d   1      -0.006   0.349  -1.600  0.00  0.00    -0.002 A 
ATOM      7  C5  OXE d   1       1.283  -0.006  -1.189  0.00  0.00    -0.002 A 
ATOM      8  C6  OXE d   1       1.510  -0.325   0.145  0.00  0.00     0.003 A 
ENDROOT
TORSDOF 0
ENDMDL
