MODEL 1
REMARK minimizedAffinity -3.46442151
REMARK minimizedRMSD -1
REMARK  0 active torsions:
REMARK  status: ('A' for Active; 'I' for Inactive)
ROOT
ATOM      1  C2' OXE d   1       2.495  -1.042   0.183  0.00  0.00     0.078 C 
ATOM      2  C1' OXE d   1       1.288  -1.007   2.717  0.00  0.00     0.078 C 
ATOM      3  C1  OXE d   1       0.477  -0.513   1.545  0.00  0.00    -0.078 A 
ATOM      4  C2  OXE d   1       1.092  -0.490   0.316  0.00  0.00    -0.078 A 
ATOM      5  C3  OXE d   1       0.372  -0.095  -0.808  0.00  0.00     0.003 A 
ATOM      6  C4  OXE d   1      -0.922   0.424  -0.675  0.00  0.00    -0.002 A 
ATOM      7  C5  OXE d   1      -1.552   0.446   0.574  0.00  0.00    -0.002 A 
ATOM      8  C6  OXE d   1      -0.884  -0.057   1.684  0.00  0.00     0.003 A 
ENDROOT
TORSDOF 0
ENDMDL
