MODEL 1
REMARK minimizedAffinity -3.52858782
REMARK minimizedRMSD -1
REMARK  0 active torsions:
REMARK  status: ('A' for Active; 'I' for Inactive)
ROOT
ATOM      1  C2' OXE d   1       1.257  -0.965   2.458  0.00  0.00     0.078 C 
ATOM      2  C1' OXE d   1       2.867  -1.209   0.171  0.00  0.00     0.078 C 
ATOM      3  C1  OXE d   1       1.458  -0.703  -0.011  0.00  0.00    -0.078 A 
ATOM      4  C2  OXE d   1       0.662  -0.631   1.107  0.00  0.00    -0.078 A 
ATOM      5  C3  OXE d   1      -0.628  -0.119   1.003  0.00  0.00     0.003 A 
ATOM      6  C4  OXE d   1      -1.174   0.178  -0.251  0.00  0.00    -0.002 A 
ATOM      7  C5  OXE d   1      -0.394   0.075  -1.408  0.00  0.00    -0.002 A 
ATOM      8  C6  OXE d   1       0.934  -0.323  -1.300  0.00  0.00     0.003 A 
ENDROOT
TORSDOF 0
ENDMDL
