MODEL 1
REMARK minimizedAffinity -3.23681045
REMARK minimizedRMSD -1
REMARK  0 active torsions:
REMARK  status: ('A' for Active; 'I' for Inactive)
ROOT
ATOM      1  C2' OXE d   1      -2.314  -0.363   0.867  0.00  0.00     0.078 C 
ATOM      2  C1' OXE d   1      -0.456   0.860  -0.845  0.00  0.00     0.078 C 
ATOM      3  C1  OXE d   1       0.046   0.332   0.476  0.00  0.00    -0.078 A 
ATOM      4  C2  OXE d   1      -0.879  -0.223   1.327  0.00  0.00    -0.078 A 
ATOM      5  C3  OXE d   1      -0.460  -0.774   2.535  0.00  0.00     0.003 A 
ATOM      6  C4  OXE d   1       0.867  -0.631   2.957  0.00  0.00    -0.002 A 
ATOM      7  C5  OXE d   1       1.817  -0.033   2.122  0.00  0.00    -0.002 A 
ATOM      8  C6  OXE d   1       1.432   0.414   0.863  0.00  0.00     0.003 A 
ENDROOT
TORSDOF 0
ENDMDL
