MODEL 1
REMARK minimizedAffinity 10.5367527
REMARK minimizedRMSD -1
REMARK  0 active torsions:
REMARK  status: ('A' for Active; 'I' for Inactive)
ROOT
ATOM      1  C2' OXE d   1      -5.443  -5.991   2.063  0.00  0.00     0.078 C 
ATOM      2  C1' OXE d   1      -3.484  -6.000   0.052  0.00  0.00     0.078 C 
ATOM      3  C1  OXE d   1      -4.282  -4.736   0.251  0.00  0.00    -0.078 A 
ATOM      4  C2  OXE d   1      -5.270  -4.756   1.206  0.00  0.00    -0.078 A 
ATOM      5  C3  OXE d   1      -6.000  -3.599   1.467  0.00  0.00     0.003 A 
ATOM      6  C4  OXE d   1      -5.841  -2.464   0.663  0.00  0.00    -0.002 A 
ATOM      7  C5  OXE d   1      -4.867  -2.436  -0.341  0.00  0.00    -0.002 A 
ATOM      8  C6  OXE d   1      -4.052  -3.546  -0.531  0.00  0.00     0.003 A 
ENDROOT
TORSDOF 0
ENDMDL
