MODEL 1
REMARK minimizedAffinity 7.53904247
REMARK minimizedRMSD -1
REMARK  0 active torsions:
REMARK  status: ('A' for Active; 'I' for Inactive)
ROOT
ATOM      1  C2' OXE d   1      -2.469   2.807   2.181  0.00  0.00     0.078 C 
ATOM      2  C1' OXE d   1       0.226   3.330   2.767  0.00  0.00     0.078 C 
ATOM      3  C1  OXE d   1      -0.248   1.900   2.851  0.00  0.00    -0.078 A 
ATOM      4  C2  OXE d   1      -1.579   1.660   2.608  0.00  0.00    -0.078 A 
ATOM      5  C3  OXE d   1      -2.057   0.353   2.619  0.00  0.00     0.003 A 
ATOM      6  C4  OXE d   1      -1.229  -0.701   3.025  0.00  0.00    -0.002 A 
ATOM      7  C5  OXE d   1       0.120  -0.473   3.315  0.00  0.00    -0.002 A 
ATOM      8  C6  OXE d   1       0.636   0.813   3.192  0.00  0.00     0.003 A 
ENDROOT
TORSDOF 0
ENDMDL
