MODEL 1
REMARK minimizedAffinity 9.65071583
REMARK minimizedRMSD -1
REMARK  0 active torsions:
REMARK  status: ('A' for Active; 'I' for Inactive)
ROOT
ATOM      1  C2' OXE d   1      -3.371  -5.680   1.505  0.00  0.00     0.078 C 
ATOM      2  C1' OXE d   1      -5.952  -5.900   0.425  0.00  0.00     0.078 C 
ATOM      3  C1  OXE d   1      -5.323  -4.530   0.471  0.00  0.00    -0.078 A 
ATOM      4  C2  OXE d   1      -4.078  -4.425   1.043  0.00  0.00    -0.078 A 
ATOM      5  C3  OXE d   1      -3.430  -3.193   1.062  0.00  0.00     0.003 A 
ATOM      6  C4  OXE d   1      -4.095  -2.035   0.642  0.00  0.00    -0.002 A 
ATOM      7  C5  OXE d   1      -5.379  -2.114   0.091  0.00  0.00    -0.002 A 
ATOM      8  C6  OXE d   1      -5.988  -3.357  -0.040  0.00  0.00     0.003 A 
ENDROOT
TORSDOF 0
ENDMDL
