MODEL 1
REMARK minimizedAffinity -0.883075833
REMARK minimizedRMSD -1
REMARK  0 active torsions:
REMARK  status: ('A' for Active; 'I' for Inactive)
ROOT
ATOM      1  C2' OXE d   1      -5.999  -1.865   1.091  0.00  0.00     0.078 C 
ATOM      2  C1' OXE d   1      -4.117  -3.025  -0.639  0.00  0.00     0.078 C 
ATOM      3  C1  OXE d   1      -4.597  -3.846   0.531  0.00  0.00    -0.078 A 
ATOM      4  C2  OXE d   1      -5.483  -3.254   1.399  0.00  0.00    -0.078 A 
ATOM      5  C3  OXE d   1      -6.000  -3.987   2.464  0.00  0.00     0.003 A 
ATOM      6  C4  OXE d   1      -5.510  -5.267   2.747  0.00  0.00    -0.002 A 
ATOM      7  C5  OXE d   1      -4.577  -5.874   1.899  0.00  0.00    -0.002 A 
ATOM      8  C6  OXE d   1      -4.144  -5.195   0.765  0.00  0.00     0.003 A 
ENDROOT
TORSDOF 0
ENDMDL
