MODEL 1
REMARK minimizedAffinity 8.85080051
REMARK minimizedRMSD -1
REMARK  0 active torsions:
REMARK  status: ('A' for Active; 'I' for Inactive)
ROOT
ATOM      1  C2' OXE d   1      -6.000  -2.194  -0.215  0.00  0.00     0.078 C 
ATOM      2  C1' OXE d   1      -3.247  -2.220   0.331  0.00  0.00     0.078 C 
ATOM      3  C1  OXE d   1      -3.953  -3.547   0.215  0.00  0.00    -0.078 A 
ATOM      4  C2  OXE d   1      -5.309  -3.525  -0.006  0.00  0.00    -0.078 A 
ATOM      5  C3  OXE d   1      -6.000  -4.721  -0.176  0.00  0.00     0.003 A 
ATOM      6  C4  OXE d   1      -5.355  -5.947   0.029  0.00  0.00    -0.002 A 
ATOM      7  C5  OXE d   1      -3.983  -5.992   0.294  0.00  0.00    -0.002 A 
ATOM      8  C6  OXE d   1      -3.260  -4.805   0.348  0.00  0.00     0.003 A 
ENDROOT
TORSDOF 0
ENDMDL
