MODEL 1
REMARK minimizedAffinity 1.95195067
REMARK minimizedRMSD -1
REMARK  0 active torsions:
REMARK  status: ('A' for Active; 'I' for Inactive)
ROOT
ATOM      1  C2' OXE d   1      -4.526   2.770   2.992  0.00  0.00     0.078 C 
ATOM      2  C1' OXE d   1      -4.173   0.429   4.500  0.00  0.00     0.078 C 
ATOM      3  C1  OXE d   1      -3.251   0.657   3.329  0.00  0.00    -0.078 A 
ATOM      4  C2  OXE d   1      -3.461   1.782   2.568  0.00  0.00    -0.078 A 
ATOM      5  C3  OXE d   1      -2.604   2.068   1.509  0.00  0.00     0.003 A 
ATOM      6  C4  OXE d   1      -1.627   1.144   1.118  0.00  0.00    -0.002 A 
ATOM      7  C5  OXE d   1      -1.423  -0.028   1.855  0.00  0.00    -0.002 A 
ATOM      8  C6  OXE d   1      -2.196  -0.265   2.986  0.00  0.00     0.003 A 
ENDROOT
TORSDOF 0
ENDMDL
