MODEL 1
REMARK minimizedAffinity 7.97264433
REMARK minimizedRMSD -1
REMARK  0 active torsions:
REMARK  status: ('A' for Active; 'I' for Inactive)
ROOT
ATOM      1  C2' OXE d   1       4.686  -1.113   3.128  0.00  0.00     0.078 C 
ATOM      2  C1' OXE d   1       5.415   0.757   1.165  0.00  0.00     0.078 C 
ATOM      3  C1  OXE d   1       4.059   0.905   1.810  0.00  0.00    -0.078 A 
ATOM      4  C2  OXE d   1       3.692  -0.042   2.736  0.00  0.00    -0.078 A 
ATOM      5  C3  OXE d   1       2.475   0.080   3.400  0.00  0.00     0.003 A 
ATOM      6  C4  OXE d   1       1.558   1.068   3.024  0.00  0.00    -0.002 A 
ATOM      7  C5  OXE d   1       1.896   2.019   2.055  0.00  0.00    -0.002 A 
ATOM      8  C6  OXE d   1       3.156   1.977   1.470  0.00  0.00     0.003 A 
ENDROOT
TORSDOF 0
ENDMDL
