MODEL 1
REMARK minimizedAffinity 11.6281576
REMARK minimizedRMSD -1
REMARK  0 active torsions:
REMARK  status: ('A' for Active; 'I' for Inactive)
ROOT
ATOM      1  C2' OXE d   1      -2.220  -2.440  -6.000  0.00  0.00     0.078 C 
ATOM      2  C1' OXE d   1      -2.248   0.367  -6.000  0.00  0.00     0.078 C 
ATOM      3  C1  OXE d   1      -1.042  -0.325  -5.415  0.00  0.00    -0.078 A 
ATOM      4  C2  OXE d   1      -1.057  -1.698  -5.377  0.00  0.00    -0.078 A 
ATOM      5  C3  OXE d   1       0.054  -2.387  -4.898  0.00  0.00     0.003 A 
ATOM      6  C4  OXE d   1       1.120  -1.693  -4.314  0.00  0.00    -0.002 A 
ATOM      7  C5  OXE d   1       1.138  -0.294  -4.307  0.00  0.00    -0.002 A 
ATOM      8  C6  OXE d   1       0.087   0.404  -4.890  0.00  0.00     0.003 A 
ENDROOT
TORSDOF 0
ENDMDL
