MODEL 1
REMARK minimizedAffinity 8.71545887
REMARK minimizedRMSD -1
REMARK  0 active torsions:
REMARK  status: ('A' for Active; 'I' for Inactive)
ROOT
ATOM      1  C2' OXE d   1       5.228   4.028  -3.577  0.00  0.00     0.078 C 
ATOM      2  C1' OXE d   1       3.004   4.103  -1.866  0.00  0.00     0.078 C 
ATOM      3  C1  OXE d   1       2.789   4.461  -3.316  0.00  0.00    -0.078 A 
ATOM      4  C2  OXE d   1       3.892   4.467  -4.135  0.00  0.00    -0.078 A 
ATOM      5  C3  OXE d   1       3.741   4.736  -5.493  0.00  0.00     0.003 A 
ATOM      6  C4  OXE d   1       2.503   5.151  -6.000  0.00  0.00    -0.002 A 
ATOM      7  C5  OXE d   1       1.375   5.190  -5.173  0.00  0.00    -0.002 A 
ATOM      8  C6  OXE d   1       1.492   4.808  -3.842  0.00  0.00     0.003 A 
ENDROOT
TORSDOF 0
ENDMDL
