MODEL 1
REMARK minimizedAffinity 5.74770737
REMARK minimizedRMSD -1
REMARK  0 active torsions:
REMARK  status: ('A' for Active; 'I' for Inactive)
ROOT
ATOM      1  C2' OXE d   1      -0.468   2.397   2.661  0.00  0.00     0.078 C 
ATOM      2  C1' OXE d   1      -3.128   3.290   2.608  0.00  0.00     0.078 C 
ATOM      3  C1  OXE d   1      -2.839   1.910   2.073  0.00  0.00    -0.078 A 
ATOM      4  C2  OXE d   1      -1.527   1.499   2.060  0.00  0.00    -0.078 A 
ATOM      5  C3  OXE d   1      -1.212   0.214   1.628  0.00  0.00     0.003 A 
ATOM      6  C4  OXE d   1      -2.196  -0.606   1.064  0.00  0.00    -0.002 A 
ATOM      7  C5  OXE d   1      -3.532  -0.191   1.031  0.00  0.00    -0.002 A 
ATOM      8  C6  OXE d   1      -3.876   1.044   1.569  0.00  0.00     0.003 A 
ENDROOT
TORSDOF 0
ENDMDL
