MODEL 1
REMARK minimizedAffinity 13.6959114
REMARK minimizedRMSD -1
REMARK  0 active torsions:
REMARK  status: ('A' for Active; 'I' for Inactive)
ROOT
ATOM      1  C2' OXE d   1       3.638   0.712  -3.364  0.00  0.00     0.078 C 
ATOM      2  C1' OXE d   1       3.019   2.346  -5.561  0.00  0.00     0.078 C 
ATOM      3  C1  OXE d   1       2.076   1.214  -5.238  0.00  0.00    -0.078 A 
ATOM      4  C2  OXE d   1       2.411   0.391  -4.190  0.00  0.00    -0.078 A 
ATOM      5  C3  OXE d   1       1.548  -0.635  -3.816  0.00  0.00     0.003 A 
ATOM      6  C4  OXE d   1       0.421  -0.931  -4.591  0.00  0.00    -0.002 A 
ATOM      7  C5  OXE d   1       0.082  -0.130  -5.687  0.00  0.00    -0.002 A 
ATOM      8  C6  OXE d   1       0.874   0.970  -5.997  0.00  0.00     0.003 A 
ENDROOT
TORSDOF 0
ENDMDL
