MODEL 1
REMARK minimizedAffinity 10.9051218
REMARK minimizedRMSD -1
REMARK  0 active torsions:
REMARK  status: ('A' for Active; 'I' for Inactive)
ROOT
ATOM      1  C2' OXE d   1       1.766  -0.749  -4.123  0.00  0.00     0.078 C 
ATOM      2  C1' OXE d   1      -0.407   0.626  -5.247  0.00  0.00     0.078 C 
ATOM      3  C1  OXE d   1      -0.416  -0.881  -5.317  0.00  0.00    -0.078 A 
ATOM      4  C2  OXE d   1       0.674  -1.543  -4.806  0.00  0.00    -0.078 A 
ATOM      5  C3  OXE d   1       0.692  -2.935  -4.795  0.00  0.00     0.003 A 
ATOM      6  C4  OXE d   1      -0.318  -3.662  -5.438  0.00  0.00    -0.002 A 
ATOM      7  C5  OXE d   1      -1.418  -3.005  -6.000  0.00  0.00    -0.002 A 
ATOM      8  C6  OXE d   1      -1.503  -1.620  -5.911  0.00  0.00     0.003 A 
ENDROOT
TORSDOF 0
ENDMDL
