MODEL 1
REMARK minimizedAffinity 7.0681963
REMARK minimizedRMSD -1
REMARK  0 active torsions:
REMARK  status: ('A' for Active; 'I' for Inactive)
ROOT
ATOM      1  C2' OXE d   1      -4.867  -4.124  -5.924  0.00  0.00     0.078 C 
ATOM      2  C1' OXE d   1      -2.570  -2.512  -6.000  0.00  0.00     0.078 C 
ATOM      3  C1  OXE d   1      -3.750  -2.017  -5.202  0.00  0.00    -0.078 A 
ATOM      4  C2  OXE d   1      -4.887  -2.790  -5.209  0.00  0.00    -0.078 A 
ATOM      5  C3  OXE d   1      -5.986  -2.407  -4.446  0.00  0.00     0.003 A 
ATOM      6  C4  OXE d   1      -6.000  -1.167  -3.796  0.00  0.00    -0.002 A 
ATOM      7  C5  OXE d   1      -4.867  -0.346  -3.809  0.00  0.00    -0.002 A 
ATOM      8  C6  OXE d   1      -3.722  -0.775  -4.471  0.00  0.00     0.003 A 
ENDROOT
TORSDOF 0
ENDMDL
