MODEL 1
REMARK minimizedAffinity 15.9773264
REMARK minimizedRMSD -1
REMARK  0 active torsions:
REMARK  status: ('A' for Active; 'I' for Inactive)
ROOT
ATOM      1  C2' OXE d   1      -2.054  -3.289   0.628  0.00  0.00     0.078 C 
ATOM      2  C1' OXE d   1      -4.652  -2.227   0.654  0.00  0.00     0.078 C 
ATOM      3  C1  OXE d   1      -3.513  -1.308   1.019  0.00  0.00    -0.078 A 
ATOM      4  C2  OXE d   1      -2.250  -1.849   1.049  0.00  0.00    -0.078 A 
ATOM      5  C3  OXE d   1      -1.157  -1.032   1.326  0.00  0.00     0.003 A 
ATOM      6  C4  OXE d   1      -1.348   0.296   1.724  0.00  0.00    -0.002 A 
ATOM      7  C5  OXE d   1      -2.630   0.856   1.739  0.00  0.00    -0.002 A 
ATOM      8  C6  OXE d   1      -3.716   0.081   1.349  0.00  0.00     0.003 A 
ENDROOT
TORSDOF 0
ENDMDL
