MODEL 1
REMARK minimizedAffinity 11.9752989
REMARK minimizedRMSD -1
REMARK  0 active torsions:
REMARK  status: ('A' for Active; 'I' for Inactive)
ROOT
ATOM      1  C2' OXE d   1       3.166   1.475  -5.968  0.00  0.00     0.078 C 
ATOM      2  C1' OXE d   1       5.957   1.773  -5.999  0.00  0.00     0.078 C 
ATOM      3  C1  OXE d   1       5.117   3.023  -5.913  0.00  0.00    -0.078 A 
ATOM      4  C2  OXE d   1       3.752   2.870  -5.945  0.00  0.00    -0.078 A 
ATOM      5  C3  OXE d   1       2.930   3.986  -5.814  0.00  0.00     0.003 A 
ATOM      6  C4  OXE d   1       3.480   5.274  -5.804  0.00  0.00    -0.002 A 
ATOM      7  C5  OXE d   1       4.868   5.454  -5.810  0.00  0.00    -0.002 A 
ATOM      8  C6  OXE d   1       5.699   4.339  -5.822  0.00  0.00     0.003 A 
ENDROOT
TORSDOF 0
ENDMDL
