MODEL 1
REMARK minimizedAffinity 13.837286
REMARK minimizedRMSD -1
REMARK  0 active torsions:
REMARK  status: ('A' for Active; 'I' for Inactive)
ROOT
ATOM      1  C2' OXE d   1       5.913  -1.681   5.708  0.00  0.00     0.078 C 
ATOM      2  C1' OXE d   1       5.884  -1.950   2.914  0.00  0.00     0.078 C 
ATOM      3  C1  OXE d   1       5.907  -3.210   3.742  0.00  0.00    -0.078 A 
ATOM      4  C2  OXE d   1       5.968  -3.069   5.107  0.00  0.00    -0.078 A 
ATOM      5  C3  OXE d   1       5.936  -4.199   5.920  0.00  0.00     0.003 A 
ATOM      6  C4  OXE d   1       5.998  -5.479   5.356  0.00  0.00    -0.002 A 
ATOM      7  C5  OXE d   1       5.976  -5.645   3.967  0.00  0.00    -0.002 A 
ATOM      8  C6  OXE d   1       5.888  -4.524   3.148  0.00  0.00     0.003 A 
ENDROOT
TORSDOF 0
ENDMDL
