MODEL 1
REMARK minimizedAffinity 2.59852815
REMARK minimizedRMSD -1
REMARK  0 active torsions:
REMARK  status: ('A' for Active; 'I' for Inactive)
ROOT
ATOM      1  C2' OXE d   1      -2.213  -2.570  -5.999  0.00  0.00     0.078 C 
ATOM      2  C1' OXE d   1      -4.408  -4.320  -6.000  0.00  0.00     0.078 C 
ATOM      3  C1  OXE d   1      -4.615  -2.933  -5.447  0.00  0.00    -0.078 A 
ATOM      4  C2  OXE d   1      -3.524  -2.098  -5.408  0.00  0.00    -0.078 A 
ATOM      5  C3  OXE d   1      -3.673  -0.789  -4.958  0.00  0.00     0.003 A 
ATOM      6  C4  OXE d   1      -4.887  -0.364  -4.404  0.00  0.00    -0.002 A 
ATOM      7  C5  OXE d   1      -6.000  -1.211  -4.397  0.00  0.00    -0.002 A 
ATOM      8  C6  OXE d   1      -5.893  -2.481  -4.953  0.00  0.00     0.003 A 
ENDROOT
TORSDOF 0
ENDMDL
