MODEL 1
REMARK minimizedAffinity 8.91759872
REMARK minimizedRMSD -1
REMARK  0 active torsions:
REMARK  status: ('A' for Active; 'I' for Inactive)
ROOT
ATOM      1  C2' OXE d   1      -1.035  -5.021  -5.995  0.00  0.00     0.078 C 
ATOM      2  C1' OXE d   1      -1.243  -2.226  -5.843  0.00  0.00     0.078 C 
ATOM      3  C1  OXE d   1      -2.521  -3.025  -5.877  0.00  0.00    -0.078 A 
ATOM      4  C2  OXE d   1      -2.410  -4.390  -5.998  0.00  0.00    -0.078 A 
ATOM      5  C3  OXE d   1      -3.557  -5.179  -5.979  0.00  0.00     0.003 A 
ATOM      6  C4  OXE d   1      -4.826  -4.586  -5.991  0.00  0.00    -0.002 A 
ATOM      7  C5  OXE d   1      -4.961  -3.196  -5.908  0.00  0.00    -0.002 A 
ATOM      8  C6  OXE d   1      -3.821  -2.406  -5.807  0.00  0.00     0.003 A 
ENDROOT
TORSDOF 0
ENDMDL
