MODEL 1
REMARK minimizedAffinity 1.15224934
REMARK minimizedRMSD -1
REMARK  0 active torsions:
REMARK  status: ('A' for Active; 'I' for Inactive)
ROOT
ATOM      1  C2' OXE d   1      -3.083   3.844   5.673  0.00  0.00     0.078 C 
ATOM      2  C1' OXE d   1      -3.861   1.148   5.758  0.00  0.00     0.078 C 
ATOM      3  C1  OXE d   1      -2.681   1.513   4.893  0.00  0.00    -0.078 A 
ATOM      4  C2  OXE d   1      -2.336   2.841   4.820  0.00  0.00    -0.078 A 
ATOM      5  C3  OXE d   1      -1.222   3.225   4.080  0.00  0.00     0.003 A 
ATOM      6  C4  OXE d   1      -0.542   2.293   3.287  0.00  0.00    -0.002 A 
ATOM      7  C5  OXE d   1      -0.901   0.941   3.315  0.00  0.00    -0.002 A 
ATOM      8  C6  OXE d   1      -1.939   0.529   4.144  0.00  0.00     0.003 A 
ENDROOT
TORSDOF 0
ENDMDL
