MODEL 1
REMARK minimizedAffinity 5.5996089
REMARK minimizedRMSD -1
REMARK  1 active torsions:
REMARK  status: ('A' for Active; 'I' for Inactive)
REMARK    1  A    between atoms: C3_4  and  O_7 
ROOT
ATOM      1  C   UNL d   1       5.341  -3.794   4.637  0.00  0.00    -0.033 A 
ATOM      2  C1  UNL d   1       4.072  -4.124   5.115  0.00  0.00     0.039 A 
ATOM      3  C2  UNL d   1       2.949  -3.433   4.656  0.00  0.00    -0.080 A 
ATOM      4  C3  UNL d   1       3.109  -2.416   3.719  0.00  0.00     0.150 A 
ATOM      5  C4  UNL d   1       4.370  -2.084   3.235  0.00  0.00    -0.007 A 
ATOM      6  C5  UNL d   1       5.490  -2.775   3.696  0.00  0.00     0.039 A 
ENDROOT
BRANCH   4   7
ATOM      7  O   UNL d   1       2.043  -1.710   3.244  0.00  0.00    -0.526 OA
ATOM      8  H5  UNL d   1       1.240  -2.030   3.688  0.00  0.00     0.418 HD
ENDBRANCH   4   7
TORSDOF 1
ENDMDL
