MODEL 1
REMARK minimizedAffinity 1.69591606
REMARK minimizedRMSD -1
REMARK  1 active torsions:
REMARK  status: ('A' for Active; 'I' for Inactive)
REMARK    1  A    between atoms: C3_4  and  O_7 
ROOT
ATOM      1  C   UNL d   1       1.918  -3.826   0.453  0.00  0.00    -0.033 A 
ATOM      2  C1  UNL d   1       1.289  -3.024  -0.501  0.00  0.00     0.039 A 
ATOM      3  C2  UNL d   1       1.171  -3.467  -1.820  0.00  0.00    -0.080 A 
ATOM      4  C3  UNL d   1       1.685  -4.713  -2.171  0.00  0.00     0.150 A 
ATOM      5  C4  UNL d   1       2.309  -5.519  -1.225  0.00  0.00    -0.007 A 
ATOM      6  C5  UNL d   1       2.427  -5.074   0.092  0.00  0.00     0.039 A 
ENDROOT
BRANCH   4   7
ATOM      7  O   UNL d   1       1.598  -5.185  -3.447  0.00  0.00    -0.526 OA
ATOM      8  H5  UNL d   1       1.168  -4.510  -3.997  0.00  0.00     0.418 HD
ENDBRANCH   4   7
TORSDOF 1
ENDMDL
