MODEL 1
REMARK minimizedAffinity -0.0977803916
REMARK minimizedRMSD -1
REMARK  1 active torsions:
REMARK  status: ('A' for Active; 'I' for Inactive)
REMARK    1  A    between atoms: C3_4  and  O_7 
ROOT
ATOM      1  C   UNL d   1       1.464  -2.955   2.664  0.00  0.00    -0.033 A 
ATOM      2  C1  UNL d   1       2.349  -2.505   3.645  0.00  0.00     0.039 A 
ATOM      3  C2  UNL d   1       3.029  -1.297   3.474  0.00  0.00    -0.080 A 
ATOM      4  C3  UNL d   1       2.813  -0.550   2.319  0.00  0.00     0.150 A 
ATOM      5  C4  UNL d   1       1.929  -0.991   1.340  0.00  0.00    -0.007 A 
ATOM      6  C5  UNL d   1       1.252  -2.197   1.512  0.00  0.00     0.039 A 
ENDROOT
BRANCH   4   7
ATOM      7  O   UNL d   1       3.456   0.633   2.105  0.00  0.00    -0.526 OA
ATOM      8  H5  UNL d   1       4.056   0.796   2.852  0.00  0.00     0.418 HD
ENDBRANCH   4   7
TORSDOF 1
ENDMDL
