MODEL 1
REMARK minimizedAffinity 6.76464939
REMARK minimizedRMSD -1
REMARK  1 active torsions:
REMARK  status: ('A' for Active; 'I' for Inactive)
REMARK    1  A    between atoms: C3_4  and  O_7 
ROOT
ATOM      1  C   UNL d   1       2.667   1.494   1.254  0.00  0.00    -0.033 A 
ATOM      2  C1  UNL d   1       2.337   1.493   2.611  0.00  0.00     0.039 A 
ATOM      3  C2  UNL d   1       2.174   0.285   3.291  0.00  0.00    -0.080 A 
ATOM      4  C3  UNL d   1       2.344  -0.914   2.604  0.00  0.00     0.150 A 
ATOM      5  C4  UNL d   1       2.677  -0.921   1.253  0.00  0.00    -0.007 A 
ATOM      6  C5  UNL d   1       2.839   0.287   0.576  0.00  0.00     0.039 A 
ENDROOT
BRANCH   4   7
ATOM      7  O   UNL d   1       2.191  -2.119   3.224  0.00  0.00    -0.526 OA
ATOM      8  H5  UNL d   1       1.933  -1.959   4.147  0.00  0.00     0.418 HD
ENDBRANCH   4   7
TORSDOF 1
ENDMDL
