MODEL 1
REMARK minimizedAffinity -3.5103116
REMARK minimizedRMSD -1
REMARK  1 active torsions:
REMARK  status: ('A' for Active; 'I' for Inactive)
REMARK    1  A    between atoms: C3_4  and  O_7 
ROOT
ATOM      1  C   UNL d   1       5.998   5.141  -2.585  0.00  0.00    -0.033 A 
ATOM      2  C1  UNL d   1       5.234   5.957  -1.748  0.00  0.00     0.039 A 
ATOM      3  C2  UNL d   1       3.842   5.962  -1.856  0.00  0.00    -0.080 A 
ATOM      4  C3  UNL d   1       3.227   5.149  -2.804  0.00  0.00     0.150 A 
ATOM      5  C4  UNL d   1       3.982   4.331  -3.639  0.00  0.00    -0.007 A 
ATOM      6  C5  UNL d   1       5.372   4.327  -3.529  0.00  0.00     0.039 A 
ENDROOT
BRANCH   4   7
ATOM      7  O   UNL d   1       1.872   5.124  -2.951  0.00  0.00    -0.526 OA
ATOM      8  H5  UNL d   1       1.483   5.760  -2.328  0.00  0.00     0.418 HD
ENDBRANCH   4   7
TORSDOF 1
ENDMDL
