MODEL 1
REMARK minimizedAffinity 4.64499474
REMARK minimizedRMSD -1
REMARK  1 active torsions:
REMARK  status: ('A' for Active; 'I' for Inactive)
REMARK    1  A    between atoms: C3_4  and  O_7 
ROOT
ATOM      1  C   UNL d   1      -1.038  -1.432   0.280  0.00  0.00    -0.033 A 
ATOM      2  C1  UNL d   1      -1.651  -1.677  -0.951  0.00  0.00     0.039 A 
ATOM      3  C2  UNL d   1      -0.932  -2.285  -1.982  0.00  0.00    -0.080 A 
ATOM      4  C3  UNL d   1       0.397  -2.644  -1.769  0.00  0.00     0.150 A 
ATOM      5  C4  UNL d   1       1.012  -2.407  -0.544  0.00  0.00    -0.007 A 
ATOM      6  C5  UNL d   1       0.293  -1.799   0.483  0.00  0.00     0.039 A 
ENDROOT
BRANCH   4   7
ATOM      7  O   UNL d   1       1.140  -3.236  -2.747  0.00  0.00    -0.526 OA
ATOM      8  H5  UNL d   1       0.593  -3.311  -3.547  0.00  0.00     0.418 HD
ENDBRANCH   4   7
TORSDOF 1
ENDMDL
