MODEL 1
REMARK minimizedAffinity 0.995749414
REMARK minimizedRMSD -1
REMARK  1 active torsions:
REMARK  status: ('A' for Active; 'I' for Inactive)
REMARK    1  A    between atoms: C3_4  and  O_7 
ROOT
ATOM      1  C   UNL d   1       1.234  -1.794   2.701  0.00  0.00    -0.033 A 
ATOM      2  C1  UNL d   1       2.177  -1.036   3.397  0.00  0.00     0.039 A 
ATOM      3  C2  UNL d   1       2.832   0.021   2.761  0.00  0.00    -0.080 A 
ATOM      4  C3  UNL d   1       2.533   0.310   1.432  0.00  0.00     0.150 A 
ATOM      5  C4  UNL d   1       1.592  -0.440   0.735  0.00  0.00    -0.007 A 
ATOM      6  C5  UNL d   1       0.940  -1.495   1.371  0.00  0.00     0.039 A 
ENDROOT
BRANCH   4   7
ATOM      7  O   UNL d   1       3.150   1.328   0.768  0.00  0.00    -0.526 OA
ATOM      8  H5  UNL d   1       3.796   1.739   1.367  0.00  0.00     0.418 HD
ENDBRANCH   4   7
TORSDOF 1
ENDMDL
