MODEL 1
REMARK minimizedAffinity -3.23926449
REMARK minimizedRMSD -1
REMARK  0 active torsions:
REMARK  status: ('A' for Active; 'I' for Inactive)
ROOT
ATOM      1  C   UNL d   1      -3.244  -5.153   3.313  0.00  0.00     0.078 C 
ATOM      2  C1  UNL d   1      -2.722  -4.953   1.922  0.00  0.00    -0.077 A 
ATOM      3  C2  UNL d   1      -2.733  -5.998   0.990  0.00  0.00    -0.001 A 
ATOM      4  C3  UNL d   1      -2.235  -5.800  -0.299  0.00  0.00     0.003 A 
ATOM      5  C4  UNL d   1      -1.722  -4.559  -0.667  0.00  0.00    -0.005 A 
ATOM      6  C5  UNL d   1      -1.705  -3.513   0.254  0.00  0.00     0.003 A 
ATOM      7  C6  UNL d   1      -2.202  -3.709   1.543  0.00  0.00    -0.001 A 
ENDROOT
TORSDOF 0
ENDMDL
