MODEL 1
REMARK minimizedAffinity -4.24016428
REMARK minimizedRMSD -1
REMARK  0 active torsions:
REMARK  status: ('A' for Active; 'I' for Inactive)
ROOT
ATOM      1  C   UNL d   1      -1.760  -5.956  -3.375  0.00  0.00     0.078 C 
ATOM      2  C1  UNL d   1      -0.335  -5.704  -3.768  0.00  0.00    -0.077 A 
ATOM      3  C2  UNL d   1      -0.016  -5.186  -5.029  0.00  0.00    -0.001 A 
ATOM      4  C3  UNL d   1       1.315  -4.965  -5.385  0.00  0.00     0.003 A 
ATOM      5  C4  UNL d   1       2.338  -5.260  -4.487  0.00  0.00    -0.005 A 
ATOM      6  C5  UNL d   1       2.031  -5.778  -3.230  0.00  0.00     0.003 A 
ATOM      7  C6  UNL d   1       0.700  -5.999  -2.872  0.00  0.00    -0.001 A 
ENDROOT
TORSDOF 0
ENDMDL
