MODEL 1
REMARK minimizedAffinity -3.26574707
REMARK minimizedRMSD -1
REMARK  0 active torsions:
REMARK  status: ('A' for Active; 'I' for Inactive)
ROOT
ATOM      1  C   UNL d   1      -0.540  -5.814  -3.817  0.00  0.00     0.078 C 
ATOM      2  C1  UNL d   1      -1.724  -5.887  -2.899  0.00  0.00    -0.077 A 
ATOM      3  C2  UNL d   1      -3.028  -5.943  -3.407  0.00  0.00    -0.001 A 
ATOM      4  C3  UNL d   1      -4.121  -6.000  -2.541  0.00  0.00     0.003 A 
ATOM      5  C4  UNL d   1      -3.922  -6.000  -1.162  0.00  0.00    -0.005 A 
ATOM      6  C5  UNL d   1      -2.629  -5.942  -0.647  0.00  0.00     0.003 A 
ATOM      7  C6  UNL d   1      -1.534  -5.885  -1.512  0.00  0.00    -0.001 A 
ENDROOT
TORSDOF 0
ENDMDL
