MODEL 1
REMARK minimizedAffinity -2.65288591
REMARK minimizedRMSD -1
REMARK  0 active torsions:
REMARK  status: ('A' for Active; 'I' for Inactive)
ROOT
ATOM      1  C   UNL d   1       3.551  -5.932   6.000  0.00  0.00     0.078 C 
ATOM      2  C1  UNL d   1       2.576  -4.948   5.426  0.00  0.00    -0.077 A 
ATOM      3  C2  UNL d   1       1.251  -4.899   5.877  0.00  0.00    -0.001 A 
ATOM      4  C3  UNL d   1       0.352  -3.984   5.327  0.00  0.00     0.003 A 
ATOM      5  C4  UNL d   1       0.766  -3.113   4.322  0.00  0.00    -0.005 A 
ATOM      6  C5  UNL d   1       2.082  -3.156   3.865  0.00  0.00     0.003 A 
ATOM      7  C6  UNL d   1       2.983  -4.070   4.414  0.00  0.00    -0.001 A 
ENDROOT
TORSDOF 0
ENDMDL
