MODEL 1
REMARK minimizedAffinity -3.87983203
REMARK minimizedRMSD -1
REMARK  0 active torsions:
REMARK  status: ('A' for Active; 'I' for Inactive)
ROOT
ATOM      1  C   UNL d   1       2.669  -4.630   5.955  0.00  0.00     0.078 C 
ATOM      2  C1  UNL d   1       2.027  -3.781   4.899  0.00  0.00    -0.077 A 
ATOM      3  C2  UNL d   1       0.796  -4.140   4.335  0.00  0.00    -0.001 A 
ATOM      4  C3  UNL d   1       0.215  -3.346   3.346  0.00  0.00     0.003 A 
ATOM      5  C4  UNL d   1       0.857  -2.188   2.911  0.00  0.00    -0.005 A 
ATOM      6  C5  UNL d   1       2.082  -1.824   3.464  0.00  0.00     0.003 A 
ATOM      7  C6  UNL d   1       2.666  -2.617   4.454  0.00  0.00    -0.001 A 
ENDROOT
TORSDOF 0
ENDMDL
