MODEL 1
REMARK minimizedAffinity -3.83322453
REMARK minimizedRMSD -1
REMARK  0 active torsions:
REMARK  status: ('A' for Active; 'I' for Inactive)
ROOT
ATOM      1  C   UNL d   1       1.316  -4.890   5.145  0.00  0.00     0.078 C 
ATOM      2  C1  UNL d   1       1.504  -3.772   4.163  0.00  0.00    -0.077 A 
ATOM      3  C2  UNL d   1       2.472  -2.783   4.373  0.00  0.00    -0.001 A 
ATOM      4  C3  UNL d   1       2.629  -1.743   3.455  0.00  0.00     0.003 A 
ATOM      5  C4  UNL d   1       1.821  -1.682   2.322  0.00  0.00    -0.005 A 
ATOM      6  C5  UNL d   1       0.853  -2.661   2.106  0.00  0.00     0.003 A 
ATOM      7  C6  UNL d   1       0.695  -3.702   3.022  0.00  0.00    -0.001 A 
ENDROOT
TORSDOF 0
ENDMDL
