MODEL 1
REMARK minimizedAffinity -2.48140621
REMARK minimizedRMSD -1
REMARK  0 active torsions:
REMARK  status: ('A' for Active; 'I' for Inactive)
ROOT
ATOM      1  C   UNL d   1       2.069  -2.408   3.116  0.00  0.00     0.078 C 
ATOM      2  C1  UNL d   1       2.053  -3.655   3.949  0.00  0.00    -0.077 A 
ATOM      3  C2  UNL d   1       1.491  -3.659   5.231  0.00  0.00    -0.001 A 
ATOM      4  C3  UNL d   1       1.493  -4.824   5.999  0.00  0.00     0.003 A 
ATOM      5  C4  UNL d   1       2.055  -5.994   5.494  0.00  0.00    -0.005 A 
ATOM      6  C5  UNL d   1       2.619  -6.000   4.220  0.00  0.00     0.003 A 
ATOM      7  C6  UNL d   1       2.619  -4.836   3.450  0.00  0.00    -0.001 A 
ENDROOT
TORSDOF 0
ENDMDL
