MODEL 1
REMARK minimizedAffinity -2.19954348
REMARK minimizedRMSD -1
REMARK  0 active torsions:
REMARK  status: ('A' for Active; 'I' for Inactive)
ROOT
ATOM      1  C   UNL d   1       0.699  -5.906  -5.991  0.00  0.00     0.078 C 
ATOM      2  C1  UNL d   1      -0.525  -5.945  -5.125  0.00  0.00    -0.077 A 
ATOM      3  C2  UNL d   1      -1.807  -5.965  -5.687  0.00  0.00    -0.001 A 
ATOM      4  C3  UNL d   1      -2.937  -5.992  -4.868  0.00  0.00     0.003 A 
ATOM      5  C4  UNL d   1      -2.796  -5.999  -3.482  0.00  0.00    -0.005 A 
ATOM      6  C5  UNL d   1      -1.524  -5.977  -2.913  0.00  0.00     0.003 A 
ATOM      7  C6  UNL d   1      -0.393  -5.950  -3.730  0.00  0.00    -0.001 A 
ENDROOT
TORSDOF 0
ENDMDL
