MODEL 1
REMARK minimizedAffinity -5.77159834
REMARK minimizedRMSD -1
REMARK  0 active torsions:
REMARK  status: ('A' for Active; 'I' for Inactive)
ROOT
ATOM      1  C   UNL d   1       0.167  -3.105   0.463  0.00  0.00     0.078 C 
ATOM      2  C1  UNL d   1       0.756  -3.018   1.839  0.00  0.00    -0.077 A 
ATOM      3  C2  UNL d   1       1.608  -1.965   2.193  0.00  0.00    -0.001 A 
ATOM      4  C3  UNL d   1       2.158  -1.901   3.475  0.00  0.00     0.003 A 
ATOM      5  C4  UNL d   1       1.863  -2.889   4.412  0.00  0.00    -0.005 A 
ATOM      6  C5  UNL d   1       1.018  -3.943   4.068  0.00  0.00     0.003 A 
ATOM      7  C6  UNL d   1       0.468  -4.008   2.787  0.00  0.00    -0.001 A 
ENDROOT
TORSDOF 0
ENDMDL
