MODEL 1
REMARK minimizedAffinity -4.26447678
REMARK minimizedRMSD -1
REMARK  0 active torsions:
REMARK  status: ('A' for Active; 'I' for Inactive)
ROOT
ATOM      1  C   UNL d   1      -2.665  -5.804   0.373  0.00  0.00     0.078 C 
ATOM      2  C1  UNL d   1      -2.458  -5.815  -1.112  0.00  0.00    -0.077 A 
ATOM      3  C2  UNL d   1      -1.184  -5.630  -1.664  0.00  0.00    -0.001 A 
ATOM      4  C3  UNL d   1      -1.007  -5.632  -3.049  0.00  0.00     0.003 A 
ATOM      5  C4  UNL d   1      -2.100  -5.818  -3.893  0.00  0.00    -0.005 A 
ATOM      6  C5  UNL d   1      -3.372  -6.000  -3.353  0.00  0.00     0.003 A 
ATOM      7  C6  UNL d   1      -3.550  -5.998  -1.969  0.00  0.00    -0.001 A 
ENDROOT
TORSDOF 0
ENDMDL
