MODEL 1
REMARK minimizedAffinity 5.66650772
REMARK minimizedRMSD -1
REMARK  0 active torsions:
REMARK  status: ('A' for Active; 'I' for Inactive)
ROOT
ATOM      1  C   UNL d   1       1.750  -1.008   1.289  0.00  0.00     0.078 C 
ATOM      2  C1  UNL d   1       2.995  -1.011   2.125  0.00  0.00    -0.077 A 
ATOM      3  C2  UNL d   1       2.950  -1.345   3.484  0.00  0.00    -0.001 A 
ATOM      4  C3  UNL d   1       4.116  -1.335   4.252  0.00  0.00     0.003 A 
ATOM      5  C4  UNL d   1       5.334  -0.990   3.671  0.00  0.00    -0.005 A 
ATOM      6  C5  UNL d   1       5.388  -0.654   2.319  0.00  0.00     0.003 A 
ATOM      7  C6  UNL d   1       4.224  -0.664   1.550  0.00  0.00    -0.001 A 
ENDROOT
TORSDOF 0
ENDMDL
