MODEL 1
REMARK minimizedAffinity -1.77388799
REMARK minimizedRMSD -1
REMARK  0 active torsions:
REMARK  status: ('A' for Active; 'I' for Inactive)
ROOT
ATOM      1  C   UNL d   1      -3.514   1.814  -3.443  0.00  0.00     0.078 C 
ATOM      2  C1  UNL d   1      -3.917   0.706  -2.516  0.00  0.00    -0.077 A 
ATOM      3  C2  UNL d   1      -4.197   0.959  -1.168  0.00  0.00    -0.001 A 
ATOM      4  C3  UNL d   1      -4.561  -0.084  -0.315  0.00  0.00     0.003 A 
ATOM      5  C4  UNL d   1      -4.648  -1.388  -0.800  0.00  0.00    -0.005 A 
ATOM      6  C5  UNL d   1      -4.368  -1.649  -2.140  0.00  0.00     0.003 A 
ATOM      7  C6  UNL d   1      -4.004  -0.608  -2.995  0.00  0.00    -0.001 A 
ENDROOT
TORSDOF 0
ENDMDL
