MODEL 1
REMARK minimizedAffinity 0.0799765512
REMARK minimizedRMSD -1
REMARK  0 active torsions:
REMARK  status: ('A' for Active; 'I' for Inactive)
ROOT
ATOM      1  C   UNL d   1       3.411  -5.687  -5.956  0.00  0.00     0.078 C 
ATOM      2  C1  UNL d   1       2.044  -5.465  -5.380  0.00  0.00    -0.077 A 
ATOM      3  C2  UNL d   1       0.906  -5.996  -5.999  0.00  0.00    -0.001 A 
ATOM      4  C3  UNL d   1      -0.361  -5.774  -5.457  0.00  0.00     0.003 A 
ATOM      5  C4  UNL d   1      -0.502  -5.019  -4.294  0.00  0.00    -0.005 A 
ATOM      6  C5  UNL d   1       0.625  -4.485  -3.672  0.00  0.00     0.003 A 
ATOM      7  C6  UNL d   1       1.892  -4.707  -4.213  0.00  0.00    -0.001 A 
ENDROOT
TORSDOF 0
ENDMDL
