MODEL 1
REMARK minimizedAffinity 5.85304165
REMARK minimizedRMSD -1
REMARK  0 active torsions:
REMARK  status: ('A' for Active; 'I' for Inactive)
ROOT
ATOM      1  C   UNL d   1      -5.317  -0.301   1.090  0.00  0.00     0.078 C 
ATOM      2  C1  UNL d   1      -5.120  -0.049  -0.376  0.00  0.00    -0.077 A 
ATOM      3  C2  UNL d   1      -5.247   1.239  -0.910  0.00  0.00    -0.001 A 
ATOM      4  C3  UNL d   1      -5.071   1.457  -2.277  0.00  0.00     0.003 A 
ATOM      5  C4  UNL d   1      -4.769   0.391  -3.122  0.00  0.00    -0.005 A 
ATOM      6  C5  UNL d   1      -4.644  -0.895  -2.600  0.00  0.00     0.003 A 
ATOM      7  C6  UNL d   1      -4.819  -1.115  -1.233  0.00  0.00    -0.001 A 
ENDROOT
TORSDOF 0
ENDMDL
