MODEL 1
REMARK minimizedAffinity -0.200922549
REMARK minimizedRMSD -1
REMARK  0 active torsions:
REMARK  status: ('A' for Active; 'I' for Inactive)
ROOT
ATOM      1  C1  DEN d   1      -3.669  -5.999  -5.994  0.00  0.00     0.130 A 
ATOM      2  C2  DEN d   1      -2.297  -6.000  -5.495  0.00  0.00    -0.031 A 
ATOM      3  C3  DEN d   1      -2.057  -4.710  -4.818  0.00  0.00     0.027 A 
ATOM      4  C4  DEN d   1      -3.670  -2.724  -4.491  0.00  0.00     0.027 A 
ATOM      5  C5  DEN d   1      -4.938  -2.253  -4.751  0.00  0.00    -0.003 A 
ATOM      6  C6  DEN d   1      -5.854  -2.979  -5.466  0.00  0.00     0.001 A 
ATOM      7  C7  DEN d   1      -5.529  -4.234  -5.909  0.00  0.00     0.017 A 
ATOM      8  C8  DEN d   1      -4.250  -4.712  -5.657  0.00  0.00    -0.094 A 
ATOM      9  C9  DEN d   1      -3.342  -3.968  -4.922  0.00  0.00    -0.072 A 
ENDROOT
TORSDOF 0
ENDMDL
