MODEL 1
REMARK minimizedAffinity -2.77003717
REMARK minimizedRMSD -1
REMARK  0 active torsions:
REMARK  status: ('A' for Active; 'I' for Inactive)
ROOT
ATOM      1  C1  DEN d   1      -5.284   1.224  -5.980  0.00  0.00     0.130 A 
ATOM      2  C2  DEN d   1      -4.046   0.450  -5.998  0.00  0.00    -0.031 A 
ATOM      3  C3  DEN d   1      -2.914   1.399  -5.993  0.00  0.00     0.027 A 
ATOM      4  C4  DEN d   1      -2.959   3.978  -5.953  0.00  0.00     0.027 A 
ATOM      5  C5  DEN d   1      -3.777   5.086  -5.944  0.00  0.00    -0.003 A 
ATOM      6  C6  DEN d   1      -5.142   4.987  -5.980  0.00  0.00     0.001 A 
ATOM      7  C7  DEN d   1      -5.733   3.750  -5.982  0.00  0.00     0.017 A 
ATOM      8  C8  DEN d   1      -4.915   2.628  -5.998  0.00  0.00    -0.094 A 
ATOM      9  C9  DEN d   1      -3.537   2.750  -5.949  0.00  0.00    -0.072 A 
ENDROOT
TORSDOF 0
ENDMDL
