MODEL 1
REMARK minimizedAffinity -1.43623638
REMARK minimizedRMSD -1
REMARK  0 active torsions:
REMARK  status: ('A' for Active; 'I' for Inactive)
ROOT
ATOM      1  C1  DEN d   1      -5.998   4.605  -5.977  0.00  0.00     0.130 A 
ATOM      2  C2  DEN d   1      -5.157   5.797  -5.925  0.00  0.00    -0.031 A 
ATOM      3  C3  DEN d   1      -3.746   5.359  -5.908  0.00  0.00     0.027 A 
ATOM      4  C4  DEN d   1      -2.789   2.964  -5.963  0.00  0.00     0.027 A 
ATOM      5  C5  DEN d   1      -3.114   1.626  -5.998  0.00  0.00    -0.003 A 
ATOM      6  C6  DEN d   1      -4.413   1.190  -5.994  0.00  0.00     0.001 A 
ATOM      7  C7  DEN d   1      -5.435   2.101  -6.000  0.00  0.00     0.017 A 
ATOM      8  C8  DEN d   1      -5.116   3.452  -5.957  0.00  0.00    -0.094 A 
ATOM      9  C9  DEN d   1      -3.797   3.874  -5.974  0.00  0.00    -0.072 A 
ENDROOT
TORSDOF 0
ENDMDL
