MODEL 1
REMARK minimizedAffinity -0.610610247
REMARK minimizedRMSD -1
REMARK  0 active torsions:
REMARK  status: ('A' for Active; 'I' for Inactive)
ROOT
ATOM      1  C1  DEN d   1      -1.818   3.316  -5.991  0.00  0.00     0.130 A 
ATOM      2  C2  DEN d   1      -1.615   1.870  -5.969  0.00  0.00    -0.031 A 
ATOM      3  C3  DEN d   1      -2.943   1.223  -5.961  0.00  0.00     0.027 A 
ATOM      4  C4  DEN d   1      -5.280   2.314  -5.984  0.00  0.00     0.027 A 
ATOM      5  C5  DEN d   1      -5.959   3.512  -5.992  0.00  0.00    -0.003 A 
ATOM      6  C6  DEN d   1      -5.312   4.718  -5.965  0.00  0.00     0.001 A 
ATOM      7  C7  DEN d   1      -3.943   4.754  -5.976  0.00  0.00     0.017 A 
ATOM      8  C8  DEN d   1      -3.251   3.551  -5.961  0.00  0.00    -0.094 A 
ATOM      9  C9  DEN d   1      -3.923   2.341  -6.000  0.00  0.00    -0.072 A 
ENDROOT
TORSDOF 0
ENDMDL
