MODEL 1
REMARK minimizedAffinity 0.595045269
REMARK minimizedRMSD -1
REMARK  0 active torsions:
REMARK  status: ('A' for Active; 'I' for Inactive)
ROOT
ATOM      1  C1  DEN d   1       0.631   1.213   1.024  0.00  0.00     0.130 A 
ATOM      2  C2  DEN d   1       1.760   2.129   0.883  0.00  0.00    -0.031 A 
ATOM      3  C3  DEN d   1       2.469   1.789  -0.367  0.00  0.00     0.027 A 
ATOM      4  C4  DEN d   1       1.929  -0.052  -2.090  0.00  0.00     0.027 A 
ATOM      5  C5  DEN d   1       1.074  -1.088  -2.396  0.00  0.00    -0.003 A 
ATOM      6  C6  DEN d   1       0.040  -1.448  -1.573  0.00  0.00     0.001 A 
ATOM      7  C7  DEN d   1      -0.193  -0.738  -0.425  0.00  0.00     0.017 A 
ATOM      8  C8  DEN d   1       0.670   0.303  -0.106  0.00  0.00    -0.094 A 
ATOM      9  C9  DEN d   1       1.702   0.660  -0.958  0.00  0.00    -0.072 A 
ENDROOT
TORSDOF 0
ENDMDL
