MODEL 1
REMARK minimizedAffinity -3.49913764
REMARK minimizedRMSD -1
REMARK  0 active torsions:
REMARK  status: ('A' for Active; 'I' for Inactive)
ROOT
ATOM      1  C1  DEN d   1      -5.922   3.772  -5.981  0.00  0.00     0.130 A 
ATOM      2  C2  DEN d   1      -5.824   5.229  -5.999  0.00  0.00    -0.031 A 
ATOM      3  C3  DEN d   1      -4.394   5.592  -5.939  0.00  0.00     0.027 A 
ATOM      4  C4  DEN d   1      -2.332   4.048  -5.825  0.00  0.00     0.027 A 
ATOM      5  C5  DEN d   1      -1.912   2.737  -5.774  0.00  0.00    -0.003 A 
ATOM      6  C6  DEN d   1      -2.794   1.689  -5.754  0.00  0.00     0.001 A 
ATOM      7  C7  DEN d   1      -4.140   1.932  -5.831  0.00  0.00     0.017 A 
ATOM      8  C8  DEN d   1      -4.570   3.252  -5.875  0.00  0.00    -0.094 A 
ATOM      9  C9  DEN d   1      -3.663   4.297  -5.907  0.00  0.00    -0.072 A 
ENDROOT
TORSDOF 0
ENDMDL
