MODEL 1
REMARK minimizedAffinity 3.54303384
REMARK minimizedRMSD -1
REMARK  0 active torsions:
REMARK  status: ('A' for Active; 'I' for Inactive)
ROOT
ATOM      1  C1  DEN d   1      -4.622   2.633  -6.000  0.00  0.00     0.130 A 
ATOM      2  C2  DEN d   1      -3.451   3.504  -5.966  0.00  0.00    -0.031 A 
ATOM      3  C3  DEN d   1      -2.247   2.649  -5.951  0.00  0.00     0.027 A 
ATOM      4  C4  DEN d   1      -2.083   0.076  -5.983  0.00  0.00     0.027 A 
ATOM      5  C5  DEN d   1      -2.808  -1.095  -6.000  0.00  0.00    -0.003 A 
ATOM      6  C6  DEN d   1      -4.178  -1.106  -5.984  0.00  0.00     0.001 A 
ATOM      7  C7  DEN d   1      -4.866   0.078  -5.996  0.00  0.00     0.017 A 
ATOM      8  C8  DEN d   1      -4.142   1.263  -5.971  0.00  0.00    -0.094 A 
ATOM      9  C9  DEN d   1      -2.757   1.253  -5.999  0.00  0.00    -0.072 A 
ENDROOT
TORSDOF 0
ENDMDL
