MODEL 1
REMARK minimizedAffinity -1.08835888
REMARK minimizedRMSD -1
REMARK  0 active torsions:
REMARK  status: ('A' for Active; 'I' for Inactive)
ROOT
ATOM      1  C1  DEN d   1      -2.939   3.184  -5.962  0.00  0.00     0.130 A 
ATOM      2  C2  DEN d   1      -4.267   3.792  -5.983  0.00  0.00    -0.031 A 
ATOM      3  C3  DEN d   1      -5.267   2.706  -5.996  0.00  0.00     0.027 A 
ATOM      4  C4  DEN d   1      -4.891   0.154  -5.981  0.00  0.00     0.027 A 
ATOM      5  C5  DEN d   1      -3.938  -0.840  -5.976  0.00  0.00    -0.003 A 
ATOM      6  C6  DEN d   1      -2.596  -0.566  -6.000  0.00  0.00     0.001 A 
ATOM      7  C7  DEN d   1      -2.169   0.736  -5.985  0.00  0.00     0.017 A 
ATOM      8  C8  DEN d   1      -3.125   1.744  -5.997  0.00  0.00    -0.094 A 
ATOM      9  C9  DEN d   1      -4.476   1.446  -5.960  0.00  0.00    -0.072 A 
ENDROOT
TORSDOF 0
ENDMDL
