MODEL 1
REMARK minimizedAffinity -3.62552118
REMARK minimizedRMSD -1
REMARK  0 active torsions:
REMARK  status: ('A' for Active; 'I' for Inactive)
ROOT
ATOM      1  C1  DEN d   1       2.415   1.159  -0.773  0.00  0.00     0.130 A 
ATOM      2  C2  DEN d   1       1.916   1.502   0.556  0.00  0.00    -0.031 A 
ATOM      3  C3  DEN d   1       0.673   0.738   0.788  0.00  0.00     0.027 A 
ATOM      4  C4  DEN d   1      -0.518  -0.936  -0.771  0.00  0.00     0.027 A 
ATOM      5  C5  DEN d   1      -0.478  -1.542  -2.008  0.00  0.00    -0.003 A 
ATOM      6  C6  DEN d   1       0.502  -1.267  -2.924  0.00  0.00     0.001 A 
ATOM      7  C7  DEN d   1       1.509  -0.396  -2.601  0.00  0.00     0.017 A 
ATOM      8  C8  DEN d   1       1.471   0.225  -1.360  0.00  0.00    -0.094 A 
ATOM      9  C9  DEN d   1       0.479  -0.075  -0.442  0.00  0.00    -0.072 A 
ENDROOT
TORSDOF 0
ENDMDL
