MODEL 1
REMARK minimizedAffinity 1.2280165
REMARK minimizedRMSD -1
REMARK  0 active torsions:
REMARK  status: ('A' for Active; 'I' for Inactive)
ROOT
ATOM      1  C1  DEN d   1      -4.305   0.381  -5.981  0.00  0.00     0.130 A 
ATOM      2  C2  DEN d   1      -2.895   0.003  -5.999  0.00  0.00    -0.031 A 
ATOM      3  C3  DEN d   1      -2.090   1.241  -5.992  0.00  0.00     0.027 A 
ATOM      4  C4  DEN d   1      -2.886   3.694  -5.951  0.00  0.00     0.027 A 
ATOM      5  C5  DEN d   1      -3.992   4.515  -5.942  0.00  0.00    -0.003 A 
ATOM      6  C6  DEN d   1      -5.269   4.021  -5.980  0.00  0.00     0.001 A 
ATOM      7  C7  DEN d   1      -5.473   2.666  -5.983  0.00  0.00     0.017 A 
ATOM      8  C8  DEN d   1      -4.363   1.832  -5.999  0.00  0.00    -0.094 A 
ATOM      9  C9  DEN d   1      -3.080   2.351  -5.948  0.00  0.00    -0.072 A 
ENDROOT
TORSDOF 0
ENDMDL
