MODEL 1
REMARK minimizedAffinity 2.65817428
REMARK minimizedRMSD -1
REMARK  0 active torsions:
REMARK  status: ('A' for Active; 'I' for Inactive)
ROOT
ATOM      1  C1  DEN d   1      -0.027  -0.235   0.548  0.00  0.00     0.130 A 
ATOM      2  C2  DEN d   1      -0.765  -1.301  -0.124  0.00  0.00    -0.031 A 
ATOM      3  C3  DEN d   1      -0.247  -1.416  -1.503  0.00  0.00     0.027 A 
ATOM      4  C4  DEN d   1       1.619  -0.057  -2.654  0.00  0.00     0.027 A 
ATOM      5  C5  DEN d   1       2.529   0.964  -2.489  0.00  0.00    -0.003 A 
ATOM      6  C6  DEN d   1       2.626   1.674  -1.322  0.00  0.00     0.001 A 
ATOM      7  C7  DEN d   1       1.831   1.342  -0.257  0.00  0.00     0.017 A 
ATOM      8  C8  DEN d   1       0.906   0.319  -0.418  0.00  0.00    -0.094 A 
ATOM      9  C9  DEN d   1       0.831  -0.395  -1.602  0.00  0.00    -0.072 A 
ENDROOT
TORSDOF 0
ENDMDL
