MODEL 1
REMARK minimizedAffinity -1.02378428
REMARK minimizedRMSD -1
REMARK  0 active torsions:
REMARK  status: ('A' for Active; 'I' for Inactive)
ROOT
ATOM      1  C1  DEN d   1       2.893   1.482  -2.041  0.00  0.00     0.130 A 
ATOM      2  C2  DEN d   1       2.959   2.418  -0.921  0.00  0.00    -0.031 A 
ATOM      3  C3  DEN d   1       2.026   1.948   0.122  0.00  0.00     0.027 A 
ATOM      4  C4  DEN d   1       0.496  -0.129   0.115  0.00  0.00     0.027 A 
ATOM      5  C5  DEN d   1       0.086  -1.218  -0.621  0.00  0.00    -0.003 A 
ATOM      6  C6  DEN d   1       0.553  -1.463  -1.885  0.00  0.00     0.001 A 
ATOM      7  C7  DEN d   1       1.493  -0.632  -2.434  0.00  0.00     0.017 A 
ATOM      8  C8  DEN d   1       1.906   0.473  -1.701  0.00  0.00    -0.094 A 
ATOM      9  C9  DEN d   1       1.431   0.697  -0.420  0.00  0.00    -0.072 A 
ENDROOT
TORSDOF 0
ENDMDL
