MODEL 1
REMARK minimizedAffinity 8.79328823
REMARK minimizedRMSD -1
REMARK  0 active torsions:
REMARK  status: ('A' for Active; 'I' for Inactive)
ROOT
ATOM      1  C1  DEN d   1      -4.653   1.349   0.753  0.00  0.00     0.130 A 
ATOM      2  C2  DEN d   1      -3.375   1.708   1.362  0.00  0.00    -0.031 A 
ATOM      3  C3  DEN d   1      -2.838   0.509   2.037  0.00  0.00     0.027 A 
ATOM      4  C4  DEN d   1      -3.854  -1.856   2.192  0.00  0.00     0.027 A 
ATOM      5  C5  DEN d   1      -4.931  -2.641   1.842  0.00  0.00    -0.003 A 
ATOM      6  C6  DEN d   1      -5.997  -2.146   1.139  0.00  0.00     0.001 A 
ATOM      7  C7  DEN d   1      -5.989  -0.841   0.724  0.00  0.00     0.017 A 
ATOM      8  C8  DEN d   1      -4.911  -0.041   1.080  0.00  0.00    -0.094 A 
ATOM      9  C9  DEN d   1      -3.837  -0.563   1.781  0.00  0.00    -0.072 A 
ENDROOT
TORSDOF 0
ENDMDL
