MODEL 1
REMARK minimizedAffinity -5.82341528
REMARK minimizedRMSD -1
REMARK  1 active torsions:
REMARK  status: ('A' for Active; 'I' for Inactive)
REMARK    1  A    between atoms: C1_2  and  C2_3 
ROOT
ATOM      1  C2  UNL d   1      -1.520  -0.443  -0.096  0.00  0.00    -0.076 A 
ATOM      2  C3  UNL d   1      -2.698  -1.210  -0.091  0.00  0.00     0.004 A 
ATOM      3  C4  UNL d   1      -2.780  -2.395   0.638  0.00  0.00    -0.003 A 
ATOM      4  C5  UNL d   1      -1.685  -2.832   1.375  0.00  0.00     0.000 A 
ATOM      5  C6  UNL d   1      -0.514  -2.075   1.395  0.00  0.00     0.000 A 
ATOM      6  C7  UNL d   1      -0.420  -0.870   0.679  0.00  0.00    -0.073 A 
ATOM      7  C8  UNL d   1       0.869  -0.097   0.732  0.00  0.00     0.078 C 
ENDROOT
BRANCH   1   8
ATOM      8  C1  UNL d   1      -1.481   0.819  -0.928  0.00  0.00     0.053 C 
ATOM      9  C   UNL d   1      -1.015   0.564  -2.353  0.00  0.00     0.018 C 
ENDBRANCH   1   8
TORSDOF 1
ENDMDL
