MODEL 1
REMARK minimizedAffinity -4.99916124
REMARK minimizedRMSD -1
REMARK  1 active torsions:
REMARK  status: ('A' for Active; 'I' for Inactive)
REMARK    1  A    between atoms: C1_2  and  C2_3 
ROOT
ATOM      1  C2  UNL d   1      -0.689  -0.812   0.397  0.00  0.00    -0.076 A 
ATOM      2  C3  UNL d   1      -1.270  -0.186  -0.720  0.00  0.00     0.004 A 
ATOM      3  C4  UNL d   1      -2.488  -0.625  -1.235  0.00  0.00    -0.003 A 
ATOM      4  C5  UNL d   1      -3.147  -1.695  -0.641  0.00  0.00     0.000 A 
ATOM      5  C6  UNL d   1      -2.594  -2.316   0.479  0.00  0.00     0.000 A 
ATOM      6  C7  UNL d   1      -1.375  -1.876   1.021  0.00  0.00    -0.073 A 
ATOM      7  C8  UNL d   1      -0.822  -2.587   2.226  0.00  0.00     0.078 C 
ENDROOT
BRANCH   1   8
ATOM      8  C1  UNL d   1       0.648  -0.310   0.895  0.00  0.00     0.053 C 
ATOM      9  C   UNL d   1       1.376   0.533  -0.141  0.00  0.00     0.018 C 
ENDBRANCH   1   8
TORSDOF 1
ENDMDL
