MODEL 1
REMARK minimizedAffinity -4.50691223
REMARK minimizedRMSD -1
REMARK  1 active torsions:
REMARK  status: ('A' for Active; 'I' for Inactive)
REMARK    1  A    between atoms: C1_2  and  C2_3 
ROOT
ATOM      1  C2  UNL d   1       0.605   1.231   0.586  0.00  0.00    -0.076 A 
ATOM      2  C3  UNL d   1       0.373   2.607   0.757  0.00  0.00     0.004 A 
ATOM      3  C4  UNL d   1       1.431   3.493   0.952  0.00  0.00    -0.003 A 
ATOM      4  C5  UNL d   1       2.738   3.018   0.979  0.00  0.00     0.000 A 
ATOM      5  C6  UNL d   1       2.987   1.659   0.793  0.00  0.00     0.000 A 
ATOM      6  C7  UNL d   1       1.933   0.754   0.579  0.00  0.00    -0.073 A 
ATOM      7  C8  UNL d   1       2.259  -0.702   0.390  0.00  0.00     0.078 C 
ENDROOT
BRANCH   1   8
ATOM      8  C1  UNL d   1      -0.584   0.314   0.406  0.00  0.00     0.053 C 
ATOM      9  C   UNL d   1      -0.897   0.047  -1.058  0.00  0.00     0.018 C 
ENDBRANCH   1   8
TORSDOF 1
ENDMDL
