MODEL 1
REMARK minimizedAffinity -4.00939989
REMARK minimizedRMSD -1
REMARK  1 active torsions:
REMARK  status: ('A' for Active; 'I' for Inactive)
REMARK    1  A    between atoms: C1_2  and  C2_3 
ROOT
ATOM      1  C2  UNL d   1      -0.268  -0.090   0.010  0.00  0.00    -0.076 A 
ATOM      2  C3  UNL d   1      -1.002  -0.457   1.152  0.00  0.00     0.004 A 
ATOM      3  C4  UNL d   1      -2.382  -0.640   1.090  0.00  0.00    -0.003 A 
ATOM      4  C5  UNL d   1      -3.052  -0.459  -0.115  0.00  0.00     0.000 A 
ATOM      5  C6  UNL d   1      -2.338  -0.112  -1.262  0.00  0.00     0.000 A 
ATOM      6  C7  UNL d   1      -0.943   0.060  -1.220  0.00  0.00    -0.073 A 
ATOM      7  C8  UNL d   1      -0.224   0.440  -2.485  0.00  0.00     0.078 C 
ENDROOT
BRANCH   1   8
ATOM      8  C1  UNL d   1       1.223   0.121   0.144  0.00  0.00     0.053 C 
ATOM      9  C   UNL d   1       1.566   1.398   0.895  0.00  0.00     0.018 C 
ENDBRANCH   1   8
TORSDOF 1
ENDMDL
