MODEL 1
REMARK minimizedAffinity -3.63701057
REMARK minimizedRMSD -1
REMARK  1 active torsions:
REMARK  status: ('A' for Active; 'I' for Inactive)
REMARK    1  A    between atoms: C1_2  and  C2_3 
ROOT
ATOM      1  C2  UNL d   1      -0.889  -0.323   0.123  0.00  0.00    -0.076 A 
ATOM      2  C3  UNL d   1      -0.480   0.793  -0.626  0.00  0.00     0.004 A 
ATOM      3  C4  UNL d   1       0.838   1.244  -0.581  0.00  0.00    -0.003 A 
ATOM      4  C5  UNL d   1       1.769   0.585   0.214  0.00  0.00     0.000 A 
ATOM      5  C6  UNL d   1       1.385  -0.535   0.950  0.00  0.00     0.000 A 
ATOM      6  C7  UNL d   1       0.064  -1.012   0.904  0.00  0.00    -0.073 A 
ATOM      7  C8  UNL d   1      -0.296  -2.221   1.723  0.00  0.00     0.078 C 
ENDROOT
BRANCH   1   8
ATOM      8  C1  UNL d   1      -2.338  -0.750   0.056  0.00  0.00     0.053 C 
ATOM      9  C   UNL d   1      -2.701  -1.370  -1.285  0.00  0.00     0.018 C 
ENDBRANCH   1   8
TORSDOF 1
ENDMDL
