MODEL 1
REMARK minimizedAffinity 2.87126613
REMARK minimizedRMSD -1
REMARK  1 active torsions:
REMARK  status: ('A' for Active; 'I' for Inactive)
REMARK    1  A    between atoms: C1_2  and  C2_3 
ROOT
ATOM      1  C2  UNL d   1      -1.345  -0.004  -1.585  0.00  0.00    -0.076 A 
ATOM      2  C3  UNL d   1      -0.964   0.468  -2.853  0.00  0.00     0.004 A 
ATOM      3  C4  UNL d   1       0.377   0.514  -3.229  0.00  0.00    -0.003 A 
ATOM      4  C5  UNL d   1       1.360   0.087  -2.342  0.00  0.00     0.000 A 
ATOM      5  C6  UNL d   1       0.999  -0.401  -1.087  0.00  0.00     0.000 A 
ATOM      6  C7  UNL d   1      -0.350  -0.469  -0.699  0.00  0.00    -0.073 A 
ATOM      7  C8  UNL d   1      -0.681  -0.998   0.670  0.00  0.00     0.078 C 
ENDROOT
BRANCH   1   8
ATOM      8  C1  UNL d   1      -2.813  -0.005  -1.223  0.00  0.00     0.053 C 
ATOM      9  C   UNL d   1      -3.166   1.079  -0.217  0.00  0.00     0.018 C 
ENDBRANCH   1   8
TORSDOF 1
ENDMDL
