MODEL 1
REMARK minimizedAffinity -5.06915712
REMARK minimizedRMSD -1
REMARK  1 active torsions:
REMARK  status: ('A' for Active; 'I' for Inactive)
REMARK    1  A    between atoms: C1_2  and  C2_3 
ROOT
ATOM      1  C2  UNL d   1       0.437  -0.632  -0.084  0.00  0.00    -0.076 A 
ATOM      2  C3  UNL d   1       0.073   0.132  -1.207  0.00  0.00     0.004 A 
ATOM      3  C4  UNL d   1      -1.202   0.031  -1.761  0.00  0.00    -0.003 A 
ATOM      4  C5  UNL d   1      -2.134  -0.835  -1.200  0.00  0.00     0.000 A 
ATOM      5  C6  UNL d   1      -1.797  -1.587  -0.076  0.00  0.00     0.000 A 
ATOM      6  C7  UNL d   1      -0.521  -1.485   0.505  0.00  0.00    -0.073 A 
ATOM      7  C8  UNL d   1      -0.208  -2.324   1.714  0.00  0.00     0.078 C 
ENDROOT
BRANCH   1   8
ATOM      8  C1  UNL d   1       1.843  -0.501   0.456  0.00  0.00     0.053 C 
ATOM      9  C   UNL d   1       2.457   0.858   0.158  0.00  0.00     0.018 C 
ENDBRANCH   1   8
TORSDOF 1
ENDMDL
