MODEL 1
REMARK minimizedAffinity -6.58177853
REMARK minimizedRMSD -1
REMARK  1 active torsions:
REMARK  status: ('A' for Active; 'I' for Inactive)
REMARK    1  A    between atoms: C1_2  and  C2_3 
ROOT
ATOM      1  C2  UNL d   1      -0.733  -0.552   0.342  0.00  0.00    -0.076 A 
ATOM      2  C3  UNL d   1      -1.618   0.030  -0.583  0.00  0.00     0.004 A 
ATOM      3  C4  UNL d   1      -2.863  -0.540  -0.841  0.00  0.00    -0.003 A 
ATOM      4  C5  UNL d   1      -3.245  -1.701  -0.178  0.00  0.00     0.000 A 
ATOM      5  C6  UNL d   1      -2.388  -2.283   0.756  0.00  0.00     0.000 A 
ATOM      6  C7  UNL d   1      -1.135  -1.712   1.040  0.00  0.00    -0.073 A 
ATOM      7  C8  UNL d   1      -0.248  -2.384   2.051  0.00  0.00     0.078 C 
ENDROOT
BRANCH   1   8
ATOM      8  C1  UNL d   1       0.615   0.095   0.561  0.00  0.00     0.053 C 
ATOM      9  C   UNL d   1       1.699  -0.502  -0.323  0.00  0.00     0.018 C 
ENDBRANCH   1   8
TORSDOF 1
ENDMDL
