MODEL 1
REMARK minimizedAffinity 1.44979823
REMARK minimizedRMSD -1
REMARK  1 active torsions:
REMARK  status: ('A' for Active; 'I' for Inactive)
REMARK    1  A    between atoms: C1_2  and  C2_3 
ROOT
ATOM      1  C2  UNL d   1      -2.330  -1.143  -0.875  0.00  0.00    -0.076 A 
ATOM      2  C3  UNL d   1      -2.005  -0.040  -0.066  0.00  0.00     0.004 A 
ATOM      3  C4  UNL d   1      -1.064   0.901  -0.481  0.00  0.00    -0.003 A 
ATOM      4  C5  UNL d   1      -0.434   0.755  -1.712  0.00  0.00     0.000 A 
ATOM      5  C6  UNL d   1      -0.757  -0.323  -2.535  0.00  0.00     0.000 A 
ATOM      6  C7  UNL d   1      -1.715  -1.272  -2.139  0.00  0.00    -0.073 A 
ATOM      7  C8  UNL d   1      -2.020  -2.419  -3.063  0.00  0.00     0.078 C 
ENDROOT
BRANCH   1   8
ATOM      8  C1  UNL d   1      -3.338  -2.146  -0.361  0.00  0.00     0.053 C 
ATOM      9  C   UNL d   1      -2.679  -3.352   0.292  0.00  0.00     0.018 C 
ENDBRANCH   1   8
TORSDOF 1
ENDMDL
