MODEL 1
REMARK minimizedAffinity -5.0968399
REMARK minimizedRMSD -1
REMARK  1 active torsions:
REMARK  status: ('A' for Active; 'I' for Inactive)
REMARK    1  A    between atoms: C1_2  and  C2_3 
ROOT
ATOM      1  C2  UNL d   1      -0.059  -0.019  -0.165  0.00  0.00    -0.076 A 
ATOM      2  C3  UNL d   1      -0.673  -0.490   1.009  0.00  0.00     0.004 A 
ATOM      3  C4  UNL d   1      -2.045  -0.732   1.052  0.00  0.00    -0.003 A 
ATOM      4  C5  UNL d   1      -2.825  -0.510  -0.077  0.00  0.00     0.000 A 
ATOM      5  C6  UNL d   1      -2.229  -0.060  -1.255  0.00  0.00     0.000 A 
ATOM      6  C7  UNL d   1      -0.845   0.174  -1.321  0.00  0.00    -0.073 A 
ATOM      7  C8  UNL d   1      -0.256   0.664  -2.615  0.00  0.00     0.078 C 
ENDROOT
BRANCH   1   8
ATOM      8  C1  UNL d   1       1.429   0.252  -0.144  0.00  0.00     0.053 C 
ATOM      9  C   UNL d   1       1.820   1.275   0.911  0.00  0.00     0.018 C 
ENDBRANCH   1   8
TORSDOF 1
ENDMDL
