MODEL 1
REMARK minimizedAffinity -4.82703304
REMARK minimizedRMSD -1
REMARK  0 active torsions:
REMARK  status: ('A' for Active; 'I' for Inactive)
ROOT
ATOM      1  C1  BNZ d   1       0.782   0.763  -1.433  0.00  0.00     0.000 A 
ATOM      2  C2  BNZ d   1      -0.017   1.863  -1.266  0.00  0.00     0.000 A 
ATOM      3  C3  BNZ d   1      -1.120   1.812  -0.462  0.00  0.00     0.000 A 
ATOM      4  C4  BNZ d   1      -1.447   0.651   0.142  0.00  0.00     0.000 A 
ATOM      5  C5  BNZ d   1      -0.658  -0.469  -0.024  0.00  0.00     0.000 A 
ATOM      6  C6  BNZ d   1       0.474  -0.403  -0.803  0.00  0.00     0.000 A 
ENDROOT
TORSDOF 0
ENDMDL
