MODEL 1
REMARK minimizedAffinity -4.14845562
REMARK minimizedRMSD -1
REMARK  0 active torsions:
REMARK  status: ('A' for Active; 'I' for Inactive)
ROOT
ATOM      1  C1  BNZ d   1      -1.316   1.421  -0.417  0.00  0.00     0.000 A 
ATOM      2  C2  BNZ d   1      -0.990   0.116  -0.159  0.00  0.00     0.000 A 
ATOM      3  C3  BNZ d   1       0.187  -0.413  -0.608  0.00  0.00     0.000 A 
ATOM      4  C4  BNZ d   1       1.018   0.350  -1.348  0.00  0.00     0.000 A 
ATOM      5  C5  BNZ d   1       0.699   1.664  -1.625  0.00  0.00     0.000 A 
ATOM      6  C6  BNZ d   1      -0.469   2.205  -1.138  0.00  0.00     0.000 A 
ENDROOT
TORSDOF 0
ENDMDL
