MODEL 1
REMARK minimizedAffinity -1.72846079
REMARK minimizedRMSD -1
REMARK  0 active torsions:
REMARK  status: ('A' for Active; 'I' for Inactive)
ROOT
ATOM      1  C1  BNZ d   1       0.589  -0.519   1.593  0.00  0.00     0.000 A 
ATOM      2  C2  BNZ d   1       1.163  -0.516   0.349  0.00  0.00     0.000 A 
ATOM      3  C3  BNZ d   1       0.393  -0.419  -0.776  0.00  0.00     0.000 A 
ATOM      4  C4  BNZ d   1      -0.949  -0.366  -0.659  0.00  0.00     0.000 A 
ATOM      5  C5  BNZ d   1      -1.543  -0.378   0.587  0.00  0.00     0.000 A 
ATOM      6  C6  BNZ d   1      -0.763  -0.436   1.719  0.00  0.00     0.000 A 
ENDROOT
TORSDOF 0
ENDMDL
