MODEL 1
REMARK minimizedAffinity -2.73801708
REMARK minimizedRMSD -1
REMARK  0 active torsions:
REMARK  status: ('A' for Active; 'I' for Inactive)
ROOT
ATOM      1  C1  BNZ d   1       0.951  -2.946  -0.790  0.00  0.00     0.000 A 
ATOM      2  C2  BNZ d   1       1.129  -4.169  -1.381  0.00  0.00     0.000 A 
ATOM      3  C3  BNZ d   1       0.539  -4.459  -2.580  0.00  0.00     0.000 A 
ATOM      4  C4  BNZ d   1      -0.259  -3.542  -3.165  0.00  0.00     0.000 A 
ATOM      5  C5  BNZ d   1      -0.455  -2.308  -2.577  0.00  0.00     0.000 A 
ATOM      6  C6  BNZ d   1       0.172  -2.006  -1.390  0.00  0.00     0.000 A 
ENDROOT
TORSDOF 0
ENDMDL
