MODEL 1
REMARK minimizedAffinity -1.00284028
REMARK minimizedRMSD -1
REMARK  0 active torsions:
REMARK  status: ('A' for Active; 'I' for Inactive)
ROOT
ATOM      1  C1  BNZ d   1      -4.521  -2.200   4.195  0.00  0.00     0.000 A 
ATOM      2  C2  BNZ d   1      -3.995  -2.070   5.453  0.00  0.00     0.000 A 
ATOM      3  C3  BNZ d   1      -2.643  -2.101   5.653  0.00  0.00     0.000 A 
ATOM      4  C4  BNZ d   1      -1.822  -2.301   4.602  0.00  0.00     0.000 A 
ATOM      5  C5  BNZ d   1      -2.338  -2.443   3.329  0.00  0.00     0.000 A 
ATOM      6  C6  BNZ d   1      -3.697  -2.373   3.126  0.00  0.00     0.000 A 
ENDROOT
TORSDOF 0
ENDMDL
