MODEL 1
REMARK minimizedAffinity -2.09160852
REMARK minimizedRMSD -1
REMARK  0 active torsions:
REMARK  status: ('A' for Active; 'I' for Inactive)
ROOT
ATOM      1  C1  BNZ d   1      -2.599  -2.423   3.626  0.00  0.00     0.000 A 
ATOM      2  C2  BNZ d   1      -1.928  -2.271   4.810  0.00  0.00     0.000 A 
ATOM      3  C3  BNZ d   1      -2.602  -2.252   5.999  0.00  0.00     0.000 A 
ATOM      4  C4  BNZ d   1      -3.948  -2.346   6.000  0.00  0.00     0.000 A 
ATOM      5  C5  BNZ d   1      -4.639  -2.490   4.814  0.00  0.00     0.000 A 
ATOM      6  C6  BNZ d   1      -3.955  -2.547   3.622  0.00  0.00     0.000 A 
ENDROOT
TORSDOF 0
ENDMDL
