MODEL 1
REMARK minimizedAffinity -3.5569458
REMARK minimizedRMSD -1
REMARK  0 active torsions:
REMARK  status: ('A' for Active; 'I' for Inactive)
ROOT
ATOM      1  C1  BNZ d   1       0.930  -0.108  -0.704  0.00  0.00     0.000 A 
ATOM      2  C2  BNZ d   1       0.188   0.348   0.352  0.00  0.00     0.000 A 
ATOM      3  C3  BNZ d   1      -0.919  -0.332   0.776  0.00  0.00     0.000 A 
ATOM      4  C4  BNZ d   1      -1.305  -1.445   0.119  0.00  0.00     0.000 A 
ATOM      5  C5  BNZ d   1      -0.573  -1.912  -0.954  0.00  0.00     0.000 A 
ATOM      6  C6  BNZ d   1       0.563  -1.246  -1.354  0.00  0.00     0.000 A 
ENDROOT
TORSDOF 0
ENDMDL
