MODEL 1
REMARK minimizedAffinity -4.44687319
REMARK minimizedRMSD -1
REMARK  0 active torsions:
REMARK  status: ('A' for Active; 'I' for Inactive)
ROOT
ATOM      1  C1  BNZ d   1       0.028  -0.919   1.853  0.00  0.00     0.000 A 
ATOM      2  C2  BNZ d   1      -0.306   0.167   2.618  0.00  0.00     0.000 A 
ATOM      3  C3  BNZ d   1      -0.908   1.259   2.058  0.00  0.00     0.000 A 
ATOM      4  C4  BNZ d   1      -1.139   1.281   0.730  0.00  0.00     0.000 A 
ATOM      5  C5  BNZ d   1      -0.799   0.198  -0.056  0.00  0.00     0.000 A 
ATOM      6  C6  BNZ d   1      -0.229  -0.915   0.517  0.00  0.00     0.000 A 
ENDROOT
TORSDOF 0
ENDMDL
