MODEL 1
REMARK minimizedAffinity -4.00334311
REMARK minimizedRMSD -1
REMARK  0 active torsions:
REMARK  status: ('A' for Active; 'I' for Inactive)
ROOT
ATOM      1  C1  BNZ d   1      -0.184  -0.448   1.846  0.00  0.00     0.000 A 
ATOM      2  C2  BNZ d   1       0.252  -0.727   0.578  0.00  0.00     0.000 A 
ATOM      3  C3  BNZ d   1       0.034   0.151  -0.446  0.00  0.00     0.000 A 
ATOM      4  C4  BNZ d   1      -0.653   1.288  -0.210  0.00  0.00     0.000 A 
ATOM      5  C5  BNZ d   1      -1.107   1.579   1.061  0.00  0.00     0.000 A 
ATOM      6  C6  BNZ d   1      -0.852   0.711   2.097  0.00  0.00     0.000 A 
ENDROOT
TORSDOF 0
ENDMDL
