MODEL 1
REMARK minimizedAffinity -3.01739025
REMARK minimizedRMSD -1
REMARK  0 active torsions:
REMARK  status: ('A' for Active; 'I' for Inactive)
ROOT
ATOM      1  C1  BNZ d   1      -0.176  -0.517  -0.610  0.00  0.00     0.000 A 
ATOM      2  C2  BNZ d   1       0.285  -0.668   0.670  0.00  0.00     0.000 A 
ATOM      3  C3  BNZ d   1      -0.145   0.157   1.672  0.00  0.00     0.000 A 
ATOM      4  C4  BNZ d   1      -1.004   1.156   1.384  0.00  0.00     0.000 A 
ATOM      5  C5  BNZ d   1      -1.471   1.327   0.097  0.00  0.00     0.000 A 
ATOM      6  C6  BNZ d   1      -1.066   0.471  -0.901  0.00  0.00     0.000 A 
ENDROOT
TORSDOF 0
ENDMDL
