MODEL 1
REMARK minimizedAffinity -3.91735148
REMARK minimizedRMSD -1
REMARK  0 active torsions:
REMARK  status: ('A' for Active; 'I' for Inactive)
ROOT
ATOM      1  C1  BNZ d   1      -0.684   1.098  -0.142  0.00  0.00     0.000 A 
ATOM      2  C2  BNZ d   1       0.147   0.047  -0.424  0.00  0.00     0.000 A 
ATOM      3  C3  BNZ d   1       0.674  -0.717   0.580  0.00  0.00     0.000 A 
ATOM      4  C4  BNZ d   1       0.401  -0.405   1.863  0.00  0.00     0.000 A 
ATOM      5  C5  BNZ d   1      -0.427   0.657   2.164  0.00  0.00     0.000 A 
ATOM      6  C6  BNZ d   1      -0.987   1.400   1.150  0.00  0.00     0.000 A 
ENDROOT
TORSDOF 0
ENDMDL
