MODEL 1
REMARK minimizedAffinity -2.66576529
REMARK minimizedRMSD -1
REMARK  0 active torsions:
REMARK  status: ('A' for Active; 'I' for Inactive)
ROOT
ATOM      1  C1  BNZ d   1      -0.799   1.530   0.182  0.00  0.00     0.000 A 
ATOM      2  C2  BNZ d   1      -1.035   1.823   1.499  0.00  0.00     0.000 A 
ATOM      3  C3  BNZ d   1      -0.788   0.900   2.476  0.00  0.00     0.000 A 
ATOM      4  C4  BNZ d   1      -0.344  -0.326   2.133  0.00  0.00     0.000 A 
ATOM      5  C5  BNZ d   1      -0.110  -0.640   0.809  0.00  0.00     0.000 A 
ATOM      6  C6  BNZ d   1      -0.323   0.304  -0.168  0.00  0.00     0.000 A 
ENDROOT
TORSDOF 0
ENDMDL
