MODEL 1
REMARK minimizedAffinity -4.00004005
REMARK minimizedRMSD -1
REMARK  0 active torsions:
REMARK  status: ('A' for Active; 'I' for Inactive)
ROOT
ATOM      1  C1  BNZ d   1      -1.082  -2.347  -1.915  0.00  0.00     0.000 A 
ATOM      2  C2  BNZ d   1      -0.268  -1.505  -1.205  0.00  0.00     0.000 A 
ATOM      3  C3  BNZ d   1       0.983  -1.900  -0.821  0.00  0.00     0.000 A 
ATOM      4  C4  BNZ d   1       1.403  -3.148  -1.112  0.00  0.00     0.000 A 
ATOM      5  C5  BNZ d   1       0.590  -4.012  -1.819  0.00  0.00     0.000 A 
ATOM      6  C6  BNZ d   1      -0.654  -3.598  -2.238  0.00  0.00     0.000 A 
ENDROOT
TORSDOF 0
ENDMDL
