MODEL 1
REMARK minimizedAffinity -5.47795057
REMARK minimizedRMSD -1
REMARK  0 active torsions:
REMARK  status: ('A' for Active; 'I' for Inactive)
ROOT
ATOM      1  C   UNL d   1      -1.066  -0.023   4.730  0.00  0.00     0.077 C 
ATOM      2  C1  UNL d   1      -0.954  -0.256   3.253  0.00  0.00    -0.074 A 
ATOM      3  C2  UNL d   1      -2.084  -0.557   2.485  0.00  0.00    -0.005 A 
ATOM      4  C3  UNL d   1      -1.967  -0.762   1.111  0.00  0.00     0.006 A 
ATOM      5  C4  UNL d   1      -0.720  -0.669   0.490  0.00  0.00    -0.005 A 
ATOM      6  C5  UNL d   1       0.421  -0.368   1.241  0.00  0.00    -0.074 A 
ATOM      7  C6  UNL d   1       1.766  -0.254   0.589  0.00  0.00     0.077 C 
ATOM      8  C7  UNL d   1       0.293  -0.156   2.621  0.00  0.00    -0.001 A 
ENDROOT
TORSDOF 0
ENDMDL
