MODEL 1
REMARK minimizedAffinity -4.00872755
REMARK minimizedRMSD -1
REMARK  0 active torsions:
REMARK  status: ('A' for Active; 'I' for Inactive)
ROOT
ATOM      1  C   UNL d   1       0.599  -0.142  -0.834  0.00  0.00     0.077 C 
ATOM      2  C1  UNL d   1      -0.583  -0.046   0.085  0.00  0.00    -0.074 A 
ATOM      3  C2  UNL d   1      -1.874   0.131  -0.422  0.00  0.00    -0.005 A 
ATOM      4  C3  UNL d   1      -2.965   0.209   0.445  0.00  0.00     0.006 A 
ATOM      5  C4  UNL d   1      -2.775   0.111   1.824  0.00  0.00    -0.005 A 
ATOM      6  C5  UNL d   1      -1.491  -0.067   2.348  0.00  0.00    -0.074 A 
ATOM      7  C6  UNL d   1      -1.270  -0.183   3.827  0.00  0.00     0.077 C 
ATOM      8  C7  UNL d   1      -0.401  -0.151   1.471  0.00  0.00    -0.001 A 
ENDROOT
TORSDOF 0
ENDMDL
