MODEL 1
REMARK minimizedAffinity -2.25991464
REMARK minimizedRMSD -1
REMARK  0 active torsions:
REMARK  status: ('A' for Active; 'I' for Inactive)
ROOT
ATOM      1  C   UNL d   1       1.286  -0.532  -2.904  0.00  0.00     0.077 C 
ATOM      2  C1  UNL d   1       0.469  -0.152  -1.706  0.00  0.00    -0.074 A 
ATOM      3  C2  UNL d   1      -0.863   0.250  -1.843  0.00  0.00    -0.005 A 
ATOM      4  C3  UNL d   1      -1.614   0.592  -0.718  0.00  0.00     0.006 A 
ATOM      5  C4  UNL d   1      -1.041   0.535   0.553  0.00  0.00    -0.005 A 
ATOM      6  C5  UNL d   1       0.290   0.134   0.710  0.00  0.00    -0.074 A 
ATOM      7  C6  UNL d   1       0.918   0.058   2.069  0.00  0.00     0.077 C 
ATOM      8  C7  UNL d   1       1.035  -0.214  -0.425  0.00  0.00    -0.001 A 
ENDROOT
TORSDOF 0
ENDMDL
