MODEL 1
REMARK minimizedAffinity -5.22989798
REMARK minimizedRMSD -1
REMARK  0 active torsions:
REMARK  status: ('A' for Active; 'I' for Inactive)
ROOT
ATOM      1  C   UNL d   1      -4.131   0.872   1.706  0.00  0.00     0.077 C 
ATOM      2  C1  UNL d   1      -2.822   0.257   2.104  0.00  0.00    -0.074 A 
ATOM      3  C2  UNL d   1      -2.714  -0.512   3.267  0.00  0.00    -0.005 A 
ATOM      4  C3  UNL d   1      -1.492  -1.085   3.620  0.00  0.00     0.006 A 
ATOM      5  C4  UNL d   1      -0.369  -0.897   2.814  0.00  0.00    -0.005 A 
ATOM      6  C5  UNL d   1      -0.459  -0.132   1.646  0.00  0.00    -0.074 A 
ATOM      7  C6  UNL d   1       0.737   0.072   0.763  0.00  0.00     0.077 C 
ATOM      8  C7  UNL d   1      -1.691   0.435   1.295  0.00  0.00    -0.001 A 
ENDROOT
TORSDOF 0
ENDMDL
