MODEL 1
REMARK minimizedAffinity -3.32119203
REMARK minimizedRMSD -1
REMARK  0 active torsions:
REMARK  status: ('A' for Active; 'I' for Inactive)
ROOT
ATOM      1  C   UNL d   1       3.380   0.044  -3.587  0.00  0.00     0.077 C 
ATOM      2  C1  UNL d   1       2.017  -0.419  -3.167  0.00  0.00    -0.074 A 
ATOM      3  C2  UNL d   1       1.395  -1.495  -3.808  0.00  0.00    -0.005 A 
ATOM      4  C3  UNL d   1       0.130  -1.921  -3.400  0.00  0.00     0.006 A 
ATOM      5  C4  UNL d   1      -0.523  -1.275  -2.350  0.00  0.00    -0.005 A 
ATOM      6  C5  UNL d   1       0.084  -0.198  -1.697  0.00  0.00    -0.074 A 
ATOM      7  C6  UNL d   1      -0.601   0.500  -0.560  0.00  0.00     0.077 C 
ATOM      8  C7  UNL d   1       1.357   0.219  -2.108  0.00  0.00    -0.001 A 
ENDROOT
TORSDOF 0
ENDMDL
