MODEL 1
REMARK minimizedAffinity -1.93491495
REMARK minimizedRMSD -1
REMARK  0 active torsions:
REMARK  status: ('A' for Active; 'I' for Inactive)
ROOT
ATOM      1  C   UNL d   1      -2.832   1.112   1.970  0.00  0.00     0.077 C 
ATOM      2  C1  UNL d   1      -1.430   0.715   1.617  0.00  0.00    -0.074 A 
ATOM      3  C2  UNL d   1      -0.450   0.581   2.606  0.00  0.00    -0.005 A 
ATOM      4  C3  UNL d   1       0.848   0.201   2.264  0.00  0.00     0.006 A 
ATOM      5  C4  UNL d   1       1.179  -0.047   0.931  0.00  0.00    -0.005 A 
ATOM      6  C5  UNL d   1       0.212   0.081  -0.071  0.00  0.00    -0.074 A 
ATOM      7  C6  UNL d   1       0.549  -0.193  -1.507  0.00  0.00     0.077 C 
ATOM      8  C7  UNL d   1      -1.091   0.456   0.281  0.00  0.00    -0.001 A 
ENDROOT
TORSDOF 0
ENDMDL
