MODEL 1
REMARK minimizedAffinity -2.76211429
REMARK minimizedRMSD -1
REMARK  0 active torsions:
REMARK  status: ('A' for Active; 'I' for Inactive)
ROOT
ATOM      1  C   UNL d   1       1.056  -1.632  -3.066  0.00  0.00     0.077 C 
ATOM      2  C1  UNL d   1       0.665  -0.690  -1.967  0.00  0.00    -0.074 A 
ATOM      3  C2  UNL d   1      -0.112   0.442  -2.232  0.00  0.00    -0.005 A 
ATOM      4  C3  UNL d   1      -0.475   1.304  -1.198  0.00  0.00     0.006 A 
ATOM      5  C4  UNL d   1      -0.066   1.044   0.110  0.00  0.00    -0.005 A 
ATOM      6  C5  UNL d   1       0.711  -0.083   0.395  0.00  0.00    -0.074 A 
ATOM      7  C6  UNL d   1       1.150  -0.383   1.798  0.00  0.00     0.077 C 
ATOM      8  C7  UNL d   1       1.066  -0.949  -0.648  0.00  0.00    -0.001 A 
ENDROOT
TORSDOF 0
ENDMDL
