MODEL 1
REMARK minimizedAffinity -2.3406601
REMARK minimizedRMSD -1
REMARK  0 active torsions:
REMARK  status: ('A' for Active; 'I' for Inactive)
ROOT
ATOM      1  C   UNL d   1       1.996   0.687   0.914  0.00  0.00     0.077 C 
ATOM      2  C1  UNL d   1       0.510   0.598   1.090  0.00  0.00    -0.074 A 
ATOM      3  C2  UNL d   1      -0.057   0.460   2.361  0.00  0.00    -0.005 A 
ATOM      4  C3  UNL d   1      -1.442   0.388   2.510  0.00  0.00     0.006 A 
ATOM      5  C4  UNL d   1      -2.273   0.452   1.392  0.00  0.00    -0.005 A 
ATOM      6  C5  UNL d   1      -1.725   0.591   0.113  0.00  0.00    -0.074 A 
ATOM      7  C6  UNL d   1      -2.605   0.672  -1.100  0.00  0.00     0.077 C 
ATOM      8  C7  UNL d   1      -0.333   0.670  -0.028  0.00  0.00    -0.001 A 
ENDROOT
TORSDOF 0
ENDMDL
