MODEL 1
REMARK minimizedAffinity 1.63527834
REMARK minimizedRMSD -1
REMARK  0 active torsions:
REMARK  status: ('A' for Active; 'I' for Inactive)
ROOT
ATOM      1  C   UNL d   1      -2.643   0.430  -0.590  0.00  0.00     0.077 C 
ATOM      2  C1  UNL d   1      -1.170   0.479  -0.316  0.00  0.00    -0.074 A 
ATOM      3  C2  UNL d   1      -0.244   0.513  -1.364  0.00  0.00    -0.005 A 
ATOM      4  C3  UNL d   1       1.123   0.568  -1.093  0.00  0.00     0.006 A 
ATOM      5  C4  UNL d   1       1.578   0.590   0.226  0.00  0.00    -0.005 A 
ATOM      6  C5  UNL d   1       0.667   0.558   1.287  0.00  0.00    -0.074 A 
ATOM      7  C6  UNL d   1       1.139   0.591   2.710  0.00  0.00     0.077 C 
ATOM      8  C7  UNL d   1      -0.705   0.509   1.007  0.00  0.00    -0.001 A 
ENDROOT
TORSDOF 0
ENDMDL
