MODEL 1
REMARK minimizedAffinity -5.94643497
REMARK minimizedRMSD -1
REMARK  0 active torsions:
REMARK  status: ('A' for Active; 'I' for Inactive)
ROOT
ATOM      1  C   UNL d   1      -1.812  -0.788   3.401  0.00  0.00     0.077 C 
ATOM      2  C1  UNL d   1      -1.079  -0.350   2.169  0.00  0.00    -0.074 A 
ATOM      3  C2  UNL d   1       0.307  -0.158   2.186  0.00  0.00    -0.005 A 
ATOM      4  C3  UNL d   1       0.976   0.241   1.030  0.00  0.00     0.006 A 
ATOM      5  C4  UNL d   1       0.269   0.452  -0.155  0.00  0.00    -0.005 A 
ATOM      6  C5  UNL d   1      -1.117   0.264  -0.191  0.00  0.00    -0.074 A 
ATOM      7  C6  UNL d   1      -1.891   0.477  -1.458  0.00  0.00     0.077 C 
ATOM      8  C7  UNL d   1      -1.781  -0.143   0.973  0.00  0.00    -0.001 A 
ENDROOT
TORSDOF 0
ENDMDL
