MODEL 1
REMARK minimizedAffinity -0.505151987
REMARK minimizedRMSD -1
REMARK  0 active torsions:
REMARK  status: ('A' for Active; 'I' for Inactive)
ROOT
ATOM      1  C   UNL d   1       1.098  -0.113   1.274  0.00  0.00     0.077 C 
ATOM      2  C1  UNL d   1       0.710  -0.116  -0.175  0.00  0.00    -0.074 A 
ATOM      3  C2  UNL d   1      -0.291   0.736  -0.653  0.00  0.00    -0.005 A 
ATOM      4  C3  UNL d   1      -0.635   0.729  -2.004  0.00  0.00     0.006 A 
ATOM      5  C4  UNL d   1       0.018  -0.129  -2.891  0.00  0.00    -0.005 A 
ATOM      6  C5  UNL d   1       1.022  -0.987  -2.432  0.00  0.00    -0.074 A 
ATOM      7  C6  UNL d   1       1.740  -1.908  -3.373  0.00  0.00     0.077 C 
ATOM      8  C7  UNL d   1       1.367  -0.969  -1.073  0.00  0.00    -0.001 A 
ENDROOT
TORSDOF 0
ENDMDL
