MODEL 1
REMARK minimizedAffinity -3.41545129
REMARK minimizedRMSD -1
REMARK  0 active torsions:
REMARK  status: ('A' for Active; 'I' for Inactive)
ROOT
ATOM      1  C   UNL d   1       1.345  -1.781  -3.823  0.00  0.00     0.077 C 
ATOM      2  C1  UNL d   1       0.550  -1.238  -2.672  0.00  0.00    -0.074 A 
ATOM      3  C2  UNL d   1      -0.753  -1.682  -2.425  0.00  0.00    -0.005 A 
ATOM      4  C3  UNL d   1      -1.476  -1.174  -1.346  0.00  0.00     0.006 A 
ATOM      5  C4  UNL d   1      -0.905  -0.219  -0.505  0.00  0.00    -0.005 A 
ATOM      6  C5  UNL d   1       0.397   0.236  -0.736  0.00  0.00    -0.074 A 
ATOM      7  C6  UNL d   1       1.030   1.256   0.165  0.00  0.00     0.077 C 
ATOM      8  C7  UNL d   1       1.120  -0.284  -1.818  0.00  0.00    -0.001 A 
ENDROOT
TORSDOF 0
ENDMDL
