MODEL 1
REMARK minimizedAffinity -4.55210829
REMARK minimizedRMSD -1
REMARK  0 active torsions:
REMARK  status: ('A' for Active; 'I' for Inactive)
ROOT
ATOM      1  C   UNL d   1       0.679   0.543  -1.557  0.00  0.00     0.077 C 
ATOM      2  C1  UNL d   1      -0.367   0.297  -0.510  0.00  0.00    -0.074 A 
ATOM      3  C2  UNL d   1      -1.711   0.598  -0.752  0.00  0.00    -0.005 A 
ATOM      4  C3  UNL d   1      -2.674   0.355   0.227  0.00  0.00     0.006 A 
ATOM      5  C4  UNL d   1      -2.303  -0.191   1.457  0.00  0.00    -0.005 A 
ATOM      6  C5  UNL d   1      -0.964  -0.499   1.717  0.00  0.00    -0.074 A 
ATOM      7  C6  UNL d   1      -0.549  -1.095   3.029  0.00  0.00     0.077 C 
ATOM      8  C7  UNL d   1      -0.003  -0.258   0.724  0.00  0.00    -0.001 A 
ENDROOT
TORSDOF 0
ENDMDL
