MODEL 1
REMARK minimizedAffinity -4.47231245
REMARK minimizedRMSD -1
REMARK  0 active torsions:
REMARK  status: ('A' for Active; 'I' for Inactive)
ROOT
ATOM      1  C   UNL d   1      -2.955   1.003   2.104  0.00  0.00     0.077 C 
ATOM      2  C1  UNL d   1      -1.565   0.669   1.648  0.00  0.00    -0.074 A 
ATOM      3  C2  UNL d   1      -0.590   0.250   2.559  0.00  0.00    -0.005 A 
ATOM      4  C3  UNL d   1       0.695  -0.065   2.118  0.00  0.00     0.006 A 
ATOM      5  C4  UNL d   1       1.017   0.034   0.764  0.00  0.00    -0.005 A 
ATOM      6  C5  UNL d   1       0.055   0.451  -0.162  0.00  0.00    -0.074 A 
ATOM      7  C6  UNL d   1       0.383   0.554  -1.622  0.00  0.00     0.077 C 
ATOM      8  C7  UNL d   1      -1.236   0.759   0.288  0.00  0.00    -0.001 A 
ENDROOT
TORSDOF 0
ENDMDL
