MODEL 1
REMARK minimizedAffinity -4.82485437
REMARK minimizedRMSD -1
REMARK  0 active torsions:
REMARK  status: ('A' for Active; 'I' for Inactive)
ROOT
ATOM      1  C   UNL d   1       0.791   0.074  -1.738  0.00  0.00     0.077 C 
ATOM      2  C1  UNL d   1       0.383   0.218  -0.302  0.00  0.00    -0.074 A 
ATOM      3  C2  UNL d   1       1.309   0.032   0.730  0.00  0.00    -0.005 A 
ATOM      4  C3  UNL d   1       0.917   0.179   2.061  0.00  0.00     0.006 A 
ATOM      5  C4  UNL d   1      -0.401   0.514   2.372  0.00  0.00    -0.005 A 
ATOM      6  C5  UNL d   1      -1.340   0.705   1.354  0.00  0.00    -0.074 A 
ATOM      7  C6  UNL d   1      -2.759   1.075   1.671  0.00  0.00     0.077 C 
ATOM      8  C7  UNL d   1      -0.937   0.562   0.019  0.00  0.00    -0.001 A 
ENDROOT
TORSDOF 0
ENDMDL
