MODEL 1
REMARK minimizedAffinity 0.0177183207
REMARK minimizedRMSD -1
REMARK  0 active torsions:
REMARK  status: ('A' for Active; 'I' for Inactive)
ROOT
ATOM      1  C   UNL d   1      -2.672   0.690   1.765  0.00  0.00     0.077 C 
ATOM      2  C1  UNL d   1      -1.230   0.538   1.382  0.00  0.00    -0.074 A 
ATOM      3  C2  UNL d   1      -0.225   0.519   2.355  0.00  0.00    -0.005 A 
ATOM      4  C3  UNL d   1       1.111   0.368   1.984  0.00  0.00     0.006 A 
ATOM      5  C4  UNL d   1       1.456   0.235   0.638  0.00  0.00    -0.005 A 
ATOM      6  C5  UNL d   1       0.465   0.250  -0.349  0.00  0.00    -0.074 A 
ATOM      7  C6  UNL d   1       0.817   0.098  -1.799  0.00  0.00     0.077 C 
ATOM      8  C7  UNL d   1      -0.876   0.396   0.032  0.00  0.00    -0.001 A 
ENDROOT
TORSDOF 0
ENDMDL
