MODEL 1
REMARK minimizedAffinity -3.22779584
REMARK minimizedRMSD -1
REMARK  1 active torsions:
REMARK  status: ('A' for Active; 'I' for Inactive)
REMARK    1  A    between atoms: N_2  and  C1_3 
ROOT
ATOM      1  C1  UNL d   1      -0.986  -0.960   0.708  0.00  0.00     0.143 A 
ATOM      2  C2  UNL d   1      -1.814   0.089   1.121  0.00  0.00    -0.057 A 
ATOM      3  C3  UNL d   1      -1.393   1.422   1.038  0.00  0.00     0.033 A 
ATOM      4  C4  UNL d   1      -0.120   1.728   0.567  0.00  0.00    -0.042 A 
ATOM      5  C5  UNL d   1       0.729   0.699   0.174  0.00  0.00     0.033 A 
ATOM      6  C6  UNL d   1       0.300  -0.629   0.253  0.00  0.00    -0.057 A 
ENDROOT
BRANCH   1   7
ATOM      7  N   UNL d   1      -1.309  -2.311   0.858  0.00  0.00    -0.732 N 
ATOM      8  C   UNL d   1      -2.281  -2.731   1.844  0.00  0.00     0.284 C 
ATOM      9  H3  UNL d   1      -1.387  -2.793  -0.035  0.00  0.00     0.395 HD
ENDBRANCH   1   7
TORSDOF 1
ENDMDL
