MODEL 1
REMARK minimizedAffinity -4.79810858
REMARK minimizedRMSD -1
REMARK  1 active torsions:
REMARK  status: ('A' for Active; 'I' for Inactive)
REMARK    1  A    between atoms: N_2  and  C1_3 
ROOT
ATOM      1  C1  UNL d   1       0.318  -0.150  -0.051  0.00  0.00     0.143 A 
ATOM      2  C2  UNL d   1       0.806  -1.451   0.112  0.00  0.00    -0.057 A 
ATOM      3  C3  UNL d   1       0.114  -2.395   0.881  0.00  0.00     0.033 A 
ATOM      4  C4  UNL d   1      -1.067  -2.045   1.527  0.00  0.00    -0.042 A 
ATOM      5  C5  UNL d   1      -1.557  -0.750   1.400  0.00  0.00     0.033 A 
ATOM      6  C6  UNL d   1      -0.866   0.186   0.625  0.00  0.00    -0.057 A 
ENDROOT
BRANCH   1   7
ATOM      7  N   UNL d   1       1.009   0.861  -0.721  0.00  0.00    -0.732 N 
ATOM      8  C   UNL d   1       0.459   1.462  -1.917  0.00  0.00     0.284 C 
ATOM      9  H3  UNL d   1       1.440   1.526  -0.083  0.00  0.00     0.395 HD
ENDBRANCH   1   7
TORSDOF 1
ENDMDL
