MODEL 1
REMARK minimizedAffinity -3.88422775
REMARK minimizedRMSD -1
REMARK  1 active torsions:
REMARK  status: ('A' for Active; 'I' for Inactive)
REMARK    1  A    between atoms: N_2  and  C1_3 
ROOT
ATOM      1  C1  UNL d   1      -0.235  -0.682   0.369  0.00  0.00     0.143 A 
ATOM      2  C2  UNL d   1       0.266  -1.713   1.171  0.00  0.00    -0.057 A 
ATOM      3  C3  UNL d   1      -0.578  -2.468   1.994  0.00  0.00     0.033 A 
ATOM      4  C4  UNL d   1      -1.938  -2.185   2.052  0.00  0.00    -0.042 A 
ATOM      5  C5  UNL d   1      -2.455  -1.148   1.282  0.00  0.00     0.033 A 
ATOM      6  C6  UNL d   1      -1.608  -0.402   0.457  0.00  0.00    -0.057 A 
ENDROOT
BRANCH   1   7
ATOM      7  N   UNL d   1       0.567   0.169  -0.396  0.00  0.00    -0.732 N 
ATOM      8  C   UNL d   1       0.597   1.591  -0.130  0.00  0.00     0.284 C 
ATOM      9  H3  UNL d   1       1.479  -0.235  -0.599  0.00  0.00     0.395 HD
ENDBRANCH   1   7
TORSDOF 1
ENDMDL
