MODEL 1
REMARK minimizedAffinity -3.70889735
REMARK minimizedRMSD -1
REMARK  1 active torsions:
REMARK  status: ('A' for Active; 'I' for Inactive)
REMARK    1  A    between atoms: N_2  and  C1_3 
ROOT
ATOM      1  C1  UNL d   1      -0.022   0.328   0.231  0.00  0.00     0.143 A 
ATOM      2  C2  UNL d   1      -1.280  -0.147   0.617  0.00  0.00    -0.057 A 
ATOM      3  C3  UNL d   1      -1.451  -1.459   1.077  0.00  0.00     0.033 A 
ATOM      4  C4  UNL d   1      -0.368  -2.330   1.131  0.00  0.00    -0.042 A 
ATOM      5  C5  UNL d   1       0.886  -1.887   0.728  0.00  0.00     0.033 A 
ATOM      6  C6  UNL d   1       1.052  -0.575   0.276  0.00  0.00    -0.057 A 
ENDROOT
BRANCH   1   7
ATOM      7  N   UNL d   1       0.195   1.590  -0.327  0.00  0.00    -0.732 N 
ATOM      8  C   UNL d   1       1.058   1.748  -1.478  0.00  0.00     0.284 C 
ATOM      9  H3  UNL d   1      -0.654   2.149  -0.364  0.00  0.00     0.395 HD
ENDBRANCH   1   7
TORSDOF 1
ENDMDL
