MODEL 1
REMARK minimizedAffinity -4.0709343
REMARK minimizedRMSD -1
REMARK  1 active torsions:
REMARK  status: ('A' for Active; 'I' for Inactive)
REMARK    1  A    between atoms: N_2  and  C1_3 
ROOT
ATOM      1  C1  UNL d   1       1.227   1.847  -1.311  0.00  0.00     0.143 A 
ATOM      2  C2  UNL d   1       2.469   1.527  -1.869  0.00  0.00    -0.057 A 
ATOM      3  C3  UNL d   1       2.733   1.744  -3.227  0.00  0.00     0.033 A 
ATOM      4  C4  UNL d   1       1.745   2.259  -4.060  0.00  0.00    -0.042 A 
ATOM      5  C5  UNL d   1       0.495   2.561  -3.532  0.00  0.00     0.033 A 
ATOM      6  C6  UNL d   1       0.240   2.349  -2.174  0.00  0.00    -0.057 A 
ENDROOT
BRANCH   1   7
ATOM      7  N   UNL d   1       0.871   1.563   0.010  0.00  0.00    -0.732 N 
ATOM      8  C   UNL d   1       0.594   0.204   0.423  0.00  0.00     0.284 C 
ATOM      9  H3  UNL d   1       1.415   2.100   0.682  0.00  0.00     0.395 HD
ENDBRANCH   1   7
TORSDOF 1
ENDMDL
