MODEL 1
REMARK minimizedAffinity -3.07146835
REMARK minimizedRMSD -1
REMARK  1 active torsions:
REMARK  status: ('A' for Active; 'I' for Inactive)
REMARK    1  A    between atoms: N_2  and  C1_3 
ROOT
ATOM      1  C1  UNL d   1       0.274   0.395   0.086  0.00  0.00     0.143 A 
ATOM      2  C2  UNL d   1       0.689  -0.937   0.187  0.00  0.00    -0.057 A 
ATOM      3  C3  UNL d   1      -0.038  -1.870   0.936  0.00  0.00     0.033 A 
ATOM      4  C4  UNL d   1      -1.183  -1.479   1.623  0.00  0.00    -0.042 A 
ATOM      5  C5  UNL d   1      -1.601  -0.154   1.557  0.00  0.00     0.033 A 
ATOM      6  C6  UNL d   1      -0.874   0.771   0.802  0.00  0.00    -0.057 A 
ENDROOT
BRANCH   1   7
ATOM      7  N   UNL d   1       1.007   1.392  -0.562  0.00  0.00    -0.732 N 
ATOM      8  C   UNL d   1       0.662   1.806  -1.905  0.00  0.00     0.284 C 
ATOM      9  H3  UNL d   1       1.253   2.159   0.060  0.00  0.00     0.395 HD
ENDBRANCH   1   7
TORSDOF 1
ENDMDL
