MODEL 1
REMARK minimizedAffinity -3.5467422
REMARK minimizedRMSD -1
REMARK  1 active torsions:
REMARK  status: ('A' for Active; 'I' for Inactive)
REMARK    1  A    between atoms: N_2  and  C1_3 
ROOT
ATOM      1  C1  UNL d   1       0.555   0.368  -0.594  0.00  0.00     0.143 A 
ATOM      2  C2  UNL d   1      -0.642   0.163   0.101  0.00  0.00    -0.057 A 
ATOM      3  C3  UNL d   1      -0.875  -1.019   0.814  0.00  0.00     0.033 A 
ATOM      4  C4  UNL d   1       0.078  -2.033   0.821  0.00  0.00    -0.042 A 
ATOM      5  C5  UNL d   1       1.264  -1.861   0.117  0.00  0.00     0.033 A 
ATOM      6  C6  UNL d   1       1.493  -0.675  -0.588  0.00  0.00    -0.057 A 
ENDROOT
BRANCH   1   7
ATOM      7  N   UNL d   1       0.805   1.480  -1.402  0.00  0.00    -0.732 N 
ATOM      8  C   UNL d   1       1.537   1.340  -2.642  0.00  0.00     0.284 C 
ATOM      9  H3  UNL d   1       0.005   2.106  -1.460  0.00  0.00     0.395 HD
ENDBRANCH   1   7
TORSDOF 1
ENDMDL
