MODEL 1
REMARK minimizedAffinity -4.39699364
REMARK minimizedRMSD -1
REMARK  1 active torsions:
REMARK  status: ('A' for Active; 'I' for Inactive)
REMARK    1  A    between atoms: N_2  and  C1_3 
ROOT
ATOM      1  C1  UNL d   1      -0.525   0.199   0.555  0.00  0.00     0.143 A 
ATOM      2  C2  UNL d   1      -0.052  -1.117   0.540  0.00  0.00    -0.057 A 
ATOM      3  C3  UNL d   1      -0.768  -2.154   1.150  0.00  0.00     0.033 A 
ATOM      4  C4  UNL d   1      -1.961  -1.886   1.813  0.00  0.00    -0.042 A 
ATOM      5  C5  UNL d   1      -2.439  -0.581   1.862  0.00  0.00     0.033 A 
ATOM      6  C6  UNL d   1      -1.722   0.449   1.245  0.00  0.00    -0.057 A 
ENDROOT
BRANCH   1   7
ATOM      7  N   UNL d   1       0.190   1.289   0.052  0.00  0.00    -0.732 N 
ATOM      8  C   UNL d   1       0.852   1.207  -1.232  0.00  0.00     0.284 C 
ATOM      9  H3  UNL d   1      -0.283   2.174   0.221  0.00  0.00     0.395 HD
ENDBRANCH   1   7
TORSDOF 1
ENDMDL
