MODEL 1
REMARK minimizedAffinity -3.66129422
REMARK minimizedRMSD -1
REMARK  1 active torsions:
REMARK  status: ('A' for Active; 'I' for Inactive)
REMARK    1  A    between atoms: N_2  and  C1_3 
ROOT
ATOM      1  C1  UNL d   1      -0.178  -0.672   0.225  0.00  0.00     0.143 A 
ATOM      2  C2  UNL d   1       0.090  -2.038   0.359  0.00  0.00    -0.057 A 
ATOM      3  C3  UNL d   1      -0.732  -2.867   1.132  0.00  0.00     0.033 A 
ATOM      4  C4  UNL d   1      -1.825  -2.336   1.810  0.00  0.00    -0.042 A 
ATOM      5  C5  UNL d   1      -2.096  -0.976   1.711  0.00  0.00     0.033 A 
ATOM      6  C6  UNL d   1      -1.274  -0.155   0.933  0.00  0.00    -0.057 A 
ENDROOT
BRANCH   1   7
ATOM      7  N   UNL d   1       0.658   0.222  -0.448  0.00  0.00    -0.732 N 
ATOM      8  C   UNL d   1       0.285   1.613  -0.594  0.00  0.00     0.284 C 
ATOM      9  H3  UNL d   1       1.641   0.076  -0.228  0.00  0.00     0.395 HD
ENDBRANCH   1   7
TORSDOF 1
ENDMDL
