MODEL 1
REMARK minimizedAffinity -2.23351336
REMARK minimizedRMSD -1
REMARK  0 active torsions:
REMARK  status: ('A' for Active; 'I' for Inactive)
ROOT
ATOM      1  C   UNL d   1       2.183   0.340  -1.849  0.00  0.00     0.023 A 
ATOM      2  C1  UNL d   1       1.549   1.493  -1.387  0.00  0.00     0.003 A 
ATOM      3  C2  UNL d   1       0.513   1.396  -0.456  0.00  0.00     0.048 A 
ATOM      4  C3  UNL d   1       0.117   0.142   0.010  0.00  0.00     0.023 A 
ATOM      5  C4  UNL d   1       0.750  -1.014  -0.449  0.00  0.00     0.048 A 
ATOM      6  C5  UNL d   1       1.785  -0.912  -1.380  0.00  0.00     0.003 A 
ATOM      7  I   UNL d   1      -1.424  -0.005   1.397  0.00  0.00    -0.146 I 
ENDROOT
TORSDOF 0
ENDMDL
