MODEL 1
REMARK minimizedAffinity -2.1405592
REMARK minimizedRMSD -1
REMARK  0 active torsions:
REMARK  status: ('A' for Active; 'I' for Inactive)
ROOT
ATOM      1  C   UNL d   1      -3.752   0.087   1.728  0.00  0.00     0.023 A 
ATOM      2  C1  UNL d   1      -2.774  -0.133   2.698  0.00  0.00     0.003 A 
ATOM      3  C2  UNL d   1      -2.524   0.838   3.671  0.00  0.00     0.048 A 
ATOM      4  C3  UNL d   1      -3.256   2.025   3.667  0.00  0.00     0.023 A 
ATOM      5  C4  UNL d   1      -4.236   2.248   2.699  0.00  0.00     0.048 A 
ATOM      6  C5  UNL d   1      -4.482   1.275   1.728  0.00  0.00     0.003 A 
ATOM      7  I   UNL d   1      -2.885   3.470   5.114  0.00  0.00    -0.146 I 
ENDROOT
TORSDOF 0
ENDMDL
