MODEL 1
REMARK minimizedAffinity -4.35861588
REMARK minimizedRMSD -1
REMARK  0 active torsions:
REMARK  status: ('A' for Active; 'I' for Inactive)
ROOT
ATOM      1  C   UNL d   1       1.837   0.384  -2.616  0.00  0.00     0.023 A 
ATOM      2  C1  UNL d   1       2.003   1.254  -1.539  0.00  0.00     0.003 A 
ATOM      3  C2  UNL d   1       1.191   1.133  -0.410  0.00  0.00     0.048 A 
ATOM      4  C3  UNL d   1       0.214   0.139  -0.364  0.00  0.00     0.023 A 
ATOM      5  C4  UNL d   1       0.045  -0.735  -1.439  0.00  0.00     0.048 A 
ATOM      6  C5  UNL d   1       0.859  -0.610  -2.566  0.00  0.00     0.003 A 
ATOM      7  I   UNL d   1      -0.996  -0.044   1.316  0.00  0.00    -0.146 I 
ENDROOT
TORSDOF 0
ENDMDL
