MODEL 1
REMARK minimizedAffinity -0.651232004
REMARK minimizedRMSD -1
REMARK  0 active torsions:
REMARK  status: ('A' for Active; 'I' for Inactive)
ROOT
ATOM      1  C   UNL d   1       2.188   0.023  -1.721  0.00  0.00     0.023 A 
ATOM      2  C1  UNL d   1       1.062  -0.795  -1.818  0.00  0.00     0.003 A 
ATOM      3  C2  UNL d   1      -0.013  -0.614  -0.946  0.00  0.00     0.048 A 
ATOM      4  C3  UNL d   1       0.044   0.389   0.021  0.00  0.00     0.023 A 
ATOM      5  C4  UNL d   1       1.167   1.211   0.122  0.00  0.00     0.048 A 
ATOM      6  C5  UNL d   1       2.240   1.025  -0.752  0.00  0.00     0.003 A 
ATOM      7  I   UNL d   1      -1.555   0.662   1.321  0.00  0.00    -0.146 I 
ENDROOT
TORSDOF 0
ENDMDL
