MODEL 1
REMARK minimizedAffinity -2.38275886
REMARK minimizedRMSD -1
REMARK  0 active torsions:
REMARK  status: ('A' for Active; 'I' for Inactive)
ROOT
ATOM      1  C   UNL d   1      -1.920   0.385   1.213  0.00  0.00     0.023 A 
ATOM      2  C1  UNL d   1      -1.930   1.228   0.101  0.00  0.00     0.003 A 
ATOM      3  C2  UNL d   1      -0.751   1.466  -0.608  0.00  0.00     0.048 A 
ATOM      4  C3  UNL d   1       0.435   0.857  -0.200  0.00  0.00     0.023 A 
ATOM      5  C4  UNL d   1       0.451   0.012   0.911  0.00  0.00     0.048 A 
ATOM      6  C5  UNL d   1      -0.731  -0.222   1.617  0.00  0.00     0.003 A 
ATOM      7  I   UNL d   1       2.192   1.209  -1.254  0.00  0.00    -0.146 I 
ENDROOT
TORSDOF 0
ENDMDL
