MODEL 1
REMARK minimizedAffinity -2.92875051
REMARK minimizedRMSD -1
REMARK  0 active torsions:
REMARK  status: ('A' for Active; 'I' for Inactive)
ROOT
ATOM      1  C   UNL d   1      -0.135  -1.979   0.018  0.00  0.00     0.023 A 
ATOM      2  C1  UNL d   1      -0.146  -1.253   1.209  0.00  0.00     0.003 A 
ATOM      3  C2  UNL d   1       0.228   0.092   1.213  0.00  0.00     0.048 A 
ATOM      4  C3  UNL d   1       0.611   0.706   0.021  0.00  0.00     0.023 A 
ATOM      5  C4  UNL d   1       0.622  -0.015  -1.174  0.00  0.00     0.048 A 
ATOM      6  C5  UNL d   1       0.248  -1.360  -1.173  0.00  0.00     0.003 A 
ATOM      7  I   UNL d   1       1.168   2.709   0.023  0.00  0.00    -0.146 I 
ENDROOT
TORSDOF 0
ENDMDL
