MODEL 1
REMARK minimizedAffinity -5.72089052
REMARK minimizedRMSD -1
REMARK  0 active torsions:
REMARK  status: ('A' for Active; 'I' for Inactive)
ROOT
ATOM      1  C   UNL d   1       1.910  -0.801  -2.992  0.00  0.00     0.023 A 
ATOM      2  C1  UNL d   1       1.614   0.463  -2.481  0.00  0.00     0.003 A 
ATOM      3  C2  UNL d   1       1.025   0.588  -1.221  0.00  0.00     0.048 A 
ATOM      4  C3  UNL d   1       0.736  -0.555  -0.476  0.00  0.00     0.023 A 
ATOM      5  C4  UNL d   1       1.031  -1.821  -0.983  0.00  0.00     0.048 A 
ATOM      6  C5  UNL d   1       1.619  -1.942  -2.243  0.00  0.00     0.003 A 
ATOM      7  I   UNL d   1      -0.140  -0.370   1.399  0.00  0.00    -0.146 I 
ENDROOT
TORSDOF 0
ENDMDL
