MODEL 1
REMARK minimizedAffinity 0.228006229
REMARK minimizedRMSD -1
REMARK  0 active torsions:
REMARK  status: ('A' for Active; 'I' for Inactive)
ROOT
ATOM      1  C   UNL d   1       2.240   2.119  -0.869  0.00  0.00     0.023 A 
ATOM      2  C1  UNL d   1       2.725   0.985  -1.522  0.00  0.00     0.003 A 
ATOM      3  C2  UNL d   1       2.174  -0.269  -1.249  0.00  0.00     0.048 A 
ATOM      4  C3  UNL d   1       1.137  -0.381  -0.323  0.00  0.00     0.023 A 
ATOM      5  C4  UNL d   1       0.648   0.751   0.331  0.00  0.00     0.048 A 
ATOM      6  C5  UNL d   1       1.203   2.002   0.056  0.00  0.00     0.003 A 
ATOM      7  I   UNL d   1       0.315  -2.246   0.084  0.00  0.00    -0.146 I 
ENDROOT
TORSDOF 0
ENDMDL
