MODEL 1
REMARK minimizedAffinity -2.79041171
REMARK minimizedRMSD -1
REMARK  0 active torsions:
REMARK  status: ('A' for Active; 'I' for Inactive)
ROOT
ATOM      1  C   UNL d   1       2.377   0.110  -1.604  0.00  0.00     0.023 A 
ATOM      2  C1  UNL d   1       1.729  -1.031  -1.130  0.00  0.00     0.003 A 
ATOM      3  C2  UNL d   1       0.638  -0.908  -0.268  0.00  0.00     0.048 A 
ATOM      4  C3  UNL d   1       0.199   0.359   0.116  0.00  0.00     0.023 A 
ATOM      5  C4  UNL d   1       0.844   1.503  -0.356  0.00  0.00     0.048 A 
ATOM      6  C5  UNL d   1       1.935   1.375  -1.217  0.00  0.00     0.003 A 
ATOM      7  I   UNL d   1      -1.425   0.544   1.399  0.00  0.00    -0.146 I 
ENDROOT
TORSDOF 0
ENDMDL
