MODEL 1
REMARK minimizedAffinity -2.14429379
REMARK minimizedRMSD -1
REMARK  0 active torsions:
REMARK  status: ('A' for Active; 'I' for Inactive)
ROOT
ATOM      1  C   UNL d   1       2.345   0.360  -1.895  0.00  0.00     0.023 A 
ATOM      2  C1  UNL d   1       1.767   1.568  -1.505  0.00  0.00     0.003 A 
ATOM      3  C2  UNL d   1       0.663   1.571  -0.650  0.00  0.00     0.048 A 
ATOM      4  C3  UNL d   1       0.142   0.362  -0.189  0.00  0.00     0.023 A 
ATOM      5  C4  UNL d   1       0.718  -0.849  -0.577  0.00  0.00     0.048 A 
ATOM      6  C5  UNL d   1       1.821  -0.847  -1.432  0.00  0.00     0.003 A 
ATOM      7  I   UNL d   1      -1.501   0.364   1.083  0.00  0.00    -0.146 I 
ENDROOT
TORSDOF 0
ENDMDL
