MODEL 1
REMARK minimizedAffinity -3.62094259
REMARK minimizedRMSD -1
REMARK  0 active torsions:
REMARK  status: ('A' for Active; 'I' for Inactive)
ROOT
ATOM      1  C   UNL d   1       2.277   0.178  -1.852  0.00  0.00     0.023 A 
ATOM      2  C1  UNL d   1       1.566   1.332  -1.521  0.00  0.00     0.003 A 
ATOM      3  C2  UNL d   1       0.493   1.261  -0.630  0.00  0.00     0.048 A 
ATOM      4  C3  UNL d   1       0.136   0.033  -0.074  0.00  0.00     0.023 A 
ATOM      5  C4  UNL d   1       0.845  -1.124  -0.402  0.00  0.00     0.048 A 
ATOM      6  C5  UNL d   1       1.917  -1.048  -1.293  0.00  0.00     0.003 A 
ATOM      7  I   UNL d   1      -1.460  -0.075   1.252  0.00  0.00    -0.146 I 
ENDROOT
TORSDOF 0
ENDMDL
