MODEL 1
REMARK minimizedAffinity -3.22715402
REMARK minimizedRMSD -1
REMARK  0 active torsions:
REMARK  status: ('A' for Active; 'I' for Inactive)
ROOT
ATOM      1  C   UNL d   1      -2.737   0.176   1.860  0.00  0.00     0.023 A 
ATOM      2  C1  UNL d   1      -1.506  -0.147   2.431  0.00  0.00     0.003 A 
ATOM      3  C2  UNL d   1      -0.351  -0.156   1.646  0.00  0.00     0.048 A 
ATOM      4  C3  UNL d   1      -0.434   0.160   0.291  0.00  0.00     0.023 A 
ATOM      5  C4  UNL d   1      -1.663   0.486  -0.285  0.00  0.00     0.048 A 
ATOM      6  C5  UNL d   1      -2.815   0.493   0.503  0.00  0.00     0.003 A 
ATOM      7  I   UNL d   1       1.284   0.148  -0.879  0.00  0.00    -0.146 I 
ENDROOT
TORSDOF 0
ENDMDL
