MODEL 1
REMARK minimizedAffinity -1.82077444
REMARK minimizedRMSD -1
REMARK  0 active torsions:
REMARK  status: ('A' for Active; 'I' for Inactive)
ROOT
ATOM      1  C   UNL d   1       2.412  -0.884  -1.409  0.00  0.00     0.023 A 
ATOM      2  C1  UNL d   1       2.184   0.434  -1.014  0.00  0.00     0.003 A 
ATOM      3  C2  UNL d   1       1.169   0.725  -0.101  0.00  0.00     0.048 A 
ATOM      4  C3  UNL d   1       0.385  -0.307   0.414  0.00  0.00     0.023 A 
ATOM      5  C4  UNL d   1       0.609  -1.628   0.022  0.00  0.00     0.048 A 
ATOM      6  C5  UNL d   1       1.625  -1.914  -0.892  0.00  0.00     0.003 A 
ATOM      7  I   UNL d   1      -1.127   0.124   1.774  0.00  0.00    -0.146 I 
ENDROOT
TORSDOF 0
ENDMDL
