MODEL 1
REMARK minimizedAffinity -1.83950865
REMARK minimizedRMSD -1
REMARK  0 active torsions:
REMARK  status: ('A' for Active; 'I' for Inactive)
ROOT
ATOM      1  C   UNL d   1       2.005   1.288  -2.572  0.00  0.00     0.023 A 
ATOM      2  C1  UNL d   1       0.742   1.848  -2.381  0.00  0.00     0.003 A 
ATOM      3  C2  UNL d   1      -0.067   1.408  -1.331  0.00  0.00     0.048 A 
ATOM      4  C3  UNL d   1       0.395   0.408  -0.475  0.00  0.00     0.023 A 
ATOM      5  C4  UNL d   1       1.659  -0.154  -0.662  0.00  0.00     0.048 A 
ATOM      6  C5  UNL d   1       2.463   0.288  -1.714  0.00  0.00     0.003 A 
ATOM      7  I   UNL d   1      -0.806  -0.248   1.089  0.00  0.00    -0.146 I 
ENDROOT
TORSDOF 0
ENDMDL
