MODEL 1
REMARK minimizedAffinity -1.35752928
REMARK minimizedRMSD -1
REMARK  0 active torsions:
REMARK  status: ('A' for Active; 'I' for Inactive)
ROOT
ATOM      1  C   UNL d   1      -3.954   1.762   1.965  0.00  0.00     0.023 A 
ATOM      2  C1  UNL d   1      -4.202   0.515   1.391  0.00  0.00     0.003 A 
ATOM      3  C2  UNL d   1      -3.175  -0.425   1.289  0.00  0.00     0.048 A 
ATOM      4  C3  UNL d   1      -1.902  -0.113   1.765  0.00  0.00     0.023 A 
ATOM      5  C4  UNL d   1      -1.649   1.133   2.341  0.00  0.00     0.048 A 
ATOM      6  C5  UNL d   1      -2.679   2.070   2.440  0.00  0.00     0.003 A 
ATOM      7  I   UNL d   1      -0.371  -1.511   1.614  0.00  0.00    -0.146 I 
ENDROOT
TORSDOF 0
ENDMDL
