MODEL 1
REMARK minimizedAffinity -3.42295742
REMARK minimizedRMSD -1
REMARK  0 active torsions:
REMARK  status: ('A' for Active; 'I' for Inactive)
ROOT
ATOM      1  C   UNL d   1      -3.704   0.002   1.753  0.00  0.00     0.023 A 
ATOM      2  C1  UNL d   1      -2.628   0.392   2.551  0.00  0.00     0.003 A 
ATOM      3  C2  UNL d   1      -1.365   0.571   1.983  0.00  0.00     0.048 A 
ATOM      4  C3  UNL d   1      -1.185   0.359   0.616  0.00  0.00     0.023 A 
ATOM      5  C4  UNL d   1      -2.259  -0.031  -0.186  0.00  0.00     0.048 A 
ATOM      6  C5  UNL d   1      -3.520  -0.210   0.387  0.00  0.00     0.003 A 
ATOM      7  I   UNL d   1       0.694   0.625  -0.231  0.00  0.00    -0.146 I 
ENDROOT
TORSDOF 0
ENDMDL
