MODEL 1
REMARK minimizedAffinity -2.61082458
REMARK minimizedRMSD -1
REMARK  0 active torsions:
REMARK  status: ('A' for Active; 'I' for Inactive)
ROOT
ATOM      1  N1  IND d   1       0.991  -1.382  -0.690  0.00  0.00    -0.196 N 
ATOM      2  C2  IND d   1       0.138  -0.327  -0.525  0.00  0.00     0.054 A 
ATOM      3  C3  IND d   1      -0.372  -0.326   0.727  0.00  0.00    -0.031 A 
ATOM      4  C4  IND d   1       0.134  -1.899   2.700  0.00  0.00     0.051 A 
ATOM      5  C5  IND d   1       0.821  -3.036   3.023  0.00  0.00    -0.031 A 
ATOM      6  C6  IND d   1       1.619  -3.690   2.107  0.00  0.00     0.015 A 
ATOM      7  C7  IND d   1       1.768  -3.225   0.831  0.00  0.00    -0.016 A 
ATOM      8  C8  IND d   1       1.066  -2.075   0.498  0.00  0.00    -0.047 A 
ATOM      9  C9  IND d   1       0.222  -1.430   1.411  0.00  0.00    -0.096 A 
ATOM     10  HN1 IND d   1       1.411  -1.579  -1.414  0.00  0.00     0.298 HD
ENDROOT
TORSDOF 0
ENDMDL
