MODEL 1
REMARK minimizedAffinity -5.11638212
REMARK minimizedRMSD -1
REMARK  0 active torsions:
REMARK  status: ('A' for Active; 'I' for Inactive)
ROOT
ATOM      1  N1  IND d   1       2.529  -3.138  -0.476  0.00  0.00    -0.196 N 
ATOM      2  C2  IND d   1       3.260  -3.825   0.452  0.00  0.00     0.054 A 
ATOM      3  C3  IND d   1       2.885  -3.471   1.702  0.00  0.00    -0.031 A 
ATOM      4  C4  IND d   1       1.024  -1.861   2.457  0.00  0.00     0.051 A 
ATOM      5  C5  IND d   1       0.108  -0.970   1.972  0.00  0.00    -0.031 A 
ATOM      6  C6  IND d   1      -0.053  -0.754   0.618  0.00  0.00     0.015 A 
ATOM      7  C7  IND d   1       0.692  -1.432  -0.305  0.00  0.00    -0.016 A 
ATOM      8  C8  IND d   1       1.628  -2.332   0.184  0.00  0.00    -0.047 A 
ATOM      9  C9  IND d   1       1.825  -2.525   1.558  0.00  0.00    -0.096 A 
ATOM     10  HN1 IND d   1       2.617  -3.199  -1.329  0.00  0.00     0.298 HD
ENDROOT
TORSDOF 0
ENDMDL
