MODEL 1
REMARK minimizedAffinity 9.21031666
REMARK minimizedRMSD -1
REMARK  0 active torsions:
REMARK  status: ('A' for Active; 'I' for Inactive)
ROOT
ATOM      1  N1  IND d   1      -4.154   1.138   2.635  0.00  0.00    -0.196 N 
ATOM      2  C2  IND d   1      -5.351   0.617   2.228  0.00  0.00     0.054 A 
ATOM      3  C3  IND d   1      -5.168  -0.222   1.184  0.00  0.00    -0.031 A 
ATOM      4  C4  IND d   1      -2.981  -0.965   0.047  0.00  0.00     0.051 A 
ATOM      5  C5  IND d   1      -1.635  -0.732   0.045  0.00  0.00    -0.031 A 
ATOM      6  C6  IND d   1      -1.047   0.153   0.927  0.00  0.00     0.015 A 
ATOM      7  C7  IND d   1      -1.786   0.831   1.854  0.00  0.00    -0.016 A 
ATOM      8  C8  IND d   1      -3.154   0.602   1.854  0.00  0.00    -0.047 A 
ATOM      9  C9  IND d   1      -3.762  -0.263   0.934  0.00  0.00    -0.096 A 
ATOM     10  HN1 IND d   1      -4.045   1.705   3.272  0.00  0.00     0.298 HD
ENDROOT
TORSDOF 0
ENDMDL
