MODEL 1
REMARK minimizedAffinity 5.28269339
REMARK minimizedRMSD -1
REMARK  0 active torsions:
REMARK  status: ('A' for Active; 'I' for Inactive)
ROOT
ATOM      1  N1  IND d   1       3.370  -2.912  -0.962  0.00  0.00    -0.196 N 
ATOM      2  C2  IND d   1       2.241  -2.250  -0.569  0.00  0.00     0.054 A 
ATOM      3  C3  IND d   1       1.646  -2.903   0.455  0.00  0.00    -0.031 A 
ATOM      4  C4  IND d   1       2.406  -5.019   1.708  0.00  0.00     0.051 A 
ATOM      5  C5  IND d   1       3.357  -6.000   1.687  0.00  0.00    -0.031 A 
ATOM      6  C6  IND d   1       4.384  -6.000   0.765  0.00  0.00     0.015 A 
ATOM      7  C7  IND d   1       4.505  -5.008  -0.167  0.00  0.00    -0.016 A 
ATOM      8  C8  IND d   1       3.536  -4.015  -0.154  0.00  0.00    -0.047 A 
ATOM      9  C9  IND d   1       2.468  -4.032   0.752  0.00  0.00    -0.096 A 
ATOM     10  HN1 IND d   1       3.890  -2.678  -1.606  0.00  0.00     0.298 HD
ENDROOT
TORSDOF 0
ENDMDL
