MODEL 1
REMARK minimizedAffinity 3.26587725
REMARK minimizedRMSD -1
REMARK  0 active torsions:
REMARK  status: ('A' for Active; 'I' for Inactive)
ROOT
ATOM      1  N1  IND d   1       2.873  -2.817  -0.321  0.00  0.00    -0.196 N 
ATOM      2  C2  IND d   1       3.082  -3.905   0.478  0.00  0.00     0.054 A 
ATOM      3  C3  IND d   1       2.204  -3.910   1.506  0.00  0.00    -0.031 A 
ATOM      4  C4  IND d   1       0.273  -2.285   2.014  0.00  0.00     0.051 A 
ATOM      5  C5  IND d   1      -0.290  -1.115   1.588  0.00  0.00    -0.031 A 
ATOM      6  C6  IND d   1       0.180  -0.440   0.481  0.00  0.00     0.015 A 
ATOM      7  C7  IND d   1       1.229  -0.918  -0.253  0.00  0.00    -0.016 A 
ATOM      8  C8  IND d   1       1.807  -2.102   0.180  0.00  0.00    -0.047 A 
ATOM      9  C9  IND d   1       1.362  -2.770   1.328  0.00  0.00    -0.096 A 
ATOM     10  HN1 IND d   1       3.331  -2.612  -1.020  0.00  0.00     0.298 HD
ENDROOT
TORSDOF 0
ENDMDL
