MODEL 1
REMARK minimizedAffinity 2.72390223
REMARK minimizedRMSD -1
REMARK  0 active torsions:
REMARK  status: ('A' for Active; 'I' for Inactive)
ROOT
ATOM      1  N1  IND d   1       2.252  -3.385  -0.085  0.00  0.00    -0.196 N 
ATOM      2  C2  IND d   1       3.444  -4.047   0.013  0.00  0.00     0.054 A 
ATOM      3  C3  IND d   1       4.475  -3.179  -0.103  0.00  0.00    -0.031 A 
ATOM      4  C4  IND d   1       4.435  -0.618  -0.357  0.00  0.00     0.051 A 
ATOM      5  C5  IND d   1       3.580   0.435  -0.530  0.00  0.00    -0.031 A 
ATOM      6  C6  IND d   1       2.211   0.264  -0.562  0.00  0.00     0.015 A 
ATOM      7  C7  IND d   1       1.643  -0.969  -0.410  0.00  0.00    -0.016 A 
ATOM      8  C8  IND d   1       2.508  -2.041  -0.241  0.00  0.00    -0.047 A 
ATOM      9  C9  IND d   1       3.900  -1.880  -0.250  0.00  0.00    -0.096 A 
ATOM     10  HN1 IND d   1       1.473  -3.748  -0.056  0.00  0.00     0.298 HD
ENDROOT
TORSDOF 0
ENDMDL
