MODEL 1
REMARK minimizedAffinity 0.1426543
REMARK minimizedRMSD -1
REMARK  0 active torsions:
REMARK  status: ('A' for Active; 'I' for Inactive)
ROOT
ATOM      1  N1  IND d   1       1.916  -2.523  -0.197  0.00  0.00    -0.196 N 
ATOM      2  C2  IND d   1       2.429  -3.594   0.480  0.00  0.00     0.054 A 
ATOM      3  C3  IND d   1       1.799  -3.747   1.666  0.00  0.00    -0.031 A 
ATOM      4  C4  IND d   1      -0.171  -2.417   2.655  0.00  0.00     0.051 A 
ATOM      5  C5  IND d   1      -0.957  -1.324   2.423  0.00  0.00    -0.031 A 
ATOM      6  C6  IND d   1      -0.826  -0.561   1.281  0.00  0.00     0.015 A 
ATOM      7  C7  IND d   1       0.094  -0.870   0.319  0.00  0.00    -0.016 A 
ATOM      8  C8  IND d   1       0.899  -1.975   0.555  0.00  0.00    -0.047 A 
ATOM      9  C9  IND d   1       0.799  -2.729   1.732  0.00  0.00    -0.096 A 
ATOM     10  HN1 IND d   1       2.183  -2.238  -0.963  0.00  0.00     0.298 HD
ENDROOT
TORSDOF 0
ENDMDL
