MODEL 1
REMARK minimizedAffinity 3.60137796
REMARK minimizedRMSD -1
REMARK  0 active torsions:
REMARK  status: ('A' for Active; 'I' for Inactive)
ROOT
ATOM      1  N1  IND d   1       1.214  -1.287   0.417  0.00  0.00    -0.196 N 
ATOM      2  C2  IND d   1       1.069  -0.981  -0.908  0.00  0.00     0.054 A 
ATOM      3  C3  IND d   1      -0.190  -0.558  -1.158  0.00  0.00    -0.031 A 
ATOM      4  C4  IND d   1      -2.147  -0.192   0.473  0.00  0.00     0.051 A 
ATOM      5  C5  IND d   1      -2.508  -0.368   1.780  0.00  0.00    -0.031 A 
ATOM      6  C6  IND d   1      -1.628  -0.867   2.718  0.00  0.00     0.015 A 
ATOM      7  C7  IND d   1      -0.345  -1.199   2.386  0.00  0.00    -0.016 A 
ATOM      8  C8  IND d   1       0.023  -1.028   1.059  0.00  0.00    -0.047 A 
ATOM      9  C9  IND d   1      -0.879  -0.563   0.093  0.00  0.00    -0.096 A 
ATOM     10  HN1 IND d   1       1.928  -1.590   0.787  0.00  0.00     0.298 HD
ENDROOT
TORSDOF 0
ENDMDL
