MODEL 1
REMARK minimizedAffinity 12.0116901
REMARK minimizedRMSD -1
REMARK  1 active torsions:
REMARK  status: ('A' for Active; 'I' for Inactive)
REMARK    1  A    between atoms: C1_2  and  C2_3 
ROOT
ATOM      1  C2  UNL d   1       2.058   4.017  -5.409  0.00  0.00    -0.081 A 
ATOM      2  C3  UNL d   1       3.236   3.334  -5.080  0.00  0.00     0.006 A 
ATOM      3  C4  UNL d   1       4.477   3.964  -5.199  0.00  0.00     0.002 A 
ATOM      4  C5  UNL d   1       4.560   5.290  -5.639  0.00  0.00    -0.080 A 
ATOM      5  C6  UNL d   1       5.884   5.988  -5.741  0.00  0.00     0.076 C 
ATOM      6  C7  UNL d   1       3.386   5.966  -5.984  0.00  0.00     0.002 A 
ATOM      7  C8  UNL d   1       2.145   5.336  -5.867  0.00  0.00     0.006 A 
ENDROOT
BRANCH   1   8
ATOM      8  C1  UNL d   1       0.714   3.361  -5.221  0.00  0.00     0.054 C 
ATOM      9  C   UNL d   1       0.714   1.936  -5.756  0.00  0.00     0.018 C 
ENDBRANCH   1   8
TORSDOF 1
ENDMDL
