MODEL 1
REMARK minimizedAffinity 6.97508001
REMARK minimizedRMSD -1
REMARK  1 active torsions:
REMARK  status: ('A' for Active; 'I' for Inactive)
REMARK    1  A    between atoms: C1_2  and  C2_3 
ROOT
ATOM      1  C2  UNL d   1      -3.846   0.889  -2.745  0.00  0.00    -0.081 A 
ATOM      2  C3  UNL d   1      -4.831   0.778  -3.734  0.00  0.00     0.006 A 
ATOM      3  C4  UNL d   1      -5.341  -0.473  -4.087  0.00  0.00     0.002 A 
ATOM      4  C5  UNL d   1      -4.882  -1.632  -3.453  0.00  0.00    -0.080 A 
ATOM      5  C6  UNL d   1      -5.443  -2.979  -3.801  0.00  0.00     0.076 C 
ATOM      6  C7  UNL d   1      -3.885  -1.523  -2.477  0.00  0.00     0.002 A 
ATOM      7  C8  UNL d   1      -3.374  -0.272  -2.124  0.00  0.00     0.006 A 
ENDROOT
BRANCH   1   8
ATOM      8  C1  UNL d   1      -3.340   2.243  -2.316  0.00  0.00     0.054 C 
ATOM      9  C   UNL d   1      -3.516   3.275  -3.421  0.00  0.00     0.018 C 
ENDBRANCH   1   8
TORSDOF 1
ENDMDL
