MODEL 1
REMARK minimizedAffinity 7.61172819
REMARK minimizedRMSD -1
REMARK  1 active torsions:
REMARK  status: ('A' for Active; 'I' for Inactive)
REMARK    1  A    between atoms: C1_2  and  C2_3 
ROOT
ATOM      1  C2  UNL d   1      -0.620   1.537   2.375  0.00  0.00    -0.081 A 
ATOM      2  C3  UNL d   1       0.726   1.481   2.758  0.00  0.00     0.006 A 
ATOM      3  C4  UNL d   1       1.527   2.624   2.699  0.00  0.00     0.002 A 
ATOM      4  C5  UNL d   1       0.995   3.842   2.263  0.00  0.00    -0.080 A 
ATOM      5  C6  UNL d   1       1.836   5.083   2.223  0.00  0.00     0.076 C 
ATOM      6  C7  UNL d   1      -0.345   3.894   1.863  0.00  0.00     0.002 A 
ATOM      7  C8  UNL d   1      -1.146   2.751   1.921  0.00  0.00     0.006 A 
ENDROOT
BRANCH   1   8
ATOM      8  C1  UNL d   1      -1.503   0.322   2.499  0.00  0.00     0.054 C 
ATOM      9  C   UNL d   1      -0.679  -0.947   2.666  0.00  0.00     0.018 C 
ENDBRANCH   1   8
TORSDOF 1
ENDMDL
