MODEL 1
REMARK minimizedAffinity 12.7380848
REMARK minimizedRMSD -1
REMARK  1 active torsions:
REMARK  status: ('A' for Active; 'I' for Inactive)
REMARK    1  A    between atoms: C1_2  and  C2_3 
ROOT
ATOM      1  C2  UNL d   1       2.385  -3.133   1.148  0.00  0.00    -0.081 A 
ATOM      2  C3  UNL d   1       3.351  -2.611   2.016  0.00  0.00     0.006 A 
ATOM      3  C4  UNL d   1       3.044  -1.536   2.854  0.00  0.00     0.002 A 
ATOM      4  C5  UNL d   1       1.764  -0.971   2.843  0.00  0.00    -0.080 A 
ATOM      5  C6  UNL d   1       1.412   0.163   3.759  0.00  0.00     0.076 C 
ATOM      6  C7  UNL d   1       0.803  -1.482   1.964  0.00  0.00     0.002 A 
ATOM      7  C8  UNL d   1       1.110  -2.556   1.125  0.00  0.00     0.006 A 
ENDROOT
BRANCH   1   8
ATOM      8  C1  UNL d   1       2.694  -4.334   0.290  0.00  0.00     0.054 C 
ATOM      9  C   UNL d   1       2.269  -5.626   0.973  0.00  0.00     0.018 C 
ENDBRANCH   1   8
TORSDOF 1
ENDMDL
