MODEL 1
REMARK minimizedAffinity 10.0493946
REMARK minimizedRMSD -1
REMARK  1 active torsions:
REMARK  status: ('A' for Active; 'I' for Inactive)
REMARK    1  A    between atoms: C1_2  and  C2_3 
ROOT
ATOM      1  C2  UNL d   1       3.611  -2.870   2.993  0.00  0.00    -0.081 A 
ATOM      2  C3  UNL d   1       3.668  -3.304   1.663  0.00  0.00     0.006 A 
ATOM      3  C4  UNL d   1       2.773  -2.802   0.715  0.00  0.00     0.002 A 
ATOM      4  C5  UNL d   1       1.813  -1.852   1.078  0.00  0.00    -0.080 A 
ATOM      5  C6  UNL d   1       0.867  -1.283   0.063  0.00  0.00     0.076 C 
ATOM      6  C7  UNL d   1       1.745  -1.431   2.410  0.00  0.00     0.002 A 
ATOM      7  C8  UNL d   1       2.638  -1.933   3.359  0.00  0.00     0.006 A 
ENDROOT
BRANCH   1   8
ATOM      8  C1  UNL d   1       4.615  -3.361   4.004  0.00  0.00     0.054 C 
ATOM      9  C   UNL d   1       4.805  -2.354   5.129  0.00  0.00     0.018 C 
ENDBRANCH   1   8
TORSDOF 1
ENDMDL
