MODEL 1
REMARK minimizedAffinity 2.2589922
REMARK minimizedRMSD -1
REMARK  1 active torsions:
REMARK  status: ('A' for Active; 'I' for Inactive)
REMARK    1  A    between atoms: C1_2  and  C2_3 
ROOT
ATOM      1  C2  UNL d   1       4.124  -3.774   1.980  0.00  0.00    -0.081 A 
ATOM      2  C3  UNL d   1       4.139  -4.753   2.982  0.00  0.00     0.006 A 
ATOM      3  C4  UNL d   1       4.539  -4.430   4.281  0.00  0.00     0.002 A 
ATOM      4  C5  UNL d   1       4.924  -3.124   4.602  0.00  0.00    -0.080 A 
ATOM      5  C6  UNL d   1       5.326  -2.757   5.999  0.00  0.00     0.076 C 
ATOM      6  C7  UNL d   1       4.926  -2.150   3.597  0.00  0.00     0.002 A 
ATOM      7  C8  UNL d   1       4.526  -2.472   2.298  0.00  0.00     0.006 A 
ENDROOT
BRANCH   1   8
ATOM      8  C1  UNL d   1       3.631  -4.104   0.595  0.00  0.00     0.054 C 
ATOM      9  C   UNL d   1       2.753  -2.991   0.040  0.00  0.00     0.018 C 
ENDBRANCH   1   8
TORSDOF 1
ENDMDL
