MODEL 1
REMARK minimizedAffinity 9.02401447
REMARK minimizedRMSD -1
REMARK  1 active torsions:
REMARK  status: ('A' for Active; 'I' for Inactive)
REMARK    1  A    between atoms: C1_2  and  C2_3 
ROOT
ATOM      1  C2  UNL d   1      -4.942   1.800  -5.702  0.00  0.00    -0.081 A 
ATOM      2  C3  UNL d   1      -3.693   2.065  -5.127  0.00  0.00     0.006 A 
ATOM      3  C4  UNL d   1      -3.315   3.377  -4.829  0.00  0.00     0.002 A 
ATOM      4  C5  UNL d   1      -4.182   4.443  -5.093  0.00  0.00    -0.080 A 
ATOM      5  C6  UNL d   1      -3.800   5.852  -4.750  0.00  0.00     0.076 C 
ATOM      6  C7  UNL d   1      -5.423   4.179  -5.683  0.00  0.00     0.002 A 
ATOM      7  C8  UNL d   1      -5.801   2.868  -5.982  0.00  0.00     0.006 A 
ENDROOT
BRANCH   1   8
ATOM      8  C1  UNL d   1      -5.379   0.381  -5.964  0.00  0.00     0.054 C 
ATOM      9  C   UNL d   1      -5.999  -0.246  -4.724  0.00  0.00     0.018 C 
ENDBRANCH   1   8
TORSDOF 1
ENDMDL
