MODEL 1
REMARK minimizedAffinity 10.305378
REMARK minimizedRMSD -1
REMARK  1 active torsions:
REMARK  status: ('A' for Active; 'I' for Inactive)
REMARK    1  A    between atoms: C1_2  and  C2_3 
ROOT
ATOM      1  C2  UNL d   1       2.879  -4.353   0.515  0.00  0.00    -0.081 A 
ATOM      2  C3  UNL d   1       3.575  -3.671   1.520  0.00  0.00     0.006 A 
ATOM      3  C4  UNL d   1       3.099  -2.452   2.010  0.00  0.00     0.002 A 
ATOM      4  C5  UNL d   1       1.915  -1.900   1.509  0.00  0.00    -0.080 A 
ATOM      5  C6  UNL d   1       1.377  -0.608   2.048  0.00  0.00     0.076 C 
ATOM      6  C7  UNL d   1       1.228  -2.573   0.493  0.00  0.00     0.002 A 
ATOM      7  C8  UNL d   1       1.705  -3.790   0.002  0.00  0.00     0.006 A 
ENDROOT
BRANCH   1   8
ATOM      8  C1  UNL d   1       3.355  -5.698   0.031  0.00  0.00     0.054 C 
ATOM      9  C   UNL d   1       3.954  -5.603  -1.365  0.00  0.00     0.018 C 
ENDBRANCH   1   8
TORSDOF 1
ENDMDL
