MODEL 1
REMARK minimizedAffinity 6.24961519
REMARK minimizedRMSD -1
REMARK  0 active torsions:
REMARK  status: ('A' for Active; 'I' for Inactive)
ROOT
ATOM      1  N1  IND d   1       3.114   0.695  -0.145  0.00  0.00    -0.196 N 
ATOM      2  C2  IND d   1       3.282   1.157  -1.420  0.00  0.00     0.054 A 
ATOM      3  C3  IND d   1       2.093   1.532  -1.944  0.00  0.00    -0.031 A 
ATOM      4  C4  IND d   1      -0.237   1.569  -0.852  0.00  0.00     0.051 A 
ATOM      5  C5  IND d   1      -0.898   1.207   0.288  0.00  0.00    -0.031 A 
ATOM      6  C6  IND d   1      -0.242   0.647   1.365  0.00  0.00     0.015 A 
ATOM      7  C7  IND d   1       1.108   0.438   1.346  0.00  0.00    -0.016 A 
ATOM      8  C8  IND d   1       1.781   0.798   0.187  0.00  0.00    -0.047 A 
ATOM      9  C9  IND d   1       1.114   1.327  -0.925  0.00  0.00    -0.096 A 
ATOM     10  HN1 IND d   1       3.737   0.391   0.364  0.00  0.00     0.298 HD
ENDROOT
TORSDOF 0
ENDMDL
