MODEL 1
REMARK minimizedAffinity -5.5180645
REMARK minimizedRMSD -1
REMARK  0 active torsions:
REMARK  status: ('A' for Active; 'I' for Inactive)
ROOT
ATOM      1  N1  IND d   1       0.991  -2.557  -1.333  0.00  0.00    -0.196 N 
ATOM      2  C2  IND d   1       1.803  -2.606  -2.432  0.00  0.00     0.054 A 
ATOM      3  C3  IND d   1       2.170  -1.359  -2.802  0.00  0.00    -0.031 A 
ATOM      4  C4  IND d   1       1.640   0.900  -1.688  0.00  0.00     0.051 A 
ATOM      5  C5  IND d   1       0.906   1.458  -0.680  0.00  0.00    -0.031 A 
ATOM      6  C6  IND d   1       0.149   0.690   0.182  0.00  0.00     0.015 A 
ATOM      7  C7  IND d   1       0.108  -0.671   0.073  0.00  0.00    -0.016 A 
ATOM      8  C8  IND d   1       0.847  -1.240  -0.954  0.00  0.00    -0.047 A 
ATOM      9  C9  IND d   1       1.582  -0.463  -1.858  0.00  0.00    -0.096 A 
ATOM     10  HN1 IND d   1       0.632  -3.234  -0.944  0.00  0.00     0.298 HD
ENDROOT
TORSDOF 0
ENDMDL
