MODEL 1
REMARK minimizedAffinity -5.45737028
REMARK minimizedRMSD -1
REMARK  0 active torsions:
REMARK  status: ('A' for Active; 'I' for Inactive)
ROOT
ATOM      1  N1  IND d   1       0.006  -1.169   0.100  0.00  0.00    -0.196 N 
ATOM      2  C2  IND d   1      -0.202   0.044   0.695  0.00  0.00     0.054 A 
ATOM      3  C3  IND d   1       0.417   1.023  -0.003  0.00  0.00    -0.031 A 
ATOM      4  C4  IND d   1       1.738   0.874  -2.208  0.00  0.00     0.051 A 
ATOM      5  C5  IND d   1       2.227  -0.027  -3.112  0.00  0.00    -0.031 A 
ATOM      6  C6  IND d   1       1.993  -1.382  -2.991  0.00  0.00     0.015 A 
ATOM      7  C7  IND d   1       1.249  -1.887  -1.962  0.00  0.00    -0.016 A 
ATOM      8  C8  IND d   1       0.757  -0.976  -1.038  0.00  0.00    -0.047 A 
ATOM      9  C9  IND d   1       1.027   0.396  -1.133  0.00  0.00    -0.096 A 
ATOM     10  HN1 IND d   1      -0.284  -1.925   0.388  0.00  0.00     0.298 HD
ENDROOT
TORSDOF 0
ENDMDL
