MODEL 1
REMARK minimizedAffinity 0.128740177
REMARK minimizedRMSD -1
REMARK  0 active torsions:
REMARK  status: ('A' for Active; 'I' for Inactive)
ROOT
ATOM      1  N1  IND d   1       0.441  -1.861   0.245  0.00  0.00    -0.196 N 
ATOM      2  C2  IND d   1      -0.438  -1.279   1.115  0.00  0.00     0.054 A 
ATOM      3  C3  IND d   1      -0.421   0.065   0.972  0.00  0.00    -0.031 A 
ATOM      4  C4  IND d   1       0.895   1.516  -0.698  0.00  0.00     0.051 A 
ATOM      5  C5  IND d   1       1.854   1.440  -1.669  0.00  0.00    -0.031 A 
ATOM      6  C6  IND d   1       2.400   0.235  -2.061  0.00  0.00     0.015 A 
ATOM      7  C7  IND d   1       1.998  -0.945  -1.503  0.00  0.00    -0.016 A 
ATOM      8  C8  IND d   1       1.029  -0.871  -0.512  0.00  0.00    -0.047 A 
ATOM      9  C9  IND d   1       0.502   0.353  -0.080  0.00  0.00    -0.096 A 
ATOM     10  HN1 IND d   1       0.600  -2.703   0.180  0.00  0.00     0.298 HD
ENDROOT
TORSDOF 0
ENDMDL
