MODEL 1
REMARK minimizedAffinity -5.26243782
REMARK minimizedRMSD -1
REMARK  0 active torsions:
REMARK  status: ('A' for Active; 'I' for Inactive)
ROOT
ATOM      1  N1  IND d   1      -0.189  -1.311   0.497  0.00  0.00    -0.196 N 
ATOM      2  C2  IND d   1      -0.209  -0.018   0.941  0.00  0.00     0.054 A 
ATOM      3  C3  IND d   1       0.442   0.788   0.073  0.00  0.00    -0.031 A 
ATOM      4  C4  IND d   1       1.528   0.215  -2.190  0.00  0.00     0.051 A 
ATOM      5  C5  IND d   1       1.831  -0.841  -3.003  0.00  0.00    -0.031 A 
ATOM      6  C6  IND d   1       1.466  -2.133  -2.686  0.00  0.00     0.015 A 
ATOM      7  C7  IND d   1       0.772  -2.418  -1.544  0.00  0.00    -0.016 A 
ATOM      8  C8  IND d   1       0.469  -1.349  -0.713  0.00  0.00    -0.047 A 
ATOM      9  C9  IND d   1       0.873  -0.040  -1.008  0.00  0.00    -0.096 A 
ATOM     10  HN1 IND d   1      -0.530  -1.987   0.905  0.00  0.00     0.298 HD
ENDROOT
TORSDOF 0
ENDMDL
