MODEL 1
REMARK minimizedAffinity -2.04760432
REMARK minimizedRMSD -1
REMARK  0 active torsions:
REMARK  status: ('A' for Active; 'I' for Inactive)
ROOT
ATOM      1  N1  IND d   1      -0.321  -1.235   0.500  0.00  0.00    -0.196 N 
ATOM      2  C2  IND d   1      -0.828   0.010   0.748  0.00  0.00     0.054 A 
ATOM      3  C3  IND d   1      -0.133   0.946   0.063  0.00  0.00    -0.031 A 
ATOM      4  C4  IND d   1       1.808   0.649  -1.602  0.00  0.00     0.051 A 
ATOM      5  C5  IND d   1       2.643  -0.298  -2.126  0.00  0.00    -0.031 A 
ATOM      6  C6  IND d   1       2.528  -1.634  -1.797  0.00  0.00     0.015 A 
ATOM      7  C7  IND d   1       1.563  -2.075  -0.936  0.00  0.00    -0.016 A 
ATOM      8  C8  IND d   1       0.718  -1.115  -0.397  0.00  0.00    -0.047 A 
ATOM      9  C9  IND d   1       0.857   0.247  -0.695  0.00  0.00    -0.096 A 
ATOM     10  HN1 IND d   1      -0.603  -1.970   0.846  0.00  0.00     0.298 HD
ENDROOT
TORSDOF 0
ENDMDL
