MODEL 1
REMARK minimizedAffinity -3.4149859
REMARK minimizedRMSD -1
REMARK  0 active torsions:
REMARK  status: ('A' for Active; 'I' for Inactive)
ROOT
ATOM      1  N1  IND d   1      -0.359  -0.272   1.230  0.00  0.00    -0.196 N 
ATOM      2  C2  IND d   1       0.065  -0.249  -0.069  0.00  0.00     0.054 A 
ATOM      3  C3  IND d   1      -0.954   0.090  -0.891  0.00  0.00    -0.031 A 
ATOM      4  C4  IND d   1      -3.374   0.749  -0.309  0.00  0.00     0.051 A 
ATOM      5  C5  IND d   1      -4.242   0.841   0.742  0.00  0.00    -0.031 A 
ATOM      6  C6  IND d   1      -3.852   0.564   2.036  0.00  0.00     0.015 A 
ATOM      7  C7  IND d   1      -2.571   0.193   2.330  0.00  0.00    -0.016 A 
ATOM      8  C8  IND d   1      -1.688   0.092   1.264  0.00  0.00    -0.047 A 
ATOM      9  C9  IND d   1      -2.088   0.331  -0.057  0.00  0.00    -0.096 A 
ATOM     10  HN1 IND d   1       0.122  -0.478   1.912  0.00  0.00     0.298 HD
ENDROOT
TORSDOF 0
ENDMDL
