MODEL 1
REMARK minimizedAffinity -5.6894083
REMARK minimizedRMSD -1
REMARK  0 active torsions:
REMARK  status: ('A' for Active; 'I' for Inactive)
ROOT
ATOM      1  N1  IND d   1       0.338  -2.022   0.417  0.00  0.00    -0.196 N 
ATOM      2  C2  IND d   1       0.030  -1.146   1.420  0.00  0.00     0.054 A 
ATOM      3  C3  IND d   1       0.184   0.129   0.995  0.00  0.00    -0.031 A 
ATOM      4  C4  IND d   1       0.832   1.009  -1.335  0.00  0.00     0.051 A 
ATOM      5  C5  IND d   1       1.243   0.589  -2.569  0.00  0.00    -0.031 A 
ATOM      6  C6  IND d   1       1.373  -0.750  -2.878  0.00  0.00     0.015 A 
ATOM      7  C7  IND d   1       1.085  -1.723  -1.963  0.00  0.00    -0.016 A 
ATOM      8  C8  IND d   1       0.674  -1.300  -0.707  0.00  0.00    -0.047 A 
ATOM      9  C9  IND d   1       0.581   0.057  -0.375  0.00  0.00    -0.096 A 
ATOM     10  HN1 IND d   1       0.324  -2.879   0.478  0.00  0.00     0.298 HD
ENDROOT
TORSDOF 0
ENDMDL
