MODEL 1
REMARK minimizedAffinity 0.807376921
REMARK minimizedRMSD -1
REMARK  0 active torsions:
REMARK  status: ('A' for Active; 'I' for Inactive)
ROOT
ATOM      1  N1  IND d   1      -1.134  -0.477  -0.491  0.00  0.00    -0.196 N 
ATOM      2  C2  IND d   1       0.083  -0.331   0.114  0.00  0.00     0.054 A 
ATOM      3  C3  IND d   1      -0.055   0.293   1.305  0.00  0.00    -0.031 A 
ATOM      4  C4  IND d   1      -2.196   1.072   2.504  0.00  0.00     0.051 A 
ATOM      5  C5  IND d   1      -3.547   1.189   2.330  0.00  0.00    -0.031 A 
ATOM      6  C6  IND d   1      -4.175   0.744   1.185  0.00  0.00     0.015 A 
ATOM      7  C7  IND d   1      -3.475   0.154   0.172  0.00  0.00    -0.016 A 
ATOM      8  C8  IND d   1      -2.102   0.040   0.342  0.00  0.00    -0.047 A 
ATOM      9  C9  IND d   1      -1.453   0.528   1.483  0.00  0.00    -0.096 A 
ATOM     10  HN1 IND d   1      -1.272  -0.832  -1.261  0.00  0.00     0.298 HD
ENDROOT
TORSDOF 0
ENDMDL
