MODEL 1
REMARK minimizedAffinity -5.10248041
REMARK minimizedRMSD -1
REMARK  0 active torsions:
REMARK  status: ('A' for Active; 'I' for Inactive)
ROOT
ATOM      1  N1  IND d   1      -0.244  -0.681   0.952  0.00  0.00    -0.196 N 
ATOM      2  C2  IND d   1      -0.425   0.664   1.114  0.00  0.00     0.054 A 
ATOM      3  C3  IND d   1       0.286   1.349   0.189  0.00  0.00    -0.031 A 
ATOM      4  C4  IND d   1       1.733   0.463  -1.746  0.00  0.00     0.051 A 
ATOM      5  C5  IND d   1       2.230  -0.694  -2.278  0.00  0.00    -0.031 A 
ATOM      6  C6  IND d   1       1.920  -1.931  -1.751  0.00  0.00     0.015 A 
ATOM      7  C7  IND d   1       1.088  -2.058  -0.675  0.00  0.00    -0.016 A 
ATOM      8  C8  IND d   1       0.587  -0.885  -0.128  0.00  0.00    -0.047 A 
ATOM      9  C9  IND d   1       0.932   0.376  -0.632  0.00  0.00    -0.096 A 
ATOM     10  HN1 IND d   1      -0.590  -1.296   1.443  0.00  0.00     0.298 HD
ENDROOT
TORSDOF 0
ENDMDL
