MODEL 1
REMARK minimizedAffinity -4.13670158
REMARK minimizedRMSD -1
REMARK  0 active torsions:
REMARK  status: ('A' for Active; 'I' for Inactive)
ROOT
ATOM      1  N1  IND d   1      -0.639  -0.397   0.343  0.00  0.00    -0.196 N 
ATOM      2  C2  IND d   1      -0.259   0.760   0.964  0.00  0.00     0.054 A 
ATOM      3  C3  IND d   1       0.886   1.231   0.421  0.00  0.00    -0.031 A 
ATOM      4  C4  IND d   1       2.251   0.321  -1.563  0.00  0.00     0.051 A 
ATOM      5  C5  IND d   1       2.320  -0.734  -2.429  0.00  0.00    -0.031 A 
ATOM      6  C6  IND d   1       1.385  -1.749  -2.418  0.00  0.00     0.015 A 
ATOM      7  C7  IND d   1       0.336  -1.742  -1.543  0.00  0.00    -0.016 A 
ATOM      8  C8  IND d   1       0.267  -0.676  -0.657  0.00  0.00    -0.047 A 
ATOM      9  C9  IND d   1       1.236   0.335  -0.635  0.00  0.00    -0.096 A 
ATOM     10  HN1 IND d   1      -1.328  -0.871   0.543  0.00  0.00     0.298 HD
ENDROOT
TORSDOF 0
ENDMDL
