MODEL 1
REMARK minimizedAffinity -6.33438492
REMARK minimizedRMSD -1
REMARK  0 active torsions:
REMARK  status: ('A' for Active; 'I' for Inactive)
ROOT
ATOM      1  N1  IND d   1       0.441  -1.075   1.141  0.00  0.00    -0.196 N 
ATOM      2  C2  IND d   1       0.299  -2.388   0.787  0.00  0.00     0.054 A 
ATOM      3  C3  IND d   1       0.451  -2.534  -0.548  0.00  0.00    -0.031 A 
ATOM      4  C4  IND d   1       1.037  -0.772  -2.331  0.00  0.00     0.051 A 
ATOM      5  C5  IND d   1       1.228   0.572  -2.496  0.00  0.00    -0.031 A 
ATOM      6  C6  IND d   1       1.167   1.452  -1.435  0.00  0.00     0.015 A 
ATOM      7  C7  IND d   1       0.924   1.019  -0.162  0.00  0.00    -0.016 A 
ATOM      8  C8  IND d   1       0.723  -0.344   0.008  0.00  0.00    -0.047 A 
ATOM      9  C9  IND d   1       0.741  -1.237  -1.071  0.00  0.00    -0.096 A 
ATOM     10  HN1 IND d   1       0.366  -0.759   1.937  0.00  0.00     0.298 HD
ENDROOT
TORSDOF 0
ENDMDL
