MODEL 1
REMARK minimizedAffinity 0.704374373
REMARK minimizedRMSD -1
REMARK  0 active torsions:
REMARK  status: ('A' for Active; 'I' for Inactive)
ROOT
ATOM      1  N1  IND d   1       1.185  -1.681   0.025  0.00  0.00    -0.196 N 
ATOM      2  C2  IND d   1       0.040  -1.680   0.771  0.00  0.00     0.054 A 
ATOM      3  C3  IND d   1      -0.433  -0.421   0.906  0.00  0.00    -0.031 A 
ATOM      4  C4  IND d   1       0.456   1.776  -0.100  0.00  0.00     0.051 A 
ATOM      5  C5  IND d   1       1.497   2.286  -0.823  0.00  0.00    -0.031 A 
ATOM      6  C6  IND d   1       2.507   1.483  -1.313  0.00  0.00     0.015 A 
ATOM      7  C7  IND d   1       2.507   0.133  -1.106  0.00  0.00    -0.016 A 
ATOM      8  C8  IND d   1       1.455  -0.388  -0.367  0.00  0.00    -0.047 A 
ATOM      9  C9  IND d   1       0.449   0.428   0.169  0.00  0.00    -0.096 A 
ATOM     10  HN1 IND d   1       1.658  -2.373  -0.168  0.00  0.00     0.298 HD
ENDROOT
TORSDOF 0
ENDMDL
