MODEL 1
REMARK minimizedAffinity 13.4010324
REMARK minimizedRMSD -1
REMARK  1 active torsions:
REMARK  status: ('A' for Active; 'I' for Inactive)
REMARK    1  A    between atoms: C1_2  and  C2_3 
ROOT
ATOM      1  C2  UNL d   1      -4.059  -2.171   0.379  0.00  0.00    -0.081 A 
ATOM      2  C3  UNL d   1      -3.336  -3.354   0.573  0.00  0.00     0.006 A 
ATOM      3  C4  UNL d   1      -3.940  -4.596   0.359  0.00  0.00     0.002 A 
ATOM      4  C5  UNL d   1      -5.273  -4.674  -0.059  0.00  0.00    -0.080 A 
ATOM      5  C6  UNL d   1      -5.924  -5.999  -0.321  0.00  0.00     0.076 C 
ATOM      6  C7  UNL d   1      -6.000  -3.492  -0.236  0.00  0.00     0.002 A 
ATOM      7  C8  UNL d   1      -5.397  -2.251  -0.022  0.00  0.00     0.006 A 
ENDROOT
BRANCH   1   8
ATOM      8  C1  UNL d   1      -3.391  -0.829   0.546  0.00  0.00     0.054 C 
ATOM      9  C   UNL d   1      -2.258  -0.897   1.559  0.00  0.00     0.018 C 
ENDBRANCH   1   8
TORSDOF 1
ENDMDL
