MODEL 1
REMARK minimizedAffinity 10.774622
REMARK minimizedRMSD -1
REMARK  1 active torsions:
REMARK  status: ('A' for Active; 'I' for Inactive)
REMARK    1  A    between atoms: C1_2  and  C2_3 
ROOT
ATOM      1  C2  UNL d   1      -1.621   1.539   2.498  0.00  0.00    -0.081 A 
ATOM      2  C3  UNL d   1      -2.255   0.349   2.874  0.00  0.00     0.006 A 
ATOM      3  C4  UNL d   1      -1.505  -0.745   3.312  0.00  0.00     0.002 A 
ATOM      4  C5  UNL d   1      -0.110  -0.665   3.388  0.00  0.00    -0.080 A 
ATOM      5  C6  UNL d   1       0.704  -1.822   3.885  0.00  0.00     0.076 C 
ATOM      6  C7  UNL d   1       0.525   0.518   2.996  0.00  0.00     0.002 A 
ATOM      7  C8  UNL d   1      -0.225   1.612   2.557  0.00  0.00     0.006 A 
ENDROOT
BRANCH   1   8
ATOM      8  C1  UNL d   1      -2.430   2.743   2.087  0.00  0.00     0.054 C 
ATOM      9  C   UNL d   1      -2.002   3.986   2.853  0.00  0.00     0.018 C 
ENDBRANCH   1   8
TORSDOF 1
ENDMDL
