MODEL 1
REMARK minimizedAffinity -0.115375333
REMARK minimizedRMSD -1
REMARK  1 active torsions:
REMARK  status: ('A' for Active; 'I' for Inactive)
REMARK    1  A    between atoms: C1_2  and  C2_3 
ROOT
ATOM      1  C2  UNL d   1      -4.007  -2.163   1.096  0.00  0.00    -0.081 A 
ATOM      2  C3  UNL d   1      -5.352  -2.250   1.475  0.00  0.00     0.006 A 
ATOM      3  C4  UNL d   1      -5.999  -3.487   1.509  0.00  0.00     0.002 A 
ATOM      4  C5  UNL d   1      -5.311  -4.658   1.173  0.00  0.00    -0.080 A 
ATOM      5  C6  UNL d   1      -5.985  -5.996   1.235  0.00  0.00     0.076 C 
ATOM      6  C7  UNL d   1      -3.972  -4.569   0.777  0.00  0.00     0.002 A 
ATOM      7  C8  UNL d   1      -3.324  -3.332   0.742  0.00  0.00     0.006 A 
ENDROOT
BRANCH   1   8
ATOM      8  C1  UNL d   1      -3.288  -0.838   1.120  0.00  0.00     0.054 C 
ATOM      9  C   UNL d   1      -2.011  -0.916   1.944  0.00  0.00     0.018 C 
ENDBRANCH   1   8
TORSDOF 1
ENDMDL
