MODEL 1
REMARK minimizedAffinity 8.5221777
REMARK minimizedRMSD -1
REMARK  1 active torsions:
REMARK  status: ('A' for Active; 'I' for Inactive)
REMARK    1  A    between atoms: C1_2  and  C2_3 
ROOT
ATOM      1  C2  UNL d   1      -4.882  -3.925   0.486  0.00  0.00    -0.081 A 
ATOM      2  C3  UNL d   1      -4.287  -3.240   1.553  0.00  0.00     0.006 A 
ATOM      3  C4  UNL d   1      -4.551  -1.884   1.758  0.00  0.00     0.002 A 
ATOM      4  C5  UNL d   1      -5.419  -1.192   0.907  0.00  0.00    -0.080 A 
ATOM      5  C6  UNL d   1      -5.734   0.256   1.135  0.00  0.00     0.076 C 
ATOM      6  C7  UNL d   1      -6.000  -1.872  -0.169  0.00  0.00     0.002 A 
ATOM      7  C8  UNL d   1      -5.736  -3.228  -0.376  0.00  0.00     0.006 A 
ENDROOT
BRANCH   1   8
ATOM      8  C1  UNL d   1      -4.651  -5.403   0.299  0.00  0.00     0.054 C 
ATOM      9  C   UNL d   1      -3.437  -5.876   1.086  0.00  0.00     0.018 C 
ENDBRANCH   1   8
TORSDOF 1
ENDMDL
