MODEL 1
REMARK minimizedAffinity 9.26289749
REMARK minimizedRMSD -1
REMARK  1 active torsions:
REMARK  status: ('A' for Active; 'I' for Inactive)
REMARK    1  A    between atoms: C1_2  and  C2_3 
ROOT
ATOM      1  C2  UNL d   1      -0.586  -1.839  -5.374  0.00  0.00    -0.081 A 
ATOM      2  C3  UNL d   1       0.518  -2.401  -4.721  0.00  0.00     0.006 A 
ATOM      3  C4  UNL d   1       1.459  -1.584  -4.090  0.00  0.00     0.002 A 
ATOM      4  C5  UNL d   1       1.308  -0.193  -4.095  0.00  0.00    -0.080 A 
ATOM      5  C6  UNL d   1       2.294   0.694  -3.395  0.00  0.00     0.076 C 
ATOM      6  C7  UNL d   1       0.214   0.369  -4.762  0.00  0.00     0.002 A 
ATOM      7  C8  UNL d   1      -0.726  -0.447  -5.394  0.00  0.00     0.006 A 
ENDROOT
BRANCH   1   8
ATOM      8  C1  UNL d   1      -1.636  -2.721  -6.000  0.00  0.00     0.054 C 
ATOM      9  C   UNL d   1      -1.206  -4.181  -6.000  0.00  0.00     0.018 C 
ENDBRANCH   1   8
TORSDOF 1
ENDMDL
