MODEL 1
REMARK minimizedAffinity 12.7607603
REMARK minimizedRMSD -1
REMARK  1 active torsions:
REMARK  status: ('A' for Active; 'I' for Inactive)
REMARK    1  A    between atoms: C1_2  and  C2_3 
ROOT
ATOM      1  C2  UNL d   1      -2.770  -3.024  -5.714  0.00  0.00    -0.081 A 
ATOM      2  C3  UNL d   1      -1.549  -3.647  -5.999  0.00  0.00     0.006 A 
ATOM      3  C4  UNL d   1      -0.343  -3.022  -5.678  0.00  0.00     0.002 A 
ATOM      4  C5  UNL d   1      -0.336  -1.767  -5.059  0.00  0.00    -0.080 A 
ATOM      5  C6  UNL d   1       0.952  -1.097  -4.682  0.00  0.00     0.076 C 
ATOM      6  C7  UNL d   1      -1.556  -1.136  -4.790  0.00  0.00     0.002 A 
ATOM      7  C8  UNL d   1      -2.763  -1.761  -5.111  0.00  0.00     0.006 A 
ENDROOT
BRANCH   1   8
ATOM      8  C1  UNL d   1      -4.074  -3.725  -6.000  0.00  0.00     0.054 C 
ATOM      9  C   UNL d   1      -5.253  -2.961  -5.414  0.00  0.00     0.018 C 
ENDBRANCH   1   8
TORSDOF 1
ENDMDL
