MODEL 1
REMARK minimizedAffinity 10.162653
REMARK minimizedRMSD -1
REMARK  1 active torsions:
REMARK  status: ('A' for Active; 'I' for Inactive)
REMARK    1  A    between atoms: C1_2  and  C2_3 
ROOT
ATOM      1  C2  UNL d   1      -4.152  -3.580  -5.423  0.00  0.00    -0.081 A 
ATOM      2  C3  UNL d   1      -3.354  -2.440  -5.582  0.00  0.00     0.006 A 
ATOM      3  C4  UNL d   1      -3.727  -1.228  -4.996  0.00  0.00     0.002 A 
ATOM      4  C5  UNL d   1      -4.897  -1.138  -4.234  0.00  0.00    -0.080 A 
ATOM      5  C6  UNL d   1      -5.292   0.150  -3.575  0.00  0.00     0.076 C 
ATOM      6  C7  UNL d   1      -5.703  -2.273  -4.090  0.00  0.00     0.002 A 
ATOM      7  C8  UNL d   1      -5.331  -3.484  -4.676  0.00  0.00     0.006 A 
ENDROOT
BRANCH   1   8
ATOM      8  C1  UNL d   1      -3.720  -4.904  -5.999  0.00  0.00     0.054 C 
ATOM      9  C   UNL d   1      -4.864  -5.908  -5.999  0.00  0.00     0.018 C 
ENDBRANCH   1   8
TORSDOF 1
ENDMDL
