MODEL 1
REMARK minimizedAffinity 13.5071688
REMARK minimizedRMSD -1
REMARK  1 active torsions:
REMARK  status: ('A' for Active; 'I' for Inactive)
REMARK    1  A    between atoms: C1_2  and  C2_3 
ROOT
ATOM      1  C2  UNL d   1       2.713   2.179  -5.451  0.00  0.00    -0.081 A 
ATOM      2  C3  UNL d   1       1.557   1.600  -5.989  0.00  0.00     0.006 A 
ATOM      3  C4  UNL d   1       1.030   0.429  -5.440  0.00  0.00     0.002 A 
ATOM      4  C5  UNL d   1       1.645  -0.178  -4.339  0.00  0.00    -0.080 A 
ATOM      5  C6  UNL d   1       1.072  -1.419  -3.721  0.00  0.00     0.076 C 
ATOM      6  C7  UNL d   1       2.809   0.391  -3.812  0.00  0.00     0.002 A 
ATOM      7  C8  UNL d   1       3.337   1.561  -4.361  0.00  0.00     0.006 A 
ENDROOT
BRANCH   1   8
ATOM      8  C1  UNL d   1       3.247   3.477  -6.000  0.00  0.00     0.054 C 
ATOM      9  C   UNL d   1       3.794   4.364  -4.890  0.00  0.00     0.018 C 
ENDBRANCH   1   8
TORSDOF 1
ENDMDL
