MODEL 1
REMARK minimizedAffinity -3.70726728
REMARK minimizedRMSD -1
REMARK  0 active torsions:
REMARK  status: ('A' for Active; 'I' for Inactive)
ROOT
ATOM      1  C   UNL d   1       0.186  -1.053   0.181  0.00  0.00     0.020 A 
ATOM      2  C1  UNL d   1       0.917  -0.605  -0.918  0.00  0.00     0.020 A 
ATOM      3  C2  UNL d   1       0.712   0.684  -1.415  0.00  0.00     0.034 A 
ATOM      4  C3  UNL d   1      -0.226   1.530  -0.812  0.00  0.00     0.017 A 
ATOM      5  C4  UNL d   1      -0.960   1.079   0.291  0.00  0.00     0.017 A 
ATOM      6  C5  UNL d   1      -0.751  -0.213   0.784  0.00  0.00     0.034 A 
ATOM      7 Cl   UNL d   1      -2.135   2.064   1.088  0.00  0.00    -0.070 Cl
ATOM      8 Cl1  UNL d   1      -0.428   3.111  -1.478  0.00  0.00    -0.070 Cl
ENDROOT
TORSDOF 0
ENDMDL
