MODEL 1
REMARK minimizedAffinity -3.82854128
REMARK minimizedRMSD -1
REMARK  0 active torsions:
REMARK  status: ('A' for Active; 'I' for Inactive)
ROOT
ATOM      1  C   UNL d   1      -1.478   1.117   2.224  0.00  0.00     0.020 A 
ATOM      2  C1  UNL d   1      -1.044  -0.203   2.345  0.00  0.00     0.020 A 
ATOM      3  C2  UNL d   1      -0.287  -0.785   1.326  0.00  0.00     0.034 A 
ATOM      4  C3  UNL d   1       0.038  -0.048   0.181  0.00  0.00     0.017 A 
ATOM      5  C4  UNL d   1      -0.398   1.277   0.061  0.00  0.00     0.017 A 
ATOM      6  C5  UNL d   1      -1.155   1.855   1.084  0.00  0.00     0.034 A 
ATOM      7 Cl   UNL d   1      -0.036   2.250  -1.321  0.00  0.00    -0.070 Cl
ATOM      8 Cl1  UNL d   1       0.977  -0.831  -1.039  0.00  0.00    -0.070 Cl
ENDROOT
TORSDOF 0
ENDMDL
