MODEL 1
REMARK minimizedAffinity -3.84061193
REMARK minimizedRMSD -1
REMARK  0 active torsions:
REMARK  status: ('A' for Active; 'I' for Inactive)
ROOT
ATOM      1  C   UNL d   1      -1.338   1.446  -0.360  0.00  0.00     0.020 A 
ATOM      2  C1  UNL d   1      -1.607   1.611   0.998  0.00  0.00     0.020 A 
ATOM      3  C2  UNL d   1      -1.034   0.747   1.933  0.00  0.00     0.034 A 
ATOM      4  C3  UNL d   1      -0.188  -0.286   1.512  0.00  0.00     0.017 A 
ATOM      5  C4  UNL d   1       0.081  -0.451   0.149  0.00  0.00     0.017 A 
ATOM      6  C5  UNL d   1      -0.496   0.417  -0.784  0.00  0.00     0.034 A 
ATOM      7 Cl   UNL d   1       1.114  -1.702  -0.447  0.00  0.00    -0.070 Cl
ATOM      8 Cl1  UNL d   1       0.486  -1.316   2.724  0.00  0.00    -0.070 Cl
ENDROOT
TORSDOF 0
ENDMDL
