MODEL 1
REMARK minimizedAffinity -2.2477715
REMARK minimizedRMSD -1
REMARK  0 active torsions:
REMARK  status: ('A' for Active; 'I' for Inactive)
ROOT
ATOM      1  C   UNL d   1      -2.175   1.754   0.420  0.00  0.00     0.020 A 
ATOM      2  C1  UNL d   1      -2.164   1.628   1.809  0.00  0.00     0.020 A 
ATOM      3  C2  UNL d   1      -1.186   0.850   2.431  0.00  0.00     0.034 A 
ATOM      4  C3  UNL d   1      -0.215   0.194   1.665  0.00  0.00     0.017 A 
ATOM      5  C4  UNL d   1      -0.227   0.321   0.271  0.00  0.00     0.017 A 
ATOM      6  C5  UNL d   1      -1.209   1.102  -0.347  0.00  0.00     0.034 A 
ATOM      7 Cl   UNL d   1       0.937  -0.457  -0.741  0.00  0.00    -0.070 Cl
ATOM      8 Cl1  UNL d   1       0.965  -0.752   2.501  0.00  0.00    -0.070 Cl
ENDROOT
TORSDOF 0
ENDMDL
