MODEL 1
REMARK minimizedAffinity -2.94424319
REMARK minimizedRMSD -1
REMARK  0 active torsions:
REMARK  status: ('A' for Active; 'I' for Inactive)
ROOT
ATOM      1  C   UNL d   1       0.431  -0.187  -0.961  0.00  0.00     0.020 A 
ATOM      2  C1  UNL d   1      -0.429   0.803  -1.436  0.00  0.00     0.020 A 
ATOM      3  C2  UNL d   1      -1.258   1.491  -0.549  0.00  0.00     0.034 A 
ATOM      4  C3  UNL d   1      -1.230   1.192   0.818  0.00  0.00     0.017 A 
ATOM      5  C4  UNL d   1      -0.367   0.198   1.294  0.00  0.00     0.017 A 
ATOM      6  C5  UNL d   1       0.462  -0.489   0.401  0.00  0.00     0.034 A 
ATOM      7 Cl   UNL d   1      -0.276  -0.228   2.966  0.00  0.00    -0.070 Cl
ATOM      8 Cl1  UNL d   1      -2.283   2.083   1.858  0.00  0.00    -0.070 Cl
ENDROOT
TORSDOF 0
ENDMDL
