MODEL 1
REMARK minimizedAffinity -3.81476212
REMARK minimizedRMSD -1
REMARK  0 active torsions:
REMARK  status: ('A' for Active; 'I' for Inactive)
ROOT
ATOM      1  C   UNL d   1      -1.822   1.418  -0.352  0.00  0.00     0.020 A 
ATOM      2  C1  UNL d   1      -1.931   1.596   1.026  0.00  0.00     0.020 A 
ATOM      3  C2  UNL d   1      -1.156   0.823   1.894  0.00  0.00     0.034 A 
ATOM      4  C3  UNL d   1      -0.269  -0.131   1.384  0.00  0.00     0.017 A 
ATOM      5  C4  UNL d   1      -0.159  -0.309  -0.000  0.00  0.00     0.017 A 
ATOM      6  C5  UNL d   1      -0.938   0.468  -0.864  0.00  0.00     0.034 A 
ATOM      7 Cl   UNL d   1       0.914  -1.466  -0.704  0.00  0.00    -0.070 Cl
ATOM      8 Cl1  UNL d   1       0.659  -1.051   2.515  0.00  0.00    -0.070 Cl
ENDROOT
TORSDOF 0
ENDMDL
