MODEL 1
REMARK minimizedAffinity -3.48691273
REMARK minimizedRMSD -1
REMARK  0 active torsions:
REMARK  status: ('A' for Active; 'I' for Inactive)
ROOT
ATOM      1  C   UNL d   1      -1.551   2.134   0.582  0.00  0.00     0.020 A 
ATOM      2  C1  UNL d   1      -1.797   1.949   1.941  0.00  0.00     0.020 A 
ATOM      3  C2  UNL d   1      -1.156   0.918   2.633  0.00  0.00     0.034 A 
ATOM      4  C3  UNL d   1      -0.266   0.069   1.965  0.00  0.00     0.017 A 
ATOM      5  C4  UNL d   1      -0.020   0.256   0.600  0.00  0.00     0.017 A 
ATOM      6  C5  UNL d   1      -0.664   1.289  -0.088  0.00  0.00     0.034 A 
ATOM      7 Cl   UNL d   1       1.065  -0.751  -0.293  0.00  0.00    -0.070 Cl
ATOM      8 Cl1  UNL d   1       0.491  -1.184   2.882  0.00  0.00    -0.070 Cl
ENDROOT
TORSDOF 0
ENDMDL
