MODEL 1
REMARK minimizedAffinity -1.3870362
REMARK minimizedRMSD -1
REMARK  0 active torsions:
REMARK  status: ('A' for Active; 'I' for Inactive)
ROOT
ATOM      1  C   UNL d   1      -1.192   1.497   2.307  0.00  0.00     0.020 A 
ATOM      2  C1  UNL d   1      -1.088   0.127   2.547  0.00  0.00     0.020 A 
ATOM      3  C2  UNL d   1      -0.458  -0.699   1.614  0.00  0.00     0.034 A 
ATOM      4  C3  UNL d   1       0.070  -0.157   0.436  0.00  0.00     0.017 A 
ATOM      5  C4  UNL d   1      -0.035   1.218   0.196  0.00  0.00     0.017 A 
ATOM      6  C5  UNL d   1      -0.667   2.041   1.134  0.00  0.00     0.034 A 
ATOM      7 Cl   UNL d   1       0.592   1.960  -1.233  0.00  0.00    -0.070 Cl
ATOM      8 Cl1  UNL d   1       0.835  -1.238  -0.673  0.00  0.00    -0.070 Cl
ENDROOT
TORSDOF 0
ENDMDL
