MODEL 1
REMARK minimizedAffinity -2.20492768
REMARK minimizedRMSD -1
REMARK  0 active torsions:
REMARK  status: ('A' for Active; 'I' for Inactive)
ROOT
ATOM      1  C   UNL d   1      -2.214   1.938   0.156  0.00  0.00     0.020 A 
ATOM      2  C1  UNL d   1      -2.293   1.673   1.523  0.00  0.00     0.020 A 
ATOM      3  C2  UNL d   1      -1.350   0.839   2.127  0.00  0.00     0.034 A 
ATOM      4  C3  UNL d   1      -0.324   0.267   1.365  0.00  0.00     0.017 A 
ATOM      5  C4  UNL d   1      -0.246   0.534  -0.006  0.00  0.00     0.017 A 
ATOM      6  C5  UNL d   1      -1.193   1.370  -0.607  0.00  0.00     0.034 A 
ATOM      7 Cl   UNL d   1       0.991  -0.134  -1.012  0.00  0.00    -0.070 Cl
ATOM      8 Cl1  UNL d   1       0.808  -0.754   2.179  0.00  0.00    -0.070 Cl
ENDROOT
TORSDOF 0
ENDMDL
