MODEL 1
REMARK minimizedAffinity -2.37534022
REMARK minimizedRMSD -1
REMARK  0 active torsions:
REMARK  status: ('A' for Active; 'I' for Inactive)
ROOT
ATOM      1  C   UNL d   1       0.305  -2.826  -1.038  0.00  0.00     0.020 A 
ATOM      2  C1  UNL d   1       0.877  -2.312  -2.201  0.00  0.00     0.020 A 
ATOM      3  C2  UNL d   1       1.083  -0.936  -2.329  0.00  0.00     0.034 A 
ATOM      4  C3  UNL d   1       0.716  -0.071  -1.292  0.00  0.00     0.017 A 
ATOM      5  C4  UNL d   1       0.142  -0.588  -0.125  0.00  0.00     0.017 A 
ATOM      6  C5  UNL d   1      -0.061  -1.966  -0.002  0.00  0.00     0.034 A 
ATOM      7 Cl   UNL d   1      -0.336   0.417   1.197  0.00  0.00    -0.070 Cl
ATOM      8 Cl1  UNL d   1       1.000   1.619  -1.517  0.00  0.00    -0.070 Cl
ENDROOT
TORSDOF 0
ENDMDL
