MODEL 1
REMARK minimizedAffinity -4.66949606
REMARK minimizedRMSD -1
REMARK  0 active torsions:
REMARK  status: ('A' for Active; 'I' for Inactive)
ROOT
ATOM      1  C   UNL d   1      -0.995   1.883   0.654  0.00  0.00     0.020 A 
ATOM      2  C1  UNL d   1      -1.350   0.596   1.056  0.00  0.00     0.020 A 
ATOM      3  C2  UNL d   1      -0.639  -0.506   0.577  0.00  0.00     0.034 A 
ATOM      4  C3  UNL d   1       0.430  -0.323  -0.307  0.00  0.00     0.017 A 
ATOM      5  C4  UNL d   1       0.786   0.969  -0.710  0.00  0.00     0.017 A 
ATOM      6  C5  UNL d   1       0.071   2.069  -0.227  0.00  0.00     0.034 A 
ATOM      7 Cl   UNL d   1       2.094   1.274  -1.798  0.00  0.00    -0.070 Cl
ATOM      8 Cl1  UNL d   1       1.266  -1.731  -0.860  0.00  0.00    -0.070 Cl
ENDROOT
TORSDOF 0
ENDMDL
