MODEL 1
REMARK minimizedAffinity -2.33726263
REMARK minimizedRMSD -1
REMARK  0 active torsions:
REMARK  status: ('A' for Active; 'I' for Inactive)
ROOT
ATOM      1  C   UNL d   1      -2.654   1.941   1.660  0.00  0.00     0.020 A 
ATOM      2  C1  UNL d   1      -2.557   0.708   1.017  0.00  0.00     0.020 A 
ATOM      3  C2  UNL d   1      -1.502  -0.155   1.319  0.00  0.00     0.034 A 
ATOM      4  C3  UNL d   1      -0.540   0.213   2.267  0.00  0.00     0.017 A 
ATOM      5  C4  UNL d   1      -0.638   1.451   2.912  0.00  0.00     0.017 A 
ATOM      6  C5  UNL d   1      -1.697   2.312   2.606  0.00  0.00     0.034 A 
ATOM      7 Cl   UNL d   1       0.510   1.975   4.093  0.00  0.00    -0.070 Cl
ATOM      8 Cl1  UNL d   1       0.738  -0.905   2.591  0.00  0.00    -0.070 Cl
ENDROOT
TORSDOF 0
ENDMDL
