MODEL 1
REMARK minimizedAffinity -2.85213041
REMARK minimizedRMSD -1
REMARK  0 active torsions:
REMARK  status: ('A' for Active; 'I' for Inactive)
ROOT
ATOM      1  C   UNL d   1       1.157  -0.427   0.445  0.00  0.00     0.020 A 
ATOM      2  C1  UNL d   1       0.406   0.213  -0.540  0.00  0.00     0.020 A 
ATOM      3  C2  UNL d   1      -0.824   0.790  -0.216  0.00  0.00     0.034 A 
ATOM      4  C3  UNL d   1      -1.306   0.728   1.096  0.00  0.00     0.017 A 
ATOM      5  C4  UNL d   1      -0.552   0.085   2.084  0.00  0.00     0.017 A 
ATOM      6  C5  UNL d   1       0.678  -0.491   1.755  0.00  0.00     0.034 A 
ATOM      7 Cl   UNL d   1      -1.082  -0.031   3.726  0.00  0.00    -0.070 Cl
ATOM      8 Cl1  UNL d   1      -2.835   1.464   1.425  0.00  0.00    -0.070 Cl
ENDROOT
TORSDOF 0
ENDMDL
