MODEL 1
REMARK minimizedAffinity -3.85206938
REMARK minimizedRMSD -1
REMARK  0 active torsions:
REMARK  status: ('A' for Active; 'I' for Inactive)
ROOT
ATOM      1  C   UNL d   1       0.835  -0.355  -0.032  0.00  0.00     0.020 A 
ATOM      2  C1  UNL d   1       0.294   0.589  -0.904  0.00  0.00     0.020 A 
ATOM      3  C2  UNL d   1      -0.774   1.388  -0.492  0.00  0.00     0.034 A 
ATOM      4  C3  UNL d   1      -1.306   1.246   0.795  0.00  0.00     0.017 A 
ATOM      5  C4  UNL d   1      -0.762   0.298   1.669  0.00  0.00     0.017 A 
ATOM      6  C5  UNL d   1       0.308  -0.500   1.252  0.00  0.00     0.034 A 
ATOM      7 Cl   UNL d   1      -1.364   0.064   3.273  0.00  0.00    -0.070 Cl
ATOM      8 Cl1  UNL d   1      -2.627   2.268   1.237  0.00  0.00    -0.070 Cl
ENDROOT
TORSDOF 0
ENDMDL
