MODEL 1
REMARK minimizedAffinity -2.89786458
REMARK minimizedRMSD -1
REMARK  0 active torsions:
REMARK  status: ('A' for Active; 'I' for Inactive)
ROOT
ATOM      1  C   UNL d   1       0.626  -3.153  -0.445  0.00  0.00     0.020 A 
ATOM      2  C1  UNL d   1       1.184  -2.686  -1.634  0.00  0.00     0.020 A 
ATOM      3  C2  UNL d   1       1.311  -1.313  -1.854  0.00  0.00     0.034 A 
ATOM      4  C3  UNL d   1       0.879  -0.402  -0.883  0.00  0.00     0.017 A 
ATOM      5  C4  UNL d   1       0.320  -0.872   0.311  0.00  0.00     0.017 A 
ATOM      6  C5  UNL d   1       0.195  -2.248   0.526  0.00  0.00     0.034 A 
ATOM      7 Cl   UNL d   1      -0.234   0.191   1.556  0.00  0.00    -0.070 Cl
ATOM      8 Cl1  UNL d   1       1.067   1.282  -1.221  0.00  0.00    -0.070 Cl
ENDROOT
TORSDOF 0
ENDMDL
