MODEL 1
REMARK minimizedAffinity -4.56219816
REMARK minimizedRMSD -1
REMARK  0 active torsions:
REMARK  status: ('A' for Active; 'I' for Inactive)
ROOT
ATOM      1  C   UNL d   1      -1.272   2.621  -0.145  0.00  0.00     0.020 A 
ATOM      2  C1  UNL d   1      -1.937   2.476   1.072  0.00  0.00     0.020 A 
ATOM      3  C2  UNL d   1      -1.816   1.288   1.796  0.00  0.00     0.034 A 
ATOM      4  C3  UNL d   1      -1.027   0.241   1.304  0.00  0.00     0.017 A 
ATOM      5  C4  UNL d   1      -0.360   0.388   0.083  0.00  0.00     0.017 A 
ATOM      6  C5  UNL d   1      -0.485   1.580  -0.638  0.00  0.00     0.034 A 
ATOM      7 Cl   UNL d   1       0.631  -0.859  -0.588  0.00  0.00    -0.070 Cl
ATOM      8 Cl1  UNL d   1      -0.922  -1.200   2.252  0.00  0.00    -0.070 Cl
ENDROOT
TORSDOF 0
ENDMDL
