MODEL 1
REMARK minimizedAffinity -3.85032964
REMARK minimizedRMSD -1
REMARK  0 active torsions:
REMARK  status: ('A' for Active; 'I' for Inactive)
ROOT
ATOM      1  C   UNL d   1      -2.164   2.031   1.839  0.00  0.00     0.020 A 
ATOM      2  C1  UNL d   1      -1.950   2.158   0.467  0.00  0.00     0.020 A 
ATOM      3  C2  UNL d   1      -1.166   1.218  -0.207  0.00  0.00     0.034 A 
ATOM      4  C3  UNL d   1      -0.594   0.149   0.491  0.00  0.00     0.017 A 
ATOM      5  C4  UNL d   1      -0.810   0.023   1.868  0.00  0.00     0.017 A 
ATOM      6  C5  UNL d   1      -1.595   0.966   2.538  0.00  0.00     0.034 A 
ATOM      7 Cl   UNL d   1      -0.137  -1.270   2.798  0.00  0.00    -0.070 Cl
ATOM      8 Cl1  UNL d   1       0.363  -0.976  -0.406  0.00  0.00    -0.070 Cl
ENDROOT
TORSDOF 0
ENDMDL
