MODEL 1
REMARK minimizedAffinity -2.98427176
REMARK minimizedRMSD -1
REMARK  0 active torsions:
REMARK  status: ('A' for Active; 'I' for Inactive)
ROOT
ATOM      1  C   UNL d   1      -1.988   1.816   0.562  0.00  0.00     0.020 A 
ATOM      2  C1  UNL d   1      -2.020   1.710   1.952  0.00  0.00     0.020 A 
ATOM      3  C2  UNL d   1      -1.205   0.780   2.601  0.00  0.00     0.034 A 
ATOM      4  C3  UNL d   1      -0.353  -0.048   1.860  0.00  0.00     0.017 A 
ATOM      5  C4  UNL d   1      -0.321   0.060   0.465  0.00  0.00     0.017 A 
ATOM      6  C5  UNL d   1      -1.140   0.992  -0.180  0.00  0.00     0.034 A 
ATOM      7 Cl   UNL d   1       0.703  -0.927  -0.517  0.00  0.00    -0.070 Cl
ATOM      8 Cl1  UNL d   1       0.628  -1.174   2.728  0.00  0.00    -0.070 Cl
ENDROOT
TORSDOF 0
ENDMDL
