MODEL 1
REMARK minimizedAffinity -1.83599496
REMARK minimizedRMSD -1
REMARK  1 active torsions:
REMARK  status: ('A' for Active; 'I' for Inactive)
REMARK    1  A    between atoms: N_2  and  C1_3 
ROOT
ATOM      1  C1  UNL d   1       0.542  -0.582  -0.441  0.00  0.00     0.143 A 
ATOM      2  C2  UNL d   1       1.403  -1.086  -1.422  0.00  0.00    -0.057 A 
ATOM      3  C3  UNL d   1       2.786  -1.147  -1.211  0.00  0.00     0.033 A 
ATOM      4  C4  UNL d   1       3.337  -0.678  -0.023  0.00  0.00    -0.042 A 
ATOM      5  C5  UNL d   1       2.502  -0.150   0.956  0.00  0.00     0.033 A 
ATOM      6  C6  UNL d   1       1.121  -0.097   0.742  0.00  0.00    -0.057 A 
ENDROOT
BRANCH   1   7
ATOM      7  N   UNL d   1      -0.831  -0.404  -0.629  0.00  0.00    -0.732 N 
ATOM      8  C   UNL d   1      -1.743  -0.471   0.492  0.00  0.00     0.284 C 
ATOM      9  H3  UNL d   1      -1.039   0.341  -1.290  0.00  0.00     0.395 HD
ENDBRANCH   1   7
TORSDOF 1
ENDMDL
