MODEL 1
REMARK minimizedAffinity -1.50628233
REMARK minimizedRMSD -1
REMARK  1 active torsions:
REMARK  status: ('A' for Active; 'I' for Inactive)
REMARK    1  A    between atoms: N_2  and  C1_3 
ROOT
ATOM      1  C1  UNL d   1       0.382  -0.974   1.094  0.00  0.00     0.143 A 
ATOM      2  C2  UNL d   1       0.642  -2.135   1.830  0.00  0.00    -0.057 A 
ATOM      3  C3  UNL d   1       1.584  -3.075   1.395  0.00  0.00     0.033 A 
ATOM      4  C4  UNL d   1       2.263  -2.884   0.196  0.00  0.00    -0.042 A 
ATOM      5  C5  UNL d   1       2.003  -1.750  -0.565  0.00  0.00     0.033 A 
ATOM      6  C6  UNL d   1       1.066  -0.811  -0.121  0.00  0.00    -0.057 A 
ENDROOT
BRANCH   1   7
ATOM      7  N   UNL d   1      -0.613  -0.050   1.424  0.00  0.00    -0.732 N 
ATOM      8  C   UNL d   1      -0.985   0.171   2.805  0.00  0.00     0.284 C 
ATOM      9  H3  UNL d   1      -0.553   0.800   0.868  0.00  0.00     0.395 HD
ENDBRANCH   1   7
TORSDOF 1
ENDMDL
