MODEL 1
REMARK minimizedAffinity 2.76314139
REMARK minimizedRMSD -1
REMARK  1 active torsions:
REMARK  status: ('A' for Active; 'I' for Inactive)
REMARK    1  A    between atoms: N_2  and  C1_3 
ROOT
ATOM      1  C1  UNL d   1       5.289   0.797   0.354  0.00  0.00     0.143 A 
ATOM      2  C2  UNL d   1       3.906   0.975   0.246  0.00  0.00    -0.057 A 
ATOM      3  C3  UNL d   1       3.262   2.054   0.864  0.00  0.00     0.033 A 
ATOM      4  C4  UNL d   1       3.989   2.960   1.629  0.00  0.00    -0.042 A 
ATOM      5  C5  UNL d   1       5.361   2.789   1.771  0.00  0.00     0.033 A 
ATOM      6  C6  UNL d   1       6.000   1.713   1.146  0.00  0.00    -0.057 A 
ENDROOT
BRANCH   1   7
ATOM      7  N   UNL d   1       5.973  -0.309  -0.155  0.00  0.00    -0.732 N 
ATOM      8  C   UNL d   1       5.963  -1.572   0.552  0.00  0.00     0.284 C 
ATOM      9  H3  UNL d   1       5.874  -0.397  -1.164  0.00  0.00     0.395 HD
ENDBRANCH   1   7
TORSDOF 1
ENDMDL
