MODEL 1
REMARK minimizedAffinity 4.40034151
REMARK minimizedRMSD -1
REMARK  1 active torsions:
REMARK  status: ('A' for Active; 'I' for Inactive)
REMARK    1  A    between atoms: N_2  and  C1_3 
ROOT
ATOM      1  C1  UNL d   1       0.080  -1.101   0.852  0.00  0.00     0.143 A 
ATOM      2  C2  UNL d   1      -0.956  -0.636   0.036  0.00  0.00    -0.057 A 
ATOM      3  C3  UNL d   1      -2.113  -0.068   0.584  0.00  0.00     0.033 A 
ATOM      4  C4  UNL d   1      -2.266   0.019   1.964  0.00  0.00    -0.042 A 
ATOM      5  C5  UNL d   1      -1.259  -0.460   2.795  0.00  0.00     0.033 A 
ATOM      6  C6  UNL d   1      -0.104  -1.020   2.242  0.00  0.00    -0.057 A 
ENDROOT
BRANCH   1   7
ATOM      7  N   UNL d   1       1.211  -1.766   0.371  0.00  0.00    -0.732 N 
ATOM      8  C   UNL d   1       1.727  -2.932   1.055  0.00  0.00     0.284 C 
ATOM      9  H3  UNL d   1       1.213  -1.844  -0.643  0.00  0.00     0.395 HD
ENDBRANCH   1   7
TORSDOF 1
ENDMDL
