MODEL 1
REMARK minimizedAffinity -1.2649684
REMARK minimizedRMSD -1
REMARK  0 active torsions:
REMARK  status: ('A' for Active; 'I' for Inactive)
ROOT
ATOM      1  C1  BNZ d   1      -0.407   1.819   1.929  0.00  0.00     0.000 A 
ATOM      2  C2  BNZ d   1      -1.076   1.532   3.089  0.00  0.00     0.000 A 
ATOM      3  C3  BNZ d   1      -1.951   0.484   3.152  0.00  0.00     0.000 A 
ATOM      4  C4  BNZ d   1      -2.187  -0.250   2.046  0.00  0.00     0.000 A 
ATOM      5  C5  BNZ d   1      -1.528   0.032   0.866  0.00  0.00     0.000 A 
ATOM      6  C6  BNZ d   1      -0.618   1.063   0.817  0.00  0.00     0.000 A 
ENDROOT
TORSDOF 0
ENDMDL
