MODEL 1
REMARK minimizedAffinity -3.42668653
REMARK minimizedRMSD -1
REMARK  0 active torsions:
REMARK  status: ('A' for Active; 'I' for Inactive)
ROOT
ATOM      1  C1  BNZ d   1       0.204  -0.548  -2.315  0.00  0.00     0.000 A 
ATOM      2  C2  BNZ d   1      -0.690  -0.045  -3.222  0.00  0.00     0.000 A 
ATOM      3  C3  BNZ d   1      -0.284   0.818  -4.200  0.00  0.00     0.000 A 
ATOM      4  C4  BNZ d   1       1.006   1.210  -4.246  0.00  0.00     0.000 A 
ATOM      5  C5  BNZ d   1       1.917   0.719  -3.332  0.00  0.00     0.000 A 
ATOM      6  C6  BNZ d   1       1.513  -0.181  -2.373  0.00  0.00     0.000 A 
ENDROOT
TORSDOF 0
ENDMDL
