MODEL 1
REMARK minimizedAffinity -4.42910719
REMARK minimizedRMSD -1
REMARK  0 active torsions:
REMARK  status: ('A' for Active; 'I' for Inactive)
ROOT
ATOM      1  C1  BNZ d   1       0.059   0.409   0.027  0.00  0.00     0.000 A 
ATOM      2  C2  BNZ d   1       0.618   1.589   0.440  0.00  0.00     0.000 A 
ATOM      3  C3  BNZ d   1       0.238   2.169   1.618  0.00  0.00     0.000 A 
ATOM      4  C4  BNZ d   1      -0.728   1.591   2.360  0.00  0.00     0.000 A 
ATOM      5  C5  BNZ d   1      -1.309   0.406   1.952  0.00  0.00     0.000 A 
ATOM      6  C6  BNZ d   1      -0.896  -0.195   0.785  0.00  0.00     0.000 A 
ENDROOT
TORSDOF 0
ENDMDL
