MODEL 1
REMARK minimizedAffinity -4.75773811
REMARK minimizedRMSD -1
REMARK  0 active torsions:
REMARK  status: ('A' for Active; 'I' for Inactive)
ROOT
ATOM      1  C1  BNZ d   1       0.752   1.173   2.925  0.00  0.00     0.000 A 
ATOM      2  C2  BNZ d   1      -0.593   1.272   3.162  0.00  0.00     0.000 A 
ATOM      3  C3  BNZ d   1      -1.501   0.854   2.229  0.00  0.00     0.000 A 
ATOM      4  C4  BNZ d   1      -1.063   0.377   1.046  0.00  0.00     0.000 A 
ATOM      5  C5  BNZ d   1       0.289   0.279   0.789  0.00  0.00     0.000 A 
ATOM      6  C6  BNZ d   1       1.200   0.664   1.746  0.00  0.00     0.000 A 
ENDROOT
TORSDOF 0
ENDMDL
