MODEL 1
REMARK minimizedAffinity -2.12436295
REMARK minimizedRMSD -1
REMARK  0 active torsions:
REMARK  status: ('A' for Active; 'I' for Inactive)
ROOT
ATOM      1  C1  BNZ d   1       1.021   0.097  -3.061  0.00  0.00     0.000 A 
ATOM      2  C2  BNZ d   1      -0.060  -0.646  -3.455  0.00  0.00     0.000 A 
ATOM      3  C3  BNZ d   1      -0.515  -0.592  -4.743  0.00  0.00     0.000 A 
ATOM      4  C4  BNZ d   1       0.087   0.233  -5.624  0.00  0.00     0.000 A 
ATOM      5  C5  BNZ d   1       1.172   0.994  -5.240  0.00  0.00     0.000 A 
ATOM      6  C6  BNZ d   1       1.651   0.909  -3.953  0.00  0.00     0.000 A 
ENDROOT
TORSDOF 0
ENDMDL
