MODEL 1
REMARK minimizedAffinity -3.26006484
REMARK minimizedRMSD -1
REMARK  0 active torsions:
REMARK  status: ('A' for Active; 'I' for Inactive)
ROOT
ATOM      1  C1  BNZ d   1       2.395  -0.629   1.340  0.00  0.00     0.000 A 
ATOM      2  C2  BNZ d   1       1.813  -0.918   0.134  0.00  0.00     0.000 A 
ATOM      3  C3  BNZ d   1       0.671  -0.279  -0.262  0.00  0.00     0.000 A 
ATOM      4  C4  BNZ d   1       0.092   0.617   0.563  0.00  0.00     0.000 A 
ATOM      5  C5  BNZ d   1       0.662   0.912   1.785  0.00  0.00     0.000 A 
ATOM      6  C6  BNZ d   1       1.833   0.296   2.164  0.00  0.00     0.000 A 
ENDROOT
TORSDOF 0
ENDMDL
