MODEL 1
REMARK minimizedAffinity -3.23349738
REMARK minimizedRMSD -1
REMARK  0 active torsions:
REMARK  status: ('A' for Active; 'I' for Inactive)
ROOT
ATOM      1  C1  BNZ d   1      -1.474   0.201   0.485  0.00  0.00     0.000 A 
ATOM      2  C2  BNZ d   1      -0.195  -0.099   0.096  0.00  0.00     0.000 A 
ATOM      3  C3  BNZ d   1       0.872   0.240   0.879  0.00  0.00     0.000 A 
ATOM      4  C4  BNZ d   1       0.664   0.913   2.029  0.00  0.00     0.000 A 
ATOM      5  C5  BNZ d   1      -0.618   1.231   2.431  0.00  0.00     0.000 A 
ATOM      6  C6  BNZ d   1      -1.693   0.854   1.659  0.00  0.00     0.000 A 
ENDROOT
TORSDOF 0
ENDMDL
