MODEL 1
REMARK minimizedAffinity -3.96428227
REMARK minimizedRMSD -1
REMARK  0 active torsions:
REMARK  status: ('A' for Active; 'I' for Inactive)
ROOT
ATOM      1  C1  BNZ d   1       0.981   0.315  -4.439  0.00  0.00     0.000 A 
ATOM      2  C2  BNZ d   1       0.389   0.550  -5.651  0.00  0.00     0.000 A 
ATOM      3  C3  BNZ d   1      -0.788  -0.060  -5.985  0.00  0.00     0.000 A 
ATOM      4  C4  BNZ d   1      -1.351  -0.932  -5.124  0.00  0.00     0.000 A 
ATOM      5  C5  BNZ d   1      -0.761  -1.186  -3.902  0.00  0.00     0.000 A 
ATOM      6  C6  BNZ d   1       0.403  -0.542  -3.553  0.00  0.00     0.000 A 
ENDROOT
TORSDOF 0
ENDMDL
