MODEL 1
REMARK minimizedAffinity -4.35704851
REMARK minimizedRMSD -1
REMARK  0 active torsions:
REMARK  status: ('A' for Active; 'I' for Inactive)
ROOT
ATOM      1  C1  BNZ d   1       0.310   1.433   2.333  0.00  0.00     0.000 A 
ATOM      2  C2  BNZ d   1       0.660   0.716   1.220  0.00  0.00     0.000 A 
ATOM      3  C3  BNZ d   1      -0.267  -0.031   0.549  0.00  0.00     0.000 A 
ATOM      4  C4  BNZ d   1      -1.531  -0.094   1.014  0.00  0.00     0.000 A 
ATOM      5  C5  BNZ d   1      -1.897   0.615   2.141  0.00  0.00     0.000 A 
ATOM      6  C6  BNZ d   1      -0.971   1.398   2.791  0.00  0.00     0.000 A 
ENDROOT
TORSDOF 0
ENDMDL
