MODEL 1
REMARK minimizedAffinity -2.47104836
REMARK minimizedRMSD -1
REMARK  0 active torsions:
REMARK  status: ('A' for Active; 'I' for Inactive)
ROOT
ATOM      1  C1  BNZ d   1      -0.871  -0.315   1.301  0.00  0.00     0.000 A 
ATOM      2  C2  BNZ d   1       0.309  -0.630   0.681  0.00  0.00     0.000 A 
ATOM      3  C3  BNZ d   1       1.469   0.012   1.017  0.00  0.00     0.000 A 
ATOM      4  C4  BNZ d   1       1.439   0.994   1.941  0.00  0.00     0.000 A 
ATOM      5  C5  BNZ d   1       0.256   1.330   2.567  0.00  0.00     0.000 A 
ATOM      6  C6  BNZ d   1      -0.902   0.655   2.255  0.00  0.00     0.000 A 
ENDROOT
TORSDOF 0
ENDMDL
