MODEL 1
REMARK minimizedAffinity -3.62844944
REMARK minimizedRMSD -1
REMARK  0 active torsions:
REMARK  status: ('A' for Active; 'I' for Inactive)
ROOT
ATOM      1  C1  BNZ d   1      -0.212  -0.383  -0.265  0.00  0.00     0.000 A 
ATOM      2  C2  BNZ d   1      -1.058   0.288   0.577  0.00  0.00     0.000 A 
ATOM      3  C3  BNZ d   1      -0.636   0.702   1.809  0.00  0.00     0.000 A 
ATOM      4  C4  BNZ d   1       0.617   0.411   2.213  0.00  0.00     0.000 A 
ATOM      5  C5  BNZ d   1       1.479  -0.272   1.380  0.00  0.00     0.000 A 
ATOM      6  C6  BNZ d   1       1.064  -0.654   0.125  0.00  0.00     0.000 A 
ENDROOT
TORSDOF 0
ENDMDL
