MODEL 1
REMARK minimizedAffinity -1.91714907
REMARK minimizedRMSD -1
REMARK  0 active torsions:
REMARK  status: ('A' for Active; 'I' for Inactive)
ROOT
ATOM      1  O1  BZF d   1       0.544  -1.418   0.504  0.00  0.00    -0.204 OA
ATOM      2  C2  BZF d   1       0.706  -1.884  -0.787  0.00  0.00     0.174 A 
ATOM      3  C3  BZF d   1       0.474  -0.903  -1.682  0.00  0.00    -0.012 A 
ATOM      4  C3A BZF d   1       0.237   0.272  -0.901  0.00  0.00    -0.107 A 
ATOM      5  C4  BZF d   1      -0.036   1.572  -1.218  0.00  0.00     0.055 A 
ATOM      6  C5  BZF d   1      -0.287   2.457  -0.218  0.00  0.00    -0.016 A 
ATOM      7  C6  BZF d   1      -0.279   2.076   1.108  0.00  0.00     0.022 A 
ATOM      8  C7  BZF d   1      -0.009   0.799   1.472  0.00  0.00     0.029 A 
ATOM      9  C7A BZF d   1       0.278  -0.090   0.466  0.00  0.00     0.058 A 
ENDROOT
TORSDOF 0
ENDMDL
