MODEL 1
REMARK minimizedAffinity -4.09107018
REMARK minimizedRMSD -1
REMARK  0 active torsions:
REMARK  status: ('A' for Active; 'I' for Inactive)
ROOT
ATOM      1  O1  BZF d   1      -0.092   2.491  -1.385  0.00  0.00    -0.204 OA
ATOM      2  C2  BZF d   1      -0.338   3.794  -0.997  0.00  0.00     0.174 A 
ATOM      3  C3  BZF d   1      -0.646   3.852   0.315  0.00  0.00    -0.012 A 
ATOM      4  C3A BZF d   1      -0.498   2.512   0.796  0.00  0.00    -0.107 A 
ATOM      5  C4  BZF d   1      -0.648   1.934   2.023  0.00  0.00     0.055 A 
ATOM      6  C5  BZF d   1      -0.500   0.588   2.142  0.00  0.00    -0.016 A 
ATOM      7  C6  BZF d   1      -0.207  -0.209   1.054  0.00  0.00     0.022 A 
ATOM      8  C7  BZF d   1      -0.043   0.320  -0.182  0.00  0.00     0.029 A 
ATOM      9  C7A BZF d   1      -0.159   1.684  -0.299  0.00  0.00     0.058 A 
ENDROOT
TORSDOF 0
ENDMDL
