MODEL 1
REMARK minimizedAffinity -2.30653501
REMARK minimizedRMSD -1
REMARK  0 active torsions:
REMARK  status: ('A' for Active; 'I' for Inactive)
ROOT
ATOM      1  O1  BZF d   1       0.773  -0.217  -1.021  0.00  0.00    -0.204 OA
ATOM      2  C2  BZF d   1       0.477   0.463   0.145  0.00  0.00     0.174 A 
ATOM      3  C3  BZF d   1      -0.239  -0.314   0.983  0.00  0.00    -0.012 A 
ATOM      4  C3A BZF d   1      -0.322  -1.588   0.337  0.00  0.00    -0.107 A 
ATOM      5  C4  BZF d   1      -0.894  -2.779   0.681  0.00  0.00     0.055 A 
ATOM      6  C5  BZF d   1      -0.859  -3.809  -0.206  0.00  0.00    -0.016 A 
ATOM      7  C6  BZF d   1      -0.266  -3.680  -1.445  0.00  0.00     0.022 A 
ATOM      8  C7  BZF d   1       0.319  -2.520  -1.828  0.00  0.00     0.029 A 
ATOM      9  C7A BZF d   1       0.314  -1.488  -0.922  0.00  0.00     0.058 A 
ENDROOT
TORSDOF 0
ENDMDL
