MODEL 1
REMARK minimizedAffinity -4.46614361
REMARK minimizedRMSD -1
REMARK  0 active torsions:
REMARK  status: ('A' for Active; 'I' for Inactive)
ROOT
ATOM      1  O1  BZF d   1      -0.470  -3.821   0.691  0.00  0.00    -0.204 OA
ATOM      2  C2  BZF d   1       0.253  -4.308  -0.382  0.00  0.00     0.174 A 
ATOM      3  C3  BZF d   1       0.805  -3.298  -1.085  0.00  0.00    -0.012 A 
ATOM      4  C3A BZF d   1       0.479  -2.110  -0.356  0.00  0.00    -0.107 A 
ATOM      5  C4  BZF d   1       0.760  -0.787  -0.544  0.00  0.00     0.055 A 
ATOM      6  C5  BZF d   1       0.231   0.128   0.310  0.00  0.00    -0.016 A 
ATOM      7  C6  BZF d   1      -0.586  -0.244   1.357  0.00  0.00     0.022 A 
ATOM      8  C7  BZF d   1      -0.889  -1.545   1.587  0.00  0.00     0.029 A 
ATOM      9  C7A BZF d   1      -0.329  -2.475   0.745  0.00  0.00     0.058 A 
ENDROOT
TORSDOF 0
ENDMDL
