MODEL 1
REMARK minimizedAffinity -0.524872243
REMARK minimizedRMSD -1
REMARK  0 active torsions:
REMARK  status: ('A' for Active; 'I' for Inactive)
ROOT
ATOM      1  O1  BZF d   1       0.730  -5.685   0.671  0.00  0.00    -0.204 OA
ATOM      2  C2  BZF d   1       2.098  -5.504   0.747  0.00  0.00     0.174 A 
ATOM      3  C3  BZF d   1       2.472  -4.394   0.079  0.00  0.00    -0.012 A 
ATOM      4  C3A BZF d   1       1.252  -3.796  -0.371  0.00  0.00    -0.107 A 
ATOM      5  C4  BZF d   1       0.965  -2.663  -1.077  0.00  0.00     0.055 A 
ATOM      6  C5  BZF d   1      -0.325  -2.403  -1.414  0.00  0.00    -0.016 A 
ATOM      7  C6  BZF d   1      -1.352  -3.256  -1.066  0.00  0.00     0.022 A 
ATOM      8  C7  BZF d   1      -1.118  -4.389  -0.361  0.00  0.00     0.029 A 
ATOM      9  C7A BZF d   1       0.181  -4.638   0.010  0.00  0.00     0.058 A 
ENDROOT
TORSDOF 0
ENDMDL
