MODEL 1
REMARK minimizedAffinity -1.73942947
REMARK minimizedRMSD -1
REMARK  0 active torsions:
REMARK  status: ('A' for Active; 'I' for Inactive)
ROOT
ATOM      1  O1  BZF d   1       0.092   0.294  -0.724  0.00  0.00    -0.204 OA
ATOM      2  C2  BZF d   1       0.188  -0.700   0.231  0.00  0.00     0.174 A 
ATOM      3  C3  BZF d   1       0.164  -0.174   1.472  0.00  0.00    -0.012 A 
ATOM      4  C3A BZF d   1      -0.047   1.228   1.284  0.00  0.00    -0.107 A 
ATOM      5  C4  BZF d   1      -0.179   2.282   2.142  0.00  0.00     0.055 A 
ATOM      6  C5  BZF d   1      -0.301   3.536   1.634  0.00  0.00    -0.016 A 
ATOM      7  C6  BZF d   1      -0.291   3.774   0.275  0.00  0.00     0.022 A 
ATOM      8  C7  BZF d   1      -0.168   2.760  -0.616  0.00  0.00     0.029 A 
ATOM      9  C7A BZF d   1      -0.077   1.488  -0.106  0.00  0.00     0.058 A 
ENDROOT
TORSDOF 0
ENDMDL
