MODEL 1
REMARK minimizedAffinity 2.19983411
REMARK minimizedRMSD -1
REMARK  0 active torsions:
REMARK  status: ('A' for Active; 'I' for Inactive)
ROOT
ATOM      1  O1  BZF d   1       0.203   0.851  -0.248  0.00  0.00    -0.204 OA
ATOM      2  C2  BZF d   1       0.383  -0.263   0.550  0.00  0.00     0.174 A 
ATOM      3  C3  BZF d   1       0.833   0.092   1.771  0.00  0.00    -0.012 A 
ATOM      4  C3A BZF d   1       0.854   1.522   1.764  0.00  0.00    -0.107 A 
ATOM      5  C4  BZF d   1       1.193   2.461   2.696  0.00  0.00     0.055 A 
ATOM      6  C5  BZF d   1       1.172   3.775   2.348  0.00  0.00    -0.016 A 
ATOM      7  C6  BZF d   1       0.823   4.184   1.078  0.00  0.00     0.022 A 
ATOM      8  C7  BZF d   1       0.474   3.290   0.121  0.00  0.00     0.029 A 
ATOM      9  C7A BZF d   1       0.462   1.964   0.479  0.00  0.00     0.058 A 
ENDROOT
TORSDOF 0
ENDMDL
