MODEL 1
REMARK minimizedAffinity -5.07700682
REMARK minimizedRMSD -1
REMARK  2 active torsions:
REMARK  status: ('A' for Active; 'I' for Inactive)
REMARK    1  A    between atoms: C1_2  and  C2_3 
REMARK    2  A    between atoms: C2_3  and  C3_4 
ROOT
ATOM      1  C3  UNL d   1       0.078  -0.447  -0.678  0.00  0.00    -0.075 A 
ATOM      2  C4  UNL d   1      -0.263  -1.307   0.376  0.00  0.00     0.002 A 
ATOM      3  C5  UNL d   1      -0.472  -2.666   0.141  0.00  0.00     0.002 A 
ATOM      4  C6  UNL d   1      -0.353  -3.180  -1.148  0.00  0.00    -0.004 A 
ATOM      5  C7  UNL d   1      -0.030  -2.332  -2.205  0.00  0.00     0.002 A 
ATOM      6  C8  UNL d   1       0.184  -0.972  -1.973  0.00  0.00     0.002 A 
ENDROOT
BRANCH   1   7
ATOM      7  C2  UNL d   1       0.334   1.020  -0.426  0.00  0.00     0.056 C 
BRANCH   7   8
ATOM      8  C1  UNL d   1      -0.757   1.711   0.398  0.00  0.00     0.007 C 
ATOM      9  C   UNL d   1      -0.453   3.175   0.689  0.00  0.00     0.009 C 
ENDBRANCH   7   8
ENDBRANCH   1   7
TORSDOF 2
ENDMDL
