MODEL 1
REMARK minimizedAffinity -5.69996309
REMARK minimizedRMSD -1
REMARK  2 active torsions:
REMARK  status: ('A' for Active; 'I' for Inactive)
REMARK    1  A    between atoms: C1_2  and  C2_3 
REMARK    2  A    between atoms: C2_3  and  C3_4 
ROOT
ATOM      1  C3  UNL d   1      -0.250  -0.763   0.008  0.00  0.00    -0.075 A 
ATOM      2  C4  UNL d   1       0.057  -0.904  -1.354  0.00  0.00     0.002 A 
ATOM      3  C5  UNL d   1       0.142  -2.171  -1.933  0.00  0.00     0.002 A 
ATOM      4  C6  UNL d   1      -0.067  -3.310  -1.159  0.00  0.00    -0.004 A 
ATOM      5  C7  UNL d   1      -0.355  -3.182   0.198  0.00  0.00     0.002 A 
ATOM      6  C8  UNL d   1      -0.446  -1.916   0.780  0.00  0.00     0.002 A 
ENDROOT
BRANCH   1   7
ATOM      7  C2  UNL d   1      -0.373   0.605   0.634  0.00  0.00     0.056 C 
BRANCH   7   8
ATOM      8  C1  UNL d   1      -0.186   1.762  -0.353  0.00  0.00     0.007 C 
ATOM      9  C   UNL d   1       0.663   2.897   0.205  0.00  0.00     0.009 C 
ENDBRANCH   7   8
ENDBRANCH   1   7
TORSDOF 2
ENDMDL
