MODEL 1
REMARK minimizedAffinity -3.70361018
REMARK minimizedRMSD -1
REMARK  2 active torsions:
REMARK  status: ('A' for Active; 'I' for Inactive)
REMARK    1  A    between atoms: C1_2  and  C2_3 
REMARK    2  A    between atoms: C2_3  and  C3_4 
ROOT
ATOM      1  C3  UNL d   1      -0.354   0.101   0.250  0.00  0.00    -0.075 A 
ATOM      2  C4  UNL d   1       0.514  -0.672  -0.535  0.00  0.00     0.002 A 
ATOM      3  C5  UNL d   1       0.520  -2.062  -0.425  0.00  0.00     0.002 A 
ATOM      4  C6  UNL d   1      -0.331  -2.697   0.477  0.00  0.00    -0.004 A 
ATOM      5  C7  UNL d   1      -1.186  -1.938   1.274  0.00  0.00     0.002 A 
ATOM      6  C8  UNL d   1      -1.197  -0.547   1.163  0.00  0.00     0.002 A 
ENDROOT
BRANCH   1   7
ATOM      7  C2  UNL d   1      -0.387   1.605   0.115  0.00  0.00     0.056 C 
BRANCH   7   8
ATOM      8  C1  UNL d   1       0.999   2.256   0.058  0.00  0.00     0.007 C 
ATOM      9  C   UNL d   1       1.050   3.618   0.738  0.00  0.00     0.009 C 
ENDBRANCH   7   8
ENDBRANCH   1   7
TORSDOF 2
ENDMDL
