MODEL 1
REMARK minimizedAffinity -3.23241472
REMARK minimizedRMSD -1
REMARK  2 active torsions:
REMARK  status: ('A' for Active; 'I' for Inactive)
REMARK    1  A    between atoms: C1_2  and  C2_3 
REMARK    2  A    between atoms: C2_3  and  C3_4 
ROOT
ATOM      1  C3  UNL d   1      -0.124   0.438  -0.340  0.00  0.00    -0.075 A 
ATOM      2  C4  UNL d   1      -0.836  -0.004   0.784  0.00  0.00     0.002 A 
ATOM      3  C5  UNL d   1      -0.969  -1.368   1.046  0.00  0.00     0.002 A 
ATOM      4  C6  UNL d   1      -0.402  -2.305   0.185  0.00  0.00    -0.004 A 
ATOM      5  C7  UNL d   1       0.294  -1.877  -0.944  0.00  0.00     0.002 A 
ATOM      6  C8  UNL d   1       0.432  -0.513  -1.206  0.00  0.00     0.002 A 
ENDROOT
BRANCH   1   7
ATOM      7  C2  UNL d   1       0.049   1.913  -0.614  0.00  0.00     0.056 C 
BRANCH   7   8
ATOM      8  C1  UNL d   1       0.003   2.790   0.642  0.00  0.00     0.007 C 
ATOM      9  C   UNL d   1       1.228   3.682   0.797  0.00  0.00     0.009 C 
ENDBRANCH   7   8
ENDBRANCH   1   7
TORSDOF 2
ENDMDL
