MODEL 1
REMARK minimizedAffinity -3.83257508
REMARK minimizedRMSD -1
REMARK  2 active torsions:
REMARK  status: ('A' for Active; 'I' for Inactive)
REMARK    1  A    between atoms: C1_2  and  C2_3 
REMARK    2  A    between atoms: C2_3  and  C3_4 
ROOT
ATOM      1  C3  UNL d   1      -0.090   0.476  -0.128  0.00  0.00    -0.075 A 
ATOM      2  C4  UNL d   1      -0.852   0.374   1.045  0.00  0.00     0.002 A 
ATOM      3  C5  UNL d   1      -1.321  -0.867   1.478  0.00  0.00     0.002 A 
ATOM      4  C6  UNL d   1      -1.044  -2.016   0.741  0.00  0.00    -0.004 A 
ATOM      5  C7  UNL d   1      -0.302  -1.924  -0.434  0.00  0.00     0.002 A 
ATOM      6  C8  UNL d   1       0.173  -0.684  -0.868  0.00  0.00     0.002 A 
ENDROOT
BRANCH   1   7
ATOM      7  C2  UNL d   1       0.446   1.811  -0.587  0.00  0.00     0.056 C 
BRANCH   7   8
ATOM      8  C1  UNL d   1       0.353   2.917   0.469  0.00  0.00     0.007 C 
ATOM      9  C   UNL d   1       1.484   3.932   0.378  0.00  0.00     0.009 C 
ENDBRANCH   7   8
ENDBRANCH   1   7
TORSDOF 2
ENDMDL
