MODEL 1
REMARK minimizedAffinity -4.47813845
REMARK minimizedRMSD -1
REMARK  2 active torsions:
REMARK  status: ('A' for Active; 'I' for Inactive)
REMARK    1  A    between atoms: C1_2  and  C2_3 
REMARK    2  A    between atoms: C2_3  and  C3_4 
ROOT
ATOM      1  C3  UNL d   1       0.082   0.767  -0.080  0.00  0.00    -0.075 A 
ATOM      2  C4  UNL d   1      -0.643   0.788   1.120  0.00  0.00     0.002 A 
ATOM      3  C5  UNL d   1      -0.987  -0.403   1.760  0.00  0.00     0.002 A 
ATOM      4  C6  UNL d   1      -0.621  -1.627   1.205  0.00  0.00    -0.004 A 
ATOM      5  C7  UNL d   1       0.085  -1.660   0.005  0.00  0.00     0.002 A 
ATOM      6  C8  UNL d   1       0.435  -0.470  -0.636  0.00  0.00     0.002 A 
ENDROOT
BRANCH   1   7
ATOM      7  C2  UNL d   1       0.483   2.053  -0.763  0.00  0.00     0.056 C 
BRANCH   7   8
ATOM      8  C1  UNL d   1       1.815   2.630  -0.272  0.00  0.00     0.007 C 
ATOM      9  C   UNL d   1       1.655   3.624   0.870  0.00  0.00     0.009 C 
ENDBRANCH   7   8
ENDBRANCH   1   7
TORSDOF 2
ENDMDL
