MODEL 1
REMARK minimizedAffinity -3.68259454
REMARK minimizedRMSD -1
REMARK  2 active torsions:
REMARK  status: ('A' for Active; 'I' for Inactive)
REMARK    1  A    between atoms: C1_2  and  C2_3 
REMARK    2  A    between atoms: C2_3  and  C3_4 
ROOT
ATOM      1  C3  UNL d   1       0.584   2.098   0.341  0.00  0.00    -0.075 A 
ATOM      2  C4  UNL d   1       0.623   2.464   1.695  0.00  0.00     0.002 A 
ATOM      3  C5  UNL d   1       1.097   3.719   2.076  0.00  0.00     0.002 A 
ATOM      4  C6  UNL d   1       1.547   4.619   1.112  0.00  0.00    -0.004 A 
ATOM      5  C7  UNL d   1       1.529   4.260  -0.234  0.00  0.00     0.002 A 
ATOM      6  C8  UNL d   1       1.050   3.006  -0.618  0.00  0.00     0.002 A 
ENDROOT
BRANCH   1   7
ATOM      7  C2  UNL d   1       0.044   0.752  -0.080  0.00  0.00     0.056 C 
BRANCH   7   8
ATOM      8  C1  UNL d   1      -0.904   0.113   0.940  0.00  0.00     0.007 C 
ATOM      9  C   UNL d   1      -0.834  -1.408   0.954  0.00  0.00     0.009 C 
ENDBRANCH   7   8
ENDBRANCH   1   7
TORSDOF 2
ENDMDL
