MODEL 1
REMARK minimizedAffinity -3.35917759
REMARK minimizedRMSD -1
REMARK  2 active torsions:
REMARK  status: ('A' for Active; 'I' for Inactive)
REMARK    1  A    between atoms: C1_2  and  C2_3 
REMARK    2  A    between atoms: C2_3  and  C3_4 
ROOT
ATOM      1  C3  UNL d   1      -0.073   0.403  -0.297  0.00  0.00    -0.075 A 
ATOM      2  C4  UNL d   1      -0.918   0.099   0.781  0.00  0.00     0.002 A 
ATOM      3  C5  UNL d   1      -1.018  -1.209   1.255  0.00  0.00     0.002 A 
ATOM      4  C6  UNL d   1      -0.285  -2.229   0.654  0.00  0.00    -0.004 A 
ATOM      5  C7  UNL d   1       0.545  -1.942  -0.427  0.00  0.00     0.002 A 
ATOM      6  C8  UNL d   1       0.651  -0.633  -0.901  0.00  0.00     0.002 A 
ENDROOT
BRANCH   1   7
ATOM      7  C2  UNL d   1       0.062   1.822  -0.796  0.00  0.00     0.056 C 
BRANCH   7   8
ATOM      8  C1  UNL d   1       0.684   2.785   0.221  0.00  0.00     0.007 C 
ATOM      9  C   UNL d   1       2.175   3.006   0.004  0.00  0.00     0.009 C 
ENDBRANCH   7   8
ENDBRANCH   1   7
TORSDOF 2
ENDMDL
