MODEL 1
REMARK minimizedAffinity -3.69958782
REMARK minimizedRMSD -1
REMARK  2 active torsions:
REMARK  status: ('A' for Active; 'I' for Inactive)
REMARK    1  A    between atoms: C1_2  and  C2_3 
REMARK    2  A    between atoms: C2_3  and  C3_4 
ROOT
ATOM      1  C3  UNL d   1      -0.002   1.334   0.417  0.00  0.00    -0.075 A 
ATOM      2  C4  UNL d   1      -0.271   2.369  -0.490  0.00  0.00     0.002 A 
ATOM      3  C5  UNL d   1       0.647   3.404  -0.676  0.00  0.00     0.002 A 
ATOM      4  C6  UNL d   1       1.836   3.423   0.049  0.00  0.00    -0.004 A 
ATOM      5  C7  UNL d   1       2.105   2.409   0.966  0.00  0.00     0.002 A 
ATOM      6  C8  UNL d   1       1.192   1.369   1.150  0.00  0.00     0.002 A 
ENDROOT
BRANCH   1   7
ATOM      7  C2  UNL d   1      -0.977   0.195   0.600  0.00  0.00     0.056 C 
BRANCH   7   8
ATOM      8  C1  UNL d   1      -0.488  -0.896   1.558  0.00  0.00     0.007 C 
ATOM      9  C   UNL d   1      -0.741  -2.306   1.041  0.00  0.00     0.009 C 
ENDBRANCH   7   8
ENDBRANCH   1   7
TORSDOF 2
ENDMDL
