MODEL 1
REMARK minimizedAffinity -4.89222622
REMARK minimizedRMSD -1
REMARK  2 active torsions:
REMARK  status: ('A' for Active; 'I' for Inactive)
REMARK    1  A    between atoms: C1_2  and  C2_3 
REMARK    2  A    between atoms: C2_3  and  C3_4 
ROOT
ATOM      1  C3  UNL d   1      -0.336  -0.304   0.369  0.00  0.00    -0.075 A 
ATOM      2  C4  UNL d   1       0.443  -1.147  -0.437  0.00  0.00     0.002 A 
ATOM      3  C5  UNL d   1       0.441  -2.526  -0.228  0.00  0.00     0.002 A 
ATOM      4  C6  UNL d   1      -0.329  -3.078   0.793  0.00  0.00    -0.004 A 
ATOM      5  C7  UNL d   1      -1.094  -2.249   1.610  0.00  0.00     0.002 A 
ATOM      6  C8  UNL d   1      -1.098  -0.869   1.401  0.00  0.00     0.002 A 
ENDROOT
BRANCH   1   7
ATOM      7  C2  UNL d   1      -0.362   1.187   0.129  0.00  0.00     0.056 C 
BRANCH   7   8
ATOM      8  C1  UNL d   1       1.027   1.827   0.034  0.00  0.00     0.007 C 
ATOM      9  C   UNL d   1       1.103   3.197   0.695  0.00  0.00     0.009 C 
ENDBRANCH   7   8
ENDBRANCH   1   7
TORSDOF 2
ENDMDL
