MODEL 1
REMARK minimizedAffinity -5.00467634
REMARK minimizedRMSD -1
REMARK  2 active torsions:
REMARK  status: ('A' for Active; 'I' for Inactive)
REMARK    1  A    between atoms: C1_2  and  C2_3 
REMARK    2  A    between atoms: C2_3  and  C3_4 
ROOT
ATOM      1  C3  UNL d   1       0.142   0.247  -0.531  0.00  0.00    -0.075 A 
ATOM      2  C4  UNL d   1      -0.809   0.071   0.484  0.00  0.00     0.002 A 
ATOM      3  C5  UNL d   1      -1.021  -1.188   1.046  0.00  0.00     0.002 A 
ATOM      4  C6  UNL d   1      -0.293  -2.287   0.594  0.00  0.00    -0.004 A 
ATOM      5  C7  UNL d   1       0.643  -2.127  -0.426  0.00  0.00     0.002 A 
ATOM      6  C8  UNL d   1       0.860  -0.867  -0.987  0.00  0.00     0.002 A 
ENDROOT
BRANCH   1   7
ATOM      7  C2  UNL d   1       0.397   1.613  -1.123  0.00  0.00     0.056 C 
BRANCH   7   8
ATOM      8  C1  UNL d   1       0.726   2.691  -0.085  0.00  0.00     0.007 C 
ATOM      9  C   UNL d   1       1.947   3.524  -0.451  0.00  0.00     0.009 C 
ENDBRANCH   7   8
ENDBRANCH   1   7
TORSDOF 2
ENDMDL
