MODEL 1
REMARK minimizedAffinity -2.72275662
REMARK minimizedRMSD -1
REMARK  2 active torsions:
REMARK  status: ('A' for Active; 'I' for Inactive)
REMARK    1  A    between atoms: C1_2  and  C2_3 
REMARK    2  A    between atoms: C2_3  and  C3_4 
ROOT
ATOM      1  C3  UNL d   1       0.431   2.466   0.198  0.00  0.00    -0.075 A 
ATOM      2  C4  UNL d   1      -0.209   3.280   1.144  0.00  0.00     0.002 A 
ATOM      3  C5  UNL d   1       0.411   4.437   1.619  0.00  0.00     0.002 A 
ATOM      4  C6  UNL d   1       1.680   4.788   1.162  0.00  0.00    -0.004 A 
ATOM      5  C7  UNL d   1       2.331   3.978   0.235  0.00  0.00     0.002 A 
ATOM      6  C8  UNL d   1       1.711   2.822  -0.245  0.00  0.00     0.002 A 
ENDROOT
BRANCH   1   7
ATOM      7  C2  UNL d   1      -0.247   1.230  -0.341  0.00  0.00     0.056 C 
BRANCH   7   8
ATOM      8  C1  UNL d   1      -0.186   0.023   0.602  0.00  0.00     0.007 C 
ATOM      9  C   UNL d   1       0.307  -1.247  -0.079  0.00  0.00     0.009 C 
ENDBRANCH   7   8
ENDBRANCH   1   7
TORSDOF 2
ENDMDL
