MODEL 1
REMARK minimizedAffinity -6.33249903
REMARK minimizedRMSD -1
REMARK  2 active torsions:
REMARK  status: ('A' for Active; 'I' for Inactive)
REMARK    1  A    between atoms: C1_2  and  C2_3 
REMARK    2  A    between atoms: C2_3  and  C3_4 
ROOT
ATOM      1  C3  UNL d   1       0.152  -0.248  -0.758  0.00  0.00    -0.075 A 
ATOM      2  C4  UNL d   1       0.726  -1.165  -1.651  0.00  0.00     0.002 A 
ATOM      3  C5  UNL d   1       0.647  -2.536  -1.406  0.00  0.00     0.002 A 
ATOM      4  C6  UNL d   1       0.003  -3.007  -0.264  0.00  0.00    -0.004 A 
ATOM      5  C7  UNL d   1      -0.557  -2.104   0.638  0.00  0.00     0.002 A 
ATOM      6  C8  UNL d   1      -0.483  -0.732   0.393  0.00  0.00     0.002 A 
ENDROOT
BRANCH   1   7
ATOM      7  C2  UNL d   1       0.209   1.236  -1.032  0.00  0.00     0.056 C 
BRANCH   7   8
ATOM      8  C1  UNL d   1       0.680   2.073   0.161  0.00  0.00     0.007 C 
ATOM      9  C   UNL d   1       1.928   2.894  -0.137  0.00  0.00     0.009 C 
ENDBRANCH   7   8
ENDBRANCH   1   7
TORSDOF 2
ENDMDL
