MODEL 1
REMARK minimizedAffinity 4.91269875
REMARK minimizedRMSD -1
REMARK  0 active torsions:
REMARK  status: ('A' for Active; 'I' for Inactive)
ROOT
ATOM      1  C4' PXY d   1      -2.248   0.822  -1.972  0.00  0.00     0.077 C 
ATOM      2  C1' PXY d   1      -0.294  -1.126   3.107  0.00  0.00     0.077 C 
ATOM      3  C1  PXY d   1      -0.794  -0.614   1.770  0.00  0.00    -0.082 A 
ATOM      4  C2  PXY d   1      -1.975  -0.021   1.698  0.00  0.00     0.003 A 
ATOM      5  C3  PXY d   1      -2.456   0.419   0.492  0.00  0.00     0.003 A 
ATOM      6  C4  PXY d   1      -1.699   0.298  -0.643  0.00  0.00    -0.082 A 
ATOM      7  C5  PXY d   1      -0.489  -0.296  -0.575  0.00  0.00     0.003 A 
ATOM      8  C6  PXY d   1      -0.035  -0.772   0.652  0.00  0.00     0.003 A 
ENDROOT
TORSDOF 0
ENDMDL
