MODEL 1
REMARK minimizedAffinity -1.88738263
REMARK minimizedRMSD -1
REMARK  0 active torsions:
REMARK  status: ('A' for Active; 'I' for Inactive)
ROOT
ATOM      1  C4' PXY d   1       1.386  -5.198   3.439  0.00  0.00     0.077 C 
ATOM      2  C1' PXY d   1      -0.109  -0.796   0.003  0.00  0.00     0.077 C 
ATOM      3  C1  PXY d   1       0.273  -1.947   0.912  0.00  0.00    -0.082 A 
ATOM      4  C2  PXY d   1       1.504  -2.431   0.872  0.00  0.00     0.003 A 
ATOM      5  C3  PXY d   1       1.858  -3.493   1.665  0.00  0.00     0.003 A 
ATOM      6  C4  PXY d   1       0.958  -4.030   2.546  0.00  0.00    -0.082 A 
ATOM      7  C5  PXY d   1      -0.297  -3.535   2.600  0.00  0.00     0.003 A 
ATOM      8  C6  PXY d   1      -0.648  -2.484   1.757  0.00  0.00     0.003 A 
ENDROOT
TORSDOF 0
ENDMDL
