MODEL 1
REMARK minimizedAffinity 1.00319338
REMARK minimizedRMSD -1
REMARK  0 active torsions:
REMARK  status: ('A' for Active; 'I' for Inactive)
ROOT
ATOM      1  C4' PXY d   1       5.355  -5.998   1.159  0.00  0.00     0.077 C 
ATOM      2  C1' PXY d   1       0.136  -4.084   2.747  0.00  0.00     0.077 C 
ATOM      3  C1  PXY d   1       1.502  -4.582   2.318  0.00  0.00    -0.082 A 
ATOM      4  C2  PXY d   1       2.119  -5.503   3.041  0.00  0.00     0.003 A 
ATOM      5  C3  PXY d   1       3.369  -5.942   2.686  0.00  0.00     0.003 A 
ATOM      6  C4  PXY d   1       3.971  -5.472   1.549  0.00  0.00    -0.082 A 
ATOM      7  C5  PXY d   1       3.343  -4.540   0.800  0.00  0.00     0.003 A 
ATOM      8  C6  PXY d   1       2.093  -4.078   1.201  0.00  0.00     0.003 A 
ENDROOT
TORSDOF 0
ENDMDL
