MODEL 1
REMARK minimizedAffinity -2.54188013
REMARK minimizedRMSD -1
REMARK  0 active torsions:
REMARK  status: ('A' for Active; 'I' for Inactive)
ROOT
ATOM      1  C4' PXY d   1      -2.159  -3.161   4.090  0.00  0.00     0.077 C 
ATOM      2  C1' PXY d   1       2.842  -4.010   1.319  0.00  0.00     0.077 C 
ATOM      3  C1  PXY d   1       1.536  -3.776   2.052  0.00  0.00    -0.082 A 
ATOM      4  C2  PXY d   1       0.712  -4.791   2.260  0.00  0.00     0.003 A 
ATOM      5  C3  PXY d   1      -0.488  -4.592   2.892  0.00  0.00     0.003 A 
ATOM      6  C4  PXY d   1      -0.825  -3.351   3.364  0.00  0.00    -0.082 A 
ATOM      7  C5  PXY d   1       0.014  -2.313   3.165  0.00  0.00     0.003 A 
ATOM      8  C6  PXY d   1       1.209  -2.528   2.485  0.00  0.00     0.003 A 
ENDROOT
TORSDOF 0
ENDMDL
