MODEL 1
REMARK minimizedAffinity 4.87145567
REMARK minimizedRMSD -1
REMARK  0 active torsions:
REMARK  status: ('A' for Active; 'I' for Inactive)
ROOT
ATOM      1  C4' PXY d   1       2.401   1.026   1.014  0.00  0.00     0.077 C 
ATOM      2  C1' PXY d   1      -2.666  -1.709   1.519  0.00  0.00     0.077 C 
ATOM      3  C1  PXY d   1      -1.340  -0.991   1.374  0.00  0.00    -0.082 A 
ATOM      4  C2  PXY d   1      -0.381  -1.202   2.260  0.00  0.00     0.003 A 
ATOM      5  C3  PXY d   1       0.814  -0.536   2.162  0.00  0.00     0.003 A 
ATOM      6  C4  PXY d   1       1.049   0.315   1.116  0.00  0.00    -0.082 A 
ATOM      7  C5  PXY d   1       0.079   0.528   0.201  0.00  0.00     0.003 A 
ATOM      8  C6  PXY d   1      -1.141  -0.126   0.342  0.00  0.00     0.003 A 
ENDROOT
TORSDOF 0
ENDMDL
