MODEL 1
REMARK minimizedAffinity -1.2641995
REMARK minimizedRMSD -1
REMARK  0 active torsions:
REMARK  status: ('A' for Active; 'I' for Inactive)
ROOT
ATOM      1  C4' PXY d   1       1.752  -4.092   1.533  0.00  0.00     0.077 C 
ATOM      2  C1' PXY d   1      -1.451   0.710   1.215  0.00  0.00     0.077 C 
ATOM      3  C1  PXY d   1      -0.610  -0.548   1.312  0.00  0.00    -0.082 A 
ATOM      4  C2  PXY d   1       0.102  -0.941   0.268  0.00  0.00     0.003 A 
ATOM      5  C3  PXY d   1       0.842  -2.093   0.327  0.00  0.00     0.003 A 
ATOM      6  C4  PXY d   1       0.896  -2.823   1.484  0.00  0.00    -0.082 A 
ATOM      7  C5  PXY d   1       0.181  -2.424   2.557  0.00  0.00     0.003 A 
ATOM      8  C6  PXY d   1      -0.597  -1.273   2.463  0.00  0.00     0.003 A 
ENDROOT
TORSDOF 0
ENDMDL
