MODEL 1
REMARK minimizedAffinity 4.15887737
REMARK minimizedRMSD -1
REMARK  0 active torsions:
REMARK  status: ('A' for Active; 'I' for Inactive)
ROOT
ATOM      1  C   UNL d   1       2.740  -3.761   3.304  0.00  0.00     0.023 A 
ATOM      2  C1  UNL d   1       2.059  -2.554   3.470  0.00  0.00     0.003 A 
ATOM      3  C2  UNL d   1       1.173  -2.111   2.486  0.00  0.00     0.048 A 
ATOM      4  C3  UNL d   1       0.971  -2.879   1.340  0.00  0.00     0.023 A 
ATOM      5  C4  UNL d   1       1.649  -4.087   1.170  0.00  0.00     0.048 A 
ATOM      6  C5  UNL d   1       2.535  -4.526   2.156  0.00  0.00     0.003 A 
ATOM      7  I   UNL d   1      -0.349  -2.221  -0.125  0.00  0.00    -0.146 I 
ENDROOT
TORSDOF 0
ENDMDL
