MODEL 1
REMARK minimizedAffinity 3.46271253
REMARK minimizedRMSD -1
REMARK  0 active torsions:
REMARK  status: ('A' for Active; 'I' for Inactive)
ROOT
ATOM      1  C   UNL d   1       3.591  -5.962  -5.998  0.00  0.00     0.023 A 
ATOM      2  C1  UNL d   1       2.406  -5.996  -5.264  0.00  0.00     0.003 A 
ATOM      3  C2  UNL d   1       2.447  -5.999  -3.868  0.00  0.00     0.048 A 
ATOM      4  C3  UNL d   1       3.677  -5.967  -3.213  0.00  0.00     0.023 A 
ATOM      5  C4  UNL d   1       4.866  -5.932  -3.943  0.00  0.00     0.048 A 
ATOM      6  C5  UNL d   1       4.820  -5.930  -5.339  0.00  0.00     0.003 A 
ATOM      7  I   UNL d   1       3.742  -5.972  -1.136  0.00  0.00    -0.146 I 
ENDROOT
TORSDOF 0
ENDMDL
