MODEL 1
REMARK minimizedAffinity 6.56452417
REMARK minimizedRMSD -1
REMARK  0 active torsions:
REMARK  status: ('A' for Active; 'I' for Inactive)
ROOT
ATOM      1  C   UNL d   1       2.143  -4.903   4.458  0.00  0.00     0.023 A 
ATOM      2  C1  UNL d   1       3.257  -4.083   4.635  0.00  0.00     0.003 A 
ATOM      3  C2  UNL d   1       3.291  -2.813   4.054  0.00  0.00     0.048 A 
ATOM      4  C3  UNL d   1       2.205  -2.369   3.300  0.00  0.00     0.023 A 
ATOM      5  C4  UNL d   1       1.087  -3.186   3.121  0.00  0.00     0.048 A 
ATOM      6  C5  UNL d   1       1.059  -4.455   3.703  0.00  0.00     0.003 A 
ATOM      7  I   UNL d   1       2.253  -0.480   2.435  0.00  0.00    -0.146 I 
ENDROOT
TORSDOF 0
ENDMDL
