MODEL 1
REMARK minimizedAffinity -1.11113727
REMARK minimizedRMSD -1
REMARK  0 active torsions:
REMARK  status: ('A' for Active; 'I' for Inactive)
ROOT
ATOM      1  C   UNL d   1       5.384  -5.500  -3.913  0.00  0.00     0.023 A 
ATOM      2  C1  UNL d   1       4.241  -5.599  -3.120  0.00  0.00     0.003 A 
ATOM      3  C2  UNL d   1       2.986  -5.742  -3.716  0.00  0.00     0.048 A 
ATOM      4  C3  UNL d   1       2.882  -5.787  -5.106  0.00  0.00     0.023 A 
ATOM      5  C4  UNL d   1       4.024  -5.690  -5.903  0.00  0.00     0.048 A 
ATOM      6  C5  UNL d   1       5.276  -5.546  -5.303  0.00  0.00     0.003 A 
ATOM      7  I   UNL d   1       1.016  -6.000  -5.995  0.00  0.00    -0.146 I 
ENDROOT
TORSDOF 0
ENDMDL
