MODEL 1
REMARK minimizedAffinity 14.9562931
REMARK minimizedRMSD -1
REMARK  0 active torsions:
REMARK  status: ('A' for Active; 'I' for Inactive)
ROOT
ATOM      1  C   UNL d   1      -2.674   0.681  -1.602  0.00  0.00     0.023 A 
ATOM      2  C1  UNL d   1      -2.753   0.615  -2.993  0.00  0.00     0.003 A 
ATOM      3  C2  UNL d   1      -3.707   1.372  -3.676  0.00  0.00     0.048 A 
ATOM      4  C3  UNL d   1      -4.578   2.194  -2.962  0.00  0.00     0.023 A 
ATOM      5  C4  UNL d   1      -4.503   2.263  -1.570  0.00  0.00     0.048 A 
ATOM      6  C5  UNL d   1      -3.548   1.503  -0.891  0.00  0.00     0.003 A 
ATOM      7  I   UNL d   1      -5.999   3.322  -3.976  0.00  0.00    -0.146 I 
ENDROOT
TORSDOF 0
ENDMDL
