MODEL 1
REMARK minimizedAffinity 4.8392067
REMARK minimizedRMSD -1
REMARK  0 active torsions:
REMARK  status: ('A' for Active; 'I' for Inactive)
ROOT
ATOM      1  C   UNL d   1       0.929  -1.888   1.669  0.00  0.00     0.023 A 
ATOM      2  C1  UNL d   1       1.528  -1.284   2.775  0.00  0.00     0.003 A 
ATOM      3  C2  UNL d   1       2.204  -2.063   3.716  0.00  0.00     0.048 A 
ATOM      4  C3  UNL d   1       2.278  -3.445   3.545  0.00  0.00     0.023 A 
ATOM      5  C4  UNL d   1       1.681  -4.053   2.439  0.00  0.00     0.048 A 
ATOM      6  C5  UNL d   1       1.006  -3.271   1.501  0.00  0.00     0.003 A 
ATOM      7  I   UNL d   1       3.283  -4.607   4.945  0.00  0.00    -0.146 I 
ENDROOT
TORSDOF 0
ENDMDL
