MODEL 1
REMARK minimizedAffinity 8.54212093
REMARK minimizedRMSD -1
REMARK  0 active torsions:
REMARK  status: ('A' for Active; 'I' for Inactive)
ROOT
ATOM      1  C   UNL d   1       3.031   2.162   2.735  0.00  0.00     0.023 A 
ATOM      2  C1  UNL d   1       2.704   1.143   3.629  0.00  0.00     0.003 A 
ATOM      3  C2  UNL d   1       2.151  -0.050   3.158  0.00  0.00     0.048 A 
ATOM      4  C3  UNL d   1       1.928  -0.216   1.792  0.00  0.00     0.023 A 
ATOM      5  C4  UNL d   1       2.254   0.801   0.894  0.00  0.00     0.048 A 
ATOM      6  C5  UNL d   1       2.806   1.992   1.369  0.00  0.00     0.003 A 
ATOM      7  I   UNL d   1       1.105  -1.991   1.089  0.00  0.00    -0.146 I 
ENDROOT
TORSDOF 0
ENDMDL
