MODEL 1
REMARK minimizedAffinity 5.56191492
REMARK minimizedRMSD -1
REMARK  0 active torsions:
REMARK  status: ('A' for Active; 'I' for Inactive)
ROOT
ATOM      1  C   UNL d   1       1.194  -1.332   3.668  0.00  0.00     0.023 A 
ATOM      2  C1  UNL d   1       2.155  -1.045   2.698  0.00  0.00     0.003 A 
ATOM      3  C2  UNL d   1       3.494  -1.367   2.925  0.00  0.00     0.048 A 
ATOM      4  C3  UNL d   1       3.866  -1.976   4.123  0.00  0.00     0.023 A 
ATOM      5  C4  UNL d   1       2.908  -2.266   5.095  0.00  0.00     0.048 A 
ATOM      6  C5  UNL d   1       1.570  -1.941   4.865  0.00  0.00     0.003 A 
ATOM      7  I   UNL d   1       5.859  -2.456   4.462  0.00  0.00    -0.146 I 
ENDROOT
TORSDOF 0
ENDMDL
