MODEL 1
REMARK minimizedAffinity 12.1960678
REMARK minimizedRMSD -1
REMARK  0 active torsions:
REMARK  status: ('A' for Active; 'I' for Inactive)
ROOT
ATOM      1  C   UNL d   1      -2.432  -0.815  -2.586  0.00  0.00     0.023 A 
ATOM      2  C1  UNL d   1      -3.419  -1.190  -3.497  0.00  0.00     0.003 A 
ATOM      3  C2  UNL d   1      -4.336  -0.246  -3.963  0.00  0.00     0.048 A 
ATOM      4  C3  UNL d   1      -4.260   1.072  -3.514  0.00  0.00     0.023 A 
ATOM      5  C4  UNL d   1      -3.273   1.452  -2.603  0.00  0.00     0.048 A 
ATOM      6  C5  UNL d   1      -2.359   0.505  -2.139  0.00  0.00     0.003 A 
ATOM      7  I   UNL d   1      -5.624   2.479  -4.206  0.00  0.00    -0.146 I 
ENDROOT
TORSDOF 0
ENDMDL
