MODEL 1
REMARK minimizedAffinity -0.543764234
REMARK minimizedRMSD -1
REMARK  0 active torsions:
REMARK  status: ('A' for Active; 'I' for Inactive)
ROOT
ATOM      1  C   UNL d   1       3.109  -5.985  -1.484  0.00  0.00     0.023 A 
ATOM      2  C1  UNL d   1       2.472  -5.980  -2.725  0.00  0.00     0.003 A 
ATOM      3  C2  UNL d   1       3.227  -5.984  -3.899  0.00  0.00     0.048 A 
ATOM      4  C3  UNL d   1       4.620  -5.993  -3.825  0.00  0.00     0.023 A 
ATOM      5  C4  UNL d   1       5.262  -5.999  -2.586  0.00  0.00     0.048 A 
ATOM      6  C5  UNL d   1       4.502  -5.994  -1.414  0.00  0.00     0.003 A 
ATOM      7  I   UNL d   1       5.747  -5.999  -5.572  0.00  0.00    -0.146 I 
ENDROOT
TORSDOF 0
ENDMDL
