MODEL 1
REMARK minimizedAffinity 3.23885155
REMARK minimizedRMSD -1
REMARK  1 active torsions:
REMARK  status: ('A' for Active; 'I' for Inactive)
REMARK    1  A    between atoms: C1_2  and  C2_3 
ROOT
ATOM      1  C2  UNL d   1       2.708   0.449  -0.572  0.00  0.00    -0.077 A 
ATOM      2  C3  UNL d   1       3.063  -0.054   0.687  0.00  0.00     0.002 A 
ATOM      3  C4  UNL d   1       2.692  -1.347   1.062  0.00  0.00     0.002 A 
ATOM      4  C5  UNL d   1       1.969  -2.148   0.181  0.00  0.00    -0.004 A 
ATOM      5  C6  UNL d   1       1.609  -1.656  -1.073  0.00  0.00     0.002 A 
ATOM      6  C7  UNL d   1       1.978  -0.364  -1.449  0.00  0.00     0.002 A 
ENDROOT
BRANCH   1   7
ATOM      7  C1  UNL d   1       3.149   1.826  -0.997  0.00  0.00     0.055 C 
ATOM      8  C   UNL d   1       4.140   1.758  -2.150  0.00  0.00     0.019 C 
ENDBRANCH   1   7
TORSDOF 1
ENDMDL
