MODEL 1
REMARK minimizedAffinity 9.31255817
REMARK minimizedRMSD -1
REMARK  1 active torsions:
REMARK  status: ('A' for Active; 'I' for Inactive)
REMARK    1  A    between atoms: C1_2  and  C2_3 
ROOT
ATOM      1  C2  UNL d   1      -1.959  -5.441   3.447  0.00  0.00    -0.077 A 
ATOM      2  C3  UNL d   1      -0.910  -4.521   3.588  0.00  0.00     0.002 A 
ATOM      3  C4  UNL d   1      -0.448  -4.166   4.857  0.00  0.00     0.002 A 
ATOM      4  C5  UNL d   1      -1.025  -4.730   5.993  0.00  0.00    -0.004 A 
ATOM      5  C6  UNL d   1      -2.070  -5.644   5.863  0.00  0.00     0.002 A 
ATOM      6  C7  UNL d   1      -2.534  -5.999   4.596  0.00  0.00     0.002 A 
ENDROOT
BRANCH   1   7
ATOM      7  C1  UNL d   1      -2.425  -5.861   2.078  0.00  0.00     0.055 C 
ATOM      8  C   UNL d   1      -1.375  -5.561   1.018  0.00  0.00     0.019 C 
ENDBRANCH   1   7
TORSDOF 1
ENDMDL
