MODEL 1
REMARK minimizedAffinity 6.12420654
REMARK minimizedRMSD -1
REMARK  1 active torsions:
REMARK  status: ('A' for Active; 'I' for Inactive)
REMARK    1  A    between atoms: C1_2  and  C2_3 
ROOT
ATOM      1  C2  UNL d   1      -5.168   4.492   3.738  0.00  0.00    -0.077 A 
ATOM      2  C3  UNL d   1      -6.000   4.507   4.866  0.00  0.00     0.002 A 
ATOM      3  C4  UNL d   1      -5.651   5.257   5.992  0.00  0.00     0.002 A 
ATOM      4  C5  UNL d   1      -4.472   5.999   5.998  0.00  0.00    -0.004 A 
ATOM      5  C6  UNL d   1      -3.636   5.989   4.882  0.00  0.00     0.002 A 
ATOM      6  C7  UNL d   1      -3.983   5.239   3.757  0.00  0.00     0.002 A 
ENDROOT
BRANCH   1   7
ATOM      7  C1  UNL d   1      -5.567   3.724   2.506  0.00  0.00     0.055 C 
ATOM      8  C   UNL d   1      -4.348   3.301   1.698  0.00  0.00     0.019 C 
ENDBRANCH   1   7
TORSDOF 1
ENDMDL
