MODEL 1
REMARK minimizedAffinity 6.32134581
REMARK minimizedRMSD -1
REMARK  1 active torsions:
REMARK  status: ('A' for Active; 'I' for Inactive)
REMARK    1  A    between atoms: C1_2  and  C2_3 
ROOT
ATOM      1  C2  UNL d   1      -4.641   0.780  -0.567  0.00  0.00    -0.077 A 
ATOM      2  C3  UNL d   1      -3.998  -0.258  -1.257  0.00  0.00     0.002 A 
ATOM      3  C4  UNL d   1      -4.290  -0.499  -2.601  0.00  0.00     0.002 A 
ATOM      4  C5  UNL d   1      -5.221   0.295  -3.267  0.00  0.00    -0.004 A 
ATOM      5  C6  UNL d   1      -5.867   1.328  -2.589  0.00  0.00     0.002 A 
ATOM      6  C7  UNL d   1      -5.578   1.570  -1.246  0.00  0.00     0.002 A 
ENDROOT
BRANCH   1   7
ATOM      7  C1  UNL d   1      -4.292   1.074   0.868  0.00  0.00     0.055 C 
ATOM      8  C   UNL d   1      -5.108   2.238   1.410  0.00  0.00     0.019 C 
ENDBRANCH   1   7
TORSDOF 1
ENDMDL
