MODEL 1
REMARK minimizedAffinity 1.1665566
REMARK minimizedRMSD -1
REMARK  1 active torsions:
REMARK  status: ('A' for Active; 'I' for Inactive)
REMARK    1  A    between atoms: C1_2  and  C2_3 
ROOT
ATOM      1  C2  UNL d   1       2.895  -0.879  -0.428  0.00  0.00    -0.077 A 
ATOM      2  C3  UNL d   1       3.187  -1.252  -1.747  0.00  0.00     0.002 A 
ATOM      3  C4  UNL d   1       3.666  -0.308  -2.658  0.00  0.00     0.002 A 
ATOM      4  C5  UNL d   1       3.862   1.012  -2.258  0.00  0.00    -0.004 A 
ATOM      5  C6  UNL d   1       3.573   1.393  -0.948  0.00  0.00     0.002 A 
ATOM      6  C7  UNL d   1       3.093   0.451  -0.037  0.00  0.00     0.002 A 
ENDROOT
BRANCH   1   7
ATOM      7  C1  UNL d   1       2.425  -1.906   0.569  0.00  0.00     0.055 C 
ATOM      8  C   UNL d   1       1.349  -2.803  -0.026  0.00  0.00     0.019 C 
ENDBRANCH   1   7
TORSDOF 1
ENDMDL
