MODEL 1
REMARK minimizedAffinity 12.5433216
REMARK minimizedRMSD -1
REMARK  1 active torsions:
REMARK  status: ('A' for Active; 'I' for Inactive)
REMARK    1  A    between atoms: C1_2  and  C2_3 
ROOT
ATOM      1  C2  UNL d   1      -5.466   2.068  -2.221  0.00  0.00    -0.077 A 
ATOM      2  C3  UNL d   1      -5.171   3.237  -1.506  0.00  0.00     0.002 A 
ATOM      3  C4  UNL d   1      -4.633   3.161  -0.220  0.00  0.00     0.002 A 
ATOM      4  C5  UNL d   1      -4.382   1.920   0.361  0.00  0.00    -0.004 A 
ATOM      5  C6  UNL d   1      -4.675   0.751  -0.342  0.00  0.00     0.002 A 
ATOM      6  C7  UNL d   1      -5.213   0.825  -1.627  0.00  0.00     0.002 A 
ENDROOT
BRANCH   1   7
ATOM      7  C1  UNL d   1      -6.000   2.147  -3.627  0.00  0.00     0.055 C 
ATOM      8  C   UNL d   1      -6.000   0.781  -4.298  0.00  0.00     0.019 C 
ENDBRANCH   1   7
TORSDOF 1
ENDMDL
