MODEL 1
REMARK minimizedAffinity 4.22717857
REMARK minimizedRMSD -1
REMARK  1 active torsions:
REMARK  status: ('A' for Active; 'I' for Inactive)
REMARK    1  A    between atoms: C1_2  and  C2_3 
ROOT
ATOM      1  C2  UNL d   1       0.525  -4.577   5.448  0.00  0.00    -0.077 A 
ATOM      2  C3  UNL d   1      -0.215  -5.643   5.978  0.00  0.00     0.002 A 
ATOM      3  C4  UNL d   1      -1.466  -5.967   5.448  0.00  0.00     0.002 A 
ATOM      4  C5  UNL d   1      -1.985  -5.232   4.384  0.00  0.00    -0.004 A 
ATOM      5  C6  UNL d   1      -1.257  -4.168   3.852  0.00  0.00     0.002 A 
ATOM      6  C7  UNL d   1      -0.008  -3.843   4.381  0.00  0.00     0.002 A 
ENDROOT
BRANCH   1   7
ATOM      7  C1  UNL d   1       1.896  -4.258   5.985  0.00  0.00     0.055 C 
ATOM      8  C   UNL d   1       2.787  -5.491   5.998  0.00  0.00     0.019 C 
ENDBRANCH   1   7
TORSDOF 1
ENDMDL
