MODEL 1
REMARK minimizedAffinity 17.1766968
REMARK minimizedRMSD -1
REMARK  0 active torsions:
REMARK  status: ('A' for Active; 'I' for Inactive)
ROOT
ATOM      1  C   UNL d   1      -0.425  -4.795   0.940  0.00  0.00     0.077 C 
ATOM      2  C1  UNL d   1      -1.028  -3.519   0.431  0.00  0.00    -0.074 A 
ATOM      3  C2  UNL d   1      -2.048  -2.874   1.138  0.00  0.00    -0.005 A 
ATOM      4  C3  UNL d   1      -2.592  -1.683   0.658  0.00  0.00     0.006 A 
ATOM      5  C4  UNL d   1      -2.123  -1.125  -0.532  0.00  0.00    -0.005 A 
ATOM      6  C5  UNL d   1      -1.103  -1.755  -1.252  0.00  0.00    -0.074 A 
ATOM      7  C6  UNL d   1      -0.580  -1.164  -2.527  0.00  0.00     0.077 C 
ATOM      8  C7  UNL d   1      -0.556  -2.948  -0.759  0.00  0.00    -0.001 A 
ENDROOT
TORSDOF 0
ENDMDL
