MODEL 1
REMARK minimizedAffinity 18.6558495
REMARK minimizedRMSD -1
REMARK  0 active torsions:
REMARK  status: ('A' for Active; 'I' for Inactive)
ROOT
ATOM      1  C   UNL d   1      -0.205  -1.595  -2.970  0.00  0.00     0.077 C 
ATOM      2  C1  UNL d   1      -0.792  -2.060  -1.670  0.00  0.00    -0.074 A 
ATOM      3  C2  UNL d   1      -1.836  -1.357  -1.061  0.00  0.00    -0.005 A 
ATOM      4  C3  UNL d   1      -2.379  -1.807   0.143  0.00  0.00     0.006 A 
ATOM      5  C4  UNL d   1      -1.884  -2.962   0.748  0.00  0.00    -0.005 A 
ATOM      6  C5  UNL d   1      -0.841  -3.679   0.153  0.00  0.00    -0.074 A 
ATOM      7  C6  UNL d   1      -0.304  -4.929   0.785  0.00  0.00     0.077 C 
ATOM      8  C7  UNL d   1      -0.306  -3.225  -1.060  0.00  0.00    -0.001 A 
ENDROOT
TORSDOF 0
ENDMDL
