MODEL 1
REMARK minimizedAffinity 9.27527523
REMARK minimizedRMSD -1
REMARK  0 active torsions:
REMARK  status: ('A' for Active; 'I' for Inactive)
ROOT
ATOM      1  C   UNL d   1      -0.337  -1.487  -2.724  0.00  0.00     0.077 C 
ATOM      2  C1  UNL d   1      -0.864  -0.174  -3.221  0.00  0.00    -0.074 A 
ATOM      3  C2  UNL d   1      -2.224   0.138  -3.123  0.00  0.00    -0.005 A 
ATOM      4  C3  UNL d   1      -2.699   1.367  -3.581  0.00  0.00     0.006 A 
ATOM      5  C4  UNL d   1      -1.820   2.295  -4.140  0.00  0.00    -0.005 A 
ATOM      6  C5  UNL d   1      -0.457   2.002  -4.245  0.00  0.00    -0.074 A 
ATOM      7  C6  UNL d   1       0.503   2.992  -4.835  0.00  0.00     0.077 C 
ATOM      8  C7  UNL d   1       0.014   0.768  -3.777  0.00  0.00    -0.001 A 
ENDROOT
TORSDOF 0
ENDMDL
