MODEL 1
REMARK minimizedAffinity 11.7172556
REMARK minimizedRMSD -1
REMARK  0 active torsions:
REMARK  status: ('A' for Active; 'I' for Inactive)
ROOT
ATOM      1  C   UNL d   1      -0.246  -1.623  -3.910  0.00  0.00     0.077 C 
ATOM      2  C1  UNL d   1      -0.671  -2.332  -2.659  0.00  0.00    -0.074 A 
ATOM      3  C2  UNL d   1      -1.287  -1.636  -1.613  0.00  0.00    -0.005 A 
ATOM      4  C3  UNL d   1      -1.685  -2.311  -0.459  0.00  0.00     0.006 A 
ATOM      5  C4  UNL d   1      -1.474  -3.685  -0.339  0.00  0.00    -0.005 A 
ATOM      6  C5  UNL d   1      -0.861  -4.397  -1.375  0.00  0.00    -0.074 A 
ATOM      7  C6  UNL d   1      -0.634  -5.876  -1.267  0.00  0.00     0.077 C 
ATOM      8  C7  UNL d   1      -0.469  -3.713  -2.534  0.00  0.00    -0.001 A 
ENDROOT
TORSDOF 0
ENDMDL
