MODEL 1
REMARK minimizedAffinity 15.2664671
REMARK minimizedRMSD -1
REMARK  0 active torsions:
REMARK  status: ('A' for Active; 'I' for Inactive)
ROOT
ATOM      1  C   UNL d   1      -0.640  -5.673  -2.107  0.00  0.00     0.077 C 
ATOM      2  C1  UNL d   1      -0.795  -4.242  -1.686  0.00  0.00    -0.074 A 
ATOM      3  C2  UNL d   1      -0.415  -3.824  -0.407  0.00  0.00    -0.005 A 
ATOM      4  C3  UNL d   1      -0.557  -2.488  -0.032  0.00  0.00     0.006 A 
ATOM      5  C4  UNL d   1      -1.080  -1.558  -0.932  0.00  0.00    -0.005 A 
ATOM      6  C5  UNL d   1      -1.465  -1.957  -2.215  0.00  0.00    -0.074 A 
ATOM      7  C6  UNL d   1      -2.020  -0.969  -3.197  0.00  0.00     0.077 C 
ATOM      8  C7  UNL d   1      -1.313  -3.300  -2.586  0.00  0.00    -0.001 A 
ENDROOT
TORSDOF 0
ENDMDL
