MODEL 1
REMARK minimizedAffinity 11.0757599
REMARK minimizedRMSD -1
REMARK  0 active torsions:
REMARK  status: ('A' for Active; 'I' for Inactive)
ROOT
ATOM      1  C   UNL d   1      -0.422  -4.654   0.782  0.00  0.00     0.077 C 
ATOM      2  C1  UNL d   1      -1.019  -3.351   0.340  0.00  0.00    -0.074 A 
ATOM      3  C2  UNL d   1      -2.175  -2.848   0.944  0.00  0.00    -0.005 A 
ATOM      4  C3  UNL d   1      -2.713  -1.630   0.528  0.00  0.00     0.006 A 
ATOM      5  C4  UNL d   1      -2.101  -0.904  -0.494  0.00  0.00    -0.005 A 
ATOM      6  C5  UNL d   1      -0.944  -1.391  -1.110  0.00  0.00    -0.074 A 
ATOM      7  C6  UNL d   1      -0.268  -0.619  -2.204  0.00  0.00     0.077 C 
ATOM      8  C7  UNL d   1      -0.405  -2.612  -0.682  0.00  0.00    -0.001 A 
ENDROOT
TORSDOF 0
ENDMDL
