MODEL 1
REMARK minimizedAffinity 15.8812799
REMARK minimizedRMSD -1
REMARK  0 active torsions:
REMARK  status: ('A' for Active; 'I' for Inactive)
ROOT
ATOM      1  C   UNL d   1       0.463   2.993  -5.967  0.00  0.00     0.077 C 
ATOM      2  C1  UNL d   1      -0.955   3.174  -5.511  0.00  0.00    -0.074 A 
ATOM      3  C2  UNL d   1      -1.311   4.239  -4.678  0.00  0.00    -0.005 A 
ATOM      4  C3  UNL d   1      -2.636   4.400  -4.270  0.00  0.00     0.006 A 
ATOM      5  C4  UNL d   1      -3.615   3.499  -4.690  0.00  0.00    -0.005 A 
ATOM      6  C5  UNL d   1      -3.277   2.428  -5.523  0.00  0.00    -0.074 A 
ATOM      7  C6  UNL d   1      -4.318   1.455  -5.991  0.00  0.00     0.077 C 
ATOM      8  C7  UNL d   1      -1.945   2.277  -5.934  0.00  0.00    -0.001 A 
ENDROOT
TORSDOF 0
ENDMDL
