MODEL 1
REMARK minimizedAffinity 16.9367199
REMARK minimizedRMSD -1
REMARK  0 active torsions:
REMARK  status: ('A' for Active; 'I' for Inactive)
ROOT
ATOM      1  C   UNL d   1      -0.111  -4.010   0.761  0.00  0.00     0.077 C 
ATOM      2  C1  UNL d   1      -0.861  -2.962  -0.006  0.00  0.00    -0.074 A 
ATOM      3  C2  UNL d   1      -2.071  -2.448   0.473  0.00  0.00    -0.005 A 
ATOM      4  C3  UNL d   1      -2.752  -1.467  -0.247  0.00  0.00     0.006 A 
ATOM      5  C4  UNL d   1      -2.232  -0.990  -1.451  0.00  0.00    -0.005 A 
ATOM      6  C5  UNL d   1      -1.023  -1.491  -1.945  0.00  0.00    -0.074 A 
ATOM      7  C6  UNL d   1      -0.445  -0.983  -3.232  0.00  0.00     0.077 C 
ATOM      8  C7  UNL d   1      -0.341  -2.472  -1.212  0.00  0.00    -0.001 A 
ENDROOT
TORSDOF 0
ENDMDL
