MODEL 1
REMARK minimizedAffinity 14.4961157
REMARK minimizedRMSD -1
REMARK  0 active torsions:
REMARK  status: ('A' for Active; 'I' for Inactive)
ROOT
ATOM      1  C   UNL d   1      -6.000   2.245   5.430  0.00  0.00     0.077 C 
ATOM      2  C1  UNL d   1      -4.703   1.512   5.255  0.00  0.00    -0.074 A 
ATOM      3  C2  UNL d   1      -3.573   1.862   6.000  0.00  0.00    -0.005 A 
ATOM      4  C3  UNL d   1      -2.377   1.165   5.833  0.00  0.00     0.006 A 
ATOM      5  C4  UNL d   1      -2.299   0.111   4.921  0.00  0.00    -0.005 A 
ATOM      6  C5  UNL d   1      -3.419  -0.254   4.168  0.00  0.00    -0.074 A 
ATOM      7  C6  UNL d   1      -3.355  -1.390   3.191  0.00  0.00     0.077 C 
ATOM      8  C7  UNL d   1      -4.619   0.447   4.346  0.00  0.00    -0.001 A 
ENDROOT
TORSDOF 0
ENDMDL
