MODEL 1
REMARK minimizedAffinity 20.9826298
REMARK minimizedRMSD -1
REMARK  0 active torsions:
REMARK  status: ('A' for Active; 'I' for Inactive)
ROOT
ATOM      1  C   UNL d   1      -2.257  -1.733   1.349  0.00  0.00     0.077 C 
ATOM      2  C1  UNL d   1      -2.356  -1.446  -0.120  0.00  0.00    -0.074 A 
ATOM      3  C2  UNL d   1      -3.491  -0.830  -0.656  0.00  0.00    -0.005 A 
ATOM      4  C3  UNL d   1      -3.565  -0.560  -2.023  0.00  0.00     0.006 A 
ATOM      5  C4  UNL d   1      -2.507  -0.904  -2.865  0.00  0.00    -0.005 A 
ATOM      6  C5  UNL d   1      -1.364  -1.520  -2.347  0.00  0.00    -0.074 A 
ATOM      7  C6  UNL d   1      -0.214  -1.888  -3.237  0.00  0.00     0.077 C 
ATOM      8  C7  UNL d   1      -1.294  -1.782  -0.971  0.00  0.00    -0.001 A 
ENDROOT
TORSDOF 0
ENDMDL
