MODEL 1
REMARK minimizedAffinity 16.7110462
REMARK minimizedRMSD -1
REMARK  0 active torsions:
REMARK  status: ('A' for Active; 'I' for Inactive)
ROOT
ATOM      1  C   UNL d   1      -0.914  -1.857  -3.714  0.00  0.00     0.077 C 
ATOM      2  C1  UNL d   1      -1.224  -2.032  -2.257  0.00  0.00    -0.074 A 
ATOM      3  C2  UNL d   1      -2.097  -1.161  -1.598  0.00  0.00    -0.005 A 
ATOM      4  C3  UNL d   1      -2.383  -1.342  -0.244  0.00  0.00     0.006 A 
ATOM      5  C4  UNL d   1      -1.799  -2.395   0.462  0.00  0.00    -0.005 A 
ATOM      6  C5  UNL d   1      -0.924  -3.276  -0.180  0.00  0.00    -0.074 A 
ATOM      7  C6  UNL d   1      -0.296  -4.418   0.562  0.00  0.00     0.077 C 
ATOM      8  C7  UNL d   1      -0.648  -3.092  -1.542  0.00  0.00    -0.001 A 
ENDROOT
TORSDOF 0
ENDMDL
