MODEL 1
REMARK minimizedAffinity 15.038084
REMARK minimizedRMSD -1
REMARK  0 active torsions:
REMARK  status: ('A' for Active; 'I' for Inactive)
ROOT
ATOM      1  C   UNL d   1      -1.891  -1.251  -3.179  0.00  0.00     0.077 C 
ATOM      2  C1  UNL d   1      -1.412  -2.205  -2.126  0.00  0.00    -0.074 A 
ATOM      3  C2  UNL d   1      -1.167  -1.770  -0.820  0.00  0.00    -0.005 A 
ATOM      4  C3  UNL d   1      -0.731  -2.671   0.152  0.00  0.00     0.006 A 
ATOM      5  C4  UNL d   1      -0.537  -4.014  -0.172  0.00  0.00    -0.005 A 
ATOM      6  C5  UNL d   1      -0.779  -4.468  -1.473  0.00  0.00    -0.074 A 
ATOM      7  C6  UNL d   1      -0.585  -5.910  -1.836  0.00  0.00     0.077 C 
ATOM      8  C7  UNL d   1      -1.223  -3.558  -2.442  0.00  0.00    -0.001 A 
ENDROOT
TORSDOF 0
ENDMDL
