MODEL 1
REMARK minimizedAffinity 19.8659134
REMARK minimizedRMSD -1
REMARK  0 active torsions:
REMARK  status: ('A' for Active; 'I' for Inactive)
ROOT
ATOM      1  C   UNL d   1       2.243   2.164  -0.932  0.00  0.00     0.077 C 
ATOM      2  C1  UNL d   1       2.339   1.007  -1.881  0.00  0.00    -0.074 A 
ATOM      3  C2  UNL d   1       1.195   0.311  -2.284  0.00  0.00    -0.005 A 
ATOM      4  C3  UNL d   1       1.300  -0.758  -3.175  0.00  0.00     0.006 A 
ATOM      5  C4  UNL d   1       2.547  -1.140  -3.670  0.00  0.00    -0.005 A 
ATOM      6  C5  UNL d   1       3.702  -0.455  -3.279  0.00  0.00    -0.074 A 
ATOM      7  C6  UNL d   1       5.049  -0.846  -3.810  0.00  0.00     0.077 C 
ATOM      8  C7  UNL d   1       3.588   0.622  -2.389  0.00  0.00    -0.001 A 
ENDROOT
TORSDOF 0
ENDMDL
