MODEL 1
REMARK minimizedAffinity 14.5899715
REMARK minimizedRMSD -1
REMARK  0 active torsions:
REMARK  status: ('A' for Active; 'I' for Inactive)
ROOT
ATOM      1  C   UNL d   1      -3.411   1.537   6.000  0.00  0.00     0.077 C 
ATOM      2  C1  UNL d   1      -2.723   0.345   5.405  0.00  0.00    -0.074 A 
ATOM      3  C2  UNL d   1      -3.265  -0.321   4.301  0.00  0.00    -0.005 A 
ATOM      4  C3  UNL d   1      -2.608  -1.423   3.752  0.00  0.00     0.006 A 
ATOM      5  C4  UNL d   1      -1.405  -1.868   4.301  0.00  0.00    -0.005 A 
ATOM      6  C5  UNL d   1      -0.847  -1.214   5.404  0.00  0.00    -0.074 A 
ATOM      7  C6  UNL d   1       0.450  -1.674   6.000  0.00  0.00     0.077 C 
ATOM      8  C7  UNL d   1      -1.510  -0.104   5.945  0.00  0.00    -0.001 A 
ENDROOT
TORSDOF 0
ENDMDL
