MODEL 1
REMARK minimizedAffinity 11.8146925
REMARK minimizedRMSD -1
REMARK  0 active torsions:
REMARK  status: ('A' for Active; 'I' for Inactive)
ROOT
ATOM      1  C   UNL d   1       2.996   1.888   1.749  0.00  0.00     0.077 C 
ATOM      2  C1  UNL d   1       3.946   1.993   2.905  0.00  0.00    -0.074 A 
ATOM      3  C2  UNL d   1       5.038   1.126   3.018  0.00  0.00    -0.005 A 
ATOM      4  C3  UNL d   1       5.919   1.242   4.093  0.00  0.00     0.006 A 
ATOM      5  C4  UNL d   1       5.717   2.223   5.065  0.00  0.00    -0.005 A 
ATOM      6  C5  UNL d   1       4.631   3.099   4.968  0.00  0.00    -0.074 A 
ATOM      7  C6  UNL d   1       4.405   4.165   5.998  0.00  0.00     0.077 C 
ATOM      8  C7  UNL d   1       3.755   2.981   3.881  0.00  0.00    -0.001 A 
ENDROOT
TORSDOF 0
ENDMDL
