MODEL 1
REMARK minimizedAffinity 7.61819315
REMARK minimizedRMSD -1
REMARK  0 active torsions:
REMARK  status: ('A' for Active; 'I' for Inactive)
ROOT
ATOM      1  C   UNL d   1      -1.912  -1.454   0.549  0.00  0.00     0.077 C 
ATOM      2  C1  UNL d   1      -1.286  -1.118  -0.772  0.00  0.00    -0.074 A 
ATOM      3  C2  UNL d   1      -1.882  -1.519  -1.972  0.00  0.00    -0.005 A 
ATOM      4  C3  UNL d   1      -1.293  -1.191  -3.193  0.00  0.00     0.006 A 
ATOM      5  C4  UNL d   1      -0.104  -0.461  -3.227  0.00  0.00    -0.005 A 
ATOM      6  C5  UNL d   1       0.506  -0.051  -2.037  0.00  0.00    -0.074 A 
ATOM      7  C6  UNL d   1       1.778   0.743  -2.055  0.00  0.00     0.077 C 
ATOM      8  C7  UNL d   1      -0.096  -0.378  -0.814  0.00  0.00    -0.001 A 
ENDROOT
TORSDOF 0
ENDMDL
