MODEL 1
REMARK minimizedAffinity -1.06863868
REMARK minimizedRMSD -1
REMARK  0 active torsions:
REMARK  status: ('A' for Active; 'I' for Inactive)
ROOT
ATOM      1  C   UNL d   1       3.000  -1.805   0.452  0.00  0.00     0.172 C 
ATOM      2  N   UNL d   1       1.879  -0.919   0.244  0.00  0.00    -0.070 N 
ATOM      3  C1  UNL d   1       0.577  -1.305   0.075  0.00  0.00    -0.004 A 
ATOM      4  C2  UNL d   1      -0.183  -0.168  -0.093  0.00  0.00    -0.047 A 
ATOM      5  C3  UNL d   1       0.694   0.941  -0.023  0.00  0.00    -0.047 A 
ATOM      6  C4  UNL d   1       1.964   0.447   0.186  0.00  0.00    -0.004 A 
ENDROOT
TORSDOF 0
ENDMDL
