MODEL 1
REMARK minimizedAffinity -2.70518661
REMARK minimizedRMSD -1
REMARK  0 active torsions:
REMARK  status: ('A' for Active; 'I' for Inactive)
ROOT
ATOM      1  C   UNL d   1      -0.969   0.067   0.337  0.00  0.00     0.172 C 
ATOM      2  N   UNL d   1       0.362  -0.490   0.302  0.00  0.00    -0.070 N 
ATOM      3  C1  UNL d   1       1.374  -0.198   1.178  0.00  0.00    -0.004 A 
ATOM      4  C2  UNL d   1       2.479  -0.933   0.807  0.00  0.00    -0.047 A 
ATOM      5  C3  UNL d   1       2.120  -1.692  -0.332  0.00  0.00    -0.047 A 
ATOM      6  C4  UNL d   1       0.804  -1.399  -0.623  0.00  0.00    -0.004 A 
ENDROOT
TORSDOF 0
ENDMDL
