MODEL 1
REMARK minimizedAffinity -2.73598957
REMARK minimizedRMSD -1
REMARK  0 active torsions:
REMARK  status: ('A' for Active; 'I' for Inactive)
ROOT
ATOM      1  C   UNL d   1       1.960  -2.393  -0.458  0.00  0.00     0.172 C 
ATOM      2  N   UNL d   1       0.914  -1.669   0.224  0.00  0.00    -0.070 N 
ATOM      3  C1  UNL d   1       0.202  -2.122   1.302  0.00  0.00    -0.004 A 
ATOM      4  C2  UNL d   1      -0.698  -1.140   1.657  0.00  0.00    -0.047 A 
ATOM      5  C3  UNL d   1      -0.521  -0.060   0.760  0.00  0.00    -0.047 A 
ATOM      6  C4  UNL d   1       0.483  -0.414  -0.116  0.00  0.00    -0.004 A 
ENDROOT
TORSDOF 0
ENDMDL
