MODEL 1
REMARK minimizedAffinity 0.416282386
REMARK minimizedRMSD -1
REMARK  0 active torsions:
REMARK  status: ('A' for Active; 'I' for Inactive)
ROOT
ATOM      1  C   UNL d   1      -0.116  -0.154  -0.606  0.00  0.00     0.172 C 
ATOM      2  N   UNL d   1      -0.546  -0.450  -1.952  0.00  0.00    -0.070 N 
ATOM      3  C1  UNL d   1      -0.963   0.469  -2.877  0.00  0.00    -0.004 A 
ATOM      4  C2  UNL d   1      -1.285  -0.211  -4.032  0.00  0.00    -0.047 A 
ATOM      5  C3  UNL d   1      -1.055  -1.586  -3.792  0.00  0.00    -0.047 A 
ATOM      6  C4  UNL d   1      -0.598  -1.706  -2.496  0.00  0.00    -0.004 A 
ENDROOT
TORSDOF 0
ENDMDL
