MODEL 1
REMARK minimizedAffinity -1.39155602
REMARK minimizedRMSD -1
REMARK  0 active torsions:
REMARK  status: ('A' for Active; 'I' for Inactive)
ROOT
ATOM      1  C   UNL d   1      -0.784   0.026   0.219  0.00  0.00     0.172 C 
ATOM      2  N   UNL d   1       0.493  -0.647   0.234  0.00  0.00    -0.070 N 
ATOM      3  C1  UNL d   1       0.935  -1.540  -0.705  0.00  0.00    -0.004 A 
ATOM      4  C2  UNL d   1       2.196  -1.954  -0.332  0.00  0.00    -0.047 A 
ATOM      5  C3  UNL d   1       2.522  -1.288   0.873  0.00  0.00    -0.047 A 
ATOM      6  C4  UNL d   1       1.450  -0.485   1.201  0.00  0.00    -0.004 A 
ENDROOT
TORSDOF 0
ENDMDL
