MODEL 1
REMARK minimizedAffinity -3.06106353
REMARK minimizedRMSD -1
REMARK  0 active torsions:
REMARK  status: ('A' for Active; 'I' for Inactive)
ROOT
ATOM      1  C   UNL d   1      -0.185  -1.740  -1.540  0.00  0.00     0.172 C 
ATOM      2  N   UNL d   1       0.773  -1.247  -0.579  0.00  0.00    -0.070 N 
ATOM      3  C1  UNL d   1       0.738  -0.018   0.025  0.00  0.00    -0.004 A 
ATOM      4  C2  UNL d   1       1.822   0.068   0.871  0.00  0.00    -0.047 A 
ATOM      5  C3  UNL d   1       2.534  -1.151   0.773  0.00  0.00    -0.047 A 
ATOM      6  C4  UNL d   1       1.863  -1.947  -0.132  0.00  0.00    -0.004 A 
ENDROOT
TORSDOF 0
ENDMDL
