MODEL 1
REMARK minimizedAffinity -1.40485132
REMARK minimizedRMSD -1
REMARK  0 active torsions:
REMARK  status: ('A' for Active; 'I' for Inactive)
ROOT
ATOM      1  C   UNL d   1       0.088   0.744   0.011  0.00  0.00     0.172 C 
ATOM      2  N   UNL d   1       1.128  -0.152   0.458  0.00  0.00    -0.070 N 
ATOM      3  C1  UNL d   1       1.876  -0.003   1.596  0.00  0.00    -0.004 A 
ATOM      4  C2  UNL d   1       2.756  -1.061   1.665  0.00  0.00    -0.047 A 
ATOM      5  C3  UNL d   1       2.529  -1.874   0.529  0.00  0.00    -0.047 A 
ATOM      6  C4  UNL d   1       1.517  -1.288  -0.201  0.00  0.00    -0.004 A 
ENDROOT
TORSDOF 0
ENDMDL
