MODEL 1
REMARK minimizedAffinity -1.78356266
REMARK minimizedRMSD -1
REMARK  0 active torsions:
REMARK  status: ('A' for Active; 'I' for Inactive)
ROOT
ATOM      1  C   UNL d   1      -2.854  -0.489  -0.649  0.00  0.00     0.172 C 
ATOM      2  N   UNL d   1      -1.453  -0.395  -0.313  0.00  0.00    -0.070 N 
ATOM      3  C1  UNL d   1      -0.886  -0.800   0.866  0.00  0.00    -0.004 A 
ATOM      4  C2  UNL d   1       0.466  -0.542   0.795  0.00  0.00    -0.047 A 
ATOM      5  C3  UNL d   1       0.720   0.039  -0.470  0.00  0.00    -0.047 A 
ATOM      6  C4  UNL d   1      -0.485   0.119  -1.135  0.00  0.00    -0.004 A 
ENDROOT
TORSDOF 0
ENDMDL
