MODEL 1
REMARK minimizedAffinity -2.37198448
REMARK minimizedRMSD -1
REMARK  0 active torsions:
REMARK  status: ('A' for Active; 'I' for Inactive)
ROOT
ATOM      1  C   UNL d   1       0.873   0.016   0.421  0.00  0.00     0.172 C 
ATOM      2  N   UNL d   1      -0.514  -0.345   0.242  0.00  0.00    -0.070 N 
ATOM      3  C1  UNL d   1      -1.216  -0.259  -0.931  0.00  0.00    -0.004 A 
ATOM      4  C2  UNL d   1      -2.500  -0.696  -0.686  0.00  0.00    -0.047 A 
ATOM      5  C3  UNL d   1      -2.572  -1.056   0.680  0.00  0.00    -0.047 A 
ATOM      6  C4  UNL d   1      -1.329  -0.829   1.231  0.00  0.00    -0.004 A 
ENDROOT
TORSDOF 0
ENDMDL
