MODEL 1
REMARK minimizedAffinity -2.11492991
REMARK minimizedRMSD -1
REMARK  0 active torsions:
REMARK  status: ('A' for Active; 'I' for Inactive)
ROOT
ATOM      1  C   UNL d   1      -3.188  -0.785   0.061  0.00  0.00     0.172 C 
ATOM      2  N   UNL d   1      -1.784  -0.619   0.355  0.00  0.00    -0.070 N 
ATOM      3  C1  UNL d   1      -1.055  -1.382   1.227  0.00  0.00    -0.004 A 
ATOM      4  C2  UNL d   1       0.238  -0.907   1.225  0.00  0.00    -0.047 A 
ATOM      5  C3  UNL d   1       0.288   0.181   0.321  0.00  0.00    -0.047 A 
ATOM      6  C4  UNL d   1      -0.977   0.337  -0.204  0.00  0.00    -0.004 A 
ENDROOT
TORSDOF 0
ENDMDL
