MODEL 1
REMARK minimizedAffinity -2.34986448
REMARK minimizedRMSD -1
REMARK  0 active torsions:
REMARK  status: ('A' for Active; 'I' for Inactive)
ROOT
ATOM      1  C   UNL d   1       1.666   0.256   0.689  0.00  0.00     0.172 C 
ATOM      2  N   UNL d   1       1.843   1.474   1.445  0.00  0.00    -0.070 N 
ATOM      3  C1  UNL d   1       1.183   2.653   1.224  0.00  0.00    -0.004 A 
ATOM      4  C2  UNL d   1       1.630   3.567   2.153  0.00  0.00    -0.047 A 
ATOM      5  C3  UNL d   1       2.592   2.915   2.960  0.00  0.00    -0.047 A 
ATOM      6  C4  UNL d   1       2.704   1.620   2.500  0.00  0.00    -0.004 A 
ENDROOT
TORSDOF 0
ENDMDL
