MODEL 1
REMARK minimizedAffinity -3.1567874
REMARK minimizedRMSD -1
REMARK  0 active torsions:
REMARK  status: ('A' for Active; 'I' for Inactive)
ROOT
ATOM      1  C   UNL d   1       0.344   0.192   0.410  0.00  0.00     0.172 C 
ATOM      2  N   UNL d   1      -0.929  -0.397   0.066  0.00  0.00    -0.070 N 
ATOM      3  C1  UNL d   1      -1.497  -0.401  -1.180  0.00  0.00    -0.004 A 
ATOM      4  C2  UNL d   1      -2.705  -1.059  -1.091  0.00  0.00    -0.047 A 
ATOM      5  C3  UNL d   1      -2.869  -1.464   0.255  0.00  0.00    -0.047 A 
ATOM      6  C4  UNL d   1      -1.755  -1.041   0.949  0.00  0.00    -0.004 A 
ENDROOT
TORSDOF 0
ENDMDL
