MODEL 1
REMARK minimizedAffinity -3.52286816
REMARK minimizedRMSD -1
REMARK  0 active torsions:
REMARK  status: ('A' for Active; 'I' for Inactive)
ROOT
ATOM      1  C   UNL d   1       0.280   0.126  -1.916  0.00  0.00     0.172 C 
ATOM      2  N   UNL d   1      -0.769   0.074  -0.926  0.00  0.00    -0.070 N 
ATOM      3  C1  UNL d   1      -1.893  -0.706  -0.993  0.00  0.00    -0.004 A 
ATOM      4  C2  UNL d   1      -2.640  -0.469   0.140  0.00  0.00    -0.047 A 
ATOM      5  C3  UNL d   1      -1.941   0.487   0.916  0.00  0.00    -0.047 A 
ATOM      6  C4  UNL d   1      -0.787   0.806   0.232  0.00  0.00    -0.004 A 
ENDROOT
TORSDOF 0
ENDMDL
