MODEL 1
REMARK minimizedAffinity -3.12409115
REMARK minimizedRMSD -1
REMARK  0 active torsions:
REMARK  status: ('A' for Active; 'I' for Inactive)
ROOT
ATOM      1  C   UNL d   1       0.509  -0.070   0.472  0.00  0.00     0.172 C 
ATOM      2  N   UNL d   1      -0.850  -0.406   0.121  0.00  0.00    -0.070 N 
ATOM      3  C1  UNL d   1      -1.900  -0.502   0.995  0.00  0.00    -0.004 A 
ATOM      4  C2  UNL d   1      -3.023  -0.841   0.271  0.00  0.00    -0.047 A 
ATOM      5  C3  UNL d   1      -2.634  -0.953  -1.085  0.00  0.00    -0.047 A 
ATOM      6  C4  UNL d   1      -1.284  -0.679  -1.149  0.00  0.00    -0.004 A 
ENDROOT
TORSDOF 0
ENDMDL
