MODEL 1
REMARK minimizedAffinity -2.54633927
REMARK minimizedRMSD -1
REMARK  0 active torsions:
REMARK  status: ('A' for Active; 'I' for Inactive)
ROOT
ATOM      1  C   UNL d   1       2.214   0.477  -0.064  0.00  0.00     0.172 C 
ATOM      2  N   UNL d   1       0.976  -0.079   0.431  0.00  0.00    -0.070 N 
ATOM      3  C1  UNL d   1       0.865  -1.099   1.338  0.00  0.00    -0.004 A 
ATOM      4  C2  UNL d   1      -0.477  -1.333   1.548  0.00  0.00    -0.047 A 
ATOM      5  C3  UNL d   1      -1.197  -0.423   0.738  0.00  0.00    -0.047 A 
ATOM      6  C4  UNL d   1      -0.273   0.341   0.057  0.00  0.00    -0.004 A 
ENDROOT
TORSDOF 0
ENDMDL
