MODEL 1
REMARK minimizedAffinity -2.16292429
REMARK minimizedRMSD -1
REMARK  0 active torsions:
REMARK  status: ('A' for Active; 'I' for Inactive)
ROOT
ATOM      1  C   UNL d   1       1.415   0.112   0.237  0.00  0.00     0.172 C 
ATOM      2  N   UNL d   1       0.042  -0.110  -0.153  0.00  0.00    -0.070 N 
ATOM      3  C1  UNL d   1      -0.935  -0.652   0.639  0.00  0.00    -0.004 A 
ATOM      4  C2  UNL d   1      -2.099  -0.695  -0.098  0.00  0.00    -0.047 A 
ATOM      5  C3  UNL d   1      -1.811  -0.161  -1.376  0.00  0.00    -0.047 A 
ATOM      6  C4  UNL d   1      -0.479   0.193  -1.383  0.00  0.00    -0.004 A 
ENDROOT
TORSDOF 0
ENDMDL
