MODEL 1
REMARK minimizedAffinity -1.06255782
REMARK minimizedRMSD -1
REMARK  0 active torsions:
REMARK  status: ('A' for Active; 'I' for Inactive)
ROOT
ATOM      1  C   UNL d   1       0.859   0.830   0.903  0.00  0.00     0.172 C 
ATOM      2  N   UNL d   1       1.639   2.020   1.151  0.00  0.00    -0.070 N 
ATOM      3  C1  UNL d   1       2.112   2.426   2.370  0.00  0.00    -0.004 A 
ATOM      4  C2  UNL d   1       2.805   3.603   2.184  0.00  0.00    -0.047 A 
ATOM      5  C3  UNL d   1       2.745   3.916   0.805  0.00  0.00    -0.047 A 
ATOM      6  C4  UNL d   1       2.017   2.920   0.189  0.00  0.00    -0.004 A 
ENDROOT
TORSDOF 0
ENDMDL
