MODEL 1
REMARK minimizedAffinity -2.49042106
REMARK minimizedRMSD -1
REMARK  0 active torsions:
REMARK  status: ('A' for Active; 'I' for Inactive)
ROOT
ATOM      1  C   UNL d   1      -2.417  -0.666  -0.020  0.00  0.00     0.172 C 
ATOM      2  N   UNL d   1      -0.981  -0.587   0.110  0.00  0.00    -0.070 N 
ATOM      3  C1  UNL d   1      -0.235  -1.173   1.097  0.00  0.00    -0.004 A 
ATOM      4  C2  UNL d   1       1.088  -0.863   0.868  0.00  0.00    -0.047 A 
ATOM      5  C3  UNL d   1       1.138  -0.061  -0.297  0.00  0.00    -0.047 A 
ATOM      6  C4  UNL d   1      -0.156   0.095  -0.745  0.00  0.00    -0.004 A 
ENDROOT
TORSDOF 0
ENDMDL
