MODEL 1
REMARK minimizedAffinity -0.95111388
REMARK minimizedRMSD -1
REMARK  0 active torsions:
REMARK  status: ('A' for Active; 'I' for Inactive)
ROOT
ATOM      1  C   UNL d   1       1.500   0.197   0.548  0.00  0.00     0.172 C 
ATOM      2  N   UNL d   1       0.200  -0.388   0.782  0.00  0.00    -0.070 N 
ATOM      3  C1  UNL d   1      -0.085  -1.355   1.709  0.00  0.00    -0.004 A 
ATOM      4  C2  UNL d   1      -1.430  -1.642   1.620  0.00  0.00    -0.047 A 
ATOM      5  C3  UNL d   1      -1.971  -0.819   0.603  0.00  0.00    -0.047 A 
ATOM      6  C4  UNL d   1      -0.940  -0.053   0.102  0.00  0.00    -0.004 A 
ENDROOT
TORSDOF 0
ENDMDL
