MODEL 1
REMARK minimizedAffinity -2.85936499
REMARK minimizedRMSD -1
REMARK  0 active torsions:
REMARK  status: ('A' for Active; 'I' for Inactive)
ROOT
ATOM      1  C   UNL d   1       0.688   0.013   0.010  0.00  0.00     0.172 C 
ATOM      2  N   UNL d   1      -0.695  -0.394  -0.067  0.00  0.00    -0.070 N 
ATOM      3  C1  UNL d   1      -1.513  -0.650   1.001  0.00  0.00    -0.004 A 
ATOM      4  C2  UNL d   1      -2.750  -1.008   0.510  0.00  0.00    -0.047 A 
ATOM      5  C3  UNL d   1      -2.673  -0.966  -0.902  0.00  0.00    -0.047 A 
ATOM      6  C4  UNL d   1      -1.390  -0.583  -1.233  0.00  0.00    -0.004 A 
ENDROOT
TORSDOF 0
ENDMDL
