MODEL 1
REMARK minimizedAffinity -3.39812016
REMARK minimizedRMSD -1
REMARK  0 active torsions:
REMARK  status: ('A' for Active; 'I' for Inactive)
ROOT
ATOM      1  C   UNL d   1       0.206   0.749   0.590  0.00  0.00     0.172 C 
ATOM      2  N   UNL d   1      -0.918   0.027   0.042  0.00  0.00    -0.070 N 
ATOM      3  C1  UNL d   1      -2.013  -0.399   0.744  0.00  0.00    -0.004 A 
ATOM      4  C2  UNL d   1      -2.854  -1.045  -0.136  0.00  0.00    -0.047 A 
ATOM      5  C3  UNL d   1      -2.243  -1.006  -1.412  0.00  0.00    -0.047 A 
ATOM      6  C4  UNL d   1      -1.045  -0.337  -1.273  0.00  0.00    -0.004 A 
ENDROOT
TORSDOF 0
ENDMDL
