MODEL 1
REMARK minimizedAffinity -3.32338238
REMARK minimizedRMSD -1
REMARK  0 active torsions:
REMARK  status: ('A' for Active; 'I' for Inactive)
ROOT
ATOM      1  C   UNL d   1       0.488   0.329   0.366  0.00  0.00     0.172 C 
ATOM      2  N   UNL d   1      -0.590  -0.594   0.634  0.00  0.00    -0.070 N 
ATOM      3  C1  UNL d   1      -0.532  -1.661   1.491  0.00  0.00    -0.004 A 
ATOM      4  C2  UNL d   1      -1.760  -2.288   1.467  0.00  0.00    -0.047 A 
ATOM      5  C3  UNL d   1      -2.582  -1.573   0.564  0.00  0.00    -0.047 A 
ATOM      6  C4  UNL d   1      -1.833  -0.530   0.063  0.00  0.00    -0.004 A 
ENDROOT
TORSDOF 0
ENDMDL
