MODEL 1
REMARK minimizedAffinity 1.63444579
REMARK minimizedRMSD -1
REMARK  0 active torsions:
REMARK  status: ('A' for Active; 'I' for Inactive)
ROOT
ATOM      1  C   UNL d   1      -1.589   2.016  -2.869  0.00  0.00     0.078 C 
ATOM      2  C1  UNL d   1      -1.230   1.043  -3.952  0.00  0.00    -0.077 A 
ATOM      3  C2  UNL d   1       0.104   0.843  -4.328  0.00  0.00    -0.001 A 
ATOM      4  C3  UNL d   1       0.423  -0.059  -5.345  0.00  0.00     0.003 A 
ATOM      5  C4  UNL d   1      -0.586  -0.767  -5.994  0.00  0.00    -0.005 A 
ATOM      6  C5  UNL d   1      -1.916  -0.573  -5.627  0.00  0.00     0.003 A 
ATOM      7  C6  UNL d   1      -2.237   0.328  -4.611  0.00  0.00    -0.001 A 
ENDROOT
TORSDOF 0
ENDMDL
