MODEL 1
REMARK minimizedAffinity 1.11249793
REMARK minimizedRMSD -1
REMARK  0 active torsions:
REMARK  status: ('A' for Active; 'I' for Inactive)
ROOT
ATOM      1  C   UNL d   1       2.300  -2.258   4.599  0.00  0.00     0.078 C 
ATOM      2  C1  UNL d   1       1.109  -1.836   3.792  0.00  0.00    -0.077 A 
ATOM      3  C2  UNL d   1       1.044  -0.562   3.215  0.00  0.00    -0.001 A 
ATOM      4  C3  UNL d   1      -0.075  -0.178   2.474  0.00  0.00     0.003 A 
ATOM      5  C4  UNL d   1      -1.138  -1.063   2.304  0.00  0.00    -0.005 A 
ATOM      6  C5  UNL d   1      -1.084  -2.332   2.876  0.00  0.00     0.003 A 
ATOM      7  C6  UNL d   1       0.034  -2.718   3.617  0.00  0.00    -0.001 A 
ENDROOT
TORSDOF 0
ENDMDL
