MODEL 1
REMARK minimizedAffinity 6.29021883
REMARK minimizedRMSD -1
REMARK  0 active torsions:
REMARK  status: ('A' for Active; 'I' for Inactive)
ROOT
ATOM      1  C   UNL d   1       1.063  -1.116   3.198  0.00  0.00     0.078 C 
ATOM      2  C1  UNL d   1      -0.227  -0.632   2.605  0.00  0.00    -0.077 A 
ATOM      3  C2  UNL d   1      -1.262  -1.524   2.303  0.00  0.00    -0.001 A 
ATOM      4  C3  UNL d   1      -2.453  -1.060   1.743  0.00  0.00     0.003 A 
ATOM      5  C4  UNL d   1      -2.619   0.298   1.478  0.00  0.00    -0.005 A 
ATOM      6  C5  UNL d   1      -1.594   1.194   1.774  0.00  0.00     0.003 A 
ATOM      7  C6  UNL d   1      -0.402   0.731   2.334  0.00  0.00    -0.001 A 
ENDROOT
TORSDOF 0
ENDMDL
