MODEL 1
REMARK minimizedAffinity -1.08620369
REMARK minimizedRMSD -1
REMARK  0 active torsions:
REMARK  status: ('A' for Active; 'I' for Inactive)
ROOT
ATOM      1  C   UNL d   1       2.255   1.009   0.504  0.00  0.00     0.078 C 
ATOM      2  C1  UNL d   1       1.363   0.188   1.387  0.00  0.00    -0.077 A 
ATOM      3  C2  UNL d   1      -0.017   0.417   1.430  0.00  0.00    -0.001 A 
ATOM      4  C3  UNL d   1      -0.834  -0.349   2.263  0.00  0.00     0.003 A 
ATOM      5  C4  UNL d   1      -0.280  -1.348   3.061  0.00  0.00    -0.005 A 
ATOM      6  C5  UNL d   1       1.093  -1.582   3.026  0.00  0.00     0.003 A 
ATOM      7  C6  UNL d   1       1.912  -0.817   2.193  0.00  0.00    -0.001 A 
ENDROOT
TORSDOF 0
ENDMDL
