MODEL 1
REMARK minimizedAffinity 4.70440149
REMARK minimizedRMSD -1
REMARK  0 active torsions:
REMARK  status: ('A' for Active; 'I' for Inactive)
ROOT
ATOM      1  C   UNL d   1      -1.851   4.493  -2.274  0.00  0.00     0.078 C 
ATOM      2  C1  UNL d   1      -1.443   4.705  -0.847  0.00  0.00    -0.077 A 
ATOM      3  C2  UNL d   1      -0.683   5.820  -0.472  0.00  0.00    -0.001 A 
ATOM      4  C3  UNL d   1      -0.302   6.000   0.858  0.00  0.00     0.003 A 
ATOM      5  C4  UNL d   1      -0.674   5.068   1.825  0.00  0.00    -0.005 A 
ATOM      6  C5  UNL d   1      -1.429   3.954   1.461  0.00  0.00     0.003 A 
ATOM      7  C6  UNL d   1      -1.811   3.773   0.131  0.00  0.00    -0.001 A 
ENDROOT
TORSDOF 0
ENDMDL
