MODEL 1
REMARK minimizedAffinity 4.97142029
REMARK minimizedRMSD -1
REMARK  0 active torsions:
REMARK  status: ('A' for Active; 'I' for Inactive)
ROOT
ATOM      1  C   UNL d   1       4.858  -3.001  -5.998  0.00  0.00     0.078 C 
ATOM      2  C1  UNL d   1       4.806  -2.444  -4.607  0.00  0.00    -0.077 A 
ATOM      3  C2  UNL d   1       3.583  -2.151  -3.992  0.00  0.00    -0.001 A 
ATOM      4  C3  UNL d   1       3.550  -1.624  -2.700  0.00  0.00     0.003 A 
ATOM      5  C4  UNL d   1       4.738  -1.385  -2.012  0.00  0.00    -0.005 A 
ATOM      6  C5  UNL d   1       5.960  -1.672  -2.616  0.00  0.00     0.003 A 
ATOM      7  C6  UNL d   1       5.995  -2.199  -3.908  0.00  0.00    -0.001 A 
ENDROOT
TORSDOF 0
ENDMDL
