MODEL 1
REMARK minimizedAffinity 4.68023539
REMARK minimizedRMSD -1
REMARK  0 active torsions:
REMARK  status: ('A' for Active; 'I' for Inactive)
ROOT
ATOM      1  C   UNL d   1       1.101  -0.386   2.455  0.00  0.00     0.078 C 
ATOM      2  C1  UNL d   1       1.496  -1.147   3.685  0.00  0.00    -0.077 A 
ATOM      3  C2  UNL d   1       0.752  -2.250   4.121  0.00  0.00    -0.001 A 
ATOM      4  C3  UNL d   1       1.126  -2.943   5.273  0.00  0.00     0.003 A 
ATOM      5  C4  UNL d   1       2.244  -2.541   6.000  0.00  0.00    -0.005 A 
ATOM      6  C5  UNL d   1       2.990  -1.443   5.575  0.00  0.00     0.003 A 
ATOM      7  C6  UNL d   1       2.617  -0.748   4.423  0.00  0.00    -0.001 A 
ENDROOT
TORSDOF 0
ENDMDL
