MODEL 1
REMARK minimizedAffinity -3.41705537
REMARK minimizedRMSD -1
REMARK  1 active torsions:
REMARK  status: ('A' for Active; 'I' for Inactive)
REMARK    1  A    between atoms: C1_2  and  C2_3 
ROOT
ATOM      1  C2  UNL d   1       1.288   0.455  -0.045  0.00  0.00    -0.081 A 
ATOM      2  C3  UNL d   1       0.907   0.598  -1.385  0.00  0.00     0.006 A 
ATOM      3  C4  UNL d   1      -0.363   0.195  -1.806  0.00  0.00     0.002 A 
ATOM      4  C5  UNL d   1      -1.274  -0.349  -0.895  0.00  0.00    -0.080 A 
ATOM      5  C6  UNL d   1      -2.651  -0.757  -1.328  0.00  0.00     0.076 C 
ATOM      6  C7  UNL d   1      -0.887  -0.507   0.440  0.00  0.00     0.002 A 
ATOM      7  C8  UNL d   1       0.382  -0.105   0.862  0.00  0.00     0.006 A 
ENDROOT
BRANCH   1   8
ATOM      8  C1  UNL d   1       2.633   0.948   0.426  0.00  0.00     0.054 C 
ATOM      9  C   UNL d   1       2.486   2.090   1.421  0.00  0.00     0.018 C 
ENDBRANCH   1   8
TORSDOF 1
ENDMDL
