MODEL 1
REMARK minimizedAffinity -3.10672569
REMARK minimizedRMSD -1
REMARK  1 active torsions:
REMARK  status: ('A' for Active; 'I' for Inactive)
REMARK    1  A    between atoms: C1_2  and  C2_3 
ROOT
ATOM      1  C2  UNL d   1       1.106   0.304   0.128  0.00  0.00    -0.081 A 
ATOM      2  C3  UNL d   1       1.420  -0.742   1.005  0.00  0.00     0.006 A 
ATOM      3  C4  UNL d   1       2.075  -0.483   2.211  0.00  0.00     0.002 A 
ATOM      4  C5  UNL d   1       2.422   0.825   2.564  0.00  0.00    -0.080 A 
ATOM      5  C6  UNL d   1       3.099   1.120   3.869  0.00  0.00     0.076 C 
ATOM      6  C7  UNL d   1       2.125   1.869   1.680  0.00  0.00     0.002 A 
ATOM      7  C8  UNL d   1       1.469   1.610   0.474  0.00  0.00     0.006 A 
ENDROOT
BRANCH   1   8
ATOM      8  C1  UNL d   1       0.342   0.036  -1.143  0.00  0.00     0.054 C 
ATOM      9  C   UNL d   1      -1.023   0.709  -1.119  0.00  0.00     0.018 C 
ENDBRANCH   1   8
TORSDOF 1
ENDMDL
