MODEL 1
REMARK minimizedAffinity -2.56324649
REMARK minimizedRMSD -1
REMARK  1 active torsions:
REMARK  status: ('A' for Active; 'I' for Inactive)
REMARK    1  A    between atoms: C1_2  and  C2_3 
ROOT
ATOM      1  C2  UNL d   1       1.686   1.483   0.978  0.00  0.00    -0.081 A 
ATOM      2  C3  UNL d   1       1.904   0.129   0.695  0.00  0.00     0.006 A 
ATOM      3  C4  UNL d   1       0.849  -0.688   0.282  0.00  0.00     0.002 A 
ATOM      4  C5  UNL d   1      -0.440  -0.163   0.139  0.00  0.00    -0.080 A 
ATOM      5  C6  UNL d   1      -1.576  -1.022  -0.332  0.00  0.00     0.076 C 
ATOM      6  C7  UNL d   1      -0.662   1.185   0.439  0.00  0.00     0.002 A 
ATOM      7  C8  UNL d   1       0.392   2.002   0.852  0.00  0.00     0.006 A 
ENDROOT
BRANCH   1   8
ATOM      8  C1  UNL d   1       2.834   2.381   1.361  0.00  0.00     0.054 C 
ATOM      9  C   UNL d   1       2.520   3.840   1.059  0.00  0.00     0.018 C 
ENDBRANCH   1   8
TORSDOF 1
ENDMDL
