MODEL 1
REMARK minimizedAffinity 4.28511238
REMARK minimizedRMSD -1
REMARK  1 active torsions:
REMARK  status: ('A' for Active; 'I' for Inactive)
REMARK    1  A    between atoms: C1_2  and  C2_3 
ROOT
ATOM      1  C2  UNL d   1      -2.174  -0.418  -1.146  0.00  0.00    -0.081 A 
ATOM      2  C3  UNL d   1      -3.116  -1.279  -0.569  0.00  0.00     0.006 A 
ATOM      3  C4  UNL d   1      -2.784  -2.044   0.552  0.00  0.00     0.002 A 
ATOM      4  C5  UNL d   1      -1.508  -1.955   1.119  0.00  0.00    -0.080 A 
ATOM      5  C6  UNL d   1      -1.148  -2.748   2.340  0.00  0.00     0.076 C 
ATOM      6  C7  UNL d   1      -0.561  -1.109   0.532  0.00  0.00     0.002 A 
ATOM      7  C8  UNL d   1      -0.893  -0.344  -0.589  0.00  0.00     0.006 A 
ENDROOT
BRANCH   1   8
ATOM      8  C1  UNL d   1      -2.550   0.456  -2.315  0.00  0.00     0.054 C 
ATOM      9  C   UNL d   1      -1.522   1.557  -2.535  0.00  0.00     0.018 C 
ENDBRANCH   1   8
TORSDOF 1
ENDMDL
