MODEL 1
REMARK minimizedAffinity -4.70642138
REMARK minimizedRMSD -1
REMARK  1 active torsions:
REMARK  status: ('A' for Active; 'I' for Inactive)
REMARK    1  A    between atoms: C1_2  and  C2_3 
ROOT
ATOM      1  C2  UNL d   1       1.164   0.398   0.346  0.00  0.00    -0.081 A 
ATOM      2  C3  UNL d   1       0.709  -0.871   0.724  0.00  0.00     0.006 A 
ATOM      3  C4  UNL d   1      -0.465  -1.394   0.178  0.00  0.00     0.002 A 
ATOM      4  C5  UNL d   1      -1.200  -0.661  -0.760  0.00  0.00    -0.080 A 
ATOM      5  C6  UNL d   1      -2.446  -1.223  -1.377  0.00  0.00     0.076 C 
ATOM      6  C7  UNL d   1      -0.755   0.614  -1.125  0.00  0.00     0.002 A 
ATOM      7  C8  UNL d   1       0.419   1.138  -0.579  0.00  0.00     0.006 A 
ENDROOT
BRANCH   1   8
ATOM      8  C1  UNL d   1       2.464   0.938   0.884  0.00  0.00     0.054 C 
ATOM      9  C   UNL d   1       2.493   2.459   0.840  0.00  0.00     0.018 C 
ENDBRANCH   1   8
TORSDOF 1
ENDMDL
