MODEL 1
REMARK minimizedAffinity -3.74267817
REMARK minimizedRMSD -1
REMARK  1 active torsions:
REMARK  status: ('A' for Active; 'I' for Inactive)
REMARK    1  A    between atoms: C1_2  and  C2_3 
ROOT
ATOM      1  C2  UNL d   1       0.151   0.479   0.444  0.00  0.00    -0.081 A 
ATOM      2  C3  UNL d   1       0.042   1.343   1.541  0.00  0.00     0.006 A 
ATOM      3  C4  UNL d   1       1.064   2.250   1.832  0.00  0.00     0.002 A 
ATOM      4  C5  UNL d   1       2.207   2.314   1.029  0.00  0.00    -0.080 A 
ATOM      5  C6  UNL d   1       3.297   3.304   1.313  0.00  0.00     0.076 C 
ATOM      6  C7  UNL d   1       2.324   1.439  -0.057  0.00  0.00     0.002 A 
ATOM      7  C8  UNL d   1       1.303   0.531  -0.348  0.00  0.00     0.006 A 
ENDROOT
BRANCH   1   8
ATOM      8  C1  UNL d   1      -0.977  -0.455   0.089  0.00  0.00     0.054 C 
ATOM      9  C   UNL d   1      -1.757   0.053  -1.115  0.00  0.00     0.018 C 
ENDBRANCH   1   8
TORSDOF 1
ENDMDL
