MODEL 1
REMARK minimizedAffinity -2.08554721
REMARK minimizedRMSD -1
REMARK  1 active torsions:
REMARK  status: ('A' for Active; 'I' for Inactive)
REMARK    1  A    between atoms: C1_2  and  C2_3 
ROOT
ATOM      1  C2  UNL d   1      -1.033  -0.772  -0.479  0.00  0.00    -0.081 A 
ATOM      2  C3  UNL d   1      -0.026   0.087  -0.936  0.00  0.00     0.006 A 
ATOM      3  C4  UNL d   1       1.255   0.033  -0.383  0.00  0.00     0.002 A 
ATOM      4  C5  UNL d   1       1.554  -0.885   0.629  0.00  0.00    -0.080 A 
ATOM      5  C6  UNL d   1       2.934  -0.973   1.210  0.00  0.00     0.076 C 
ATOM      6  C7  UNL d   1       0.543  -1.731   1.098  0.00  0.00     0.002 A 
ATOM      7  C8  UNL d   1      -0.739  -1.677   0.546  0.00  0.00     0.006 A 
ENDROOT
BRANCH   1   8
ATOM      8  C1  UNL d   1      -2.399  -0.761  -1.118  0.00  0.00     0.054 C 
ATOM      9  C   UNL d   1      -2.657   0.549  -1.848  0.00  0.00     0.018 C 
ENDBRANCH   1   8
TORSDOF 1
ENDMDL
