MODEL 1
REMARK minimizedAffinity -2.54158401
REMARK minimizedRMSD -1
REMARK  1 active torsions:
REMARK  status: ('A' for Active; 'I' for Inactive)
REMARK    1  A    between atoms: C1_2  and  C2_3 
ROOT
ATOM      1  C2  UNL d   1       1.538   0.582  -0.433  0.00  0.00    -0.081 A 
ATOM      2  C3  UNL d   1       0.697   0.735  -1.542  0.00  0.00     0.006 A 
ATOM      3  C4  UNL d   1      -0.511   0.037  -1.617  0.00  0.00     0.002 A 
ATOM      4  C5  UNL d   1      -0.902  -0.818  -0.581  0.00  0.00    -0.080 A 
ATOM      5  C6  UNL d   1      -2.210  -1.549  -0.635  0.00  0.00     0.076 C 
ATOM      6  C7  UNL d   1      -0.054  -0.985   0.519  0.00  0.00     0.002 A 
ATOM      7  C8  UNL d   1       1.154  -0.288   0.594  0.00  0.00     0.006 A 
ENDROOT
BRANCH   1   8
ATOM      8  C1  UNL d   1       2.810   1.382  -0.319  0.00  0.00     0.054 C 
ATOM      9  C   UNL d   1       2.692   2.461   0.748  0.00  0.00     0.018 C 
ENDBRANCH   1   8
TORSDOF 1
ENDMDL
