MODEL 1
REMARK minimizedAffinity -1.97326398
REMARK minimizedRMSD -1
REMARK  0 active torsions:
REMARK  status: ('A' for Active; 'I' for Inactive)
ROOT
ATOM      1  C1  BNZ d   1      -0.850   1.722   0.936  0.00  0.00     0.000 A 
ATOM      2  C2  BNZ d   1      -0.673   3.038   0.603  0.00  0.00     0.000 A 
ATOM      3  C3  BNZ d   1       0.464   3.453  -0.032  0.00  0.00     0.000 A 
ATOM      4  C4  BNZ d   1       1.439   2.559  -0.297  0.00  0.00     0.000 A 
ATOM      5  C5  BNZ d   1       1.279   1.230   0.041  0.00  0.00     0.000 A 
ATOM      6  C6  BNZ d   1       0.117   0.810   0.645  0.00  0.00     0.000 A 
ENDROOT
TORSDOF 0
ENDMDL
