MODEL 1
REMARK minimizedAffinity -3.88245249
REMARK minimizedRMSD -1
REMARK  0 active torsions:
REMARK  status: ('A' for Active; 'I' for Inactive)
ROOT
ATOM      1  C1  BNZ d   1       2.242   1.316  -0.624  0.00  0.00     0.000 A 
ATOM      2  C2  BNZ d   1       1.729   0.168  -0.080  0.00  0.00     0.000 A 
ATOM      3  C3  BNZ d   1       0.398   0.069   0.216  0.00  0.00     0.000 A 
ATOM      4  C4  BNZ d   1      -0.409   1.129   0.006  0.00  0.00     0.000 A 
ATOM      5  C5  BNZ d   1       0.096   2.296  -0.533  0.00  0.00     0.000 A 
ATOM      6  C6  BNZ d   1       1.428   2.379  -0.866  0.00  0.00     0.000 A 
ENDROOT
TORSDOF 0
ENDMDL
