MODEL 1
REMARK minimizedAffinity -0.373444617
REMARK minimizedRMSD -1
REMARK  0 active torsions:
REMARK  status: ('A' for Active; 'I' for Inactive)
ROOT
ATOM      1  C1  BNZ d   1       2.498   2.966   0.340  0.00  0.00     0.000 A 
ATOM      2  C2  BNZ d   1       1.435   3.821   0.215  0.00  0.00     0.000 A 
ATOM      3  C3  BNZ d   1       0.152   3.360   0.304  0.00  0.00     0.000 A 
ATOM      4  C4  BNZ d   1      -0.068   2.041   0.476  0.00  0.00     0.000 A 
ATOM      5  C5  BNZ d   1       0.992   1.164   0.594  0.00  0.00     0.000 A 
ATOM      6  C6  BNZ d   1       2.283   1.638   0.543  0.00  0.00     0.000 A 
ENDROOT
TORSDOF 0
ENDMDL
