MODEL 1
REMARK minimizedAffinity 7.81920433
REMARK minimizedRMSD -1
REMARK  0 active torsions:
REMARK  status: ('A' for Active; 'I' for Inactive)
ROOT
ATOM      1  C1  BNZ d   1       0.264   2.366   1.595  0.00  0.00     0.000 A 
ATOM      2  C2  BNZ d   1       1.518   2.347   1.045  0.00  0.00     0.000 A 
ATOM      3  C3  BNZ d   1       1.767   2.957  -0.153  0.00  0.00     0.000 A 
ATOM      4  C4  BNZ d   1       0.754   3.550  -0.818  0.00  0.00     0.000 A 
ATOM      5  C5  BNZ d   1      -0.518   3.570  -0.281  0.00  0.00     0.000 A 
ATOM      6  C6  BNZ d   1      -0.756   2.989   0.943  0.00  0.00     0.000 A 
ENDROOT
TORSDOF 0
ENDMDL
