MODEL 1
REMARK minimizedAffinity 5.70427179
REMARK minimizedRMSD -1
REMARK  0 active torsions:
REMARK  status: ('A' for Active; 'I' for Inactive)
ROOT
ATOM      1  C1  BNZ d   1      -0.219   0.170   1.158  0.00  0.00     0.000 A 
ATOM      2  C2  BNZ d   1       0.677  -0.462   0.338  0.00  0.00     0.000 A 
ATOM      3  C3  BNZ d   1       0.704  -1.826   0.251  0.00  0.00     0.000 A 
ATOM      4  C4  BNZ d   1      -0.136  -2.556   1.012  0.00  0.00     0.000 A 
ATOM      5  C5  BNZ d   1      -1.039  -1.933   1.850  0.00  0.00     0.000 A 
ATOM      6  C6  BNZ d   1      -1.090  -0.559   1.907  0.00  0.00     0.000 A 
ENDROOT
TORSDOF 0
ENDMDL
