MODEL 1
REMARK minimizedAffinity 1.98957372
REMARK minimizedRMSD -1
REMARK  0 active torsions:
REMARK  status: ('A' for Active; 'I' for Inactive)
ROOT
ATOM      1  C1  BNZ d   1      -0.856   3.469  -0.614  0.00  0.00     0.000 A 
ATOM      2  C2  BNZ d   1      -1.725   3.106   0.380  0.00  0.00     0.000 A 
ATOM      3  C3  BNZ d   1      -1.313   2.315   1.416  0.00  0.00     0.000 A 
ATOM      4  C4  BNZ d   1      -0.045   1.857   1.436  0.00  0.00     0.000 A 
ATOM      5  C5  BNZ d   1       0.841   2.207   0.437  0.00  0.00     0.000 A 
ATOM      6  C6  BNZ d   1       0.433   3.035  -0.584  0.00  0.00     0.000 A 
ENDROOT
TORSDOF 0
ENDMDL
