MODEL 1
REMARK minimizedAffinity 2.84558535
REMARK minimizedRMSD -1
REMARK  0 active torsions:
REMARK  status: ('A' for Active; 'I' for Inactive)
ROOT
ATOM      1  C1  BNZ d   1       1.680   3.400   0.764  0.00  0.00     0.000 A 
ATOM      2  C2  BNZ d   1       3.016   3.445   1.061  0.00  0.00     0.000 A 
ATOM      3  C3  BNZ d   1       3.819   2.361   0.842  0.00  0.00     0.000 A 
ATOM      4  C4  BNZ d   1       3.279   1.221   0.364  0.00  0.00     0.000 A 
ATOM      5  C5  BNZ d   1       1.932   1.157   0.068  0.00  0.00     0.000 A 
ATOM      6  C6  BNZ d   1       1.134   2.263   0.253  0.00  0.00     0.000 A 
ENDROOT
TORSDOF 0
ENDMDL
