MODEL 1
REMARK minimizedAffinity 0.0450180136
REMARK minimizedRMSD -1
REMARK  0 active torsions:
REMARK  status: ('A' for Active; 'I' for Inactive)
ROOT
ATOM      1  C1  BNZ d   1       4.137   3.245   1.312  0.00  0.00     0.000 A 
ATOM      2  C2  BNZ d   1       3.103   2.364   1.488  0.00  0.00     0.000 A 
ATOM      3  C3  BNZ d   1       2.864   1.802   2.711  0.00  0.00     0.000 A 
ATOM      4  C4  BNZ d   1       3.681   2.089   3.744  0.00  0.00     0.000 A 
ATOM      5  C5  BNZ d   1       4.733   2.969   3.580  0.00  0.00     0.000 A 
ATOM      6  C6  BNZ d   1       4.947   3.563   2.358  0.00  0.00     0.000 A 
ENDROOT
TORSDOF 0
ENDMDL
