MODEL 1
REMARK minimizedAffinity 3.42514634
REMARK minimizedRMSD -1
REMARK  0 active torsions:
REMARK  status: ('A' for Active; 'I' for Inactive)
ROOT
ATOM      1  C1  BNZ d   1       3.855   3.353  -5.969  0.00  0.00     0.000 A 
ATOM      2  C2  BNZ d   1       4.945   2.711  -5.445  0.00  0.00     0.000 A 
ATOM      3  C3  BNZ d   1       5.998   3.419  -4.937  0.00  0.00     0.000 A 
ATOM      4  C4  BNZ d   1       5.977   4.767  -4.990  0.00  0.00     0.000 A 
ATOM      5  C5  BNZ d   1       4.890   5.429  -5.523  0.00  0.00     0.000 A 
ATOM      6  C6  BNZ d   1       3.815   4.713  -5.999  0.00  0.00     0.000 A 
ENDROOT
TORSDOF 0
ENDMDL
