MODEL 1
REMARK minimizedAffinity 0.326276153
REMARK minimizedRMSD -1
REMARK  0 active torsions:
REMARK  status: ('A' for Active; 'I' for Inactive)
ROOT
ATOM      1  C1  BNZ d   1       3.474  -5.931  -4.450  0.00  0.00     0.000 A 
ATOM      2  C2  BNZ d   1       2.750  -5.900  -3.288  0.00  0.00     0.000 A 
ATOM      3  C3  BNZ d   1       1.384  -5.943  -3.312  0.00  0.00     0.000 A 
ATOM      4  C4  BNZ d   1       0.743  -5.976  -4.498  0.00  0.00     0.000 A 
ATOM      5  C5  BNZ d   1       1.458  -5.999  -5.679  0.00  0.00     0.000 A 
ATOM      6  C6  BNZ d   1       2.834  -5.995  -5.650  0.00  0.00     0.000 A 
ENDROOT
TORSDOF 0
ENDMDL
