MODEL 1
REMARK minimizedAffinity -1.00017595
REMARK minimizedRMSD -1
REMARK  0 active torsions:
REMARK  status: ('A' for Active; 'I' for Inactive)
ROOT
ATOM      1  C1  BNZ d   1       0.228   4.178   0.306  0.00  0.00     0.000 A 
ATOM      2  C2  BNZ d   1       1.459   3.794   0.767  0.00  0.00     0.000 A 
ATOM      3  C3  BNZ d   1       1.590   2.715   1.596  0.00  0.00     0.000 A 
ATOM      4  C4  BNZ d   1       0.489   2.048   1.996  0.00  0.00     0.000 A 
ATOM      5  C5  BNZ d   1      -0.760   2.429   1.547  0.00  0.00     0.000 A 
ATOM      6  C6  BNZ d   1      -0.885   3.491   0.681  0.00  0.00     0.000 A 
ENDROOT
TORSDOF 0
ENDMDL
