MODEL 1
REMARK minimizedAffinity 0.0324104875
REMARK minimizedRMSD -1
REMARK  0 active torsions:
REMARK  status: ('A' for Active; 'I' for Inactive)
ROOT
ATOM      1  C1  BNZ d   1       1.352   0.161   1.239  0.00  0.00     0.000 A 
ATOM      2  C2  BNZ d   1       0.611   1.081   1.931  0.00  0.00     0.000 A 
ATOM      3  C3  BNZ d   1       0.216   2.249   1.340  0.00  0.00     0.000 A 
ATOM      4  C4  BNZ d   1       0.596   2.513   0.074  0.00  0.00     0.000 A 
ATOM      5  C5  BNZ d   1       1.351   1.599  -0.634  0.00  0.00     0.000 A 
ATOM      6  C6  BNZ d   1       1.714   0.408  -0.050  0.00  0.00     0.000 A 
ENDROOT
TORSDOF 0
ENDMDL
