MODEL 1
REMARK minimizedAffinity -0.38278985
REMARK minimizedRMSD -1
REMARK  0 active torsions:
REMARK  status: ('A' for Active; 'I' for Inactive)
ROOT
ATOM      1  C1  BNZ d   1       2.305   3.130   2.288  0.00  0.00     0.000 A 
ATOM      2  C2  BNZ d   1       2.216   4.450   2.643  0.00  0.00     0.000 A 
ATOM      3  C3  BNZ d   1       3.279   5.293   2.474  0.00  0.00     0.000 A 
ATOM      4  C4  BNZ d   1       4.440   4.807   1.989  0.00  0.00     0.000 A 
ATOM      5  C5  BNZ d   1       4.548   3.477   1.636  0.00  0.00     0.000 A 
ATOM      6  C6  BNZ d   1       3.464   2.640   1.771  0.00  0.00     0.000 A 
ENDROOT
TORSDOF 0
ENDMDL
