MODEL 1
REMARK minimizedAffinity 2.84677625
REMARK minimizedRMSD -1
REMARK  0 active torsions:
REMARK  status: ('A' for Active; 'I' for Inactive)
ROOT
ATOM      1  C1  BNZ d   1       0.882   1.611   0.126  0.00  0.00     0.000 A 
ATOM      2  C2  BNZ d   1       2.223   1.372   0.268  0.00  0.00     0.000 A 
ATOM      3  C3  BNZ d   1       3.088   2.389   0.560  0.00  0.00     0.000 A 
ATOM      4  C4  BNZ d   1       2.618   3.648   0.671  0.00  0.00     0.000 A 
ATOM      5  C5  BNZ d   1       1.270   3.907   0.522  0.00  0.00     0.000 A 
ATOM      6  C6  BNZ d   1       0.397   2.875   0.266  0.00  0.00     0.000 A 
ENDROOT
TORSDOF 0
ENDMDL
