MODEL 1
REMARK minimizedAffinity 2.23464775
REMARK minimizedRMSD -1
REMARK  0 active torsions:
REMARK  status: ('A' for Active; 'I' for Inactive)
ROOT
ATOM      1  C1  BNZ d   1       1.863   3.074   1.243  0.00  0.00     0.000 A 
ATOM      2  C2  BNZ d   1       3.097   2.482   1.184  0.00  0.00     0.000 A 
ATOM      3  C3  BNZ d   1       3.249   1.233   0.650  0.00  0.00     0.000 A 
ATOM      4  C4  BNZ d   1       2.164   0.562   0.214  0.00  0.00     0.000 A 
ATOM      5  C5  BNZ d   1       0.912   1.141   0.275  0.00  0.00     0.000 A 
ATOM      6  C6  BNZ d   1       0.768   2.414   0.777  0.00  0.00     0.000 A 
ENDROOT
TORSDOF 0
ENDMDL
