MODEL 1
REMARK minimizedAffinity 3.12411475
REMARK minimizedRMSD -1
REMARK  0 active torsions:
REMARK  status: ('A' for Active; 'I' for Inactive)
ROOT
ATOM      1  N1  IND d   1       3.842   5.340  -2.135  0.00  0.00    -0.196 N 
ATOM      2  C2  IND d   1       4.997   4.952  -1.514  0.00  0.00     0.054 A 
ATOM      3  C3  IND d   1       6.000   4.840  -2.414  0.00  0.00    -0.031 A 
ATOM      4  C4  IND d   1       5.997   5.344  -4.938  0.00  0.00     0.051 A 
ATOM      5  C5  IND d   1       5.167   5.691  -5.966  0.00  0.00    -0.031 A 
ATOM      6  C6  IND d   1       3.826   5.947  -5.766  0.00  0.00     0.015 A 
ATOM      7  C7  IND d   1       3.265   5.876  -4.522  0.00  0.00    -0.016 A 
ATOM      8  C8  IND d   1       4.104   5.516  -3.476  0.00  0.00    -0.047 A 
ATOM      9  C9  IND d   1       5.457   5.214  -3.681  0.00  0.00    -0.096 A 
ATOM     10  HN1 IND d   1       3.081   5.454  -1.753  0.00  0.00     0.298 HD
ENDROOT
TORSDOF 0
ENDMDL
