MODEL 1
REMARK minimizedAffinity 0.171270221
REMARK minimizedRMSD -1
REMARK  0 active torsions:
REMARK  status: ('A' for Active; 'I' for Inactive)
ROOT
ATOM      1  N1  IND d   1       3.716   5.657  -5.025  0.00  0.00    -0.196 N 
ATOM      2  C2  IND d   1       4.871   6.000  -5.672  0.00  0.00     0.054 A 
ATOM      3  C3  IND d   1       5.924   5.919  -4.828  0.00  0.00    -0.031 A 
ATOM      4  C4  IND d   1       5.998   5.149  -2.372  0.00  0.00     0.051 A 
ATOM      5  C5  IND d   1       5.189   4.773  -1.337  0.00  0.00    -0.031 A 
ATOM      6  C6  IND d   1       3.821   4.667  -1.481  0.00  0.00     0.015 A 
ATOM      7  C7  IND d   1       3.209   4.924  -2.675  0.00  0.00    -0.016 A 
ATOM      8  C8  IND d   1       4.026   5.313  -3.727  0.00  0.00    -0.047 A 
ATOM      9  C9  IND d   1       5.410   5.464  -3.575  0.00  0.00    -0.096 A 
ATOM     10  HN1 IND d   1       2.929   5.656  -5.370  0.00  0.00     0.298 HD
ENDROOT
TORSDOF 0
ENDMDL
