MODEL 1
REMARK minimizedAffinity 2.27539825
REMARK minimizedRMSD -1
REMARK  0 active torsions:
REMARK  status: ('A' for Active; 'I' for Inactive)
ROOT
ATOM      1  N1  IND d   1       4.068   4.629  -5.266  0.00  0.00    -0.196 N 
ATOM      2  C2  IND d   1       5.098   5.159  -5.993  0.00  0.00     0.054 A 
ATOM      3  C3  IND d   1       5.985   5.769  -5.176  0.00  0.00    -0.031 A 
ATOM      4  C4  IND d   1       6.000   5.930  -2.607  0.00  0.00     0.051 A 
ATOM      5  C5  IND d   1       5.250   5.631  -1.504  0.00  0.00    -0.031 A 
ATOM      6  C6  IND d   1       4.044   4.967  -1.601  0.00  0.00     0.015 A 
ATOM      7  C7  IND d   1       3.547   4.565  -2.809  0.00  0.00    -0.016 A 
ATOM      8  C8  IND d   1       4.303   4.874  -3.931  0.00  0.00    -0.047 A 
ATOM      9  C9  IND d   1       5.506   5.585  -3.843  0.00  0.00    -0.096 A 
ATOM     10  HN1 IND d   1       3.388   4.214  -5.589  0.00  0.00     0.298 HD
ENDROOT
TORSDOF 0
ENDMDL
