MODEL 1
REMARK minimizedAffinity -4.28983498
REMARK minimizedRMSD -1
REMARK  0 active torsions:
REMARK  status: ('A' for Active; 'I' for Inactive)
ROOT
ATOM      1  N1  IND d   1       4.126   3.375  -5.833  0.00  0.00    -0.196 N 
ATOM      2  C2  IND d   1       5.110   2.427  -5.862  0.00  0.00     0.054 A 
ATOM      3  C3  IND d   1       6.000   2.642  -4.867  0.00  0.00    -0.031 A 
ATOM      4  C4  IND d   1       5.982   4.429  -3.014  0.00  0.00     0.051 A 
ATOM      5  C5  IND d   1       5.304   5.540  -2.596  0.00  0.00    -0.031 A 
ATOM      6  C6  IND d   1       4.175   5.993  -3.246  0.00  0.00     0.015 A 
ATOM      7  C7  IND d   1       3.673   5.344  -4.338  0.00  0.00    -0.016 A 
ATOM      8  C8  IND d   1       4.362   4.220  -4.770  0.00  0.00    -0.047 A 
ATOM      9  C9  IND d   1       5.533   3.779  -4.139  0.00  0.00    -0.096 A 
ATOM     10  HN1 IND d   1       3.470   3.435  -6.386  0.00  0.00     0.298 HD
ENDROOT
TORSDOF 0
ENDMDL
