MODEL 1
REMARK minimizedAffinity -1.31021631
REMARK minimizedRMSD -1
REMARK  0 active torsions:
REMARK  status: ('A' for Active; 'I' for Inactive)
ROOT
ATOM      1  N1  IND d   1       3.733   6.000  -4.544  0.00  0.00    -0.196 N 
ATOM      2  C2  IND d   1       3.384   5.970  -3.223  0.00  0.00     0.054 A 
ATOM      3  C3  IND d   1       3.902   4.873  -2.625  0.00  0.00    -0.031 A 
ATOM      4  C4  IND d   1       5.437   3.050  -3.598  0.00  0.00     0.051 A 
ATOM      5  C5  IND d   1       6.000   2.629  -4.770  0.00  0.00    -0.031 A 
ATOM      6  C6  IND d   1       5.835   3.325  -5.950  0.00  0.00     0.015 A 
ATOM      7  C7  IND d   1       5.107   4.480  -5.999  0.00  0.00    -0.016 A 
ATOM      8  C8  IND d   1       4.528   4.907  -4.813  0.00  0.00    -0.047 A 
ATOM      9  C9  IND d   1       4.656   4.182  -3.621  0.00  0.00    -0.096 A 
ATOM     10  HN1 IND d   1       3.496   6.601  -5.112  0.00  0.00     0.298 HD
ENDROOT
TORSDOF 0
ENDMDL
