MODEL 1
REMARK minimizedAffinity -2.22249436
REMARK minimizedRMSD -1
REMARK  0 active torsions:
REMARK  status: ('A' for Active; 'I' for Inactive)
ROOT
ATOM      1  N1  IND d   1       4.706   5.170  -1.944  0.00  0.00    -0.196 N 
ATOM      2  C2  IND d   1       3.602   4.377  -1.803  0.00  0.00     0.054 A 
ATOM      3  C3  IND d   1       3.139   3.994  -3.014  0.00  0.00    -0.031 A 
ATOM      4  C4  IND d   1       4.098   4.468  -5.356  0.00  0.00     0.051 A 
ATOM      5  C5  IND d   1       5.075   5.177  -5.996  0.00  0.00    -0.031 A 
ATOM      6  C6  IND d   1       6.000   5.933  -5.305  0.00  0.00     0.015 A 
ATOM      7  C7  IND d   1       5.988   6.000  -3.940  0.00  0.00    -0.016 A 
ATOM      8  C8  IND d   1       4.993   5.287  -3.287  0.00  0.00    -0.047 A 
ATOM      9  C9  IND d   1       4.026   4.552  -3.985  0.00  0.00    -0.096 A 
ATOM     10  HN1 IND d   1       5.147   5.535  -1.303  0.00  0.00     0.298 HD
ENDROOT
TORSDOF 0
ENDMDL
