MODEL 1
REMARK minimizedAffinity 0.369713187
REMARK minimizedRMSD -1
REMARK  0 active torsions:
REMARK  status: ('A' for Active; 'I' for Inactive)
ROOT
ATOM      1  N1  IND d   1       6.000   5.433  -4.640  0.00  0.00    -0.196 N 
ATOM      2  C2  IND d   1       5.063   5.191  -5.606  0.00  0.00     0.054 A 
ATOM      3  C3  IND d   1       3.925   4.718  -5.049  0.00  0.00    -0.031 A 
ATOM      4  C4  IND d   1       3.345   4.361  -2.567  0.00  0.00     0.051 A 
ATOM      5  C5  IND d   1       3.891   4.408  -1.315  0.00  0.00    -0.031 A 
ATOM      6  C6  IND d   1       5.194   4.810  -1.103  0.00  0.00     0.015 A 
ATOM      7  C7  IND d   1       5.999   5.192  -2.139  0.00  0.00    -0.016 A 
ATOM      8  C8  IND d   1       5.450   5.139  -3.412  0.00  0.00    -0.047 A 
ATOM      9  C9  IND d   1       4.141   4.691  -3.637  0.00  0.00    -0.096 A 
ATOM     10  HN1 IND d   1       6.799   5.720  -4.777  0.00  0.00     0.298 HD
ENDROOT
TORSDOF 0
ENDMDL
