MODEL 1
REMARK minimizedAffinity -5.62943411
REMARK minimizedRMSD -1
REMARK  0 active torsions:
REMARK  status: ('A' for Active; 'I' for Inactive)
ROOT
ATOM      1  N1  IND d   1       5.997   3.583  -4.782  0.00  0.00    -0.196 N 
ATOM      2  C2  IND d   1       5.008   3.239  -5.660  0.00  0.00     0.054 A 
ATOM      3  C3  IND d   1       3.801   3.614  -5.179  0.00  0.00    -0.031 A 
ATOM      4  C4  IND d   1       3.227   4.897  -3.022  0.00  0.00     0.051 A 
ATOM      5  C5  IND d   1       3.793   5.395  -1.882  0.00  0.00    -0.031 A 
ATOM      6  C6  IND d   1       5.150   5.316  -1.647  0.00  0.00     0.015 A 
ATOM      7  C7  IND d   1       5.998   4.742  -2.552  0.00  0.00    -0.016 A 
ATOM      8  C8  IND d   1       5.426   4.229  -3.708  0.00  0.00    -0.047 A 
ATOM      9  C9  IND d   1       4.044   4.269  -3.932  0.00  0.00    -0.096 A 
ATOM     10  HN1 IND d   1       6.836   3.422  -4.883  0.00  0.00     0.298 HD
ENDROOT
TORSDOF 0
ENDMDL
