MODEL 1
REMARK minimizedAffinity -0.601371765
REMARK minimizedRMSD -1
REMARK  0 active torsions:
REMARK  status: ('A' for Active; 'I' for Inactive)
ROOT
ATOM      1  N1  IND d   1       4.422   5.948  -2.156  0.00  0.00    -0.196 N 
ATOM      2  C2  IND d   1       5.394   5.243  -1.503  0.00  0.00     0.054 A 
ATOM      3  C3  IND d   1       5.994   4.375  -2.348  0.00  0.00    -0.031 A 
ATOM      4  C4  IND d   1       5.609   4.016  -4.868  0.00  0.00     0.051 A 
ATOM      5  C5  IND d   1       4.801   4.401  -5.900  0.00  0.00    -0.031 A 
ATOM      6  C6  IND d   1       3.806   5.343  -5.734  0.00  0.00     0.015 A 
ATOM      7  C7  IND d   1       3.589   5.945  -4.527  0.00  0.00    -0.016 A 
ATOM      8  C8  IND d   1       4.404   5.551  -3.475  0.00  0.00    -0.047 A 
ATOM      9  C9  IND d   1       5.387   4.565  -3.627  0.00  0.00    -0.096 A 
ATOM     10  HN1 IND d   1       3.907   6.539  -1.803  0.00  0.00     0.298 HD
ENDROOT
TORSDOF 0
ENDMDL
