MODEL 1
REMARK minimizedAffinity -1.16658282
REMARK minimizedRMSD -1
REMARK  0 active torsions:
REMARK  status: ('A' for Active; 'I' for Inactive)
ROOT
ATOM      1  N1  IND d   1       3.934   5.961  -3.837  0.00  0.00    -0.196 N 
ATOM      2  C2  IND d   1       4.272   5.987  -2.513  0.00  0.00     0.054 A 
ATOM      3  C3  IND d   1       5.058   4.930  -2.207  0.00  0.00    -0.031 A 
ATOM      4  C4  IND d   1       5.996   3.091  -3.743  0.00  0.00     0.051 A 
ATOM      5  C5  IND d   1       5.935   2.624  -5.026  0.00  0.00    -0.031 A 
ATOM      6  C6  IND d   1       5.191   3.260  -5.999  0.00  0.00     0.015 A 
ATOM      7  C7  IND d   1       4.486   4.398  -5.726  0.00  0.00    -0.016 A 
ATOM      8  C8  IND d   1       4.540   4.871  -4.422  0.00  0.00    -0.047 A 
ATOM      9  C9  IND d   1       5.259   4.206  -3.421  0.00  0.00    -0.096 A 
ATOM     10  HN1 IND d   1       3.428   6.529  -4.237  0.00  0.00     0.298 HD
ENDROOT
TORSDOF 0
ENDMDL
