MODEL 1
REMARK minimizedAffinity -3.1261847
REMARK minimizedRMSD -1
REMARK  0 active torsions:
REMARK  status: ('A' for Active; 'I' for Inactive)
ROOT
ATOM      1  N1  IND d   1       3.845   3.776  -5.602  0.00  0.00    -0.196 N 
ATOM      2  C2  IND d   1       4.983   3.131  -5.999  0.00  0.00     0.054 A 
ATOM      3  C3  IND d   1       6.000   3.404  -5.151  0.00  0.00    -0.031 A 
ATOM      4  C4  IND d   1       5.995   4.803  -2.990  0.00  0.00     0.051 A 
ATOM      5  C5  IND d   1       5.199   5.618  -2.236  0.00  0.00    -0.031 A 
ATOM      6  C6  IND d   1       3.883   5.864  -2.571  0.00  0.00     0.015 A 
ATOM      7  C7  IND d   1       3.309   5.292  -3.671  0.00  0.00    -0.016 A 
ATOM      8  C8  IND d   1       4.117   4.469  -4.442  0.00  0.00    -0.047 A 
ATOM      9  C9  IND d   1       5.465   4.249  -4.131  0.00  0.00    -0.096 A 
ATOM     10  HN1 IND d   1       3.088   3.753  -6.007  0.00  0.00     0.298 HD
ENDROOT
TORSDOF 0
ENDMDL
