MODEL 1
REMARK minimizedAffinity -1.08687842
REMARK minimizedRMSD -1
REMARK  0 active torsions:
REMARK  status: ('A' for Active; 'I' for Inactive)
ROOT
ATOM      1  N1  IND d   1       4.898   4.285  -1.217  0.00  0.00    -0.196 N 
ATOM      2  C2  IND d   1       5.999   5.085  -1.350  0.00  0.00     0.054 A 
ATOM      3  C3  IND d   1       5.954   5.755  -2.524  0.00  0.00    -0.031 A 
ATOM      4  C4  IND d   1       4.121   5.769  -4.331  0.00  0.00     0.051 A 
ATOM      5  C5  IND d   1       2.941   5.170  -4.672  0.00  0.00    -0.031 A 
ATOM      6  C6  IND d   1       2.339   4.229  -3.862  0.00  0.00     0.015 A 
ATOM      7  C7  IND d   1       2.892   3.859  -2.669  0.00  0.00    -0.016 A 
ATOM      8  C8  IND d   1       4.094   4.459  -2.322  0.00  0.00    -0.047 A 
ATOM      9  C9  IND d   1       4.731   5.383  -3.160  0.00  0.00    -0.096 A 
ATOM     10  HN1 IND d   1       4.735   3.762  -0.554  0.00  0.00     0.298 HD
ENDROOT
TORSDOF 0
ENDMDL
