MODEL 1
REMARK minimizedAffinity 2.04592967
REMARK minimizedRMSD -1
REMARK  0 active torsions:
REMARK  status: ('A' for Active; 'I' for Inactive)
ROOT
ATOM      1  N1  IND d   1       3.829  -2.005  -3.475  0.00  0.00    -0.196 N 
ATOM      2  C2  IND d   1       3.379  -2.883  -4.421  0.00  0.00     0.054 A 
ATOM      3  C3  IND d   1       3.856  -4.124  -4.176  0.00  0.00    -0.031 A 
ATOM      4  C4  IND d   1       5.309  -4.961  -2.223  0.00  0.00     0.051 A 
ATOM      5  C5  IND d   1       6.000  -4.521  -1.128  0.00  0.00    -0.031 A 
ATOM      6  C6  IND d   1       5.999  -3.194  -0.751  0.00  0.00     0.015 A 
ATOM      7  C7  IND d   1       5.297  -2.254  -1.451  0.00  0.00    -0.016 A 
ATOM      8  C8  IND d   1       4.600  -2.696  -2.567  0.00  0.00    -0.047 A 
ATOM      9  C9  IND d   1       4.631  -4.034  -2.979  0.00  0.00    -0.096 A 
ATOM     10  HN1 IND d   1       3.659  -1.162  -3.452  0.00  0.00     0.298 HD
ENDROOT
TORSDOF 0
ENDMDL
