MODEL 1
REMARK minimizedAffinity -1.86301816
REMARK minimizedRMSD -1
REMARK  0 active torsions:
REMARK  status: ('A' for Active; 'I' for Inactive)
ROOT
ATOM      1  N1  IND d   1       6.000   5.983  -4.801  0.00  0.00    -0.196 N 
ATOM      2  C2  IND d   1       5.505   5.423  -5.946  0.00  0.00     0.054 A 
ATOM      3  C3  IND d   1       4.418   4.669  -5.669  0.00  0.00    -0.031 A 
ATOM      4  C4  IND d   1       3.216   4.294  -3.423  0.00  0.00     0.051 A 
ATOM      5  C5  IND d   1       3.318   4.568  -2.088  0.00  0.00    -0.031 A 
ATOM      6  C6  IND d   1       4.337   5.346  -1.579  0.00  0.00     0.015 A 
ATOM      7  C7  IND d   1       5.291   5.891  -2.392  0.00  0.00    -0.016 A 
ATOM      8  C8  IND d   1       5.196   5.608  -3.747  0.00  0.00    -0.047 A 
ATOM      9  C9  IND d   1       4.187   4.784  -4.264  0.00  0.00    -0.096 A 
ATOM     10  HN1 IND d   1       6.696   6.484  -4.748  0.00  0.00     0.298 HD
ENDROOT
TORSDOF 0
ENDMDL
