MODEL 1
REMARK minimizedAffinity 2.24866581
REMARK minimizedRMSD -1
REMARK  0 active torsions:
REMARK  status: ('A' for Active; 'I' for Inactive)
ROOT
ATOM      1  N1  IND d   1       5.995   5.238  -4.812  0.00  0.00    -0.196 N 
ATOM      2  C2  IND d   1       5.146   5.429  -5.866  0.00  0.00     0.054 A 
ATOM      3  C3  IND d   1       3.872   5.163  -5.499  0.00  0.00    -0.031 A 
ATOM      4  C4  IND d   1       2.940   4.499  -3.193  0.00  0.00     0.051 A 
ATOM      5  C5  IND d   1       3.334   4.168  -1.927  0.00  0.00    -0.031 A 
ATOM      6  C6  IND d   1       4.661   4.179  -1.549  0.00  0.00     0.015 A 
ATOM      7  C7  IND d   1       5.648   4.535  -2.425  0.00  0.00    -0.016 A 
ATOM      8  C8  IND d   1       5.252   4.865  -3.713  0.00  0.00    -0.047 A 
ATOM      9  C9  IND d   1       3.911   4.814  -4.114  0.00  0.00    -0.096 A 
ATOM     10  HN1 IND d   1       6.849   5.335  -4.832  0.00  0.00     0.298 HD
ENDROOT
TORSDOF 0
ENDMDL
