MODEL 1
REMARK minimizedAffinity 1.03460884
REMARK minimizedRMSD -1
REMARK  0 active torsions:
REMARK  status: ('A' for Active; 'I' for Inactive)
ROOT
ATOM      1  N1  IND d   1       6.000   6.000  -2.496  0.00  0.00    -0.196 N 
ATOM      2  C2  IND d   1       5.141   5.637  -1.496  0.00  0.00     0.054 A 
ATOM      3  C3  IND d   1       4.089   4.957  -2.004  0.00  0.00    -0.031 A 
ATOM      4  C4  IND d   1       3.624   4.238  -4.432  0.00  0.00     0.051 A 
ATOM      5  C5  IND d   1       4.104   4.369  -5.705  0.00  0.00    -0.031 A 
ATOM      6  C6  IND d   1       5.265   5.062  -5.979  0.00  0.00     0.015 A 
ATOM      7  C7  IND d   1       5.999   5.643  -4.983  0.00  0.00    -0.016 A 
ATOM      8  C8  IND d   1       5.511   5.518  -3.691  0.00  0.00    -0.047 A 
ATOM      9  C9  IND d   1       4.311   4.852  -3.412  0.00  0.00    -0.096 A 
ATOM     10  HN1 IND d   1       6.724   6.453  -2.396  0.00  0.00     0.298 HD
ENDROOT
TORSDOF 0
ENDMDL
