MODEL 1
REMARK minimizedAffinity 3.41867709
REMARK minimizedRMSD -1
REMARK  0 active torsions:
REMARK  status: ('A' for Active; 'I' for Inactive)
ROOT
ATOM      1  N1  IND d   1       3.742   3.521  -5.390  0.00  0.00    -0.196 N 
ATOM      2  C2  IND d   1       4.899   2.916  -5.796  0.00  0.00     0.054 A 
ATOM      3  C3  IND d   1       5.948   3.380  -5.081  0.00  0.00    -0.031 A 
ATOM      4  C4  IND d   1       5.982   5.056  -3.127  0.00  0.00     0.051 A 
ATOM      5  C5  IND d   1       5.176   5.903  -2.421  0.00  0.00    -0.031 A 
ATOM      6  C6  IND d   1       3.822   6.000  -2.671  0.00  0.00     0.015 A 
ATOM      7  C7  IND d   1       3.220   5.241  -3.634  0.00  0.00    -0.016 A 
ATOM      8  C8  IND d   1       4.037   4.384  -4.358  0.00  0.00    -0.047 A 
ATOM      9  C9  IND d   1       5.419   4.313  -4.138  0.00  0.00    -0.096 A 
ATOM     10  HN1 IND d   1       2.961   3.385  -5.723  0.00  0.00     0.298 HD
ENDROOT
TORSDOF 0
ENDMDL
