MODEL 1
REMARK minimizedAffinity 4.32581806
REMARK minimizedRMSD -1
REMARK  0 active torsions:
REMARK  status: ('A' for Active; 'I' for Inactive)
ROOT
ATOM      1  N1  IND d   1       3.549   4.756  -4.535  0.00  0.00    -0.196 N 
ATOM      2  C2  IND d   1       3.943   3.579  -5.108  0.00  0.00     0.054 A 
ATOM      3  C3  IND d   1       4.937   3.013  -4.387  0.00  0.00    -0.031 A 
ATOM      4  C4  IND d   1       6.000   3.793  -2.176  0.00  0.00     0.051 A 
ATOM      5  C5  IND d   1       5.996   4.829  -1.285  0.00  0.00    -0.031 A 
ATOM      6  C6  IND d   1       5.157   5.915  -1.433  0.00  0.00     0.015 A 
ATOM      7  C7  IND d   1       4.279   5.999  -2.477  0.00  0.00    -0.016 A 
ATOM      8  C8  IND d   1       4.285   4.952  -3.387  0.00  0.00    -0.047 A 
ATOM      9  C9  IND d   1       5.164   3.868  -3.265  0.00  0.00    -0.096 A 
ATOM     10  HN1 IND d   1       2.943   5.284  -4.839  0.00  0.00     0.298 HD
ENDROOT
TORSDOF 0
ENDMDL
