MODEL 1
REMARK minimizedAffinity 11.1081791
REMARK minimizedRMSD -1
REMARK  0 active torsions:
REMARK  status: ('A' for Active; 'I' for Inactive)
ROOT
ATOM      1  C1  DEN d   1       4.591  -3.648   2.105  0.00  0.00     0.130 A 
ATOM      2  C2  DEN d   1       4.167  -4.904   1.493  0.00  0.00    -0.031 A 
ATOM      3  C3  DEN d   1       4.198  -5.952   2.534  0.00  0.00     0.027 A 
ATOM      4  C4  DEN d   1       4.853  -5.750   5.020  0.00  0.00     0.027 A 
ATOM      5  C5  DEN d   1       5.294  -4.886   5.998  0.00  0.00    -0.003 A 
ATOM      6  C6  DEN d   1       5.562  -3.568   5.741  0.00  0.00     0.001 A 
ATOM      7  C7  DEN d   1       5.348  -3.064   4.486  0.00  0.00     0.017 A 
ATOM      8  C8  DEN d   1       4.910  -3.930   3.492  0.00  0.00    -0.094 A 
ATOM      9  C9  DEN d   1       4.633  -5.257   3.775  0.00  0.00    -0.072 A 
ENDROOT
TORSDOF 0
ENDMDL
