MODEL 1
REMARK minimizedAffinity 18.5735302
REMARK minimizedRMSD -1
REMARK  0 active torsions:
REMARK  status: ('A' for Active; 'I' for Inactive)
ROOT
ATOM      1  C1  DEN d   1       4.507  -0.886  -0.871  0.00  0.00     0.130 A 
ATOM      2  C2  DEN d   1       5.544  -1.914  -0.858  0.00  0.00    -0.031 A 
ATOM      3  C3  DEN d   1       4.995  -3.106  -0.180  0.00  0.00     0.027 A 
ATOM      4  C4  DEN d   1       2.653  -3.459   0.841  0.00  0.00     0.027 A 
ATOM      5  C5  DEN d   1       1.433  -2.867   1.083  0.00  0.00    -0.003 A 
ATOM      6  C6  DEN d   1       1.166  -1.572   0.723  0.00  0.00     0.001 A 
ATOM      7  C7  DEN d   1       2.117  -0.841   0.061  0.00  0.00     0.017 A 
ATOM      8  C8  DEN d   1       3.352  -1.429  -0.179  0.00  0.00    -0.094 A 
ATOM      9  C9  DEN d   1       3.599  -2.743   0.181  0.00  0.00    -0.072 A 
ENDROOT
TORSDOF 0
ENDMDL
