MODEL 1
REMARK minimizedAffinity 1.90914321
REMARK minimizedRMSD -1
REMARK  0 active torsions:
REMARK  status: ('A' for Active; 'I' for Inactive)
ROOT
ATOM      1  C1  DEN d   1       1.638  -1.930   0.358  0.00  0.00     0.130 A 
ATOM      2  C2  DEN d   1       1.424  -1.080   1.527  0.00  0.00    -0.031 A 
ATOM      3  C3  DEN d   1       2.338  -1.532   2.594  0.00  0.00     0.027 A 
ATOM      4  C4  DEN d   1       4.061  -3.452   2.551  0.00  0.00     0.027 A 
ATOM      5  C5  DEN d   1       4.596  -4.462   1.783  0.00  0.00    -0.003 A 
ATOM      6  C6  DEN d   1       4.162  -4.720   0.509  0.00  0.00     0.001 A 
ATOM      7  C7  DEN d   1       3.196  -3.927  -0.052  0.00  0.00     0.017 A 
ATOM      8  C8  DEN d   1       2.646  -2.911   0.718  0.00  0.00    -0.094 A 
ATOM      9  C9  DEN d   1       3.107  -2.659   2.000  0.00  0.00    -0.072 A 
ENDROOT
TORSDOF 0
ENDMDL
