MODEL 1
REMARK minimizedAffinity 5.37190294
REMARK minimizedRMSD -1
REMARK  0 active torsions:
REMARK  status: ('A' for Active; 'I' for Inactive)
ROOT
ATOM      1  C1  DEN d   1       3.047   1.842  -5.997  0.00  0.00     0.130 A 
ATOM      2  C2  DEN d   1       1.652   1.412  -5.963  0.00  0.00    -0.031 A 
ATOM      3  C3  DEN d   1       0.802   2.619  -5.948  0.00  0.00     0.027 A 
ATOM      4  C4  DEN d   1       1.507   5.100  -5.979  0.00  0.00     0.027 A 
ATOM      5  C5  DEN d   1       2.581   5.962  -5.997  0.00  0.00    -0.003 A 
ATOM      6  C6  DEN d   1       3.876   5.515  -5.982  0.00  0.00     0.001 A 
ATOM      7  C7  DEN d   1       4.129   4.169  -5.994  0.00  0.00     0.017 A 
ATOM      8  C8  DEN d   1       3.051   3.294  -5.968  0.00  0.00    -0.094 A 
ATOM      9  C9  DEN d   1       1.750   3.765  -5.996  0.00  0.00    -0.072 A 
ENDROOT
TORSDOF 0
ENDMDL
