MODEL 1
REMARK minimizedAffinity 0.45260793
REMARK minimizedRMSD -1
REMARK  0 active torsions:
REMARK  status: ('A' for Active; 'I' for Inactive)
ROOT
ATOM      1  C1  DEN d   1       4.284  -5.262   2.259  0.00  0.00     0.130 A 
ATOM      2  C2  DEN d   1       4.838  -4.222   1.398  0.00  0.00    -0.031 A 
ATOM      3  C3  DEN d   1       5.464  -3.200   2.261  0.00  0.00     0.027 A 
ATOM      4  C4  DEN d   1       5.631  -3.131   4.834  0.00  0.00     0.027 A 
ATOM      5  C5  DEN d   1       5.299  -3.787   5.998  0.00  0.00    -0.003 A 
ATOM      6  C6  DEN d   1       4.581  -4.953   6.000  0.00  0.00     0.001 A 
ATOM      7  C7  DEN d   1       4.211  -5.524   4.811  0.00  0.00     0.017 A 
ATOM      8  C8  DEN d   1       4.536  -4.865   3.633  0.00  0.00    -0.094 A 
ATOM      9  C9  DEN d   1       5.273  -3.692   3.652  0.00  0.00    -0.072 A 
ENDROOT
TORSDOF 0
ENDMDL
