MODEL 1
REMARK minimizedAffinity -2.87114406
REMARK minimizedRMSD -1
REMARK  0 active torsions:
REMARK  status: ('A' for Active; 'I' for Inactive)
ROOT
ATOM      1  C1  DEN d   1       4.179   2.015  -5.493  0.00  0.00     0.130 A 
ATOM      2  C2  DEN d   1       5.633   2.120  -5.411  0.00  0.00    -0.031 A 
ATOM      3  C3  DEN d   1       5.995   3.546  -5.536  0.00  0.00     0.027 A 
ATOM      4  C4  DEN d   1       4.453   5.591  -5.843  0.00  0.00     0.027 A 
ATOM      5  C5  DEN d   1       3.145   6.000  -5.980  0.00  0.00    -0.003 A 
ATOM      6  C6  DEN d   1       2.101   5.114  -5.999  0.00  0.00     0.001 A 
ATOM      7  C7  DEN d   1       2.344   3.776  -5.833  0.00  0.00     0.017 A 
ATOM      8  C8  DEN d   1       3.661   3.355  -5.701  0.00  0.00    -0.094 A 
ATOM      9  C9  DEN d   1       4.701   4.268  -5.672  0.00  0.00    -0.072 A 
ENDROOT
TORSDOF 0
ENDMDL
