MODEL 1
REMARK minimizedAffinity 14.1355667
REMARK minimizedRMSD -1
REMARK  0 active torsions:
REMARK  status: ('A' for Active; 'I' for Inactive)
ROOT
ATOM      1  C1  DEN d   1      -2.890   0.172   0.843  0.00  0.00     0.130 A 
ATOM      2  C2  DEN d   1      -2.459  -0.243  -0.489  0.00  0.00    -0.031 A 
ATOM      3  C3  DEN d   1      -1.078  -0.754  -0.382  0.00  0.00     0.027 A 
ATOM      4  C4  DEN d   1       0.425  -0.947   1.705  0.00  0.00     0.027 A 
ATOM      5  C5  DEN d   1       0.500  -0.711   3.060  0.00  0.00    -0.003 A 
ATOM      6  C6  DEN d   1      -0.529  -0.137   3.759  0.00  0.00     0.001 A 
ATOM      7  C7  DEN d   1      -1.695   0.179   3.114  0.00  0.00     0.017 A 
ATOM      8  C8  DEN d   1      -1.775  -0.050   1.746  0.00  0.00    -0.094 A 
ATOM      9  C9  DEN d   1      -0.729  -0.642   1.060  0.00  0.00    -0.072 A 
ENDROOT
TORSDOF 0
ENDMDL
