MODEL 1
REMARK minimizedAffinity 3.60683393
REMARK minimizedRMSD -1
REMARK  0 active torsions:
REMARK  status: ('A' for Active; 'I' for Inactive)
ROOT
ATOM      1  C1  DEN d   1       4.530  -3.000   2.407  0.00  0.00     0.130 A 
ATOM      2  C2  DEN d   1       4.173  -4.142   1.570  0.00  0.00    -0.031 A 
ATOM      3  C3  DEN d   1       4.272  -5.362   2.395  0.00  0.00     0.027 A 
ATOM      4  C4  DEN d   1       4.937  -5.594   4.876  0.00  0.00     0.027 A 
ATOM      5  C5  DEN d   1       5.337  -4.905   6.000  0.00  0.00    -0.003 A 
ATOM      6  C6  DEN d   1       5.528  -3.549   5.996  0.00  0.00     0.001 A 
ATOM      7  C7  DEN d   1       5.275  -2.831   4.857  0.00  0.00     0.017 A 
ATOM      8  C8  DEN d   1       4.878  -3.519   3.718  0.00  0.00    -0.094 A 
ATOM      9  C9  DEN d   1       4.679  -4.889   3.745  0.00  0.00    -0.072 A 
ENDROOT
TORSDOF 0
ENDMDL
