MODEL 1
REMARK minimizedAffinity -1.59317195
REMARK minimizedRMSD -1
REMARK  0 active torsions:
REMARK  status: ('A' for Active; 'I' for Inactive)
ROOT
ATOM      1  C1  DEN d   1       3.780  -3.226   3.266  0.00  0.00     0.130 A 
ATOM      2  C2  DEN d   1       4.624  -4.418   3.237  0.00  0.00    -0.031 A 
ATOM      3  C3  DEN d   1       4.770  -4.839   1.830  0.00  0.00     0.027 A 
ATOM      4  C4  DEN d   1       3.781  -3.766  -0.297  0.00  0.00     0.027 A 
ATOM      5  C5  DEN d   1       2.990  -2.744  -0.775  0.00  0.00    -0.003 A 
ATOM      6  C6  DEN d   1       2.384  -1.840   0.056  0.00  0.00     0.001 A 
ATOM      7  C7  DEN d   1       2.596  -1.912   1.408  0.00  0.00     0.017 A 
ATOM      8  C8  DEN d   1       3.387  -2.943   1.898  0.00  0.00    -0.094 A 
ATOM      9  C9  DEN d   1       4.000  -3.840   1.040  0.00  0.00    -0.072 A 
ENDROOT
TORSDOF 0
ENDMDL
