MODEL 1
REMARK minimizedAffinity -3.03039289
REMARK minimizedRMSD -1
REMARK  0 active torsions:
REMARK  status: ('A' for Active; 'I' for Inactive)
ROOT
ATOM      1  C1  DEN d   1       4.546   2.319  -5.989  0.00  0.00     0.130 A 
ATOM      2  C2  DEN d   1       5.930   2.786  -5.973  0.00  0.00    -0.031 A 
ATOM      3  C3  DEN d   1       5.913   4.262  -5.929  0.00  0.00     0.027 A 
ATOM      4  C4  DEN d   1       3.890   5.861  -5.878  0.00  0.00     0.027 A 
ATOM      5  C5  DEN d   1       2.514   5.932  -5.889  0.00  0.00    -0.003 A 
ATOM      6  C6  DEN d   1       1.726   4.814  -5.967  0.00  0.00     0.001 A 
ATOM      7  C7  DEN d   1       2.308   3.574  -5.993  0.00  0.00     0.017 A 
ATOM      8  C8  DEN d   1       3.695   3.495  -5.990  0.00  0.00    -0.094 A 
ATOM      9  C9  DEN d   1       4.473   4.636  -5.898  0.00  0.00    -0.072 A 
ENDROOT
TORSDOF 0
ENDMDL
