MODEL 1
REMARK minimizedAffinity 5.93484831
REMARK minimizedRMSD -1
REMARK  0 active torsions:
REMARK  status: ('A' for Active; 'I' for Inactive)
ROOT
ATOM      1  C   UNL d   1      -0.854  -2.241   0.519  0.00  0.00     0.077 C 
ATOM      2  C1  UNL d   1      -1.669  -2.576  -0.695  0.00  0.00    -0.074 A 
ATOM      3  C2  UNL d   1      -2.925  -3.181  -0.574  0.00  0.00    -0.005 A 
ATOM      4  C3  UNL d   1      -3.675  -3.477  -1.712  0.00  0.00     0.006 A 
ATOM      5  C4  UNL d   1      -3.180  -3.171  -2.980  0.00  0.00    -0.005 A 
ATOM      6  C5  UNL d   1      -1.927  -2.565  -3.120  0.00  0.00    -0.074 A 
ATOM      7  C6  UNL d   1      -1.384  -2.222  -4.476  0.00  0.00     0.077 C 
ATOM      8  C7  UNL d   1      -1.182  -2.265  -1.972  0.00  0.00    -0.001 A 
ENDROOT
TORSDOF 0
ENDMDL
