MODEL 1
REMARK minimizedAffinity 10.6397114
REMARK minimizedRMSD -1
REMARK  0 active torsions:
REMARK  status: ('A' for Active; 'I' for Inactive)
ROOT
ATOM      1  C   UNL d   1      -0.345  -2.028   0.896  0.00  0.00     0.077 C 
ATOM      2  C1  UNL d   1      -0.814  -2.650  -0.386  0.00  0.00    -0.074 A 
ATOM      3  C2  UNL d   1       0.025  -3.490  -1.126  0.00  0.00    -0.005 A 
ATOM      4  C3  UNL d   1      -0.428  -4.069  -2.311  0.00  0.00     0.006 A 
ATOM      5  C4  UNL d   1      -1.721  -3.815  -2.768  0.00  0.00    -0.005 A 
ATOM      6  C5  UNL d   1      -2.575  -2.979  -2.041  0.00  0.00    -0.074 A 
ATOM      7  C6  UNL d   1      -3.972  -2.703  -2.513  0.00  0.00     0.077 C 
ATOM      8  C7  UNL d   1      -2.115  -2.406  -0.847  0.00  0.00    -0.001 A 
ENDROOT
TORSDOF 0
ENDMDL
