MODEL 1
REMARK minimizedAffinity 9.1723032
REMARK minimizedRMSD -1
REMARK  0 active torsions:
REMARK  status: ('A' for Active; 'I' for Inactive)
ROOT
ATOM      1  C   UNL d   1       1.737   1.676   1.262  0.00  0.00     0.077 C 
ATOM      2  C1  UNL d   1       2.822   1.169   0.359  0.00  0.00    -0.074 A 
ATOM      3  C2  UNL d   1       3.777   0.259   0.823  0.00  0.00    -0.005 A 
ATOM      4  C3  UNL d   1       4.775  -0.211  -0.031  0.00  0.00     0.006 A 
ATOM      5  C4  UNL d   1       4.827   0.224  -1.356  0.00  0.00    -0.005 A 
ATOM      6  C5  UNL d   1       3.880   1.133  -1.839  0.00  0.00    -0.074 A 
ATOM      7  C6  UNL d   1       3.917   1.603  -3.263  0.00  0.00     0.077 C 
ATOM      8  C7  UNL d   1       2.877   1.595  -0.976  0.00  0.00    -0.001 A 
ENDROOT
TORSDOF 0
ENDMDL
