MODEL 1
REMARK minimizedAffinity 3.28937149
REMARK minimizedRMSD -1
REMARK  0 active torsions:
REMARK  status: ('A' for Active; 'I' for Inactive)
ROOT
ATOM      1  C   UNL d   1       2.858   1.450  -0.755  0.00  0.00     0.077 C 
ATOM      2  C1  UNL d   1       2.899   0.971   0.666  0.00  0.00    -0.074 A 
ATOM      3  C2  UNL d   1       3.942   0.157   1.120  0.00  0.00    -0.005 A 
ATOM      4  C3  UNL d   1       3.972  -0.273   2.447  0.00  0.00     0.006 A 
ATOM      5  C4  UNL d   1       2.961   0.106   3.331  0.00  0.00    -0.005 A 
ATOM      6  C5  UNL d   1       1.911   0.920   2.895  0.00  0.00    -0.074 A 
ATOM      7  C6  UNL d   1       0.822   1.344   3.835  0.00  0.00     0.077 C 
ATOM      8  C7  UNL d   1       1.892   1.353   1.563  0.00  0.00    -0.001 A 
ENDROOT
TORSDOF 0
ENDMDL
