MODEL 1
REMARK minimizedAffinity 9.69069958
REMARK minimizedRMSD -1
REMARK  0 active torsions:
REMARK  status: ('A' for Active; 'I' for Inactive)
ROOT
ATOM      1  C   UNL d   1       1.410   0.704   3.711  0.00  0.00     0.077 C 
ATOM      2  C1  UNL d   1       1.938   0.547   2.316  0.00  0.00    -0.074 A 
ATOM      3  C2  UNL d   1       3.032  -0.283   2.050  0.00  0.00    -0.005 A 
ATOM      4  C3  UNL d   1       3.506  -0.427   0.747  0.00  0.00     0.006 A 
ATOM      5  C4  UNL d   1       2.892   0.257  -0.304  0.00  0.00    -0.005 A 
ATOM      6  C5  UNL d   1       1.796   1.091  -0.058  0.00  0.00    -0.074 A 
ATOM      7  C6  UNL d   1       1.119   1.825  -1.176  0.00  0.00     0.077 C 
ATOM      8  C7  UNL d   1       1.322   1.224   1.254  0.00  0.00    -0.001 A 
ENDROOT
TORSDOF 0
ENDMDL
