MODEL 1
REMARK minimizedAffinity 10.5639553
REMARK minimizedRMSD -1
REMARK  0 active torsions:
REMARK  status: ('A' for Active; 'I' for Inactive)
ROOT
ATOM      1  C   UNL d   1       5.999   2.137   1.716  0.00  0.00     0.077 C 
ATOM      2  C1  UNL d   1       4.630   1.685   1.301  0.00  0.00    -0.074 A 
ATOM      3  C2  UNL d   1       4.352   0.330   1.096  0.00  0.00    -0.005 A 
ATOM      4  C3  UNL d   1       3.072  -0.077   0.719  0.00  0.00     0.006 A 
ATOM      5  C4  UNL d   1       2.059   0.867   0.545  0.00  0.00    -0.005 A 
ATOM      6  C5  UNL d   1       2.318   2.226   0.746  0.00  0.00    -0.074 A 
ATOM      7  C6  UNL d   1       1.238   3.252   0.572  0.00  0.00     0.077 C 
ATOM      8  C7  UNL d   1       3.605   2.626   1.131  0.00  0.00    -0.001 A 
ENDROOT
TORSDOF 0
ENDMDL
