MODEL 1
REMARK minimizedAffinity -1.26215816
REMARK minimizedRMSD -1
REMARK  0 active torsions:
REMARK  status: ('A' for Active; 'I' for Inactive)
ROOT
ATOM      1  C   UNL d   1       6.000  -0.740   1.251  0.00  0.00     0.077 C 
ATOM      2  C1  UNL d   1       4.704   0.012   1.175  0.00  0.00    -0.074 A 
ATOM      3  C2  UNL d   1       4.417   0.841   0.086  0.00  0.00    -0.005 A 
ATOM      4  C3  UNL d   1       3.203   1.526   0.025  0.00  0.00     0.006 A 
ATOM      5  C4  UNL d   1       2.266   1.389   1.050  0.00  0.00    -0.005 A 
ATOM      6  C5  UNL d   1       2.536   0.563   2.146  0.00  0.00    -0.074 A 
ATOM      7  C6  UNL d   1       1.535   0.396   3.251  0.00  0.00     0.077 C 
ATOM      8  C7  UNL d   1       3.754  -0.128   2.197  0.00  0.00    -0.001 A 
ENDROOT
TORSDOF 0
ENDMDL
