MODEL 1
REMARK minimizedAffinity 3.54284501
REMARK minimizedRMSD -1
REMARK  0 active torsions:
REMARK  status: ('A' for Active; 'I' for Inactive)
ROOT
ATOM      1  C   UNL d   1      -2.637  -2.444  -2.580  0.00  0.00     0.077 C 
ATOM      2  C1  UNL d   1      -2.458  -3.081  -1.234  0.00  0.00    -0.074 A 
ATOM      3  C2  UNL d   1      -1.387  -2.725  -0.407  0.00  0.00    -0.005 A 
ATOM      4  C3  UNL d   1      -1.238  -3.319   0.846  0.00  0.00     0.006 A 
ATOM      5  C4  UNL d   1      -2.158  -4.273   1.285  0.00  0.00    -0.005 A 
ATOM      6  C5  UNL d   1      -3.235  -4.640   0.473  0.00  0.00    -0.074 A 
ATOM      7  C6  UNL d   1      -4.238  -5.656   0.933  0.00  0.00     0.077 C 
ATOM      8  C7  UNL d   1      -3.382  -4.034  -0.782  0.00  0.00    -0.001 A 
ENDROOT
TORSDOF 0
ENDMDL
