MODEL 1
REMARK minimizedAffinity 1.30391002
REMARK minimizedRMSD -1
REMARK  0 active torsions:
REMARK  status: ('A' for Active; 'I' for Inactive)
ROOT
ATOM      1  C   UNL d   1       1.383   0.640   2.440  0.00  0.00     0.077 C 
ATOM      2  C1  UNL d   1       2.301   0.546   1.257  0.00  0.00    -0.074 A 
ATOM      3  C2  UNL d   1       3.325  -0.405   1.216  0.00  0.00    -0.005 A 
ATOM      4  C3  UNL d   1       4.164  -0.487   0.105  0.00  0.00     0.006 A 
ATOM      5  C4  UNL d   1       3.989   0.381  -0.974  0.00  0.00    -0.005 A 
ATOM      6  C5  UNL d   1       2.970   1.338  -0.950  0.00  0.00    -0.074 A 
ATOM      7  C6  UNL d   1       2.761   2.272  -2.105  0.00  0.00     0.077 C 
ATOM      8  C7  UNL d   1       2.125   1.409   0.166  0.00  0.00    -0.001 A 
ENDROOT
TORSDOF 0
ENDMDL
