MODEL 1
REMARK minimizedAffinity 1.83298993
REMARK minimizedRMSD -1
REMARK  0 active torsions:
REMARK  status: ('A' for Active; 'I' for Inactive)
ROOT
ATOM      1  C   UNL d   1      -0.779  -2.437  -5.009  0.00  0.00     0.077 C 
ATOM      2  C1  UNL d   1      -1.585  -2.761  -3.786  0.00  0.00    -0.074 A 
ATOM      3  C2  UNL d   1      -1.182  -2.318  -2.522  0.00  0.00    -0.005 A 
ATOM      4  C3  UNL d   1      -1.947  -2.619  -1.395  0.00  0.00     0.006 A 
ATOM      5  C4  UNL d   1      -3.120  -3.364  -1.520  0.00  0.00    -0.005 A 
ATOM      6  C5  UNL d   1      -3.539  -3.815  -2.776  0.00  0.00    -0.074 A 
ATOM      7  C6  UNL d   1      -4.802  -4.608  -2.929  0.00  0.00     0.077 C 
ATOM      8  C7  UNL d   1      -2.769  -3.502  -3.905  0.00  0.00    -0.001 A 
ENDROOT
TORSDOF 0
ENDMDL
