MODEL 1
REMARK minimizedAffinity 5.93356466
REMARK minimizedRMSD -1
REMARK  0 active torsions:
REMARK  status: ('A' for Active; 'I' for Inactive)
ROOT
ATOM      1  C   UNL d   1       1.160   0.658   4.377  0.00  0.00     0.077 C 
ATOM      2  C1  UNL d   1       1.864   0.849   3.067  0.00  0.00    -0.074 A 
ATOM      3  C2  UNL d   1       1.426   1.809   2.149  0.00  0.00    -0.005 A 
ATOM      4  C3  UNL d   1       2.097   1.982   0.938  0.00  0.00     0.006 A 
ATOM      5  C4  UNL d   1       3.211   1.199   0.634  0.00  0.00    -0.005 A 
ATOM      6  C5  UNL d   1       3.664   0.235   1.540  0.00  0.00    -0.074 A 
ATOM      7  C6  UNL d   1       4.866  -0.608   1.233  0.00  0.00     0.077 C 
ATOM      8  C7  UNL d   1       2.989   0.072   2.758  0.00  0.00    -0.001 A 
ENDROOT
TORSDOF 0
ENDMDL
