MODEL 1
REMARK minimizedAffinity -1.68565977
REMARK minimizedRMSD -1
REMARK  0 active torsions:
REMARK  status: ('A' for Active; 'I' for Inactive)
ROOT
ATOM      1  C   UNL d   1       0.366  -3.300  -0.693  0.00  0.00     0.077 C 
ATOM      2  C1  UNL d   1      -0.815  -3.120  -1.599  0.00  0.00    -0.074 A 
ATOM      3  C2  UNL d   1      -2.120  -3.227  -1.108  0.00  0.00    -0.005 A 
ATOM      4  C3  UNL d   1      -3.209  -3.048  -1.961  0.00  0.00     0.006 A 
ATOM      5  C4  UNL d   1      -3.004  -2.760  -3.311  0.00  0.00    -0.005 A 
ATOM      6  C5  UNL d   1      -1.706  -2.648  -3.820  0.00  0.00    -0.074 A 
ATOM      7  C6  UNL d   1      -1.468  -2.329  -5.266  0.00  0.00     0.077 C 
ATOM      8  C7  UNL d   1      -0.617  -2.823  -2.955  0.00  0.00    -0.001 A 
ENDROOT
TORSDOF 0
ENDMDL
