MODEL 1
REMARK minimizedAffinity -0.0900911614
REMARK minimizedRMSD -1
REMARK  0 active torsions:
REMARK  status: ('A' for Active; 'I' for Inactive)
ROOT
ATOM      1  C   UNL d   1       5.307   3.477   0.785  0.00  0.00     0.077 C 
ATOM      2  C1  UNL d   1       4.710   2.117   0.996  0.00  0.00    -0.074 A 
ATOM      3  C2  UNL d   1       5.504   0.967   0.945  0.00  0.00    -0.005 A 
ATOM      4  C3  UNL d   1       4.936  -0.289   1.153  0.00  0.00     0.006 A 
ATOM      5  C4  UNL d   1       3.570  -0.409   1.413  0.00  0.00    -0.005 A 
ATOM      6  C5  UNL d   1       2.760   0.730   1.468  0.00  0.00    -0.074 A 
ATOM      7  C6  UNL d   1       1.292   0.621   1.756  0.00  0.00     0.077 C 
ATOM      8  C7  UNL d   1       3.340   1.990   1.265  0.00  0.00    -0.001 A 
ENDROOT
TORSDOF 0
ENDMDL
