MODEL 1
REMARK minimizedAffinity -0.913734734
REMARK minimizedRMSD -1
REMARK  0 active torsions:
REMARK  status: ('A' for Active; 'I' for Inactive)
ROOT
ATOM      1  C   UNL d   1       2.667   1.997   0.747  0.00  0.00     0.077 C 
ATOM      2  C1  UNL d   1       3.828   2.592   1.488  0.00  0.00    -0.074 A 
ATOM      3  C2  UNL d   1       4.923   1.805   1.857  0.00  0.00    -0.005 A 
ATOM      4  C3  UNL d   1       6.000   2.374   2.538  0.00  0.00     0.006 A 
ATOM      5  C4  UNL d   1       5.992   3.733   2.854  0.00  0.00    -0.005 A 
ATOM      6  C5  UNL d   1       4.905   4.536   2.492  0.00  0.00    -0.074 A 
ATOM      7  C6  UNL d   1       4.885   6.000   2.816  0.00  0.00     0.077 C 
ATOM      8  C7  UNL d   1       3.830   3.958   1.802  0.00  0.00    -0.001 A 
ENDROOT
TORSDOF 0
ENDMDL
