MODEL 1
REMARK minimizedAffinity -0.518499076
REMARK minimizedRMSD -1
REMARK  0 active torsions:
REMARK  status: ('A' for Active; 'I' for Inactive)
ROOT
ATOM      1  C   UNL d   1      -1.610  -2.282   1.321  0.00  0.00     0.077 C 
ATOM      2  C1  UNL d   1      -1.586  -2.725  -0.112  0.00  0.00    -0.074 A 
ATOM      3  C2  UNL d   1      -2.759  -2.757  -0.873  0.00  0.00    -0.005 A 
ATOM      4  C3  UNL d   1      -2.720  -3.162  -2.208  0.00  0.00     0.006 A 
ATOM      5  C4  UNL d   1      -1.510  -3.538  -2.793  0.00  0.00    -0.005 A 
ATOM      6  C5  UNL d   1      -0.327  -3.511  -2.047  0.00  0.00    -0.074 A 
ATOM      7  C6  UNL d   1       0.983  -3.903  -2.663  0.00  0.00     0.077 C 
ATOM      8  C7  UNL d   1      -0.374  -3.097  -0.709  0.00  0.00    -0.001 A 
ENDROOT
TORSDOF 0
ENDMDL
