MODEL 1
REMARK minimizedAffinity 4.83707285
REMARK minimizedRMSD -1
REMARK  0 active torsions:
REMARK  status: ('A' for Active; 'I' for Inactive)
ROOT
ATOM      1  C   UNL d   1       0.801  -4.112  -3.486  0.00  0.00     0.077 C 
ATOM      2  C1  UNL d   1      -0.484  -3.593  -2.912  0.00  0.00    -0.074 A 
ATOM      3  C2  UNL d   1      -1.601  -3.382  -3.727  0.00  0.00    -0.005 A 
ATOM      4  C3  UNL d   1      -2.793  -2.909  -3.178  0.00  0.00     0.006 A 
ATOM      5  C4  UNL d   1      -2.879  -2.642  -1.811  0.00  0.00    -0.005 A 
ATOM      6  C5  UNL d   1      -1.773  -2.848  -0.981  0.00  0.00    -0.074 A 
ATOM      7  C6  UNL d   1      -1.852  -2.575   0.492  0.00  0.00     0.077 C 
ATOM      8  C7  UNL d   1      -0.581  -3.330  -1.539  0.00  0.00    -0.001 A 
ENDROOT
TORSDOF 0
ENDMDL
