MODEL 1
REMARK minimizedAffinity 6.64012909
REMARK minimizedRMSD -1
REMARK  0 active torsions:
REMARK  status: ('A' for Active; 'I' for Inactive)
ROOT
ATOM      1  C   UNL d   1      -1.151  -2.683   0.903  0.00  0.00     0.077 C 
ATOM      2  C1  UNL d   1      -1.521  -2.973  -0.521  0.00  0.00    -0.074 A 
ATOM      3  C2  UNL d   1      -2.653  -2.391  -1.101  0.00  0.00    -0.005 A 
ATOM      4  C3  UNL d   1      -2.980  -2.662  -2.430  0.00  0.00     0.006 A 
ATOM      5  C4  UNL d   1      -2.180  -3.516  -3.190  0.00  0.00    -0.005 A 
ATOM      6  C5  UNL d   1      -1.044  -4.105  -2.627  0.00  0.00    -0.074 A 
ATOM      7  C6  UNL d   1      -0.167  -5.017  -3.433  0.00  0.00     0.077 C 
ATOM      8  C7  UNL d   1      -0.718  -3.823  -1.294  0.00  0.00    -0.001 A 
ENDROOT
TORSDOF 0
ENDMDL
