MODEL 1
REMARK minimizedAffinity 5.53511333
REMARK minimizedRMSD -1
REMARK  2 active torsions:
REMARK  status: ('A' for Active; 'I' for Inactive)
REMARK    1  A    between atoms: C1_2  and  C2_3 
REMARK    2  A    between atoms: C2_3  and  C3_4 
ROOT
ATOM      1  C3  UNL d   1       0.619  -0.882   3.147  0.00  0.00    -0.075 A 
ATOM      2  C4  UNL d   1       0.450   0.203   2.274  0.00  0.00     0.002 A 
ATOM      3  C5  UNL d   1      -0.829   0.652   1.943  0.00  0.00     0.002 A 
ATOM      4  C6  UNL d   1      -1.952   0.018   2.470  0.00  0.00    -0.004 A 
ATOM      5  C7  UNL d   1      -1.795  -1.071   3.325  0.00  0.00     0.002 A 
ATOM      6  C8  UNL d   1      -0.517  -1.520   3.662  0.00  0.00     0.002 A 
ENDROOT
BRANCH   1   7
ATOM      7  C2  UNL d   1       2.001  -1.354   3.533  0.00  0.00     0.056 C 
BRANCH   7   8
ATOM      8  C1  UNL d   1       3.116  -0.832   2.621  0.00  0.00     0.007 C 
ATOM      9  C   UNL d   1       4.500  -1.325   3.022  0.00  0.00     0.009 C 
ENDBRANCH   7   8
ENDBRANCH   1   7
TORSDOF 2
ENDMDL
