MODEL 1
REMARK minimizedAffinity -4.96661139
REMARK minimizedRMSD -1
REMARK  2 active torsions:
REMARK  status: ('A' for Active; 'I' for Inactive)
REMARK    1  A    between atoms: C1_2  and  C2_3 
REMARK    2  A    between atoms: C2_3  and  C3_4 
ROOT
ATOM      1  C3  UNL d   1       0.159   0.076  -0.152  0.00  0.00    -0.075 A 
ATOM      2  C4  UNL d   1       1.215   0.540   0.646  0.00  0.00     0.002 A 
ATOM      3  C5  UNL d   1       1.139   0.461   2.037  0.00  0.00     0.002 A 
ATOM      4  C6  UNL d   1       0.006  -0.073   2.647  0.00  0.00    -0.004 A 
ATOM      5  C7  UNL d   1      -1.055  -0.522   1.865  0.00  0.00     0.002 A 
ATOM      6  C8  UNL d   1      -0.981  -0.448   0.473  0.00  0.00     0.002 A 
ENDROOT
BRANCH   1   7
ATOM      7  C2  UNL d   1       0.246   0.132  -1.658  0.00  0.00     0.056 C 
BRANCH   7   8
ATOM      8  C1  UNL d   1      -0.093  -1.191  -2.352  0.00  0.00     0.007 C 
ATOM      9  C   UNL d   1       0.834  -1.514  -3.517  0.00  0.00     0.009 C 
ENDBRANCH   7   8
ENDBRANCH   1   7
TORSDOF 2
ENDMDL
