MODEL 1
REMARK minimizedAffinity -2.79889703
REMARK minimizedRMSD -1
REMARK  2 active torsions:
REMARK  status: ('A' for Active; 'I' for Inactive)
REMARK    1  A    between atoms: C1_2  and  C2_3 
REMARK    2  A    between atoms: C2_3  and  C3_4 
ROOT
ATOM      1  C3  UNL d   1      -0.072  -0.063  -1.262  0.00  0.00    -0.075 A 
ATOM      2  C4  UNL d   1       0.327  -0.748  -0.105  0.00  0.00     0.002 A 
ATOM      3  C5  UNL d   1      -0.500  -0.783   1.018  0.00  0.00     0.002 A 
ATOM      4  C6  UNL d   1      -1.729  -0.126   1.003  0.00  0.00    -0.004 A 
ATOM      5  C7  UNL d   1      -2.128   0.571  -0.135  0.00  0.00     0.002 A 
ATOM      6  C8  UNL d   1      -1.305   0.604  -1.262  0.00  0.00     0.002 A 
ENDROOT
BRANCH   1   7
ATOM      7  C2  UNL d   1       0.805  -0.047  -2.491  0.00  0.00     0.056 C 
BRANCH   7   8
ATOM      8  C1  UNL d   1       1.144  -1.439  -3.034  0.00  0.00     0.007 C 
ATOM      9  C   UNL d   1       0.072  -2.001  -3.958  0.00  0.00     0.009 C 
ENDBRANCH   7   8
ENDBRANCH   1   7
TORSDOF 2
ENDMDL
