MODEL 1
REMARK minimizedAffinity 3.78709126
REMARK minimizedRMSD -1
REMARK  2 active torsions:
REMARK  status: ('A' for Active; 'I' for Inactive)
REMARK    1  A    between atoms: C1_2  and  C2_3 
REMARK    2  A    between atoms: C2_3  and  C3_4 
ROOT
ATOM      1  C3  UNL d   1      -2.222   0.249   0.740  0.00  0.00    -0.075 A 
ATOM      2  C4  UNL d   1      -3.534   0.619   0.409  0.00  0.00     0.002 A 
ATOM      3  C5  UNL d   1      -3.895   0.832  -0.921  0.00  0.00     0.002 A 
ATOM      4  C6  UNL d   1      -2.951   0.688  -1.935  0.00  0.00    -0.004 A 
ATOM      5  C7  UNL d   1      -1.641   0.336  -1.617  0.00  0.00     0.002 A 
ATOM      6  C8  UNL d   1      -1.277   0.118  -0.287  0.00  0.00     0.002 A 
ENDROOT
BRANCH   1   7
ATOM      7  C2  UNL d   1      -1.831  -0.012   2.175  0.00  0.00     0.056 C 
BRANCH   7   8
ATOM      8  C1  UNL d   1      -0.329   0.126   2.447  0.00  0.00     0.007 C 
ATOM      9  C   UNL d   1       0.313  -1.166   2.934  0.00  0.00     0.009 C 
ENDBRANCH   7   8
ENDBRANCH   1   7
TORSDOF 2
ENDMDL
