MODEL 1
REMARK minimizedAffinity 7.02005672
REMARK minimizedRMSD -1
REMARK  2 active torsions:
REMARK  status: ('A' for Active; 'I' for Inactive)
REMARK    1  A    between atoms: C1_2  and  C2_3 
REMARK    2  A    between atoms: C2_3  and  C3_4 
ROOT
ATOM      1  C3  UNL d   1      -1.429   0.397   2.229  0.00  0.00    -0.075 A 
ATOM      2  C4  UNL d   1      -1.491   0.120   0.856  0.00  0.00     0.002 A 
ATOM      3  C5  UNL d   1      -2.723  -0.004   0.213  0.00  0.00     0.002 A 
ATOM      4  C6  UNL d   1      -3.906   0.136   0.936  0.00  0.00    -0.004 A 
ATOM      5  C7  UNL d   1      -3.857   0.394   2.304  0.00  0.00     0.002 A 
ATOM      6  C8  UNL d   1      -2.625   0.524   2.948  0.00  0.00     0.002 A 
ENDROOT
BRANCH   1   7
ATOM      7  C2  UNL d   1      -0.099   0.563   2.925  0.00  0.00     0.056 C 
BRANCH   7   8
ATOM      8  C1  UNL d   1       0.781  -0.691   2.894  0.00  0.00     0.007 C 
ATOM      9  C   UNL d   1       0.002  -1.977   3.139  0.00  0.00     0.009 C 
ENDBRANCH   7   8
ENDBRANCH   1   7
TORSDOF 2
ENDMDL
