MODEL 1
REMARK minimizedAffinity 3.89385724
REMARK minimizedRMSD -1
REMARK  2 active torsions:
REMARK  status: ('A' for Active; 'I' for Inactive)
REMARK    1  A    between atoms: C1_2  and  C2_3 
REMARK    2  A    between atoms: C2_3  and  C3_4 
ROOT
ATOM      1  C3  UNL d   1      -2.148  -0.195   0.473  0.00  0.00    -0.075 A 
ATOM      2  C4  UNL d   1      -1.570  -0.392   1.736  0.00  0.00     0.002 A 
ATOM      3  C5  UNL d   1      -2.288  -0.103   2.896  0.00  0.00     0.002 A 
ATOM      4  C6  UNL d   1      -3.586   0.396   2.810  0.00  0.00    -0.004 A 
ATOM      5  C7  UNL d   1      -4.164   0.611   1.561  0.00  0.00     0.002 A 
ATOM      6  C8  UNL d   1      -3.449   0.319   0.398  0.00  0.00     0.002 A 
ENDROOT
BRANCH   1   7
ATOM      7  C2  UNL d   1      -1.387  -0.534  -0.786  0.00  0.00     0.056 C 
BRANCH   7   8
ATOM      8  C1  UNL d   1      -1.157  -2.035  -0.991  0.00  0.00     0.007 C 
ATOM      9  C   UNL d   1      -0.437  -2.360  -2.294  0.00  0.00     0.009 C 
ENDBRANCH   7   8
ENDBRANCH   1   7
TORSDOF 2
ENDMDL
