MODEL 1
REMARK minimizedAffinity 4.91504955
REMARK minimizedRMSD -1
REMARK  2 active torsions:
REMARK  status: ('A' for Active; 'I' for Inactive)
REMARK    1  A    between atoms: C1_2  and  C2_3 
REMARK    2  A    between atoms: C2_3  and  C3_4 
ROOT
ATOM      1  C3  UNL d   1      -1.957   0.362   1.939  0.00  0.00    -0.075 A 
ATOM      2  C4  UNL d   1      -2.221   0.943   0.690  0.00  0.00     0.002 A 
ATOM      3  C5  UNL d   1      -3.515   0.944   0.169  0.00  0.00     0.002 A 
ATOM      4  C6  UNL d   1      -4.557   0.356   0.882  0.00  0.00    -0.004 A 
ATOM      5  C7  UNL d   1      -4.303  -0.239   2.116  0.00  0.00     0.002 A 
ATOM      6  C8  UNL d   1      -3.010  -0.237   2.642  0.00  0.00     0.002 A 
ENDROOT
BRANCH   1   7
ATOM      7  C2  UNL d   1      -0.564   0.384   2.522  0.00  0.00     0.056 C 
BRANCH   7   8
ATOM      8  C1  UNL d   1       0.145   1.736   2.392  0.00  0.00     0.007 C 
ATOM      9  C   UNL d   1       0.768   2.215   3.696  0.00  0.00     0.009 C 
ENDBRANCH   7   8
ENDBRANCH   1   7
TORSDOF 2
ENDMDL
