MODEL 1
REMARK minimizedAffinity 6.22229624
REMARK minimizedRMSD -1
REMARK  2 active torsions:
REMARK  status: ('A' for Active; 'I' for Inactive)
REMARK    1  A    between atoms: C1_2  and  C2_3 
REMARK    2  A    between atoms: C2_3  and  C3_4 
ROOT
ATOM      1  C3  UNL d   1      -1.251  -0.049   2.497  0.00  0.00    -0.075 A 
ATOM      2  C4  UNL d   1      -0.645  -1.306   2.637  0.00  0.00     0.002 A 
ATOM      3  C5  UNL d   1       0.740  -1.413   2.771  0.00  0.00     0.002 A 
ATOM      4  C6  UNL d   1       1.535  -0.269   2.756  0.00  0.00    -0.004 A 
ATOM      5  C7  UNL d   1       0.944   0.984   2.601  0.00  0.00     0.002 A 
ATOM      6  C8  UNL d   1      -0.441   1.094   2.471  0.00  0.00     0.002 A 
ENDROOT
BRANCH   1   7
ATOM      7  C2  UNL d   1      -2.752   0.076   2.381  0.00  0.00     0.056 C 
BRANCH   7   8
ATOM      8  C1  UNL d   1      -3.240   1.504   2.117  0.00  0.00     0.007 C 
ATOM      9  C   UNL d   1      -4.369   1.573   1.096  0.00  0.00     0.009 C 
ENDBRANCH   7   8
ENDBRANCH   1   7
TORSDOF 2
ENDMDL
