MODEL 1
REMARK minimizedAffinity -1.28714395
REMARK minimizedRMSD -1
REMARK  2 active torsions:
REMARK  status: ('A' for Active; 'I' for Inactive)
REMARK    1  A    between atoms: C1_2  and  C2_3 
REMARK    2  A    between atoms: C2_3  and  C3_4 
ROOT
ATOM      1  C3  UNL d   1      -0.809   0.792   3.014  0.00  0.00    -0.075 A 
ATOM      2  C4  UNL d   1       0.581   0.861   3.190  0.00  0.00     0.002 A 
ATOM      3  C5  UNL d   1       1.444   0.546   2.140  0.00  0.00     0.002 A 
ATOM      4  C6  UNL d   1       0.930   0.149   0.907  0.00  0.00    -0.004 A 
ATOM      5  C7  UNL d   1      -0.449   0.061   0.727  0.00  0.00     0.002 A 
ATOM      6  C8  UNL d   1      -1.314   0.380   1.774  0.00  0.00     0.002 A 
ENDROOT
BRANCH   1   7
ATOM      7  C2  UNL d   1      -1.749   1.160   4.138  0.00  0.00     0.056 C 
BRANCH   7   8
ATOM      8  C1  UNL d   1      -3.049   1.824   3.671  0.00  0.00     0.007 C 
ATOM      9  C   UNL d   1      -4.055   2.030   4.796  0.00  0.00     0.009 C 
ENDBRANCH   7   8
ENDBRANCH   1   7
TORSDOF 2
ENDMDL
