MODEL 1
REMARK minimizedAffinity 2.91619277
REMARK minimizedRMSD -1
REMARK  2 active torsions:
REMARK  status: ('A' for Active; 'I' for Inactive)
REMARK    1  A    between atoms: C1_2  and  C2_3 
REMARK    2  A    between atoms: C2_3  and  C3_4 
ROOT
ATOM      1  C3  UNL d   1       0.671  -0.079  -0.226  0.00  0.00    -0.075 A 
ATOM      2  C4  UNL d   1       1.910  -0.184   0.423  0.00  0.00     0.002 A 
ATOM      3  C5  UNL d   1       2.055   0.236   1.745  0.00  0.00     0.002 A 
ATOM      4  C6  UNL d   1       0.969   0.774   2.432  0.00  0.00    -0.004 A 
ATOM      5  C7  UNL d   1      -0.263   0.898   1.792  0.00  0.00     0.002 A 
ATOM      6  C8  UNL d   1      -0.412   0.475   0.470  0.00  0.00     0.002 A 
ENDROOT
BRANCH   1   7
ATOM      7  C2  UNL d   1       0.500  -0.559  -1.647  0.00  0.00     0.056 C 
BRANCH   7   8
ATOM      8  C1  UNL d   1       1.692  -1.359  -2.183  0.00  0.00     0.007 C 
ATOM      9  C   UNL d   1       1.699  -1.481  -3.701  0.00  0.00     0.009 C 
ENDBRANCH   7   8
ENDBRANCH   1   7
TORSDOF 2
ENDMDL
