MODEL 1
REMARK minimizedAffinity 0.527148545
REMARK minimizedRMSD -1
REMARK  2 active torsions:
REMARK  status: ('A' for Active; 'I' for Inactive)
REMARK    1  A    between atoms: C1_2  and  C2_3 
REMARK    2  A    between atoms: C2_3  and  C3_4 
ROOT
ATOM      1  C3  UNL d   1      -0.050   0.473   0.242  0.00  0.00    -0.075 A 
ATOM      2  C4  UNL d   1       1.248   0.381  -0.282  0.00  0.00     0.002 A 
ATOM      3  C5  UNL d   1       2.348   0.268   0.567  0.00  0.00     0.002 A 
ATOM      4  C6  UNL d   1       2.168   0.257   1.949  0.00  0.00    -0.004 A 
ATOM      5  C7  UNL d   1       0.885   0.364   2.481  0.00  0.00     0.002 A 
ATOM      6  C8  UNL d   1      -0.219   0.472   1.633  0.00  0.00     0.002 A 
ENDROOT
BRANCH   1   7
ATOM      7  C2  UNL d   1      -1.248   0.565  -0.673  0.00  0.00     0.056 C 
BRANCH   7   8
ATOM      8  C1  UNL d   1      -2.592   0.606   0.062  0.00  0.00     0.007 C 
ATOM      9  C   UNL d   1      -3.780   0.802  -0.870  0.00  0.00     0.009 C 
ENDBRANCH   7   8
ENDBRANCH   1   7
TORSDOF 2
ENDMDL
