MODEL 1
REMARK minimizedAffinity -4.08424711
REMARK minimizedRMSD -1
REMARK  2 active torsions:
REMARK  status: ('A' for Active; 'I' for Inactive)
REMARK    1  A    between atoms: C1_2  and  C2_3 
REMARK    2  A    between atoms: C2_3  and  C3_4 
ROOT
ATOM      1  C3  UNL d   1       0.147  -0.475   0.127  0.00  0.00    -0.075 A 
ATOM      2  C4  UNL d   1       0.752   0.385   1.055  0.00  0.00     0.002 A 
ATOM      3  C5  UNL d   1       0.411   0.320   2.406  0.00  0.00     0.002 A 
ATOM      4  C6  UNL d   1      -0.543  -0.595   2.845  0.00  0.00    -0.004 A 
ATOM      5  C7  UNL d   1      -1.162  -1.443   1.929  0.00  0.00     0.002 A 
ATOM      6  C8  UNL d   1      -0.820  -1.384   0.576  0.00  0.00     0.002 A 
ENDROOT
BRANCH   1   7
ATOM      7  C2  UNL d   1       0.533  -0.430  -1.333  0.00  0.00     0.056 C 
BRANCH   7   8
ATOM      8  C1  UNL d   1       0.352  -1.763  -2.067  0.00  0.00     0.007 C 
ATOM      9  C   UNL d   1       1.288  -1.925  -3.257  0.00  0.00     0.009 C 
ENDBRANCH   7   8
ENDBRANCH   1   7
TORSDOF 2
ENDMDL
