MODEL 1
REMARK minimizedAffinity -0.359730363
REMARK minimizedRMSD -1
REMARK  2 active torsions:
REMARK  status: ('A' for Active; 'I' for Inactive)
REMARK    1  A    between atoms: C1_2  and  C2_3 
REMARK    2  A    between atoms: C2_3  and  C3_4 
ROOT
ATOM      1  C3  UNL d   1       0.123   0.252   1.955  0.00  0.00    -0.075 A 
ATOM      2  C4  UNL d   1       1.411   0.712   1.644  0.00  0.00     0.002 A 
ATOM      3  C5  UNL d   1       1.782   0.937   0.318  0.00  0.00     0.002 A 
ATOM      4  C6  UNL d   1       0.877   0.695  -0.712  0.00  0.00    -0.004 A 
ATOM      5  C7  UNL d   1      -0.400   0.223  -0.416  0.00  0.00     0.002 A 
ATOM      6  C8  UNL d   1      -0.776   0.001   0.910  0.00  0.00     0.002 A 
ENDROOT
BRANCH   1   7
ATOM      7  C2  UNL d   1      -0.295   0.036   3.390  0.00  0.00     0.056 C 
BRANCH   7   8
ATOM      8  C1  UNL d   1      -0.908  -1.342   3.659  0.00  0.00     0.007 C 
ATOM      9  C   UNL d   1      -0.378  -2.428   2.732  0.00  0.00     0.009 C 
ENDBRANCH   7   8
ENDBRANCH   1   7
TORSDOF 2
ENDMDL
