MODEL 1
REMARK minimizedAffinity -2.26899838
REMARK minimizedRMSD -1
REMARK  0 active torsions:
REMARK  status: ('A' for Active; 'I' for Inactive)
ROOT
ATOM      1  C1  BNZ d   1       2.431  -1.026  -1.079  0.00  0.00     0.000 A 
ATOM      2  C2  BNZ d   1       2.169   0.317  -1.151  0.00  0.00     0.000 A 
ATOM      3  C3  BNZ d   1       1.396   0.931  -0.206  0.00  0.00     0.000 A 
ATOM      4  C4  BNZ d   1       0.854   0.196   0.786  0.00  0.00     0.000 A 
ATOM      5  C5  BNZ d   1       1.101  -1.160   0.867  0.00  0.00     0.000 A 
ATOM      6  C6  BNZ d   1       1.911  -1.768  -0.064  0.00  0.00     0.000 A 
ENDROOT
TORSDOF 0
ENDMDL
