MODEL 1
REMARK minimizedAffinity -4.11356306
REMARK minimizedRMSD -1
REMARK  0 active torsions:
REMARK  status: ('A' for Active; 'I' for Inactive)
ROOT
ATOM      1  C1  BNZ d   1      -1.189   4.612  -2.617  0.00  0.00     0.000 A 
ATOM      2  C2  BNZ d   1      -2.525   4.735  -2.346  0.00  0.00     0.000 A 
ATOM      3  C3  BNZ d   1      -3.407   3.758  -2.717  0.00  0.00     0.000 A 
ATOM      4  C4  BNZ d   1      -2.958   2.682  -3.394  0.00  0.00     0.000 A 
ATOM      5  C5  BNZ d   1      -1.614   2.548  -3.683  0.00  0.00     0.000 A 
ATOM      6  C6  BNZ d   1      -0.724   3.514  -3.273  0.00  0.00     0.000 A 
ENDROOT
TORSDOF 0
ENDMDL
