MODEL 1
REMARK minimizedAffinity -0.380896717
REMARK minimizedRMSD -1
REMARK  0 active torsions:
REMARK  status: ('A' for Active; 'I' for Inactive)
ROOT
ATOM      1  C1  BNZ d   1      -3.008   2.771  -3.456  0.00  0.00     0.000 A 
ATOM      2  C2  BNZ d   1      -4.187   2.237  -3.011  0.00  0.00     0.000 A 
ATOM      3  C3  BNZ d   1      -5.385   2.682  -3.496  0.00  0.00     0.000 A 
ATOM      4  C4  BNZ d   1      -5.404   3.688  -4.395  0.00  0.00     0.000 A 
ATOM      5  C5  BNZ d   1      -4.223   4.243  -4.847  0.00  0.00     0.000 A 
ATOM      6  C6  BNZ d   1      -3.018   3.765  -4.385  0.00  0.00     0.000 A 
ENDROOT
TORSDOF 0
ENDMDL
