MODEL 1
REMARK minimizedAffinity -2.39978814
REMARK minimizedRMSD -1
REMARK  0 active torsions:
REMARK  status: ('A' for Active; 'I' for Inactive)
ROOT
ATOM      1  C1  BNZ d   1       3.034  -1.069  -1.790  0.00  0.00     0.000 A 
ATOM      2  C2  BNZ d   1       2.438  -1.628  -0.691  0.00  0.00     0.000 A 
ATOM      3  C3  BNZ d   1       1.665  -0.873   0.147  0.00  0.00     0.000 A 
ATOM      4  C4  BNZ d   1       1.521   0.446  -0.093  0.00  0.00     0.000 A 
ATOM      5  C5  BNZ d   1       2.123   1.026  -1.192  0.00  0.00     0.000 A 
ATOM      6  C6  BNZ d   1       2.868   0.256  -2.054  0.00  0.00     0.000 A 
ENDROOT
TORSDOF 0
ENDMDL
