MODEL 1
REMARK minimizedAffinity 3.16400075
REMARK minimizedRMSD -1
REMARK  0 active torsions:
REMARK  status: ('A' for Active; 'I' for Inactive)
ROOT
ATOM      1  C1  BNZ d   1      -1.737  -2.902   1.382  0.00  0.00     0.000 A 
ATOM      2  C2  BNZ d   1      -2.933  -2.252   1.531  0.00  0.00     0.000 A 
ATOM      3  C3  BNZ d   1      -2.975  -0.948   1.938  0.00  0.00     0.000 A 
ATOM      4  C4  BNZ d   1      -1.825  -0.308   2.233  0.00  0.00     0.000 A 
ATOM      5  C5  BNZ d   1      -0.611  -0.952   2.096  0.00  0.00     0.000 A 
ATOM      6  C6  BNZ d   1      -0.571  -2.253   1.649  0.00  0.00     0.000 A 
ENDROOT
TORSDOF 0
ENDMDL
