MODEL 1
REMARK minimizedAffinity 0.293142229
REMARK minimizedRMSD -1
REMARK  0 active torsions:
REMARK  status: ('A' for Active; 'I' for Inactive)
ROOT
ATOM      1  C1  BNZ d   1       0.842  -0.207   1.027  0.00  0.00     0.000 A 
ATOM      2  C2  BNZ d   1       0.859  -1.518   0.630  0.00  0.00     0.000 A 
ATOM      3  C3  BNZ d   1       1.509  -1.895  -0.511  0.00  0.00     0.000 A 
ATOM      4  C4  BNZ d   1       2.107  -0.958  -1.275  0.00  0.00     0.000 A 
ATOM      5  C5  BNZ d   1       2.090   0.369  -0.894  0.00  0.00     0.000 A 
ATOM      6  C6  BNZ d   1       1.468   0.740   0.276  0.00  0.00     0.000 A 
ENDROOT
TORSDOF 0
ENDMDL
