MODEL 1
REMARK minimizedAffinity -2.90868211
REMARK minimizedRMSD -1
REMARK  0 active torsions:
REMARK  status: ('A' for Active; 'I' for Inactive)
ROOT
ATOM      1  C1  BNZ d   1       2.665  -0.625  -0.969  0.00  0.00     0.000 A 
ATOM      2  C2  BNZ d   1       2.131  -1.591  -0.159  0.00  0.00     0.000 A 
ATOM      3  C3  BNZ d   1       1.243  -1.265   0.828  0.00  0.00     0.000 A 
ATOM      4  C4  BNZ d   1       0.922   0.030   1.030  0.00  0.00     0.000 A 
ATOM      5  C5  BNZ d   1       1.460   1.016   0.228  0.00  0.00     0.000 A 
ATOM      6  C6  BNZ d   1       2.323   0.680  -0.790  0.00  0.00     0.000 A 
ENDROOT
TORSDOF 0
ENDMDL
