MODEL 1
REMARK minimizedAffinity 2.24886298
REMARK minimizedRMSD -1
REMARK  0 active torsions:
REMARK  status: ('A' for Active; 'I' for Inactive)
ROOT
ATOM      1  C1  BNZ d   1       0.981  -0.644   1.007  0.00  0.00     0.000 A 
ATOM      2  C2  BNZ d   1       1.324  -1.933   0.697  0.00  0.00     0.000 A 
ATOM      3  C3  BNZ d   1       2.201  -2.199  -0.317  0.00  0.00     0.000 A 
ATOM      4  C4  BNZ d   1       2.701  -1.180  -1.046  0.00  0.00     0.000 A 
ATOM      5  C5  BNZ d   1       2.357   0.124  -0.752  0.00  0.00     0.000 A 
ATOM      6  C6  BNZ d   1       1.505   0.391   0.295  0.00  0.00     0.000 A 
ENDROOT
TORSDOF 0
ENDMDL
