MODEL 1
REMARK minimizedAffinity -3.4157896
REMARK minimizedRMSD -1
REMARK  0 active torsions:
REMARK  status: ('A' for Active; 'I' for Inactive)
ROOT
ATOM      1  C1  BNZ d   1       0.750  -0.614   0.649  0.00  0.00     0.000 A 
ATOM      2  C2  BNZ d   1       1.630  -1.447   0.010  0.00  0.00     0.000 A 
ATOM      3  C3  BNZ d   1       2.485  -0.965  -0.941  0.00  0.00     0.000 A 
ATOM      4  C4  BNZ d   1       2.432   0.339  -1.281  0.00  0.00     0.000 A 
ATOM      5  C5  BNZ d   1       1.544   1.190  -0.653  0.00  0.00     0.000 A 
ATOM      6  C6  BNZ d   1       0.712   0.709   0.332  0.00  0.00     0.000 A 
ENDROOT
TORSDOF 0
ENDMDL
