MODEL 1
REMARK minimizedAffinity -4.40050507
REMARK minimizedRMSD -1
REMARK  0 active torsions:
REMARK  status: ('A' for Active; 'I' for Inactive)
ROOT
ATOM      1  C1  BNZ d   1       0.311  -0.737   1.233  0.00  0.00     0.000 A 
ATOM      2  C2  BNZ d   1       0.377  -1.983   0.667  0.00  0.00     0.000 A 
ATOM      3  C3  BNZ d   1       1.322  -2.273  -0.277  0.00  0.00     0.000 A 
ATOM      4  C4  BNZ d   1       2.172  -1.308  -0.683  0.00  0.00     0.000 A 
ATOM      5  C5  BNZ d   1       2.112  -0.045  -0.129  0.00  0.00     0.000 A 
ATOM      6  C6  BNZ d   1       1.185   0.233   0.850  0.00  0.00     0.000 A 
ENDROOT
TORSDOF 0
ENDMDL
