MODEL 1
REMARK minimizedAffinity 0.852828443
REMARK minimizedRMSD -1
REMARK  0 active torsions:
REMARK  status: ('A' for Active; 'I' for Inactive)
ROOT
ATOM      1  C1  BNZ d   1       0.077   3.225  -3.467  0.00  0.00     0.000 A 
ATOM      2  C2  BNZ d   1       0.428   4.375  -2.812  0.00  0.00     0.000 A 
ATOM      3  C3  BNZ d   1      -0.526   5.188  -2.266  0.00  0.00     0.000 A 
ATOM      4  C4  BNZ d   1      -1.829   4.872  -2.411  0.00  0.00     0.000 A 
ATOM      5  C5  BNZ d   1      -2.199   3.721  -3.078  0.00  0.00     0.000 A 
ATOM      6  C6  BNZ d   1      -1.235   2.885  -3.592  0.00  0.00     0.000 A 
ENDROOT
TORSDOF 0
ENDMDL
