MODEL 1
REMARK minimizedAffinity -2.66783905
REMARK minimizedRMSD -1
REMARK  0 active torsions:
REMARK  status: ('A' for Active; 'I' for Inactive)
ROOT
ATOM      1  C1  BNZ d   1       2.712  -0.475  -1.284  0.00  0.00     0.000 A 
ATOM      2  C2  BNZ d   1       1.992  -1.473  -0.684  0.00  0.00     0.000 A 
ATOM      3  C3  BNZ d   1       1.142  -1.199   0.351  0.00  0.00     0.000 A 
ATOM      4  C4  BNZ d   1       1.044   0.065   0.811  0.00  0.00     0.000 A 
ATOM      5  C5  BNZ d   1       1.770   1.082   0.222  0.00  0.00     0.000 A 
ATOM      6  C6  BNZ d   1       2.594   0.808  -0.845  0.00  0.00     0.000 A 
ENDROOT
TORSDOF 0
ENDMDL
