MODEL 1
REMARK minimizedAffinity -3.68167114
REMARK minimizedRMSD -1
REMARK  0 active torsions:
REMARK  status: ('A' for Active; 'I' for Inactive)
ROOT
ATOM      1  C1  BNZ d   1       1.808  -0.769  -0.545  0.00  0.00     0.000 A 
ATOM      2  C2  BNZ d   1       1.492  -1.950   0.072  0.00  0.00     0.000 A 
ATOM      3  C3  BNZ d   1       0.786  -1.962   1.243  0.00  0.00     0.000 A 
ATOM      4  C4  BNZ d   1       0.432  -0.793   1.815  0.00  0.00     0.000 A 
ATOM      5  C5  BNZ d   1       0.752   0.406   1.210  0.00  0.00     0.000 A 
ATOM      6  C6  BNZ d   1       1.428   0.413   0.012  0.00  0.00     0.000 A 
ENDROOT
TORSDOF 0
ENDMDL
