MODEL 1
REMARK minimizedAffinity -3.70536542
REMARK minimizedRMSD -1
REMARK  0 active torsions:
REMARK  status: ('A' for Active; 'I' for Inactive)
ROOT
ATOM      1  C1  BNZ d   1       1.492  -1.485   0.150  0.00  0.00     0.000 A 
ATOM      2  C2  BNZ d   1       0.774  -2.260   1.021  0.00  0.00     0.000 A 
ATOM      3  C3  BNZ d   1      -0.020  -1.688   1.976  0.00  0.00     0.000 A 
ATOM      4  C4  BNZ d   1      -0.063  -0.345   2.084  0.00  0.00     0.000 A 
ATOM      5  C5  BNZ d   1       0.663   0.450   1.220  0.00  0.00     0.000 A 
ATOM      6  C6  BNZ d   1       1.430  -0.129   0.235  0.00  0.00     0.000 A 
ENDROOT
TORSDOF 0
ENDMDL
