MODEL 1
REMARK minimizedAffinity -3.41853809
REMARK minimizedRMSD -1
REMARK  0 active torsions:
REMARK  status: ('A' for Active; 'I' for Inactive)
ROOT
ATOM      1  C1  BNZ d   1       2.155  -0.555  -1.254  0.00  0.00     0.000 A 
ATOM      2  C2  BNZ d   1       1.487  -1.414  -0.422  0.00  0.00     0.000 A 
ATOM      3  C3  BNZ d   1       0.915  -0.964   0.735  0.00  0.00     0.000 A 
ATOM      4  C4  BNZ d   1       1.045   0.333   1.078  0.00  0.00     0.000 A 
ATOM      5  C5  BNZ d   1       1.723   1.210   0.255  0.00  0.00     0.000 A 
ATOM      6  C6  BNZ d   1       2.265   0.762  -0.928  0.00  0.00     0.000 A 
ENDROOT
TORSDOF 0
ENDMDL
