MODEL 1
REMARK minimizedAffinity -3.88118124
REMARK minimizedRMSD -1
REMARK  1 active torsions:
REMARK  status: ('A' for Active; 'I' for Inactive)
REMARK    1  A    between atoms: C1_2  and  C2_3 
ROOT
ATOM      1  C2  UNL d   1       0.744   0.690   0.799  0.00  0.00    -0.073 A 
ATOM      2  C3  UNL d   1       1.376   0.104  -0.303  0.00  0.00    -0.002 A 
ATOM      3  C4  UNL d   1       0.634  -0.607  -1.247  0.00  0.00     0.004 A 
ATOM      4  C5  UNL d   1      -0.748  -0.733  -1.103  0.00  0.00    -0.004 A 
ATOM      5  C6  UNL d   1      -1.400  -0.144  -0.015  0.00  0.00    -0.075 A 
ATOM      6  C7  UNL d   1      -2.885  -0.272   0.156  0.00  0.00     0.076 C 
ATOM      7  C8  UNL d   1      -0.647   0.566   0.930  0.00  0.00     0.001 A 
ENDROOT
BRANCH   1   8
ATOM      8  C1  UNL d   1       1.541   1.464   1.816  0.00  0.00     0.053 C 
ATOM      9  C   UNL d   1       2.582   2.360   1.164  0.00  0.00     0.018 C 
ENDBRANCH   1   8
TORSDOF 1
ENDMDL
