MODEL 1
REMARK minimizedAffinity -0.450046688
REMARK minimizedRMSD -1
REMARK  1 active torsions:
REMARK  status: ('A' for Active; 'I' for Inactive)
REMARK    1  A    between atoms: C1_2  and  C2_3 
ROOT
ATOM      1  C2  UNL d   1       0.938   0.632   0.169  0.00  0.00    -0.073 A 
ATOM      2  C3  UNL d   1       1.154  -0.265   1.221  0.00  0.00    -0.002 A 
ATOM      3  C4  UNL d   1       0.258  -1.310   1.452  0.00  0.00     0.004 A 
ATOM      4  C5  UNL d   1      -0.858  -1.472   0.632  0.00  0.00    -0.004 A 
ATOM      5  C6  UNL d   1      -1.085  -0.593  -0.432  0.00  0.00    -0.075 A 
ATOM      6  C7  UNL d   1      -2.282  -0.752  -1.323  0.00  0.00     0.076 C 
ATOM      7  C8  UNL d   1      -0.182   0.455  -0.656  0.00  0.00     0.001 A 
ENDROOT
BRANCH   1   8
ATOM      8  C1  UNL d   1       1.906   1.757  -0.089  0.00  0.00     0.053 C 
ATOM      9  C   UNL d   1       2.261   2.507   1.185  0.00  0.00     0.018 C 
ENDBRANCH   1   8
TORSDOF 1
ENDMDL
