MODEL 1
REMARK minimizedAffinity -1.97479939
REMARK minimizedRMSD -1
REMARK  1 active torsions:
REMARK  status: ('A' for Active; 'I' for Inactive)
REMARK    1  A    between atoms: C1_2  and  C2_3 
ROOT
ATOM      1  C2  UNL d   1      -0.930  -0.016  -0.257  0.00  0.00    -0.073 A 
ATOM      2  C3  UNL d   1      -0.703  -1.122   0.570  0.00  0.00    -0.002 A 
ATOM      3  C4  UNL d   1       0.474  -1.216   1.314  0.00  0.00     0.004 A 
ATOM      4  C5  UNL d   1       1.431  -0.203   1.245  0.00  0.00    -0.004 A 
ATOM      5  C6  UNL d   1       1.216   0.916   0.434  0.00  0.00    -0.075 A 
ATOM      6  C7  UNL d   1       2.236   2.013   0.347  0.00  0.00     0.076 C 
ATOM      7  C8  UNL d   1       0.033   1.001  -0.312  0.00  0.00     0.001 A 
ENDROOT
BRANCH   1   8
ATOM      8  C1  UNL d   1      -2.202   0.093  -1.057  0.00  0.00     0.053 C 
ATOM      9  C   UNL d   1      -3.212  -0.977  -0.671  0.00  0.00     0.018 C 
ENDBRANCH   1   8
TORSDOF 1
ENDMDL
