MODEL 1
REMARK minimizedAffinity 1.14554226
REMARK minimizedRMSD -1
REMARK  1 active torsions:
REMARK  status: ('A' for Active; 'I' for Inactive)
REMARK    1  A    between atoms: C1_2  and  C2_3 
ROOT
ATOM      1  C2  UNL d   1       1.186   1.420   0.850  0.00  0.00    -0.073 A 
ATOM      2  C3  UNL d   1       0.226   0.561   1.397  0.00  0.00    -0.002 A 
ATOM      3  C4  UNL d   1      -0.411  -0.387   0.594  0.00  0.00     0.004 A 
ATOM      4  C5  UNL d   1      -0.089  -0.490  -0.759  0.00  0.00    -0.004 A 
ATOM      5  C6  UNL d   1       0.876   0.351  -1.321  0.00  0.00    -0.075 A 
ATOM      6  C7  UNL d   1       1.232   0.255  -2.776  0.00  0.00     0.076 C 
ATOM      7  C8  UNL d   1       1.509   1.303  -0.509  0.00  0.00     0.001 A 
ENDROOT
BRANCH   1   8
ATOM      8  C1  UNL d   1       1.880   2.441   1.715  0.00  0.00     0.053 C 
ATOM      9  C   UNL d   1       1.934   3.807   1.051  0.00  0.00     0.018 C 
ENDBRANCH   1   8
TORSDOF 1
ENDMDL
