MODEL 1
REMARK minimizedAffinity -4.18868828
REMARK minimizedRMSD -1
REMARK  1 active torsions:
REMARK  status: ('A' for Active; 'I' for Inactive)
REMARK    1  A    between atoms: C1_2  and  C2_3 
ROOT
ATOM      1  C2  UNL d   1       0.553   0.608   0.328  0.00  0.00    -0.073 A 
ATOM      2  C3  UNL d   1       0.878   0.414  -1.019  0.00  0.00    -0.002 A 
ATOM      3  C4  UNL d   1      -0.092  -0.021  -1.923  0.00  0.00     0.004 A 
ATOM      4  C5  UNL d   1      -1.397  -0.260  -1.491  0.00  0.00    -0.004 A 
ATOM      5  C6  UNL d   1      -1.744  -0.061  -0.151  0.00  0.00    -0.075 A 
ATOM      6  C7  UNL d   1      -3.142  -0.316   0.330  0.00  0.00     0.076 C 
ATOM      7  C8  UNL d   1      -0.763   0.374   0.751  0.00  0.00     0.001 A 
ENDROOT
BRANCH   1   8
ATOM      8  C1  UNL d   1       1.596   1.084   1.306  0.00  0.00     0.053 C 
ATOM      9  C   UNL d   1       1.823   2.584   1.213  0.00  0.00     0.018 C 
ENDBRANCH   1   8
TORSDOF 1
ENDMDL
