MODEL 1
REMARK minimizedAffinity -4.53210783
REMARK minimizedRMSD -1
REMARK  1 active torsions:
REMARK  status: ('A' for Active; 'I' for Inactive)
REMARK    1  A    between atoms: C1_2  and  C2_3 
ROOT
ATOM      1  C2  UNL d   1      -1.019  -0.461   0.386  0.00  0.00    -0.073 A 
ATOM      2  C3  UNL d   1      -0.768  -1.483   1.308  0.00  0.00    -0.002 A 
ATOM      3  C4  UNL d   1       0.540  -1.773   1.700  0.00  0.00     0.004 A 
ATOM      4  C5  UNL d   1       1.607  -1.040   1.181  0.00  0.00    -0.004 A 
ATOM      5  C6  UNL d   1       1.375  -0.007   0.268  0.00  0.00    -0.075 A 
ATOM      6  C7  UNL d   1       2.512   0.790  -0.302  0.00  0.00     0.076 C 
ATOM      7  C8  UNL d   1       0.059   0.276  -0.124  0.00  0.00     0.001 A 
ENDROOT
BRANCH   1   8
ATOM      8  C1  UNL d   1      -2.430  -0.141  -0.036  0.00  0.00     0.053 C 
ATOM      9  C   UNL d   1      -2.776  -0.756  -1.383  0.00  0.00     0.018 C 
ENDBRANCH   1   8
TORSDOF 1
ENDMDL
