MODEL 1
REMARK minimizedAffinity -3.35657191
REMARK minimizedRMSD -1
REMARK  1 active torsions:
REMARK  status: ('A' for Active; 'I' for Inactive)
REMARK    1  A    between atoms: C1_2  and  C2_3 
ROOT
ATOM      1  C2  UNL d   1       1.053   0.301   0.245  0.00  0.00    -0.073 A 
ATOM      2  C3  UNL d   1       1.148  -0.644   1.273  0.00  0.00    -0.002 A 
ATOM      3  C4  UNL d   1       0.084  -1.509   1.535  0.00  0.00     0.004 A 
ATOM      4  C5  UNL d   1      -1.080  -1.443   0.769  0.00  0.00    -0.004 A 
ATOM      5  C6  UNL d   1      -1.188  -0.513  -0.270  0.00  0.00    -0.075 A 
ATOM      6  C7  UNL d   1      -2.435  -0.427  -1.102  0.00  0.00     0.076 C 
ATOM      7  C8  UNL d   1      -0.117   0.354  -0.525  0.00  0.00     0.001 A 
ENDROOT
BRANCH   1   8
ATOM      8  C1  UNL d   1       2.201   1.232  -0.046  0.00  0.00     0.053 C 
ATOM      9  C   UNL d   1       2.435   2.220   1.086  0.00  0.00     0.018 C 
ENDBRANCH   1   8
TORSDOF 1
ENDMDL
