MODEL 1
REMARK minimizedAffinity -1.72199082
REMARK minimizedRMSD -1
REMARK  1 active torsions:
REMARK  status: ('A' for Active; 'I' for Inactive)
REMARK    1  A    between atoms: C1_2  and  C2_3 
ROOT
ATOM      1  C2  UNL d   1       0.924   0.533   0.572  0.00  0.00    -0.073 A 
ATOM      2  C3  UNL d   1       1.326  -0.552   1.359  0.00  0.00    -0.002 A 
ATOM      3  C4  UNL d   1       0.503  -1.672   1.489  0.00  0.00     0.004 A 
ATOM      4  C5  UNL d   1      -0.725  -1.721   0.829  0.00  0.00    -0.004 A 
ATOM      5  C6  UNL d   1      -1.139  -0.652   0.028  0.00  0.00    -0.075 A 
ATOM      6  C7  UNL d   1      -2.457  -0.688  -0.687  0.00  0.00     0.076 C 
ATOM      7  C8  UNL d   1      -0.308   0.470  -0.095  0.00  0.00     0.001 A 
ENDROOT
BRANCH   1   8
ATOM      8  C1  UNL d   1       1.812   1.741   0.424  0.00  0.00     0.053 C 
ATOM      9  C   UNL d   1       2.402   2.181   1.754  0.00  0.00     0.018 C 
ENDBRANCH   1   8
TORSDOF 1
ENDMDL
