MODEL 1
REMARK minimizedAffinity -1.93136322
REMARK minimizedRMSD -1
REMARK  1 active torsions:
REMARK  status: ('A' for Active; 'I' for Inactive)
REMARK    1  A    between atoms: C1_2  and  C2_3 
ROOT
ATOM      1  C2  UNL d   1       0.525  -0.135   0.821  0.00  0.00    -0.073 A 
ATOM      2  C3  UNL d   1       1.050  -1.125   1.660  0.00  0.00    -0.002 A 
ATOM      3  C4  UNL d   1       0.231  -2.147   2.141  0.00  0.00     0.004 A 
ATOM      4  C5  UNL d   1      -1.116  -2.195   1.784  0.00  0.00    -0.004 A 
ATOM      5  C6  UNL d   1      -1.656  -1.222   0.937  0.00  0.00    -0.075 A 
ATOM      6  C7  UNL d   1      -3.104  -1.257   0.546  0.00  0.00     0.076 C 
ATOM      7  C8  UNL d   1      -0.829  -0.197   0.460  0.00  0.00     0.001 A 
ENDROOT
BRANCH   1   8
ATOM      8  C1  UNL d   1       1.407   0.967   0.293  0.00  0.00     0.053 C 
ATOM      9  C   UNL d   1       1.892   1.889   1.401  0.00  0.00     0.018 C 
ENDBRANCH   1   8
TORSDOF 1
ENDMDL
