MODEL 1
REMARK minimizedAffinity -5.01490545
REMARK minimizedRMSD -1
REMARK  1 active torsions:
REMARK  status: ('A' for Active; 'I' for Inactive)
REMARK    1  A    between atoms: C1_2  and  C2_3 
ROOT
ATOM      1  C2  UNL d   1       0.038   0.099   0.006  0.00  0.00    -0.073 A 
ATOM      2  C3  UNL d   1      -0.829   0.508  -1.013  0.00  0.00    -0.002 A 
ATOM      3  C4  UNL d   1      -2.136   0.022  -1.064  0.00  0.00     0.004 A 
ATOM      4  C5  UNL d   1      -2.591  -0.871  -0.094  0.00  0.00    -0.004 A 
ATOM      5  C6  UNL d   1      -1.743  -1.282   0.939  0.00  0.00    -0.075 A 
ATOM      6  C7  UNL d   1      -2.217  -2.244   1.989  0.00  0.00     0.076 C 
ATOM      7  C8  UNL d   1      -0.431  -0.792   0.982  0.00  0.00     0.001 A 
ENDROOT
BRANCH   1   8
ATOM      8  C1  UNL d   1       1.449   0.625   0.068  0.00  0.00     0.053 C 
ATOM      9  C   UNL d   1       1.564   1.840   0.975  0.00  0.00     0.018 C 
ENDBRANCH   1   8
TORSDOF 1
ENDMDL
