MODEL 1
REMARK minimizedAffinity -0.866972268
REMARK minimizedRMSD -1
REMARK  1 active torsions:
REMARK  status: ('A' for Active; 'I' for Inactive)
REMARK    1  A    between atoms: C1_2  and  C2_3 
ROOT
ATOM      1  C2  UNL d   1       0.321  -0.101  -0.233  0.00  0.00    -0.073 A 
ATOM      2  C3  UNL d   1       0.954  -0.687   0.869  0.00  0.00    -0.002 A 
ATOM      3  C4  UNL d   1       0.206  -1.355   1.839  0.00  0.00     0.004 A 
ATOM      4  C5  UNL d   1      -1.180  -1.449   1.715  0.00  0.00    -0.004 A 
ATOM      5  C6  UNL d   1      -1.830  -0.880   0.615  0.00  0.00    -0.075 A 
ATOM      6  C7  UNL d   1      -3.321  -0.971   0.468  0.00  0.00     0.076 C 
ATOM      7  C8  UNL d   1      -1.072  -0.209  -0.353  0.00  0.00     0.001 A 
ENDROOT
BRANCH   1   8
ATOM      8  C1  UNL d   1       1.125   0.616  -1.286  0.00  0.00     0.053 C 
ATOM      9  C   UNL d   1       0.484   0.512  -2.661  0.00  0.00     0.018 C 
ENDBRANCH   1   8
TORSDOF 1
ENDMDL
