MODEL 1
REMARK minimizedAffinity -3.25262737
REMARK minimizedRMSD -1
REMARK  1 active torsions:
REMARK  status: ('A' for Active; 'I' for Inactive)
REMARK    1  A    between atoms: C1_2  and  C2_3 
ROOT
ATOM      1  C2  UNL d   1       1.210   0.864   0.630  0.00  0.00    -0.073 A 
ATOM      2  C3  UNL d   1       1.579   0.462  -0.659  0.00  0.00    -0.002 A 
ATOM      3  C4  UNL d   1       0.648  -0.146  -1.502  0.00  0.00     0.004 A 
ATOM      4  C5  UNL d   1      -0.661  -0.352  -1.069  0.00  0.00    -0.004 A 
ATOM      5  C6  UNL d   1      -1.053   0.054   0.211  0.00  0.00    -0.075 A 
ATOM      6  C7  UNL d   1      -2.458  -0.162   0.693  0.00  0.00     0.076 C 
ATOM      7  C8  UNL d   1      -0.112   0.662   1.053  0.00  0.00     0.001 A 
ENDROOT
BRANCH   1   8
ATOM      8  C1  UNL d   1       2.210   1.528   1.541  0.00  0.00     0.053 C 
ATOM      9  C   UNL d   1       2.167   3.043   1.427  0.00  0.00     0.018 C 
ENDBRANCH   1   8
TORSDOF 1
ENDMDL
