MODEL 1
REMARK minimizedAffinity 2.70417094
REMARK minimizedRMSD -1
REMARK  1 active torsions:
REMARK  status: ('A' for Active; 'I' for Inactive)
REMARK    1  A    between atoms: C1_2  and  C2_3 
ROOT
ATOM      1  C2  UNL d   1       0.439  -0.284   0.073  0.00  0.00    -0.073 A 
ATOM      2  C3  UNL d   1       1.037  -1.155   0.990  0.00  0.00    -0.002 A 
ATOM      3  C4  UNL d   1       0.252  -1.905   1.866  0.00  0.00     0.004 A 
ATOM      4  C5  UNL d   1      -1.138  -1.797   1.830  0.00  0.00    -0.004 A 
ATOM      5  C6  UNL d   1      -1.756  -0.941   0.913  0.00  0.00    -0.075 A 
ATOM      6  C7  UNL d   1      -3.250  -0.811   0.863  0.00  0.00     0.076 C 
ATOM      7  C8  UNL d   1      -0.960  -0.189   0.038  0.00  0.00     0.001 A 
ENDROOT
BRANCH   1   8
ATOM      8  C1  UNL d   1       1.283   0.523  -0.879  0.00  0.00     0.053 C 
ATOM      9  C   UNL d   1       0.810   0.385  -2.317  0.00  0.00     0.018 C 
ENDBRANCH   1   8
TORSDOF 1
ENDMDL
