MODEL 1
REMARK minimizedAffinity -4.0792675
REMARK minimizedRMSD -1
REMARK  0 active torsions:
REMARK  status: ('A' for Active; 'I' for Inactive)
ROOT
ATOM      1  C   UNL d   1       1.166  -2.840   1.775  0.00  0.00     0.023 A 
ATOM      2  C1  UNL d   1       0.003  -2.283   2.307  0.00  0.00     0.003 A 
ATOM      3  C2  UNL d   1      -0.573  -1.161   1.708  0.00  0.00     0.048 A 
ATOM      4  C3  UNL d   1       0.018  -0.602   0.576  0.00  0.00     0.023 A 
ATOM      5  C4  UNL d   1       1.181  -1.156   0.039  0.00  0.00     0.048 A 
ATOM      6  C5  UNL d   1       1.754  -2.277   0.642  0.00  0.00     0.003 A 
ATOM      7  I   UNL d   1      -0.838   1.069  -0.317  0.00  0.00    -0.146 I 
ENDROOT
TORSDOF 0
ENDMDL
