MODEL 1
REMARK minimizedAffinity -4.69848537
REMARK minimizedRMSD -1
REMARK  0 active torsions:
REMARK  status: ('A' for Active; 'I' for Inactive)
ROOT
ATOM      1  C   UNL d   1       1.096  -2.551   2.130  0.00  0.00     0.023 A 
ATOM      2  C1  UNL d   1       1.810  -2.052   1.042  0.00  0.00     0.003 A 
ATOM      3  C2  UNL d   1       1.235  -1.089   0.210  0.00  0.00     0.048 A 
ATOM      4  C3  UNL d   1      -0.055  -0.629   0.474  0.00  0.00     0.023 A 
ATOM      5  C4  UNL d   1      -0.773  -1.125   1.563  0.00  0.00     0.048 A 
ATOM      6  C5  UNL d   1      -0.194  -2.089   2.391  0.00  0.00     0.003 A 
ATOM      7  I   UNL d   1      -0.913   0.805  -0.762  0.00  0.00    -0.146 I 
ENDROOT
TORSDOF 0
ENDMDL
