MODEL 1
REMARK minimizedAffinity -4.58253622
REMARK minimizedRMSD -1
REMARK  0 active torsions:
REMARK  status: ('A' for Active; 'I' for Inactive)
ROOT
ATOM      1  C   UNL d   1       0.930  -2.771   2.220  0.00  0.00     0.023 A 
ATOM      2  C1  UNL d   1       1.650  -2.249   1.145  0.00  0.00     0.003 A 
ATOM      3  C2  UNL d   1       1.134  -1.178   0.412  0.00  0.00     0.048 A 
ATOM      4  C3  UNL d   1      -0.102  -0.634   0.760  0.00  0.00     0.023 A 
ATOM      5  C4  UNL d   1      -0.825  -1.152   1.836  0.00  0.00     0.048 A 
ATOM      6  C5  UNL d   1      -0.306  -2.224   2.565  0.00  0.00     0.003 A 
ATOM      7  I   UNL d   1      -0.871   0.960  -0.329  0.00  0.00    -0.146 I 
ENDROOT
TORSDOF 0
ENDMDL
