MODEL 1
REMARK minimizedAffinity -4.82932281
REMARK minimizedRMSD -1
REMARK  0 active torsions:
REMARK  status: ('A' for Active; 'I' for Inactive)
ROOT
ATOM      1  C   UNL d   1       1.275  -2.903   1.946  0.00  0.00     0.023 A 
ATOM      2  C1  UNL d   1       1.985  -2.181   0.986  0.00  0.00     0.003 A 
ATOM      3  C2  UNL d   1       1.385  -1.096   0.342  0.00  0.00     0.048 A 
ATOM      4  C3  UNL d   1       0.076  -0.739   0.664  0.00  0.00     0.023 A 
ATOM      5  C4  UNL d   1      -0.637  -1.457   1.625  0.00  0.00     0.048 A 
ATOM      6  C5  UNL d   1      -0.034  -2.541   2.265  0.00  0.00     0.003 A 
ATOM      7  I   UNL d   1      -0.818   0.875  -0.293  0.00  0.00    -0.146 I 
ENDROOT
TORSDOF 0
ENDMDL
