MODEL 1
REMARK minimizedAffinity -4.94003201
REMARK minimizedRMSD -1
REMARK  0 active torsions:
REMARK  status: ('A' for Active; 'I' for Inactive)
ROOT
ATOM      1  C   UNL d   1       1.561  -2.121   1.422  0.00  0.00     0.023 A 
ATOM      2  C1  UNL d   1       0.170  -2.198   1.479  0.00  0.00     0.003 A 
ATOM      3  C2  UNL d   1      -0.611  -1.293   0.756  0.00  0.00     0.048 A 
ATOM      4  C3  UNL d   1       0.007  -0.315  -0.023  0.00  0.00     0.023 A 
ATOM      5  C4  UNL d   1       1.399  -0.235  -0.083  0.00  0.00     0.048 A 
ATOM      6  C5  UNL d   1       2.175  -1.141   0.642  0.00  0.00     0.003 A 
ATOM      7  I   UNL d   1      -1.153   1.032  -1.100  0.00  0.00    -0.146 I 
ENDROOT
TORSDOF 0
ENDMDL
