MODEL 1
REMARK minimizedAffinity -4.81656027
REMARK minimizedRMSD -1
REMARK  0 active torsions:
REMARK  status: ('A' for Active; 'I' for Inactive)
ROOT
ATOM      1  C   UNL d   1       0.510  -2.940   2.126  0.00  0.00     0.023 A 
ATOM      2  C1  UNL d   1      -0.429  -2.012   2.576  0.00  0.00     0.003 A 
ATOM      3  C2  UNL d   1      -0.782  -0.927   1.772  0.00  0.00     0.048 A 
ATOM      4  C3  UNL d   1      -0.192  -0.776   0.517  0.00  0.00     0.023 A 
ATOM      5  C4  UNL d   1       0.748  -1.702   0.062  0.00  0.00     0.048 A 
ATOM      6  C5  UNL d   1       1.098  -2.785   0.871  0.00  0.00     0.003 A 
ATOM      7  I   UNL d   1      -0.715   0.838  -0.683  0.00  0.00    -0.146 I 
ENDROOT
TORSDOF 0
ENDMDL
