MODEL 1
REMARK minimizedAffinity -4.0789938
REMARK minimizedRMSD -1
REMARK  0 active torsions:
REMARK  status: ('A' for Active; 'I' for Inactive)
ROOT
ATOM      1  C   UNL d   1       1.541  -2.402   0.818  0.00  0.00     0.023 A 
ATOM      2  C1  UNL d   1       2.131  -1.396   0.053  0.00  0.00     0.003 A 
ATOM      3  C2  UNL d   1       1.384  -0.280  -0.330  0.00  0.00     0.048 A 
ATOM      4  C3  UNL d   1       0.048  -0.177   0.057  0.00  0.00     0.023 A 
ATOM      5  C4  UNL d   1      -0.546  -1.181   0.823  0.00  0.00     0.048 A 
ATOM      6  C5  UNL d   1       0.205  -2.295   1.203  0.00  0.00     0.003 A 
ATOM      7  I   UNL d   1      -1.066   1.483  -0.512  0.00  0.00    -0.146 I 
ENDROOT
TORSDOF 0
ENDMDL
