MODEL 1
REMARK minimizedAffinity -4.92452621
REMARK minimizedRMSD -1
REMARK  0 active torsions:
REMARK  status: ('A' for Active; 'I' for Inactive)
ROOT
ATOM      1  C   UNL d   1       1.234  -2.295   1.500  0.00  0.00     0.023 A 
ATOM      2  C1  UNL d   1      -0.104  -1.931   1.655  0.00  0.00     0.003 A 
ATOM      3  C2  UNL d   1      -0.657  -0.938   0.844  0.00  0.00     0.048 A 
ATOM      4  C3  UNL d   1       0.133  -0.314  -0.121  0.00  0.00     0.023 A 
ATOM      5  C4  UNL d   1       1.472  -0.675  -0.280  0.00  0.00     0.048 A 
ATOM      6  C5  UNL d   1       2.021  -1.668   0.534  0.00  0.00     0.003 A 
ATOM      7  I   UNL d   1      -0.688   1.164  -1.329  0.00  0.00    -0.146 I 
ENDROOT
TORSDOF 0
ENDMDL
