MODEL 1
REMARK minimizedAffinity -5.65561628
REMARK minimizedRMSD -1
REMARK  0 active torsions:
REMARK  status: ('A' for Active; 'I' for Inactive)
ROOT
ATOM      1  C   UNL d   1       0.766  -2.972   2.243  0.00  0.00     0.023 A 
ATOM      2  C1  UNL d   1      -0.303  -2.206   2.709  0.00  0.00     0.003 A 
ATOM      3  C2  UNL d   1      -0.721  -1.081   1.995  0.00  0.00     0.048 A 
ATOM      4  C3  UNL d   1      -0.066  -0.728   0.815  0.00  0.00     0.023 A 
ATOM      5  C4  UNL d   1       1.003  -1.493   0.344  0.00  0.00     0.048 A 
ATOM      6  C5  UNL d   1       1.418  -2.616   1.062  0.00  0.00     0.003 A 
ATOM      7  I   UNL d   1      -0.686   0.945  -0.250  0.00  0.00    -0.146 I 
ENDROOT
TORSDOF 0
ENDMDL
