MODEL 1
REMARK minimizedAffinity -5.53642321
REMARK minimizedRMSD -1
REMARK  0 active torsions:
REMARK  status: ('A' for Active; 'I' for Inactive)
ROOT
ATOM      1  C   UNL d   1       1.397  -3.118   1.523  0.00  0.00     0.023 A 
ATOM      2  C1  UNL d   1       0.361  -2.526   2.246  0.00  0.00     0.003 A 
ATOM      3  C2  UNL d   1      -0.235  -1.352   1.779  0.00  0.00     0.048 A 
ATOM      4  C3  UNL d   1       0.209  -0.777   0.589  0.00  0.00     0.023 A 
ATOM      5  C4  UNL d   1       1.244  -1.367  -0.138  0.00  0.00     0.048 A 
ATOM      6  C5  UNL d   1       1.838  -2.540   0.333  0.00  0.00     0.003 A 
ATOM      7  I   UNL d   1      -0.677   0.969  -0.107  0.00  0.00    -0.146 I 
ENDROOT
TORSDOF 0
ENDMDL
