MODEL 1
REMARK minimizedAffinity -3.58678937
REMARK minimizedRMSD -1
REMARK  0 active torsions:
REMARK  status: ('A' for Active; 'I' for Inactive)
ROOT
ATOM      1  C   UNL d   1       1.055  -2.904   1.927  0.00  0.00     0.023 A 
ATOM      2  C1  UNL d   1       1.757  -2.484   0.796  0.00  0.00     0.003 A 
ATOM      3  C2  UNL d   1       1.322  -1.369   0.077  0.00  0.00     0.048 A 
ATOM      4  C3  UNL d   1       0.186  -0.676   0.495  0.00  0.00     0.023 A 
ATOM      5  C4  UNL d   1      -0.518  -1.092   1.626  0.00  0.00     0.048 A 
ATOM      6  C5  UNL d   1      -0.081  -2.208   2.341  0.00  0.00     0.003 A 
ATOM      7  I   UNL d   1      -0.462   0.984  -0.574  0.00  0.00    -0.146 I 
ENDROOT
TORSDOF 0
ENDMDL
