MODEL 1
REMARK minimizedAffinity -4.88324261
REMARK minimizedRMSD -1
REMARK  0 active torsions:
REMARK  status: ('A' for Active; 'I' for Inactive)
ROOT
ATOM      1  C   UNL d   1       1.247  -2.778   2.147  0.00  0.00     0.023 A 
ATOM      2  C1  UNL d   1       2.008  -2.198   1.132  0.00  0.00     0.003 A 
ATOM      3  C2  UNL d   1       1.482  -1.147   0.377  0.00  0.00     0.048 A 
ATOM      4  C3  UNL d   1       0.196  -0.679   0.645  0.00  0.00     0.023 A 
ATOM      5  C4  UNL d   1      -0.568  -1.255   1.660  0.00  0.00     0.048 A 
ATOM      6  C5  UNL d   1      -0.039  -2.307   2.411  0.00  0.00     0.003 A 
ATOM      7  I   UNL d   1      -0.588   0.886  -0.477  0.00  0.00    -0.146 I 
ENDROOT
TORSDOF 0
ENDMDL
