MODEL 1
REMARK minimizedAffinity -4.8598299
REMARK minimizedRMSD -1
REMARK  0 active torsions:
REMARK  status: ('A' for Active; 'I' for Inactive)
ROOT
ATOM      1  C   UNL d   1       1.074  -2.821   1.844  0.00  0.00     0.023 A 
ATOM      2  C1  UNL d   1       1.725  -2.284   0.733  0.00  0.00     0.003 A 
ATOM      3  C2  UNL d   1       1.235  -1.125   0.128  0.00  0.00     0.048 A 
ATOM      4  C3  UNL d   1       0.094  -0.507   0.640  0.00  0.00     0.023 A 
ATOM      5  C4  UNL d   1      -0.559  -1.040   1.752  0.00  0.00     0.048 A 
ATOM      6  C5  UNL d   1      -0.066  -2.200   2.353  0.00  0.00     0.003 A 
ATOM      7  I   UNL d   1      -0.637   1.219  -0.258  0.00  0.00    -0.146 I 
ENDROOT
TORSDOF 0
ENDMDL
