MODEL 1
REMARK minimizedAffinity -5.1528368
REMARK minimizedRMSD -1
REMARK  0 active torsions:
REMARK  status: ('A' for Active; 'I' for Inactive)
ROOT
ATOM      1  C   UNL d   1       1.713  -2.370   0.998  0.00  0.00     0.023 A 
ATOM      2  C1  UNL d   1       2.181  -1.514   0.001  0.00  0.00     0.003 A 
ATOM      3  C2  UNL d   1       1.356  -0.506  -0.500  0.00  0.00     0.048 A 
ATOM      4  C3  UNL d   1       0.063  -0.359   0.001  0.00  0.00     0.023 A 
ATOM      5  C4  UNL d   1      -0.410  -1.212   0.999  0.00  0.00     0.048 A 
ATOM      6  C5  UNL d   1       0.419  -2.220   1.496  0.00  0.00     0.003 A 
ATOM      7  I   UNL d   1      -1.169   1.141  -0.743  0.00  0.00    -0.146 I 
ENDROOT
TORSDOF 0
ENDMDL
