MODEL 1
REMARK minimizedAffinity -3.18287182
REMARK minimizedRMSD -1
REMARK  0 active torsions:
REMARK  status: ('A' for Active; 'I' for Inactive)
ROOT
ATOM      1  C   UNL d   1       0.958  -2.958   2.318  0.00  0.00     0.023 A 
ATOM      2  C1  UNL d   1       1.613  -2.579   1.146  0.00  0.00     0.003 A 
ATOM      3  C2  UNL d   1       1.093  -1.553   0.354  0.00  0.00     0.048 A 
ATOM      4  C3  UNL d   1      -0.082  -0.909   0.742  0.00  0.00     0.023 A 
ATOM      5  C4  UNL d   1      -0.740  -1.284   1.914  0.00  0.00     0.048 A 
ATOM      6  C5  UNL d   1      -0.217  -2.312   2.701  0.00  0.00     0.003 A 
ATOM      7  I   UNL d   1      -0.858   0.619  -0.434  0.00  0.00    -0.146 I 
ENDROOT
TORSDOF 0
ENDMDL
