MODEL 1
REMARK minimizedAffinity 7.62217188
REMARK minimizedRMSD -1
REMARK  0 active torsions:
REMARK  status: ('A' for Active; 'I' for Inactive)
ROOT
ATOM      1  C   UNL d   1       6.000  -5.067   0.332  0.00  0.00     0.077 C 
ATOM      2  C1  UNL d   1       4.871  -4.476   1.123  0.00  0.00    -0.074 A 
ATOM      3  C2  UNL d   1       3.718  -4.005   0.488  0.00  0.00    -0.005 A 
ATOM      4  C3  UNL d   1       2.672  -3.467   1.238  0.00  0.00     0.006 A 
ATOM      5  C4  UNL d   1       2.769  -3.394   2.628  0.00  0.00    -0.005 A 
ATOM      6  C5  UNL d   1       3.915  -3.861   3.281  0.00  0.00    -0.074 A 
ATOM      7  C6  UNL d   1       4.031  -3.799   4.775  0.00  0.00     0.077 C 
ATOM      8  C7  UNL d   1       4.958  -4.407   2.521  0.00  0.00    -0.001 A 
ENDROOT
TORSDOF 0
ENDMDL
