MODEL 1
REMARK minimizedAffinity 0.244489387
REMARK minimizedRMSD -1
REMARK  0 active torsions:
REMARK  status: ('A' for Active; 'I' for Inactive)
ROOT
ATOM      1  C   UNL d   1      -1.867  -1.492  -5.997  0.00  0.00     0.077 C 
ATOM      2  C1  UNL d   1      -2.952  -0.943  -5.119  0.00  0.00    -0.074 A 
ATOM      3  C2  UNL d   1      -3.099  -1.381  -3.799  0.00  0.00    -0.005 A 
ATOM      4  C3  UNL d   1      -4.107  -0.854  -2.991  0.00  0.00     0.006 A 
ATOM      5  C4  UNL d   1      -4.977   0.114  -3.495  0.00  0.00    -0.005 A 
ATOM      6  C5  UNL d   1      -4.845   0.564  -4.813  0.00  0.00    -0.074 A 
ATOM      7  C6  UNL d   1      -5.766   1.610  -5.366  0.00  0.00     0.077 C 
ATOM      8  C7  UNL d   1      -3.825   0.035  -5.615  0.00  0.00    -0.001 A 
ENDROOT
TORSDOF 0
ENDMDL
