MODEL 1
REMARK minimizedAffinity -0.663499653
REMARK minimizedRMSD -1
REMARK  0 active torsions:
REMARK  status: ('A' for Active; 'I' for Inactive)
ROOT
ATOM      1  C   UNL d   1      -2.245  -0.727  -5.984  0.00  0.00     0.077 C 
ATOM      2  C1  UNL d   1      -3.312  -0.556  -4.944  0.00  0.00    -0.074 A 
ATOM      3  C2  UNL d   1      -4.552   0.003  -5.272  0.00  0.00    -0.005 A 
ATOM      4  C3  UNL d   1      -5.538   0.146  -4.296  0.00  0.00     0.006 A 
ATOM      5  C4  UNL d   1      -5.295  -0.266  -2.985  0.00  0.00    -0.005 A 
ATOM      6  C5  UNL d   1      -4.062  -0.828  -2.640  0.00  0.00    -0.074 A 
ATOM      7  C6  UNL d   1      -3.788  -1.285  -1.238  0.00  0.00     0.077 C 
ATOM      8  C7  UNL d   1      -3.078  -0.975  -3.627  0.00  0.00    -0.001 A 
ENDROOT
TORSDOF 0
ENDMDL
