MODEL 1
REMARK minimizedAffinity 5.36143684
REMARK minimizedRMSD -1
REMARK  0 active torsions:
REMARK  status: ('A' for Active; 'I' for Inactive)
ROOT
ATOM      1  C   UNL d   1       3.363   1.876   0.175  0.00  0.00     0.077 C 
ATOM      2  C1  UNL d   1       3.395   0.376   0.177  0.00  0.00    -0.074 A 
ATOM      3  C2  UNL d   1       2.222  -0.368   0.014  0.00  0.00    -0.005 A 
ATOM      4  C3  UNL d   1       2.268  -1.762   0.008  0.00  0.00     0.006 A 
ATOM      5  C4  UNL d   1       3.486  -2.425   0.165  0.00  0.00    -0.005 A 
ATOM      6  C5  UNL d   1       4.669  -1.698   0.328  0.00  0.00    -0.074 A 
ATOM      7  C6  UNL d   1       5.987  -2.395   0.488  0.00  0.00     0.077 C 
ATOM      8  C7  UNL d   1       4.615  -0.298   0.326  0.00  0.00    -0.001 A 
ENDROOT
TORSDOF 0
ENDMDL
