MODEL 1
REMARK minimizedAffinity -2.04922962
REMARK minimizedRMSD -1
REMARK  0 active torsions:
REMARK  status: ('A' for Active; 'I' for Inactive)
ROOT
ATOM      1  C   UNL d   1      -4.486  -0.379  -6.000  0.00  0.00     0.077 C 
ATOM      2  C1  UNL d   1      -3.882   0.057  -4.698  0.00  0.00    -0.074 A 
ATOM      3  C2  UNL d   1      -3.592  -0.871  -3.693  0.00  0.00    -0.005 A 
ATOM      4  C3  UNL d   1      -3.021  -0.452  -2.491  0.00  0.00     0.006 A 
ATOM      5  C4  UNL d   1      -2.736   0.898  -2.283  0.00  0.00    -0.005 A 
ATOM      6  C5  UNL d   1      -3.019   1.841  -3.276  0.00  0.00    -0.074 A 
ATOM      7  C6  UNL d   1      -2.709   3.294  -3.072  0.00  0.00     0.077 C 
ATOM      8  C7  UNL d   1      -3.585   1.411  -4.484  0.00  0.00    -0.001 A 
ENDROOT
TORSDOF 0
ENDMDL
