MODEL 1
REMARK minimizedAffinity -0.492951453
REMARK minimizedRMSD -1
REMARK  0 active torsions:
REMARK  status: ('A' for Active; 'I' for Inactive)
ROOT
ATOM      1  C   UNL d   1      -1.789   0.856  -5.999  0.00  0.00     0.077 C 
ATOM      2  C1  UNL d   1      -3.133   0.512  -5.429  0.00  0.00    -0.074 A 
ATOM      3  C2  UNL d   1      -4.258   1.291  -5.721  0.00  0.00    -0.005 A 
ATOM      4  C3  UNL d   1      -5.503   0.953  -5.192  0.00  0.00     0.006 A 
ATOM      5  C4  UNL d   1      -5.637  -0.165  -4.368  0.00  0.00    -0.005 A 
ATOM      6  C5  UNL d   1      -4.524  -0.956  -4.066  0.00  0.00    -0.074 A 
ATOM      7  C6  UNL d   1      -4.652  -2.166  -3.189  0.00  0.00     0.077 C 
ATOM      8  C7  UNL d   1      -3.277  -0.614  -4.607  0.00  0.00    -0.001 A 
ENDROOT
TORSDOF 0
ENDMDL
