MODEL 1
REMARK minimizedAffinity -0.395543545
REMARK minimizedRMSD -1
REMARK  0 active torsions:
REMARK  status: ('A' for Active; 'I' for Inactive)
ROOT
ATOM      1  C   UNL d   1       5.331   0.090  -0.375  0.00  0.00     0.077 C 
ATOM      2  C1  UNL d   1       4.379  -0.999   0.020  0.00  0.00    -0.074 A 
ATOM      3  C2  UNL d   1       3.000  -0.849  -0.158  0.00  0.00    -0.005 A 
ATOM      4  C3  UNL d   1       2.128  -1.875   0.206  0.00  0.00     0.006 A 
ATOM      5  C4  UNL d   1       2.625  -3.060   0.750  0.00  0.00    -0.005 A 
ATOM      6  C5  UNL d   1       4.001  -3.229   0.934  0.00  0.00    -0.074 A 
ATOM      7  C6  UNL d   1       4.553  -4.500   1.509  0.00  0.00     0.077 C 
ATOM      8  C7  UNL d   1       4.871  -2.196   0.560  0.00  0.00    -0.001 A 
ENDROOT
TORSDOF 0
ENDMDL
