MODEL 1
REMARK minimizedAffinity -0.428682417
REMARK minimizedRMSD -1
REMARK  0 active torsions:
REMARK  status: ('A' for Active; 'I' for Inactive)
ROOT
ATOM      1  C   UNL d   1       4.714   0.355  -0.499  0.00  0.00     0.077 C 
ATOM      2  C1  UNL d   1       4.063  -0.894   0.014  0.00  0.00    -0.074 A 
ATOM      3  C2  UNL d   1       2.673  -1.047  -0.022  0.00  0.00    -0.005 A 
ATOM      4  C3  UNL d   1       2.082  -2.219   0.451  0.00  0.00     0.006 A 
ATOM      5  C4  UNL d   1       2.873  -3.248   0.963  0.00  0.00    -0.005 A 
ATOM      6  C5  UNL d   1       4.265  -3.113   1.006  0.00  0.00    -0.074 A 
ATOM      7  C6  UNL d   1       5.130  -4.214   1.544  0.00  0.00     0.077 C 
ATOM      8  C7  UNL d   1       4.851  -1.936   0.523  0.00  0.00    -0.001 A 
ENDROOT
TORSDOF 0
ENDMDL
