MODEL 1
REMARK minimizedAffinity -0.88447088
REMARK minimizedRMSD -1
REMARK  0 active torsions:
REMARK  status: ('A' for Active; 'I' for Inactive)
ROOT
ATOM      1  C   UNL d   1      -3.265   3.349  -3.240  0.00  0.00     0.077 C 
ATOM      2  C1  UNL d   1      -3.640   1.942  -3.600  0.00  0.00    -0.074 A 
ATOM      3  C2  UNL d   1      -4.033   1.614  -4.901  0.00  0.00    -0.005 A 
ATOM      4  C3  UNL d   1      -4.370   0.299  -5.224  0.00  0.00     0.006 A 
ATOM      5  C4  UNL d   1      -4.316  -0.699  -4.250  0.00  0.00    -0.005 A 
ATOM      6  C5  UNL d   1      -3.924  -0.390  -2.944  0.00  0.00    -0.074 A 
ATOM      7  C6  UNL d   1      -3.852  -1.452  -1.887  0.00  0.00     0.077 C 
ATOM      8  C7  UNL d   1      -3.581   0.932  -2.629  0.00  0.00    -0.001 A 
ENDROOT
TORSDOF 0
ENDMDL
