MODEL 1
REMARK minimizedAffinity -1.76284957
REMARK minimizedRMSD -1
REMARK  0 active torsions:
REMARK  status: ('A' for Active; 'I' for Inactive)
ROOT
ATOM      1  C   UNL d   1      -6.000   1.530  -4.878  0.00  0.00     0.077 C 
ATOM      2  C1  UNL d   1      -4.836   0.596  -4.732  0.00  0.00    -0.074 A 
ATOM      3  C2  UNL d   1      -4.107   0.176  -5.850  0.00  0.00    -0.005 A 
ATOM      4  C3  UNL d   1      -3.021  -0.686  -5.699  0.00  0.00     0.006 A 
ATOM      5  C4  UNL d   1      -2.652  -1.135  -4.430  0.00  0.00    -0.005 A 
ATOM      6  C5  UNL d   1      -3.368  -0.726  -3.301  0.00  0.00    -0.074 A 
ATOM      7  C6  UNL d   1      -2.979  -1.191  -1.929  0.00  0.00     0.077 C 
ATOM      8  C7  UNL d   1      -4.454   0.146  -3.461  0.00  0.00    -0.001 A 
ENDROOT
TORSDOF 0
ENDMDL
