MODEL 1
REMARK minimizedAffinity -1.61040127
REMARK minimizedRMSD -1
REMARK  0 active torsions:
REMARK  status: ('A' for Active; 'I' for Inactive)
ROOT
ATOM      1  C   UNL d   1       2.386  -2.343   0.605  0.00  0.00     0.077 C 
ATOM      2  C1  UNL d   1       3.450  -3.121   1.322  0.00  0.00    -0.074 A 
ATOM      3  C2  UNL d   1       4.372  -3.898   0.614  0.00  0.00    -0.005 A 
ATOM      4  C3  UNL d   1       5.362  -4.608   1.293  0.00  0.00     0.006 A 
ATOM      5  C4  UNL d   1       5.440  -4.548   2.685  0.00  0.00    -0.005 A 
ATOM      6  C5  UNL d   1       4.527  -3.775   3.410  0.00  0.00    -0.074 A 
ATOM      7  C6  UNL d   1       4.603  -3.692   4.905  0.00  0.00     0.077 C 
ATOM      8  C7  UNL d   1       3.540  -3.059   2.719  0.00  0.00    -0.001 A 
ENDROOT
TORSDOF 0
ENDMDL
