MODEL 1
REMARK minimizedAffinity 0.797050595
REMARK minimizedRMSD -1
REMARK  0 active torsions:
REMARK  status: ('A' for Active; 'I' for Inactive)
ROOT
ATOM      1  C   UNL d   1       2.272   5.972  -4.796  0.00  0.00    -0.002 A 
ATOM      2  C1  UNL d   1       1.494   5.992  -5.945  0.00  0.00     0.010 A 
ATOM      3  C2  UNL d   1       0.101   6.000  -5.860  0.00  0.00     0.041 A 
ATOM      4  C3  UNL d   1      -0.504   5.989  -4.588  0.00  0.00    -0.075 A 
ATOM      5  S   UNL d   1      -2.193   5.997  -4.240  0.00  0.00     0.015 SA
ATOM      6  C4  UNL d   1      -1.922   5.974  -2.558  0.00  0.00     0.022 A 
ATOM      7  C5  UNL d   1      -0.582   5.960  -2.251  0.00  0.00     0.026 A 
ATOM      8  C6  UNL d   1       0.257   5.969  -3.416  0.00  0.00    -0.082 A 
ATOM      9  C7  UNL d   1       1.668   5.961  -3.536  0.00  0.00     0.045 A 
ENDROOT
TORSDOF 0
ENDMDL
