MODEL 1
REMARK minimizedAffinity -0.157842636
REMARK minimizedRMSD -1
REMARK  0 active torsions:
REMARK  status: ('A' for Active; 'I' for Inactive)
ROOT
ATOM      1  C   UNL d   1       0.413   5.987  -4.026  0.00  0.00    -0.002 A 
ATOM      2  C1  UNL d   1      -0.196   5.989  -5.272  0.00  0.00     0.010 A 
ATOM      3  C2  UNL d   1      -1.588   5.992  -5.383  0.00  0.00     0.041 A 
ATOM      4  C3  UNL d   1      -2.365   5.995  -4.208  0.00  0.00    -0.075 A 
ATOM      5  S   UNL d   1      -4.085   6.000  -4.099  0.00  0.00     0.015 SA
ATOM      6  C4  UNL d   1      -4.052   6.000  -2.395  0.00  0.00     0.022 A 
ATOM      7  C5  UNL d   1      -2.768   5.996  -1.904  0.00  0.00     0.026 A 
ATOM      8  C6  UNL d   1      -1.774   5.993  -2.941  0.00  0.00    -0.082 A 
ATOM      9  C7  UNL d   1      -0.361   5.989  -2.862  0.00  0.00     0.045 A 
ENDROOT
TORSDOF 0
ENDMDL
