MODEL 1
REMARK minimizedAffinity 6.80747175
REMARK minimizedRMSD -1
REMARK  0 active torsions:
REMARK  status: ('A' for Active; 'I' for Inactive)
ROOT
ATOM      1  C   UNL d   1      -2.184  -0.218  -5.164  0.00  0.00    -0.002 A 
ATOM      2  C1  UNL d   1      -2.583  -1.392  -4.540  0.00  0.00     0.010 A 
ATOM      3  C2  UNL d   1      -1.636  -2.310  -4.082  0.00  0.00     0.041 A 
ATOM      4  C3  UNL d   1      -0.268  -2.026  -4.262  0.00  0.00    -0.075 A 
ATOM      5  S   UNL d   1       1.069  -3.002  -3.781  0.00  0.00     0.015 SA
ATOM      6  C4  UNL d   1       2.201  -1.885  -4.393  0.00  0.00     0.022 A 
ATOM      7  C5  UNL d   1       1.591  -0.788  -4.954  0.00  0.00     0.026 A 
ATOM      8  C6  UNL d   1       0.158  -0.850  -4.887  0.00  0.00    -0.082 A 
ATOM      9  C7  UNL d   1      -0.826   0.060  -5.341  0.00  0.00     0.045 A 
ENDROOT
TORSDOF 0
ENDMDL
