MODEL 1
REMARK minimizedAffinity 2.73341084
REMARK minimizedRMSD -1
REMARK  0 active torsions:
REMARK  status: ('A' for Active; 'I' for Inactive)
ROOT
ATOM      1  C   UNL d   1      -4.103   5.994  -4.115  0.00  0.00    -0.002 A 
ATOM      2  C1  UNL d   1      -3.740   5.993  -2.776  0.00  0.00     0.010 A 
ATOM      3  C2  UNL d   1      -2.394   5.992  -2.405  0.00  0.00     0.041 A 
ATOM      4  C3  UNL d   1      -1.409   5.995  -3.413  0.00  0.00    -0.075 A 
ATOM      5  S   UNL d   1       0.301   5.995  -3.195  0.00  0.00     0.015 SA
ATOM      6  C4  UNL d   1       0.590   5.998  -4.875  0.00  0.00     0.022 A 
ATOM      7  C5  UNL d   1      -0.579   5.998  -5.599  0.00  0.00     0.026 A 
ATOM      8  C6  UNL d   1      -1.750   5.996  -4.768  0.00  0.00    -0.082 A 
ATOM      9  C7  UNL d   1      -3.123   5.996  -5.112  0.00  0.00     0.045 A 
ENDROOT
TORSDOF 0
ENDMDL
