MODEL 1
REMARK minimizedAffinity 0.965562105
REMARK minimizedRMSD -1
REMARK  0 active torsions:
REMARK  status: ('A' for Active; 'I' for Inactive)
ROOT
ATOM      1  C   UNL d   1       4.038   2.324  -3.374  0.00  0.00    -0.002 A 
ATOM      2  C1  UNL d   1       5.301   2.804  -3.691  0.00  0.00     0.010 A 
ATOM      3  C2  UNL d   1       5.449   3.938  -4.493  0.00  0.00     0.041 A 
ATOM      4  C3  UNL d   1       4.295   4.589  -4.973  0.00  0.00    -0.075 A 
ATOM      5  S   UNL d   1       4.233   5.994  -5.969  0.00  0.00     0.015 SA
ATOM      6  C4  UNL d   1       2.529   5.991  -5.996  0.00  0.00     0.022 A 
ATOM      7  C5  UNL d   1       2.004   4.950  -5.268  0.00  0.00     0.026 A 
ATOM      8  C6  UNL d   1       3.013   4.125  -4.666  0.00  0.00    -0.082 A 
ATOM      9  C7  UNL d   1       2.896   2.972  -3.852  0.00  0.00     0.045 A 
ENDROOT
TORSDOF 0
ENDMDL
