MODEL 1
REMARK minimizedAffinity 0.627689362
REMARK minimizedRMSD -1
REMARK  0 active torsions:
REMARK  status: ('A' for Active; 'I' for Inactive)
ROOT
ATOM      1  C   UNL d   1       1.490   5.999  -3.758  0.00  0.00    -0.002 A 
ATOM      2  C1  UNL d   1       0.893   6.000  -5.011  0.00  0.00     0.010 A 
ATOM      3  C2  UNL d   1      -0.498   5.999  -5.136  0.00  0.00     0.041 A 
ATOM      4  C3  UNL d   1      -1.286   6.000  -3.968  0.00  0.00    -0.075 A 
ATOM      5  S   UNL d   1      -3.008   6.000  -3.877  0.00  0.00     0.015 SA
ATOM      6  C4  UNL d   1      -2.992   6.000  -2.172  0.00  0.00     0.022 A 
ATOM      7  C5  UNL d   1      -1.712   5.999  -1.669  0.00  0.00     0.026 A 
ATOM      8  C6  UNL d   1      -0.708   6.000  -2.695  0.00  0.00    -0.082 A 
ATOM      9  C7  UNL d   1       0.704   5.999  -2.603  0.00  0.00     0.045 A 
ENDROOT
TORSDOF 0
ENDMDL
