MODEL 1
REMARK minimizedAffinity -0.0907907635
REMARK minimizedRMSD -1
REMARK  0 active torsions:
REMARK  status: ('A' for Active; 'I' for Inactive)
ROOT
ATOM      1  C   UNL d   1      -3.593   5.999  -2.992  0.00  0.00    -0.002 A 
ATOM      2  C1  UNL d   1      -2.801   5.999  -1.852  0.00  0.00     0.010 A 
ATOM      3  C2  UNL d   1      -1.409   5.999  -1.955  0.00  0.00     0.041 A 
ATOM      4  C3  UNL d   1      -0.820   5.999  -3.234  0.00  0.00    -0.075 A 
ATOM      5  S   UNL d   1       0.864   6.000  -3.603  0.00  0.00     0.015 SA
ATOM      6  C4  UNL d   1       0.572   6.000  -5.283  0.00  0.00     0.022 A 
ATOM      7  C5  UNL d   1      -0.772   6.000  -5.572  0.00  0.00     0.026 A 
ATOM      8  C6  UNL d   1      -1.596   6.000  -4.397  0.00  0.00    -0.082 A 
ATOM      9  C7  UNL d   1      -3.005   6.000  -4.259  0.00  0.00     0.045 A 
ENDROOT
TORSDOF 0
ENDMDL
