MODEL 1
REMARK minimizedAffinity 1.15044963
REMARK minimizedRMSD -1
REMARK  0 active torsions:
REMARK  status: ('A' for Active; 'I' for Inactive)
ROOT
ATOM      1  C   UNL d   1      -0.022   5.982  -3.592  0.00  0.00    -0.002 A 
ATOM      2  C1  UNL d   1      -0.152   5.993  -4.974  0.00  0.00     0.010 A 
ATOM      3  C2  UNL d   1       0.978   6.000  -5.794  0.00  0.00     0.041 A 
ATOM      4  C3  UNL d   1       2.254   5.993  -5.195  0.00  0.00    -0.075 A 
ATOM      5  S   UNL d   1       3.779   5.998  -5.999  0.00  0.00     0.015 SA
ATOM      6  C4  UNL d   1       4.639   5.985  -4.528  0.00  0.00     0.022 A 
ATOM      7  C5  UNL d   1       3.798   5.977  -3.440  0.00  0.00     0.026 A 
ATOM      8  C6  UNL d   1       2.410   5.981  -3.806  0.00  0.00    -0.082 A 
ATOM      9  C7  UNL d   1       1.245   5.976  -3.003  0.00  0.00     0.045 A 
ENDROOT
TORSDOF 0
ENDMDL
