MODEL 1
REMARK minimizedAffinity -1.98748231
REMARK minimizedRMSD -1
REMARK  0 active torsions:
REMARK  status: ('A' for Active; 'I' for Inactive)
ROOT
ATOM      1  C   UNL d   1       1.217   4.728  -4.395  0.00  0.00    -0.002 A 
ATOM      2  C1  UNL d   1       1.274   5.560  -5.504  0.00  0.00     0.010 A 
ATOM      3  C2  UNL d   1       2.503   5.999  -6.000  0.00  0.00     0.041 A 
ATOM      4  C3  UNL d   1       3.686   5.584  -5.357  0.00  0.00    -0.075 A 
ATOM      5  S   UNL d   1       5.303   5.996  -5.788  0.00  0.00     0.015 SA
ATOM      6  C4  UNL d   1       5.957   5.076  -4.510  0.00  0.00     0.022 A 
ATOM      7  C5  UNL d   1       4.979   4.464  -3.763  0.00  0.00     0.026 A 
ATOM      8  C6  UNL d   1       3.654   4.746  -4.239  0.00  0.00    -0.082 A 
ATOM      9  C7  UNL d   1       2.392   4.318  -3.760  0.00  0.00     0.045 A 
ENDROOT
TORSDOF 0
ENDMDL
