MODEL 1
REMARK minimizedAffinity 10.4785824
REMARK minimizedRMSD -1
REMARK  0 active torsions:
REMARK  status: ('A' for Active; 'I' for Inactive)
ROOT
ATOM      1  C   UNL d   1      -2.871   5.999  -2.516  0.00  0.00    -0.002 A 
ATOM      2  C1  UNL d   1      -1.887   6.000  -1.538  0.00  0.00     0.010 A 
ATOM      3  C2  UNL d   1      -0.536   5.999  -1.889  0.00  0.00     0.041 A 
ATOM      4  C3  UNL d   1      -0.186   5.999  -3.253  0.00  0.00    -0.075 A 
ATOM      5  S   UNL d   1       1.404   5.999  -3.919  0.00  0.00     0.015 SA
ATOM      6  C4  UNL d   1       0.815   6.000  -5.519  0.00  0.00     0.022 A 
ATOM      7  C5  UNL d   1      -0.559   5.999  -5.562  0.00  0.00     0.026 A 
ATOM      8  C6  UNL d   1      -1.159   6.000  -4.257  0.00  0.00    -0.082 A 
ATOM      9  C7  UNL d   1      -2.520   6.000  -3.869  0.00  0.00     0.045 A 
ENDROOT
TORSDOF 0
ENDMDL
