MODEL 1
REMARK minimizedAffinity 6.14230871
REMARK minimizedRMSD -1
REMARK  0 active torsions:
REMARK  status: ('A' for Active; 'I' for Inactive)
ROOT
ATOM      1  C   UNL d   1       2.775   2.900   0.273  0.00  0.00    -0.002 A 
ATOM      2  C1  UNL d   1       2.126   2.795  -0.949  0.00  0.00     0.010 A 
ATOM      3  C2  UNL d   1       1.081   1.885  -1.122  0.00  0.00     0.041 A 
ATOM      4  C3  UNL d   1       0.695   1.076  -0.035  0.00  0.00    -0.075 A 
ATOM      5  S   UNL d   1      -0.558  -0.108  -0.014  0.00  0.00     0.015 SA
ATOM      6  C4  UNL d   1      -0.261  -0.502   1.617  0.00  0.00     0.022 A 
ATOM      7  C5  UNL d   1       0.766   0.242   2.148  0.00  0.00     0.026 A 
ATOM      8  C6  UNL d   1       1.333   1.164   1.205  0.00  0.00    -0.082 A 
ATOM      9  C7  UNL d   1       2.389   2.096   1.349  0.00  0.00     0.045 A 
ENDROOT
TORSDOF 0
ENDMDL
