MODEL 1
REMARK minimizedAffinity 0.865493596
REMARK minimizedRMSD -1
REMARK  0 active torsions:
REMARK  status: ('A' for Active; 'I' for Inactive)
ROOT
ATOM      1  C   UNL d   1       1.110   5.996  -4.800  0.00  0.00    -0.002 A 
ATOM      2  C1  UNL d   1       0.375   5.999  -5.977  0.00  0.00     0.010 A 
ATOM      3  C2  UNL d   1      -1.021   5.999  -5.943  0.00  0.00     0.041 A 
ATOM      4  C3  UNL d   1      -1.672   5.999  -4.694  0.00  0.00    -0.075 A 
ATOM      5  S   UNL d   1      -3.372   5.999  -4.408  0.00  0.00     0.015 SA
ATOM      6  C4  UNL d   1      -3.163   5.997  -2.717  0.00  0.00     0.022 A 
ATOM      7  C5  UNL d   1      -1.835   5.995  -2.361  0.00  0.00     0.026 A 
ATOM      8  C6  UNL d   1      -0.954   5.997  -3.495  0.00  0.00    -0.082 A 
ATOM      9  C7  UNL d   1       0.460   5.996  -3.563  0.00  0.00     0.045 A 
ENDROOT
TORSDOF 0
ENDMDL
