MODEL 1
REMARK minimizedAffinity 9.6205616
REMARK minimizedRMSD -1
REMARK  0 active torsions:
REMARK  status: ('A' for Active; 'I' for Inactive)
ROOT
ATOM      1  C   UNL d   1       1.571   2.829   1.484  0.00  0.00    -0.002 A 
ATOM      2  C1  UNL d   1       1.302   3.201   0.174  0.00  0.00     0.010 A 
ATOM      3  C2  UNL d   1       0.561   2.365  -0.664  0.00  0.00     0.041 A 
ATOM      4  C3  UNL d   1       0.090   1.138  -0.158  0.00  0.00    -0.075 A 
ATOM      5  S   UNL d   1      -0.838  -0.046  -1.001  0.00  0.00     0.015 SA
ATOM      6  C4  UNL d   1      -0.900  -1.073   0.358  0.00  0.00     0.022 A 
ATOM      7  C5  UNL d   1      -0.234  -0.542   1.437  0.00  0.00     0.026 A 
ATOM      8  C6  UNL d   1       0.347   0.742   1.158  0.00  0.00    -0.082 A 
ATOM      9  C7  UNL d   1       1.101   1.611   1.982  0.00  0.00     0.045 A 
ENDROOT
TORSDOF 0
ENDMDL
