MODEL 1
REMARK minimizedAffinity -2.47620726
REMARK minimizedRMSD -1
REMARK  0 active torsions:
REMARK  status: ('A' for Active; 'I' for Inactive)
ROOT
ATOM      1  C2' OXE d   1       0.392   0.373  -0.937  0.00  0.00     0.078 C 
ATOM      2  C1' OXE d   1       1.233  -2.173  -0.105  0.00  0.00     0.078 C 
ATOM      3  C1  OXE d   1       0.044  -1.562   0.593  0.00  0.00    -0.078 A 
ATOM      4  C2  OXE d   1      -0.332  -0.296   0.211  0.00  0.00    -0.078 A 
ATOM      5  C3  OXE d   1      -1.455   0.292   0.785  0.00  0.00     0.003 A 
ATOM      6  C4  OXE d   1      -2.114  -0.330   1.853  0.00  0.00    -0.002 A 
ATOM      7  C5  OXE d   1      -1.723  -1.602   2.284  0.00  0.00    -0.002 A 
ATOM      8  C6  OXE d   1      -0.675  -2.249   1.637  0.00  0.00     0.003 A 
ENDROOT
TORSDOF 0
ENDMDL
