MODEL 1
REMARK minimizedAffinity -5.54314661
REMARK minimizedRMSD -1
REMARK  0 active torsions:
REMARK  status: ('A' for Active; 'I' for Inactive)
ROOT
ATOM      1  C2' OXE d   1      -1.788  -2.521   0.739  0.00  0.00     0.078 C 
ATOM      2  C1' OXE d   1      -3.101  -0.397   2.021  0.00  0.00     0.078 C 
ATOM      3  C1  OXE d   1      -1.814  -0.093   1.296  0.00  0.00    -0.078 A 
ATOM      4  C2  OXE d   1      -1.154  -1.146   0.711  0.00  0.00    -0.078 A 
ATOM      5  C3  OXE d   1       0.009  -0.912  -0.018  0.00  0.00     0.003 A 
ATOM      6  C4  OXE d   1       0.593   0.360  -0.030  0.00  0.00    -0.002 A 
ATOM      7  C5  OXE d   1      -0.042   1.439   0.593  0.00  0.00    -0.002 A 
ATOM      8  C6  OXE d   1      -1.265   1.239   1.223  0.00  0.00     0.003 A 
ENDROOT
TORSDOF 0
ENDMDL
