MODEL 1
REMARK minimizedAffinity -4.98554897
REMARK minimizedRMSD -1
REMARK  0 active torsions:
REMARK  status: ('A' for Active; 'I' for Inactive)
ROOT
ATOM      1  C2' OXE d   1      -2.290  -2.778   1.918  0.00  0.00     0.078 C 
ATOM      2  C1' OXE d   1      -2.741  -0.012   1.764  0.00  0.00     0.078 C 
ATOM      3  C1  OXE d   1      -1.506  -0.562   1.094  0.00  0.00    -0.078 A 
ATOM      4  C2  OXE d   1      -1.269  -1.910   1.215  0.00  0.00    -0.078 A 
ATOM      5  C3  OXE d   1      -0.174  -2.478   0.571  0.00  0.00     0.003 A 
ATOM      6  C4  OXE d   1       0.771  -1.667  -0.069  0.00  0.00    -0.002 A 
ATOM      7  C5  OXE d   1       0.569  -0.286  -0.169  0.00  0.00    -0.002 A 
ATOM      8  C6  OXE d   1      -0.583   0.275   0.369  0.00  0.00     0.003 A 
ENDROOT
TORSDOF 0
ENDMDL
