MODEL 1
REMARK minimizedAffinity -5.43087339
REMARK minimizedRMSD -1
REMARK  0 active torsions:
REMARK  status: ('A' for Active; 'I' for Inactive)
ROOT
ATOM      1  C2' OXE d   1      -0.050  -0.260  -1.686  0.00  0.00     0.078 C 
ATOM      2  C1' OXE d   1       1.407  -0.789   0.655  0.00  0.00     0.078 C 
ATOM      3  C1  OXE d   1      -0.010  -1.301   0.577  0.00  0.00    -0.078 A 
ATOM      4  C2  OXE d   1      -0.731  -0.998  -0.553  0.00  0.00    -0.078 A 
ATOM      5  C3  OXE d   1      -2.023  -1.492  -0.700  0.00  0.00     0.003 A 
ATOM      6  C4  OXE d   1      -2.649  -2.165   0.357  0.00  0.00    -0.002 A 
ATOM      7  C5  OXE d   1      -1.946  -2.451   1.532  0.00  0.00    -0.002 A 
ATOM      8  C6  OXE d   1      -0.615  -2.064   1.641  0.00  0.00     0.003 A 
ENDROOT
TORSDOF 0
ENDMDL
