MODEL 1
REMARK minimizedAffinity -4.45683622
REMARK minimizedRMSD -1
REMARK  0 active torsions:
REMARK  status: ('A' for Active; 'I' for Inactive)
ROOT
ATOM      1  C2' OXE d   1       2.320  -0.761   0.567  0.00  0.00     0.078 C 
ATOM      2  C1' OXE d   1       0.708   1.441  -0.092  0.00  0.00     0.078 C 
ATOM      3  C1  OXE d   1       0.034   0.104   0.084  0.00  0.00    -0.078 A 
ATOM      4  C2  OXE d   1       0.836  -0.977   0.360  0.00  0.00    -0.078 A 
ATOM      5  C3  OXE d   1       0.260  -2.224   0.586  0.00  0.00     0.003 A 
ATOM      6  C4  OXE d   1      -1.112  -2.418   0.383  0.00  0.00    -0.002 A 
ATOM      7  C5  OXE d   1      -1.942  -1.338   0.062  0.00  0.00    -0.002 A 
ATOM      8  C6  OXE d   1      -1.392  -0.066  -0.049  0.00  0.00     0.003 A 
ENDROOT
TORSDOF 0
ENDMDL
