MODEL 1
REMARK minimizedAffinity -3.21547484
REMARK minimizedRMSD -1
REMARK  0 active torsions:
REMARK  status: ('A' for Active; 'I' for Inactive)
ROOT
ATOM      1  C2' OXE d   1      -1.459  -2.202   1.051  0.00  0.00     0.078 C 
ATOM      2  C1' OXE d   1      -2.465   0.418   0.979  0.00  0.00     0.078 C 
ATOM      3  C1  OXE d   1      -1.078   0.181   0.436  0.00  0.00    -0.078 A 
ATOM      4  C2  OXE d   1      -0.576  -1.095   0.517  0.00  0.00    -0.078 A 
ATOM      5  C3  OXE d   1       0.677  -1.379  -0.019  0.00  0.00     0.003 A 
ATOM      6  C4  OXE d   1       1.492  -0.348  -0.501  0.00  0.00    -0.002 A 
ATOM      7  C5  OXE d   1       1.015   0.966  -0.557  0.00  0.00    -0.002 A 
ATOM      8  C6  OXE d   1      -0.281   1.240  -0.133  0.00  0.00     0.003 A 
ENDROOT
TORSDOF 0
ENDMDL
