MODEL 1
REMARK minimizedAffinity -1.77884805
REMARK minimizedRMSD -1
REMARK  0 active torsions:
REMARK  status: ('A' for Active; 'I' for Inactive)
ROOT
ATOM      1  C2' OXE d   1      -0.890   2.305  -3.282  0.00  0.00     0.078 C 
ATOM      2  C1' OXE d   1       0.317   1.758  -0.807  0.00  0.00     0.078 C 
ATOM      3  C1  OXE d   1       1.215   1.920  -2.008  0.00  0.00    -0.078 A 
ATOM      4  C2  OXE d   1       0.613   2.141  -3.223  0.00  0.00    -0.078 A 
ATOM      5  C3  OXE d   1       1.398   2.352  -4.353  0.00  0.00     0.003 A 
ATOM      6  C4  OXE d   1       2.787   2.189  -4.292  0.00  0.00    -0.002 A 
ATOM      7  C5  OXE d   1       3.418   1.924  -3.072  0.00  0.00    -0.002 A 
ATOM      8  C6  OXE d   1       2.652   1.830  -1.915  0.00  0.00     0.003 A 
ENDROOT
TORSDOF 0
ENDMDL
