MODEL 1
REMARK minimizedAffinity -2.4605794
REMARK minimizedRMSD -1
REMARK  0 active torsions:
REMARK  status: ('A' for Active; 'I' for Inactive)
ROOT
ATOM      1  C2' OXE d   1      -0.228   2.399  -3.840  0.00  0.00     0.078 C 
ATOM      2  C1' OXE d   1       1.174   1.277  -1.682  0.00  0.00     0.078 C 
ATOM      3  C1  OXE d   1       1.958   2.081  -2.689  0.00  0.00    -0.078 A 
ATOM      4  C2  OXE d   1       1.272   2.587  -3.767  0.00  0.00    -0.078 A 
ATOM      5  C3  OXE d   1       1.937   3.382  -4.696  0.00  0.00     0.003 A 
ATOM      6  C4  OXE d   1       3.327   3.543  -4.625  0.00  0.00    -0.002 A 
ATOM      7  C5  OXE d   1       4.051   3.003  -3.557  0.00  0.00    -0.002 A 
ATOM      8  C6  OXE d   1       3.377   2.307  -2.560  0.00  0.00     0.003 A 
ENDROOT
TORSDOF 0
ENDMDL
