MODEL 1
REMARK minimizedAffinity -4.9145565
REMARK minimizedRMSD -1
REMARK  0 active torsions:
REMARK  status: ('A' for Active; 'I' for Inactive)
ROOT
ATOM      1  C2' OXE d   1       0.619   0.785  -0.573  0.00  0.00     0.078 C 
ATOM      2  C1' OXE d   1       1.959  -1.572   0.154  0.00  0.00     0.078 C 
ATOM      3  C1  OXE d   1       0.483  -1.481   0.453  0.00  0.00    -0.078 A 
ATOM      4  C2  OXE d   1      -0.154  -0.306   0.136  0.00  0.00    -0.078 A 
ATOM      5  C3  OXE d   1      -1.526  -0.190   0.341  0.00  0.00     0.003 A 
ATOM      6  C4  OXE d   1      -2.232  -1.199   1.006  0.00  0.00    -0.002 A 
ATOM      7  C5  OXE d   1      -1.593  -2.388   1.373  0.00  0.00    -0.002 A 
ATOM      8  C6  OXE d   1      -0.248  -2.562   1.066  0.00  0.00     0.003 A 
ENDROOT
TORSDOF 0
ENDMDL
