MODEL 1
REMARK minimizedAffinity -4.81243992
REMARK minimizedRMSD -1
REMARK  0 active torsions:
REMARK  status: ('A' for Active; 'I' for Inactive)
ROOT
ATOM      1  C2' OXE d   1      -1.926  -2.353   1.429  0.00  0.00     0.078 C 
ATOM      2  C1' OXE d   1      -2.799   0.301   1.149  0.00  0.00     0.078 C 
ATOM      3  C1  OXE d   1      -1.366  -0.010   0.794  0.00  0.00    -0.078 A 
ATOM      4  C2  OXE d   1      -0.935  -1.302   0.978  0.00  0.00    -0.078 A 
ATOM      5  C3  OXE d   1       0.361  -1.654   0.614  0.00  0.00     0.003 A 
ATOM      6  C4  OXE d   1       1.275  -0.674   0.208  0.00  0.00    -0.002 A 
ATOM      7  C5  OXE d   1       0.867   0.655   0.052  0.00  0.00    -0.002 A 
ATOM      8  C6  OXE d   1      -0.458   0.995   0.299  0.00  0.00     0.003 A 
ENDROOT
TORSDOF 0
ENDMDL
