MODEL 1
REMARK minimizedAffinity -3.37680936
REMARK minimizedRMSD -1
REMARK  0 active torsions:
REMARK  status: ('A' for Active; 'I' for Inactive)
ROOT
ATOM      1  C2' OXE d   1       1.401   2.060  -1.140  0.00  0.00     0.078 C 
ATOM      2  C1' OXE d   1       1.061   1.923  -3.923  0.00  0.00     0.078 C 
ATOM      3  C1  OXE d   1       2.471   1.948  -3.387  0.00  0.00    -0.078 A 
ATOM      4  C2  OXE d   1       2.628   2.062  -2.026  0.00  0.00    -0.078 A 
ATOM      5  C3  OXE d   1       3.905   2.034  -1.475  0.00  0.00     0.003 A 
ATOM      6  C4  OXE d   1       5.035   2.046  -2.302  0.00  0.00    -0.002 A 
ATOM      7  C5  OXE d   1       4.897   1.970  -3.692  0.00  0.00    -0.002 A 
ATOM      8  C6  OXE d   1       3.626   1.877  -4.247  0.00  0.00     0.003 A 
ENDROOT
TORSDOF 0
ENDMDL
