MODEL 1
REMARK minimizedAffinity -1.06561601
REMARK minimizedRMSD -1
REMARK  0 active torsions:
REMARK  status: ('A' for Active; 'I' for Inactive)
ROOT
ATOM      1  C2' OXE d   1       0.384   0.654   0.318  0.00  0.00     0.078 C 
ATOM      2  C1' OXE d   1       0.032  -1.199  -1.762  0.00  0.00     0.078 C 
ATOM      3  C1  OXE d   1       0.666   0.127  -2.100  0.00  0.00    -0.078 A 
ATOM      4  C2  OXE d   1       0.792   1.046  -1.086  0.00  0.00    -0.078 A 
ATOM      5  C3  OXE d   1       1.419   2.263  -1.332  0.00  0.00     0.003 A 
ATOM      6  C4  OXE d   1       1.784   2.622  -2.635  0.00  0.00    -0.002 A 
ATOM      7  C5  OXE d   1       1.629   1.717  -3.690  0.00  0.00    -0.002 A 
ATOM      8  C6  OXE d   1       1.112   0.452  -3.433  0.00  0.00     0.003 A 
ENDROOT
TORSDOF 0
ENDMDL
