MODEL 1
REMARK minimizedAffinity -4.12434626
REMARK minimizedRMSD -1
REMARK  0 active torsions:
REMARK  status: ('A' for Active; 'I' for Inactive)
ROOT
ATOM      1  C2' OXE d   1       1.173  -1.768  -0.043  0.00  0.00     0.078 C 
ATOM      2  C1' OXE d   1      -1.520  -2.443   0.367  0.00  0.00     0.078 C 
ATOM      3  C1  OXE d   1      -1.141  -0.985   0.440  0.00  0.00    -0.078 A 
ATOM      4  C2  OXE d   1       0.187  -0.669   0.285  0.00  0.00    -0.078 A 
ATOM      5  C3  OXE d   1       0.582   0.666   0.289  0.00  0.00     0.003 A 
ATOM      6  C4  OXE d   1      -0.335   1.676   0.603  0.00  0.00    -0.002 A 
ATOM      7  C5  OXE d   1      -1.686   1.371   0.804  0.00  0.00    -0.002 A 
ATOM      8  C6  OXE d   1      -2.112   0.053   0.684  0.00  0.00     0.003 A 
ENDROOT
TORSDOF 0
ENDMDL
