MODEL 1
REMARK minimizedAffinity -3.50162196
REMARK minimizedRMSD -1
REMARK  0 active torsions:
REMARK  status: ('A' for Active; 'I' for Inactive)
ROOT
ATOM      1  C2' OXE d   1      -2.483  -1.020   2.702  0.00  0.00     0.078 C 
ATOM      2  C1' OXE d   1      -1.748   1.399   1.484  0.00  0.00     0.078 C 
ATOM      3  C1  OXE d   1      -0.952   0.166   1.136  0.00  0.00    -0.078 A 
ATOM      4  C2  OXE d   1      -1.289  -1.004   1.772  0.00  0.00    -0.078 A 
ATOM      5  C3  OXE d   1      -0.623  -2.182   1.447  0.00  0.00     0.003 A 
ATOM      6  C4  OXE d   1       0.487  -2.157   0.594  0.00  0.00    -0.002 A 
ATOM      7  C5  OXE d   1       0.872  -0.968  -0.035  0.00  0.00    -0.002 A 
ATOM      8  C6  OXE d   1       0.138   0.192   0.192  0.00  0.00     0.003 A 
ENDROOT
TORSDOF 0
ENDMDL
