MODEL 1
REMARK minimizedAffinity -5.82593107
REMARK minimizedRMSD -1
REMARK  0 active torsions:
REMARK  status: ('A' for Active; 'I' for Inactive)
ROOT
ATOM      1  C2' OXE d   1       1.270  -1.354   0.188  0.00  0.00     0.078 C 
ATOM      2  C1' OXE d   1      -0.175   1.052   0.118  0.00  0.00     0.078 C 
ATOM      3  C1  OXE d   1      -0.834  -0.146   0.754  0.00  0.00    -0.078 A 
ATOM      4  C2  OXE d   1      -0.138  -1.331   0.742  0.00  0.00    -0.078 A 
ATOM      5  C3  OXE d   1      -0.677  -2.453   1.364  0.00  0.00     0.003 A 
ATOM      6  C4  OXE d   1      -1.984  -2.427   1.866  0.00  0.00    -0.002 A 
ATOM      7  C5  OXE d   1      -2.726  -1.241   1.852  0.00  0.00    -0.002 A 
ATOM      8  C6  OXE d   1      -2.150  -0.083   1.340  0.00  0.00     0.003 A 
ENDROOT
TORSDOF 0
ENDMDL
