MODEL 1
REMARK minimizedAffinity -4.89680147
REMARK minimizedRMSD -1
REMARK  0 active torsions:
REMARK  status: ('A' for Active; 'I' for Inactive)
ROOT
ATOM      1  C2' OXE d   1       0.888  -0.828   0.149  0.00  0.00     0.078 C 
ATOM      2  C1' OXE d   1      -0.850   1.356   0.451  0.00  0.00     0.078 C 
ATOM      3  C1  OXE d   1      -1.328   0.006   0.924  0.00  0.00    -0.078 A 
ATOM      4  C2  OXE d   1      -0.489  -1.066   0.730  0.00  0.00    -0.078 A 
ATOM      5  C3  OXE d   1      -0.859  -2.324   1.198  0.00  0.00     0.003 A 
ATOM      6  C4  OXE d   1      -2.138  -2.537   1.724  0.00  0.00    -0.002 A 
ATOM      7  C5  OXE d   1      -3.023  -1.467   1.895  0.00  0.00    -0.002 A 
ATOM      8  C6  OXE d   1      -2.618  -0.185   1.540  0.00  0.00     0.003 A 
ENDROOT
TORSDOF 0
ENDMDL
