MODEL 1
REMARK minimizedAffinity -5.05592346
REMARK minimizedRMSD -1
REMARK  0 active torsions:
REMARK  status: ('A' for Active; 'I' for Inactive)
ROOT
ATOM      1  C2' OXE d   1       0.562   0.969  -0.349  0.00  0.00     0.078 C 
ATOM      2  C1' OXE d   1       1.858  -1.508  -0.105  0.00  0.00     0.078 C 
ATOM      3  C1  OXE d   1       0.403  -1.435   0.284  0.00  0.00    -0.078 A 
ATOM      4  C2  OXE d   1      -0.211  -0.208   0.206  0.00  0.00    -0.078 A 
ATOM      5  C3  OXE d   1      -1.567  -0.095   0.501  0.00  0.00     0.003 A 
ATOM      6  C4  OXE d   1      -2.272  -1.187   1.023  0.00  0.00    -0.002 A 
ATOM      7  C5  OXE d   1      -1.655  -2.436   1.148  0.00  0.00    -0.002 A 
ATOM      8  C6  OXE d   1      -0.333  -2.587   0.744  0.00  0.00     0.003 A 
ENDROOT
TORSDOF 0
ENDMDL
