MODEL 1
REMARK minimizedAffinity -2.73208308
REMARK minimizedRMSD -1
REMARK  0 active torsions:
REMARK  status: ('A' for Active; 'I' for Inactive)
ROOT
ATOM      1  C2' OXE d   1      -0.461  -0.825  -0.001  0.00  0.00     0.078 C 
ATOM      2  C1' OXE d   1       2.064  -0.038   0.939  0.00  0.00     0.078 C 
ATOM      3  C1  OXE d   1       1.455   0.756  -0.189  0.00  0.00    -0.078 A 
ATOM      4  C2  OXE d   1       0.240   0.336  -0.674  0.00  0.00    -0.078 A 
ATOM      5  C3  OXE d   1      -0.391   1.065  -1.678  0.00  0.00     0.003 A 
ATOM      6  C4  OXE d   1       0.269   2.130  -2.302  0.00  0.00    -0.002 A 
ATOM      7  C5  OXE d   1       1.524   2.551  -1.850  0.00  0.00    -0.002 A 
ATOM      8  C6  OXE d   1       2.111   1.902  -0.769  0.00  0.00     0.003 A 
ENDROOT
TORSDOF 0
ENDMDL
