MODEL 1
REMARK minimizedAffinity -3.67695904
REMARK minimizedRMSD -1
REMARK  0 active torsions:
REMARK  status: ('A' for Active; 'I' for Inactive)
ROOT
ATOM      1  C2' OXE d   1       1.839  -1.268   0.197  0.00  0.00     0.078 C 
ATOM      2  C1' OXE d   1       0.289   0.917  -0.641  0.00  0.00     0.078 C 
ATOM      3  C1  OXE d   1      -0.432  -0.280  -0.073  0.00  0.00    -0.078 A 
ATOM      4  C2  OXE d   1       0.331  -1.363   0.291  0.00  0.00    -0.078 A 
ATOM      5  C3  OXE d   1      -0.278  -2.472   0.871  0.00  0.00     0.003 A 
ATOM      6  C4  OXE d   1      -1.674  -2.556   0.945  0.00  0.00    -0.002 A 
ATOM      7  C5  OXE d   1      -2.472  -1.479   0.543  0.00  0.00    -0.002 A 
ATOM      8  C6  OXE d   1      -1.866  -0.320   0.073  0.00  0.00     0.003 A 
ENDROOT
TORSDOF 0
ENDMDL
