MODEL 1
REMARK minimizedAffinity 10.0320835
REMARK minimizedRMSD -1
REMARK  0 active torsions:
REMARK  status: ('A' for Active; 'I' for Inactive)
ROOT
ATOM      1  C   UNL d   1       0.375  -2.583  -0.600  0.00  0.00     0.020 A 
ATOM      2  C1  UNL d   1      -0.969  -2.303  -0.848  0.00  0.00     0.020 A 
ATOM      3  C2  UNL d   1      -1.577  -1.205  -0.236  0.00  0.00     0.034 A 
ATOM      4  C3  UNL d   1      -0.843  -0.383   0.627  0.00  0.00     0.017 A 
ATOM      5  C4  UNL d   1       0.506  -0.666   0.875  0.00  0.00     0.017 A 
ATOM      6  C5  UNL d   1       1.110  -1.766   0.260  0.00  0.00     0.034 A 
ATOM      7 Cl   UNL d   1       1.477   0.302   1.927  0.00  0.00    -0.070 Cl
ATOM      8 Cl1  UNL d   1      -1.659   0.957   1.349  0.00  0.00    -0.070 Cl
ENDROOT
TORSDOF 0
ENDMDL
