MODEL 1
REMARK minimizedAffinity 5.11733341
REMARK minimizedRMSD -1
REMARK  0 active torsions:
REMARK  status: ('A' for Active; 'I' for Inactive)
ROOT
ATOM      1  C   UNL d   1      -5.795   2.843  -1.967  0.00  0.00     0.020 A 
ATOM      2  C1  UNL d   1      -4.538   2.639  -2.535  0.00  0.00     0.020 A 
ATOM      3  C2  UNL d   1      -3.393   2.701  -1.738  0.00  0.00     0.034 A 
ATOM      4  C3  UNL d   1      -3.502   2.969  -0.368  0.00  0.00     0.017 A 
ATOM      5  C4  UNL d   1      -4.764   3.174   0.201  0.00  0.00     0.017 A 
ATOM      6  C5  UNL d   1      -5.908   3.110  -0.602  0.00  0.00     0.034 A 
ATOM      7 Cl   UNL d   1      -4.979   3.509   1.883  0.00  0.00    -0.070 Cl
ATOM      8 Cl1  UNL d   1      -2.045   3.032   0.557  0.00  0.00    -0.070 Cl
ENDROOT
TORSDOF 0
ENDMDL
