MODEL 1
REMARK minimizedAffinity 9.65489483
REMARK minimizedRMSD -1
REMARK  0 active torsions:
REMARK  status: ('A' for Active; 'I' for Inactive)
ROOT
ATOM      1  C   UNL d   1      -5.642  -0.916  -4.861  0.00  0.00     0.020 A 
ATOM      2  C1  UNL d   1      -5.628   0.010  -5.903  0.00  0.00     0.020 A 
ATOM      3  C2  UNL d   1      -5.730   1.375  -5.625  0.00  0.00     0.034 A 
ATOM      4  C3  UNL d   1      -5.846   1.817  -4.302  0.00  0.00     0.017 A 
ATOM      5  C4  UNL d   1      -5.860   0.887  -3.257  0.00  0.00     0.017 A 
ATOM      6  C5  UNL d   1      -5.757  -0.479  -3.541  0.00  0.00     0.034 A 
ATOM      7 Cl   UNL d   1      -6.000   1.356  -1.599  0.00  0.00    -0.070 Cl
ATOM      8 Cl1  UNL d   1      -5.968   3.520  -4.032  0.00  0.00    -0.070 Cl
ENDROOT
TORSDOF 0
ENDMDL
