MODEL 1
REMARK minimizedAffinity 0.883313119
REMARK minimizedRMSD -1
REMARK  0 active torsions:
REMARK  status: ('A' for Active; 'I' for Inactive)
ROOT
ATOM      1  C   UNL d   1       1.539  -1.485   4.122  0.00  0.00     0.020 A 
ATOM      2  C1  UNL d   1       2.402  -2.252   4.904  0.00  0.00     0.020 A 
ATOM      3  C2  UNL d   1       3.776  -2.232   4.654  0.00  0.00     0.034 A 
ATOM      4  C3  UNL d   1       4.291  -1.443   3.618  0.00  0.00     0.017 A 
ATOM      5  C4  UNL d   1       3.424  -0.674   2.834  0.00  0.00     0.017 A 
ATOM      6  C5  UNL d   1       2.049  -0.698   3.089  0.00  0.00     0.034 A 
ATOM      7 Cl   UNL d   1       3.985   0.324   1.539  0.00  0.00    -0.070 Cl
ATOM      8 Cl1  UNL d   1       6.000  -1.466   3.365  0.00  0.00    -0.070 Cl
ENDROOT
TORSDOF 0
ENDMDL
