MODEL 1
REMARK minimizedAffinity 11.7008419
REMARK minimizedRMSD -1
REMARK  0 active torsions:
REMARK  status: ('A' for Active; 'I' for Inactive)
ROOT
ATOM      1  C   UNL d   1       0.070  -2.242  -1.072  0.00  0.00     0.020 A 
ATOM      2  C1  UNL d   1      -1.231  -1.812  -1.332  0.00  0.00     0.020 A 
ATOM      3  C2  UNL d   1      -1.757  -0.721  -0.637  0.00  0.00     0.034 A 
ATOM      4  C3  UNL d   1      -0.982  -0.056   0.321  0.00  0.00     0.017 A 
ATOM      5  C4  UNL d   1       0.323  -0.489   0.581  0.00  0.00     0.017 A 
ATOM      6  C5  UNL d   1       0.845  -1.582  -0.118  0.00  0.00     0.034 A 
ATOM      7 Cl   UNL d   1       1.339   0.280   1.749  0.00  0.00    -0.070 Cl
ATOM      8 Cl1  UNL d   1      -1.697   1.285   1.142  0.00  0.00    -0.070 Cl
ENDROOT
TORSDOF 0
ENDMDL
