MODEL 1
REMARK minimizedAffinity 13.1878357
REMARK minimizedRMSD -1
REMARK  0 active torsions:
REMARK  status: ('A' for Active; 'I' for Inactive)
ROOT
ATOM      1  C   UNL d   1      -4.315   3.271   2.853  0.00  0.00     0.020 A 
ATOM      2  C1  UNL d   1      -5.632   2.935   2.539  0.00  0.00     0.020 A 
ATOM      3  C2  UNL d   1      -5.999   2.723   1.208  0.00  0.00     0.034 A 
ATOM      4  C3  UNL d   1      -5.050   2.846   0.187  0.00  0.00     0.017 A 
ATOM      5  C4  UNL d   1      -3.729   3.183   0.504  0.00  0.00     0.017 A 
ATOM      6  C5  UNL d   1      -3.366   3.395   1.838  0.00  0.00     0.034 A 
ATOM      7 Cl   UNL d   1      -2.501   3.352  -0.701  0.00  0.00    -0.070 Cl
ATOM      8 Cl1  UNL d   1      -5.574   2.568  -1.435  0.00  0.00    -0.070 Cl
ENDROOT
TORSDOF 0
ENDMDL
