MODEL 1
REMARK minimizedAffinity 14.1034451
REMARK minimizedRMSD -1
REMARK  0 active torsions:
REMARK  status: ('A' for Active; 'I' for Inactive)
ROOT
ATOM      1  C   UNL d   1       3.630  -3.210   5.601  0.00  0.00     0.020 A 
ATOM      2  C1  UNL d   1       3.890  -4.495   5.128  0.00  0.00     0.020 A 
ATOM      3  C2  UNL d   1       3.529  -4.846   3.825  0.00  0.00     0.034 A 
ATOM      4  C3  UNL d   1       2.906  -3.910   2.992  0.00  0.00     0.017 A 
ATOM      5  C4  UNL d   1       2.646  -2.620   3.468  0.00  0.00     0.017 A 
ATOM      6  C5  UNL d   1       3.010  -2.274   4.773  0.00  0.00     0.034 A 
ATOM      7 Cl   UNL d   1       1.881  -1.411   2.498  0.00  0.00    -0.070 Cl
ATOM      8 Cl1  UNL d   1       2.488  -4.412   1.392  0.00  0.00    -0.070 Cl
ENDROOT
TORSDOF 0
ENDMDL
