MODEL 1
REMARK minimizedAffinity 10.4740849
REMARK minimizedRMSD -1
REMARK  0 active torsions:
REMARK  status: ('A' for Active; 'I' for Inactive)
ROOT
ATOM      1  C   UNL d   1      -5.636  -4.008  -5.280  0.00  0.00     0.020 A 
ATOM      2  C1  UNL d   1      -4.543  -3.526  -5.999  0.00  0.00     0.020 A 
ATOM      3  C2  UNL d   1      -3.810  -2.442  -5.512  0.00  0.00     0.034 A 
ATOM      4  C3  UNL d   1      -4.169  -1.836  -4.303  0.00  0.00     0.017 A 
ATOM      5  C4  UNL d   1      -5.267  -2.320  -3.581  0.00  0.00     0.017 A 
ATOM      6  C5  UNL d   1      -5.997  -3.406  -4.074  0.00  0.00     0.034 A 
ATOM      7 Cl   UNL d   1      -5.770  -1.624  -2.082  0.00  0.00    -0.070 Cl
ATOM      8 Cl1  UNL d   1      -3.218  -0.499  -3.760  0.00  0.00    -0.070 Cl
ENDROOT
TORSDOF 0
ENDMDL
