MODEL 1
REMARK minimizedAffinity 6.6532445
REMARK minimizedRMSD -1
REMARK  0 active torsions:
REMARK  status: ('A' for Active; 'I' for Inactive)
ROOT
ATOM      1  C   UNL d   1       2.204  -1.289   3.695  0.00  0.00     0.020 A 
ATOM      2  C1  UNL d   1       1.600  -0.433   2.775  0.00  0.00     0.020 A 
ATOM      3  C2  UNL d   1       2.317   0.017   1.664  0.00  0.00     0.034 A 
ATOM      4  C3  UNL d   1       3.642  -0.390   1.470  0.00  0.00     0.017 A 
ATOM      5  C4  UNL d   1       4.248  -1.249   2.394  0.00  0.00     0.017 A 
ATOM      6  C5  UNL d   1       3.525  -1.696   3.505  0.00  0.00     0.034 A 
ATOM      7 Cl   UNL d   1       5.879  -1.794   2.222  0.00  0.00    -0.070 Cl
ATOM      8 Cl1  UNL d   1       4.469   0.205   0.074  0.00  0.00    -0.070 Cl
ENDROOT
TORSDOF 0
ENDMDL
