MODEL 1
REMARK minimizedAffinity -5.29619408
REMARK minimizedRMSD -1
REMARK  0 active torsions:
REMARK  status: ('A' for Active; 'I' for Inactive)
ROOT
ATOM      1  C   UNL d   1      -0.546  -3.273   0.505  0.00  0.00     0.078 C 
ATOM      2  C1  UNL d   1      -0.413  -1.846   0.066  0.00  0.00    -0.077 A 
ATOM      3  C2  UNL d   1      -0.850  -0.796   0.883  0.00  0.00    -0.001 A 
ATOM      4  C3  UNL d   1      -0.729   0.528   0.458  0.00  0.00     0.003 A 
ATOM      5  C4  UNL d   1      -0.172   0.814  -0.787  0.00  0.00    -0.005 A 
ATOM      6  C5  UNL d   1       0.263  -0.224  -1.608  0.00  0.00     0.003 A 
ATOM      7  C6  UNL d   1       0.143  -1.548  -1.185  0.00  0.00    -0.001 A 
ENDROOT
TORSDOF 0
ENDMDL
