MODEL 1
REMARK minimizedAffinity -4.79129505
REMARK minimizedRMSD -1
REMARK  0 active torsions:
REMARK  status: ('A' for Active; 'I' for Inactive)
ROOT
ATOM      1  C   UNL d   1       0.454  -2.800   0.917  0.00  0.00     0.078 C 
ATOM      2  C1  UNL d   1       0.119  -1.377   0.581  0.00  0.00    -0.077 A 
ATOM      3  C2  UNL d   1      -0.912  -0.703   1.246  0.00  0.00    -0.001 A 
ATOM      4  C3  UNL d   1      -1.219   0.618   0.917  0.00  0.00     0.003 A 
ATOM      5  C4  UNL d   1      -0.501   1.276  -0.080  0.00  0.00    -0.005 A 
ATOM      6  C5  UNL d   1       0.525   0.612  -0.749  0.00  0.00     0.003 A 
ATOM      7  C6  UNL d   1       0.834  -0.709  -0.421  0.00  0.00    -0.001 A 
ENDROOT
TORSDOF 0
ENDMDL
