MODEL 1
REMARK minimizedAffinity -2.09228659
REMARK minimizedRMSD -1
REMARK  0 active torsions:
REMARK  status: ('A' for Active; 'I' for Inactive)
ROOT
ATOM      1  C   UNL d   1       0.967   0.039  -0.612  0.00  0.00     0.078 C 
ATOM      2  C1  UNL d   1       1.351   1.434  -0.218  0.00  0.00    -0.077 A 
ATOM      3  C2  UNL d   1       0.391   2.450  -0.136  0.00  0.00    -0.001 A 
ATOM      4  C3  UNL d   1       0.765   3.746   0.222  0.00  0.00     0.003 A 
ATOM      5  C4  UNL d   1       2.098   4.039   0.500  0.00  0.00    -0.005 A 
ATOM      6  C5  UNL d   1       3.061   3.034   0.419  0.00  0.00     0.003 A 
ATOM      7  C6  UNL d   1       2.690   1.738   0.061  0.00  0.00    -0.001 A 
ENDROOT
TORSDOF 0
ENDMDL
