MODEL 1
REMARK minimizedAffinity -4.32070923
REMARK minimizedRMSD -1
REMARK  0 active torsions:
REMARK  status: ('A' for Active; 'I' for Inactive)
ROOT
ATOM      1  C   UNL d   1       0.209   1.152  -0.443  0.00  0.00     0.078 C 
ATOM      2  C1  UNL d   1       0.040  -0.318  -0.200  0.00  0.00    -0.077 A 
ATOM      3  C2  UNL d   1       0.468  -1.259  -1.145  0.00  0.00    -0.001 A 
ATOM      4  C3  UNL d   1       0.295  -2.624  -0.910  0.00  0.00     0.003 A 
ATOM      5  C4  UNL d   1      -0.307  -3.060   0.269  0.00  0.00    -0.005 A 
ATOM      6  C5  UNL d   1      -0.737  -2.131   1.214  0.00  0.00     0.003 A 
ATOM      7  C6  UNL d   1      -0.565  -0.766   0.981  0.00  0.00    -0.001 A 
ENDROOT
TORSDOF 0
ENDMDL
