MODEL 1
REMARK minimizedAffinity -5.25323868
REMARK minimizedRMSD -1
REMARK  0 active torsions:
REMARK  status: ('A' for Active; 'I' for Inactive)
ROOT
ATOM      1  C   UNL d   1       0.312  -3.099   0.657  0.00  0.00     0.078 C 
ATOM      2  C1  UNL d   1       0.051  -1.796  -0.039  0.00  0.00    -0.077 A 
ATOM      3  C2  UNL d   1      -0.450  -0.692   0.662  0.00  0.00    -0.001 A 
ATOM      4  C3  UNL d   1      -0.697   0.511  -0.001  0.00  0.00     0.003 A 
ATOM      5  C4  UNL d   1      -0.448   0.621  -1.368  0.00  0.00    -0.005 A 
ATOM      6  C5  UNL d   1       0.049  -0.473  -2.073  0.00  0.00     0.003 A 
ATOM      7  C6  UNL d   1       0.297  -1.677  -1.412  0.00  0.00    -0.001 A 
ENDROOT
TORSDOF 0
ENDMDL
