MODEL 1
REMARK minimizedAffinity -4.46373653
REMARK minimizedRMSD -1
REMARK  0 active torsions:
REMARK  status: ('A' for Active; 'I' for Inactive)
ROOT
ATOM      1  C   UNL d   1       0.135  -3.005   0.833  0.00  0.00     0.078 C 
ATOM      2  C1  UNL d   1      -0.108  -1.583   0.423  0.00  0.00    -0.077 A 
ATOM      3  C2  UNL d   1      -0.960  -0.755   1.164  0.00  0.00    -0.001 A 
ATOM      4  C3  UNL d   1      -1.184   0.564   0.766  0.00  0.00     0.003 A 
ATOM      5  C4  UNL d   1      -0.562   1.066  -0.375  0.00  0.00    -0.005 A 
ATOM      6  C5  UNL d   1       0.285   0.248  -1.121  0.00  0.00     0.003 A 
ATOM      7  C6  UNL d   1       0.511  -1.071  -0.724  0.00  0.00    -0.001 A 
ENDROOT
TORSDOF 0
ENDMDL
