MODEL 1
REMARK minimizedAffinity -3.97077823
REMARK minimizedRMSD -1
REMARK  0 active torsions:
REMARK  status: ('A' for Active; 'I' for Inactive)
ROOT
ATOM      1  C   UNL d   1      -0.043   1.487  -0.338  0.00  0.00     0.078 C 
ATOM      2  C1  UNL d   1      -0.191   0.059   0.095  0.00  0.00    -0.077 A 
ATOM      3  C2  UNL d   1       0.255  -0.991  -0.717  0.00  0.00    -0.001 A 
ATOM      4  C3  UNL d   1       0.102  -2.316  -0.306  0.00  0.00     0.003 A 
ATOM      5  C4  UNL d   1      -0.499  -2.603   0.918  0.00  0.00    -0.005 A 
ATOM      6  C5  UNL d   1      -0.948  -1.565   1.732  0.00  0.00     0.003 A 
ATOM      7  C6  UNL d   1      -0.796  -0.240   1.322  0.00  0.00    -0.001 A 
ENDROOT
TORSDOF 0
ENDMDL
