MODEL 1
REMARK minimizedAffinity -2.84532619
REMARK minimizedRMSD -1
REMARK  0 active torsions:
REMARK  status: ('A' for Active; 'I' for Inactive)
ROOT
ATOM      1  C   UNL d   1       0.470   3.039  -0.007  0.00  0.00     0.078 C 
ATOM      2  C1  UNL d   1       0.354   1.561  -0.230  0.00  0.00    -0.077 A 
ATOM      3  C2  UNL d   1       0.592   0.654   0.810  0.00  0.00    -0.001 A 
ATOM      4  C3  UNL d   1       0.489  -0.720   0.586  0.00  0.00     0.003 A 
ATOM      5  C4  UNL d   1       0.150  -1.199  -0.678  0.00  0.00    -0.005 A 
ATOM      6  C5  UNL d   1      -0.087  -0.305  -1.719  0.00  0.00     0.003 A 
ATOM      7  C6  UNL d   1       0.015   1.069  -1.497  0.00  0.00    -0.001 A 
ENDROOT
TORSDOF 0
ENDMDL
