MODEL 1
REMARK minimizedAffinity -3.97908354
REMARK minimizedRMSD -1
REMARK  0 active torsions:
REMARK  status: ('A' for Active; 'I' for Inactive)
ROOT
ATOM      1  C   UNL d   1       0.342  -2.363   0.458  0.00  0.00     0.078 C 
ATOM      2  C1  UNL d   1      -0.115  -0.941   0.321  0.00  0.00    -0.077 A 
ATOM      3  C2  UNL d   1      -1.070  -0.404   1.192  0.00  0.00    -0.001 A 
ATOM      4  C3  UNL d   1      -1.494   0.918   1.047  0.00  0.00     0.003 A 
ATOM      5  C4  UNL d   1      -0.969   1.713   0.030  0.00  0.00    -0.005 A 
ATOM      6  C5  UNL d   1      -0.020   1.187  -0.843  0.00  0.00     0.003 A 
ATOM      7  C6  UNL d   1       0.405  -0.135  -0.700  0.00  0.00    -0.001 A 
ENDROOT
TORSDOF 0
ENDMDL
