MODEL 1
REMARK minimizedAffinity -4.00516033
REMARK minimizedRMSD -1
REMARK  0 active torsions:
REMARK  status: ('A' for Active; 'I' for Inactive)
ROOT
ATOM      1  C   UNL d   1       0.246   1.643  -0.151  0.00  0.00     0.078 C 
ATOM      2  C1  UNL d   1       0.104   0.174   0.116  0.00  0.00    -0.077 A 
ATOM      3  C2  UNL d   1       0.890  -0.762  -0.568  0.00  0.00    -0.001 A 
ATOM      4  C3  UNL d   1       0.741  -2.126  -0.316  0.00  0.00     0.003 A 
ATOM      5  C4  UNL d   1      -0.194  -2.568   0.618  0.00  0.00    -0.005 A 
ATOM      6  C5  UNL d   1      -0.982  -1.644   1.301  0.00  0.00     0.003 A 
ATOM      7  C6  UNL d   1      -0.834  -0.279   1.051  0.00  0.00    -0.001 A 
ENDROOT
TORSDOF 0
ENDMDL
