MODEL 1
REMARK minimizedAffinity -4.37448359
REMARK minimizedRMSD -1
REMARK  0 active torsions:
REMARK  status: ('A' for Active; 'I' for Inactive)
ROOT
ATOM      1  C   UNL d   1       0.729   1.564   0.006  0.00  0.00     0.078 C 
ATOM      2  C1  UNL d   1       0.200   0.221   0.413  0.00  0.00    -0.077 A 
ATOM      3  C2  UNL d   1       0.063  -0.813  -0.520  0.00  0.00    -0.001 A 
ATOM      4  C3  UNL d   1      -0.441  -2.055  -0.130  0.00  0.00     0.003 A 
ATOM      5  C4  UNL d   1      -0.812  -2.274   1.195  0.00  0.00    -0.005 A 
ATOM      6  C5  UNL d   1      -0.682  -1.250   2.131  0.00  0.00     0.003 A 
ATOM      7  C6  UNL d   1      -0.179  -0.007   1.742  0.00  0.00    -0.001 A 
ENDROOT
TORSDOF 0
ENDMDL
