MODEL 1
REMARK minimizedAffinity -2.65790987
REMARK minimizedRMSD -1
REMARK  0 active torsions:
REMARK  status: ('A' for Active; 'I' for Inactive)
ROOT
ATOM      1  C   UNL d   1       0.377   1.225  -0.990  0.00  0.00     0.078 C 
ATOM      2  C1  UNL d   1       0.856   2.234   0.010  0.00  0.00    -0.077 A 
ATOM      3  C2  UNL d   1       2.193   2.259   0.426  0.00  0.00    -0.001 A 
ATOM      4  C3  UNL d   1       2.623   3.198   1.365  0.00  0.00     0.003 A 
ATOM      5  C4  UNL d   1       1.722   4.117   1.898  0.00  0.00    -0.005 A 
ATOM      6  C5  UNL d   1       0.389   4.098   1.493  0.00  0.00     0.003 A 
ATOM      7  C6  UNL d   1      -0.042   3.160   0.553  0.00  0.00    -0.001 A 
ENDROOT
TORSDOF 0
ENDMDL
