MODEL 1
REMARK minimizedAffinity -4.70552826
REMARK minimizedRMSD -1
REMARK  0 active torsions:
REMARK  status: ('A' for Active; 'I' for Inactive)
ROOT
ATOM      1  C2' OXE d   1       1.386  -2.448  -1.662  0.00  0.00     0.078 C 
ATOM      2  C1' OXE d   1       3.350  -0.482  -1.262  0.00  0.00     0.078 C 
ATOM      3  C1  OXE d   1       1.942  -0.172  -0.816  0.00  0.00    -0.078 A 
ATOM      4  C2  OXE d   1       0.979  -1.121  -1.058  0.00  0.00    -0.078 A 
ATOM      5  C3  OXE d   1      -0.324  -0.909  -0.618  0.00  0.00     0.003 A 
ATOM      6  C4  OXE d   1      -0.695   0.325  -0.070  0.00  0.00    -0.002 A 
ATOM      7  C5  OXE d   1       0.263   1.321   0.149  0.00  0.00    -0.002 A 
ATOM      8  C6  OXE d   1       1.591   1.073  -0.178  0.00  0.00     0.003 A 
ENDROOT
TORSDOF 0
ENDMDL
