MODEL 1
REMARK minimizedAffinity -1.34733129
REMARK minimizedRMSD -1
REMARK  0 active torsions:
REMARK  status: ('A' for Active; 'I' for Inactive)
ROOT
ATOM      1  C2' OXE d   1      -1.052   0.757   0.122  0.00  0.00     0.078 C 
ATOM      2  C1' OXE d   1       1.127   1.285  -1.567  0.00  0.00     0.078 C 
ATOM      3  C1  OXE d   1       0.933  -0.133  -1.092  0.00  0.00    -0.078 A 
ATOM      4  C2  OXE d   1      -0.109  -0.373  -0.228  0.00  0.00    -0.078 A 
ATOM      5  C3  OXE d   1      -0.366  -1.674   0.197  0.00  0.00     0.003 A 
ATOM      6  C4  OXE d   1       0.518  -2.712  -0.123  0.00  0.00    -0.002 A 
ATOM      7  C5  OXE d   1       1.607  -2.481  -0.969  0.00  0.00    -0.002 A 
ATOM      8  C6  OXE d   1       1.804  -1.209  -1.495  0.00  0.00     0.003 A 
ENDROOT
TORSDOF 0
ENDMDL
