MODEL 1
REMARK minimizedAffinity -5.4012599
REMARK minimizedRMSD -1
REMARK  0 active torsions:
REMARK  status: ('A' for Active; 'I' for Inactive)
ROOT
ATOM      1  C2' OXE d   1      -1.151   0.497   0.278  0.00  0.00     0.078 C 
ATOM      2  C1' OXE d   1      -0.021   1.921  -1.861  0.00  0.00     0.078 C 
ATOM      3  C1  OXE d   1       0.599   0.596  -1.493  0.00  0.00    -0.078 A 
ATOM      4  C2  OXE d   1       0.069  -0.072  -0.415  0.00  0.00    -0.078 A 
ATOM      5  C3  OXE d   1       0.567  -1.324  -0.067  0.00  0.00     0.003 A 
ATOM      6  C4  OXE d   1       1.701  -1.838  -0.707  0.00  0.00    -0.002 A 
ATOM      7  C5  OXE d   1       2.281  -1.155  -1.781  0.00  0.00    -0.002 A 
ATOM      8  C6  OXE d   1       1.717   0.040  -2.213  0.00  0.00     0.003 A 
ENDROOT
TORSDOF 0
ENDMDL
