MODEL 1
REMARK minimizedAffinity -2.00152969
REMARK minimizedRMSD -1
REMARK  0 active torsions:
REMARK  status: ('A' for Active; 'I' for Inactive)
ROOT
ATOM      1  C2' OXE d   1       2.256   0.304  -3.193  0.00  0.00     0.078 C 
ATOM      2  C1' OXE d   1       0.279   1.856  -1.943  0.00  0.00     0.078 C 
ATOM      3  C1  OXE d   1       0.541   0.476  -1.394  0.00  0.00    -0.078 A 
ATOM      4  C2  OXE d   1       1.477  -0.294  -2.041  0.00  0.00    -0.078 A 
ATOM      5  C3  OXE d   1       1.796  -1.554  -1.544  0.00  0.00     0.003 A 
ATOM      6  C4  OXE d   1       1.065  -2.104  -0.484  0.00  0.00    -0.002 A 
ATOM      7  C5  OXE d   1       0.079  -1.352   0.164  0.00  0.00    -0.002 A 
ATOM      8  C6  OXE d   1      -0.165  -0.047  -0.251  0.00  0.00     0.003 A 
ENDROOT
TORSDOF 0
ENDMDL
