MODEL 1
REMARK minimizedAffinity -2.95888066
REMARK minimizedRMSD -1
REMARK  0 active torsions:
REMARK  status: ('A' for Active; 'I' for Inactive)
ROOT
ATOM      1  C2' OXE d   1      -0.698   1.743  -1.461  0.00  0.00     0.078 C 
ATOM      2  C1' OXE d   1      -1.568   0.466   0.882  0.00  0.00     0.078 C 
ATOM      3  C1  OXE d   1      -0.450  -0.180   0.103  0.00  0.00    -0.078 A 
ATOM      4  C2  OXE d   1      -0.062   0.428  -1.067  0.00  0.00    -0.078 A 
ATOM      5  C3  OXE d   1       1.001  -0.096  -1.796  0.00  0.00     0.003 A 
ATOM      6  C4  OXE d   1       1.577  -1.319  -1.430  0.00  0.00    -0.002 A 
ATOM      7  C5  OXE d   1       1.170  -1.975  -0.264  0.00  0.00    -0.002 A 
ATOM      8  C6  OXE d   1       0.189  -1.398   0.535  0.00  0.00     0.003 A 
ENDROOT
TORSDOF 0
ENDMDL
