MODEL 1
REMARK minimizedAffinity -5.73580885
REMARK minimizedRMSD -1
REMARK  0 active torsions:
REMARK  status: ('A' for Active; 'I' for Inactive)
ROOT
ATOM      1  C2' OXE d   1       0.421  -2.124   0.248  0.00  0.00     0.078 C 
ATOM      2  C1' OXE d   1      -0.771   0.403   0.515  0.00  0.00     0.078 C 
ATOM      3  C1  OXE d   1       0.392   0.271  -0.436  0.00  0.00    -0.078 A 
ATOM      4  C2  OXE d   1       0.999  -0.958  -0.526  0.00  0.00    -0.078 A 
ATOM      5  C3  OXE d   1       2.041  -1.149  -1.429  0.00  0.00     0.003 A 
ATOM      6  C4  OXE d   1       2.576  -0.063  -2.133  0.00  0.00    -0.002 A 
ATOM      7  C5  OXE d   1       1.998   1.206  -2.027  0.00  0.00    -0.002 A 
ATOM      8  C6  OXE d   1       0.881   1.381  -1.217  0.00  0.00     0.003 A 
ENDROOT
TORSDOF 0
ENDMDL
