MODEL 1
REMARK minimizedAffinity -3.86505985
REMARK minimizedRMSD -1
REMARK  0 active torsions:
REMARK  status: ('A' for Active; 'I' for Inactive)
ROOT
ATOM      1  C2' OXE d   1      -0.704  -0.448   0.204  0.00  0.00     0.078 C 
ATOM      2  C1' OXE d   1       0.722  -2.836   0.583  0.00  0.00     0.078 C 
ATOM      3  C1  OXE d   1       1.210  -1.887  -0.483  0.00  0.00    -0.078 A 
ATOM      4  C2  OXE d   1       0.478  -0.743  -0.693  0.00  0.00    -0.078 A 
ATOM      5  C3  OXE d   1       0.915   0.193  -1.627  0.00  0.00     0.003 A 
ATOM      6  C4  OXE d   1       2.004  -0.092  -2.460  0.00  0.00    -0.002 A 
ATOM      7  C5  OXE d   1       2.739  -1.270  -2.289  0.00  0.00    -0.002 A 
ATOM      8  C6  OXE d   1       2.382  -2.156  -1.279  0.00  0.00     0.003 A 
ENDROOT
TORSDOF 0
ENDMDL
