MODEL 1
REMARK minimizedAffinity -5.22402239
REMARK minimizedRMSD -1
REMARK  0 active torsions:
REMARK  status: ('A' for Active; 'I' for Inactive)
ROOT
ATOM      1  C2' OXE d   1       0.895   2.170  -1.923  0.00  0.00     0.078 C 
ATOM      2  C1' OXE d   1      -0.860   0.744  -0.260  0.00  0.00     0.078 C 
ATOM      3  C1  OXE d   1       0.448   0.090  -0.627  0.00  0.00    -0.078 A 
ATOM      4  C2  OXE d   1       1.280   0.775  -1.479  0.00  0.00    -0.078 A 
ATOM      5  C3  OXE d   1       2.524   0.242  -1.807  0.00  0.00     0.003 A 
ATOM      6  C4  OXE d   1       2.868  -1.053  -1.400  0.00  0.00    -0.002 A 
ATOM      7  C5  OXE d   1       2.018  -1.785  -0.564  0.00  0.00    -0.002 A 
ATOM      8  C6  OXE d   1       0.826  -1.212  -0.135  0.00  0.00     0.003 A 
ENDROOT
TORSDOF 0
ENDMDL
