MODEL 1
REMARK minimizedAffinity -5.27160215
REMARK minimizedRMSD -1
REMARK  0 active torsions:
REMARK  status: ('A' for Active; 'I' for Inactive)
ROOT
ATOM      1  C2' OXE d   1       3.231  -0.072  -2.099  0.00  0.00     0.078 C 
ATOM      2  C1' OXE d   1       1.326   1.974  -1.846  0.00  0.00     0.078 C 
ATOM      3  C1  OXE d   1       1.007   0.635  -1.229  0.00  0.00    -0.078 A 
ATOM      4  C2  OXE d   1       1.924  -0.374  -1.399  0.00  0.00    -0.078 A 
ATOM      5  C3  OXE d   1       1.705  -1.613  -0.804  0.00  0.00     0.003 A 
ATOM      6  C4  OXE d   1       0.489  -1.887  -0.166  0.00  0.00    -0.002 A 
ATOM      7  C5  OXE d   1      -0.477  -0.886  -0.017  0.00  0.00    -0.002 A 
ATOM      8  C6  OXE d   1      -0.216   0.390  -0.504  0.00  0.00     0.003 A 
ENDROOT
TORSDOF 0
ENDMDL
