MODEL 1
REMARK minimizedAffinity -6.31222105
REMARK minimizedRMSD -1
REMARK  0 active torsions:
REMARK  status: ('A' for Active; 'I' for Inactive)
ROOT
ATOM      1  C2' OXE d   1      -0.985   0.772   0.060  0.00  0.00     0.078 C 
ATOM      2  C1' OXE d   1       0.471  -1.628   0.081  0.00  0.00     0.078 C 
ATOM      3  C1  OXE d   1       0.848  -0.585  -0.942  0.00  0.00    -0.078 A 
ATOM      4  C2  OXE d   1       0.100   0.567  -0.975  0.00  0.00    -0.078 A 
ATOM      5  C3  OXE d   1       0.439   1.584  -1.863  0.00  0.00     0.003 A 
ATOM      6  C4  OXE d   1       1.437   1.382  -2.824  0.00  0.00    -0.002 A 
ATOM      7  C5  OXE d   1       2.186   0.200  -2.833  0.00  0.00    -0.002 A 
ATOM      8  C6  OXE d   1       1.933  -0.774  -1.873  0.00  0.00     0.003 A 
ENDROOT
TORSDOF 0
ENDMDL
