MODEL 1
REMARK minimizedAffinity -3.63905597
REMARK minimizedRMSD -1
REMARK  0 active torsions:
REMARK  status: ('A' for Active; 'I' for Inactive)
ROOT
ATOM      1  C2' OXE d   1      -0.866   0.376   0.622  0.00  0.00     0.078 C 
ATOM      2  C1' OXE d   1      -0.480   2.165  -1.507  0.00  0.00     0.078 C 
ATOM      3  C1  OXE d   1       0.460   0.990  -1.395  0.00  0.00    -0.078 A 
ATOM      4  C2  OXE d   1       0.292   0.146  -0.324  0.00  0.00    -0.078 A 
ATOM      5  C3  OXE d   1       1.097  -0.983  -0.204  0.00  0.00     0.003 A 
ATOM      6  C4  OXE d   1       2.173  -1.183  -1.077  0.00  0.00    -0.002 A 
ATOM      7  C5  OXE d   1       2.386  -0.313  -2.152  0.00  0.00    -0.002 A 
ATOM      8  C6  OXE d   1       1.514   0.752  -2.350  0.00  0.00     0.003 A 
ENDROOT
TORSDOF 0
ENDMDL
