MODEL 1
REMARK minimizedAffinity 0.658683538
REMARK minimizedRMSD -1
REMARK  0 active torsions:
REMARK  status: ('A' for Active; 'I' for Inactive)
ROOT
ATOM      1  C2' OXE d   1      -3.055   1.964   4.160  0.00  0.00     0.078 C 
ATOM      2  C1' OXE d   1      -3.640  -0.658   3.345  0.00  0.00     0.078 C 
ATOM      3  C1  OXE d   1      -2.471   0.037   2.693  0.00  0.00    -0.078 A 
ATOM      4  C2  OXE d   1      -2.221   1.336   3.064  0.00  0.00    -0.078 A 
ATOM      5  C3  OXE d   1      -1.121   2.005   2.533  0.00  0.00     0.003 A 
ATOM      6  C4  OXE d   1      -0.361   1.421   1.513  0.00  0.00    -0.002 A 
ATOM      7  C5  OXE d   1      -0.623   0.113   1.092  0.00  0.00    -0.002 A 
ATOM      8  C6  OXE d   1      -1.646  -0.607   1.700  0.00  0.00     0.003 A 
ENDROOT
TORSDOF 0
ENDMDL
