MODEL 1
REMARK minimizedAffinity 8.79878235
REMARK minimizedRMSD -1
REMARK  0 active torsions:
REMARK  status: ('A' for Active; 'I' for Inactive)
ROOT
ATOM      1  C2' OXE d   1      -1.104  -1.106   1.005  0.00  0.00     0.078 C 
ATOM      2  C1' OXE d   1       1.592  -1.543   1.652  0.00  0.00     0.078 C 
ATOM      3  C1  OXE d   1       1.157  -1.814   0.234  0.00  0.00    -0.078 A 
ATOM      4  C2  OXE d   1      -0.174  -1.642  -0.062  0.00  0.00    -0.078 A 
ATOM      5  C3  OXE d   1      -0.619  -1.826  -1.368  0.00  0.00     0.003 A 
ATOM      6  C4  OXE d   1       0.245  -2.332  -2.347  0.00  0.00    -0.002 A 
ATOM      7  C5  OXE d   1       1.596  -2.552  -2.056  0.00  0.00    -0.002 A 
ATOM      8  C6  OXE d   1       2.076  -2.258  -0.785  0.00  0.00     0.003 A 
ENDROOT
TORSDOF 0
ENDMDL
