MODEL 1
REMARK minimizedAffinity 4.08792448
REMARK minimizedRMSD -1
REMARK  0 active torsions:
REMARK  status: ('A' for Active; 'I' for Inactive)
ROOT
ATOM      1  C2' OXE d   1      -0.788  -0.736   0.153  0.00  0.00     0.078 C 
ATOM      2  C1' OXE d   1      -0.817   1.656  -1.315  0.00  0.00     0.078 C 
ATOM      3  C1  OXE d   1       0.121   0.565  -1.767  0.00  0.00    -0.078 A 
ATOM      4  C2  OXE d   1       0.163  -0.585  -1.015  0.00  0.00    -0.078 A 
ATOM      5  C3  OXE d   1       0.970  -1.644  -1.419  0.00  0.00     0.003 A 
ATOM      6  C4  OXE d   1       1.853  -1.492  -2.495  0.00  0.00    -0.002 A 
ATOM      7  C5  OXE d   1       1.856  -0.314  -3.250  0.00  0.00    -0.002 A 
ATOM      8  C6  OXE d   1       0.967   0.705  -2.926  0.00  0.00     0.003 A 
ENDROOT
TORSDOF 0
ENDMDL
