MODEL 1
REMARK minimizedAffinity -4.62607527
REMARK minimizedRMSD -1
REMARK  0 active torsions:
REMARK  status: ('A' for Active; 'I' for Inactive)
ROOT
ATOM      1  C2' OXE d   1      -0.288  -2.145   0.076  0.00  0.00     0.078 C 
ATOM      2  C1' OXE d   1      -1.195   0.502   0.297  0.00  0.00     0.078 C 
ATOM      3  C1  OXE d   1       0.098   0.262  -0.440  0.00  0.00    -0.078 A 
ATOM      4  C2  OXE d   1       0.559  -1.032  -0.503  0.00  0.00    -0.078 A 
ATOM      5  C3  OXE d   1       1.718  -1.316  -1.218  0.00  0.00     0.003 A 
ATOM      6  C4  OXE d   1       2.500  -0.280  -1.742  0.00  0.00    -0.002 A 
ATOM      7  C5  OXE d   1       2.070   1.048  -1.654  0.00  0.00    -0.002 A 
ATOM      8  C6  OXE d   1       0.853   1.331  -1.045  0.00  0.00     0.003 A 
ENDROOT
TORSDOF 0
ENDMDL
