MODEL 1
REMARK minimizedAffinity -4.15940857
REMARK minimizedRMSD -1
REMARK  0 active torsions:
REMARK  status: ('A' for Active; 'I' for Inactive)
ROOT
ATOM      1  C2' OXE d   1       0.299  -2.588   0.624  0.00  0.00     0.078 C 
ATOM      2  C1' OXE d   1      -0.821  -0.014   0.587  0.00  0.00     0.078 C 
ATOM      3  C1  OXE d   1       0.438  -0.245  -0.211  0.00  0.00    -0.078 A 
ATOM      4  C2  OXE d   1       1.005  -1.496  -0.150  0.00  0.00    -0.078 A 
ATOM      5  C3  OXE d   1       2.136  -1.778  -0.910  0.00  0.00     0.003 A 
ATOM      6  C4  OXE d   1       2.789  -0.759  -1.615  0.00  0.00    -0.002 A 
ATOM      7  C5  OXE d   1       2.250   0.531  -1.659  0.00  0.00    -0.002 A 
ATOM      8  C6  OXE d   1       1.055   0.793  -0.999  0.00  0.00     0.003 A 
ENDROOT
TORSDOF 0
ENDMDL
