MODEL 1
REMARK minimizedAffinity -4.14481401
REMARK minimizedRMSD -1
REMARK  0 active torsions:
REMARK  status: ('A' for Active; 'I' for Inactive)
ROOT
ATOM      1  C2' OXE d   1       0.151  -2.904   0.008  0.00  0.00     0.078 C 
ATOM      2  C1' OXE d   1      -1.055  -0.524   0.881  0.00  0.00     0.078 C 
ATOM      3  C1  OXE d   1       0.241  -0.417   0.117  0.00  0.00    -0.078 A 
ATOM      4  C2  OXE d   1       0.848  -1.589  -0.266  0.00  0.00    -0.078 A 
ATOM      5  C3  OXE d   1       2.017  -1.545  -1.021  0.00  0.00     0.003 A 
ATOM      6  C4  OXE d   1       2.660  -0.325  -1.261  0.00  0.00    -0.002 A 
ATOM      7  C5  OXE d   1       2.080   0.878  -0.846  0.00  0.00    -0.002 A 
ATOM      8  C6  OXE d   1       0.851   0.852  -0.194  0.00  0.00     0.003 A 
ENDROOT
TORSDOF 0
ENDMDL
