MODEL 1
REMARK minimizedAffinity 0.281722337
REMARK minimizedRMSD -1
REMARK  0 active torsions:
REMARK  status: ('A' for Active; 'I' for Inactive)
ROOT
ATOM      1  C2' OXE d   1      -1.220   0.304   1.138  0.00  0.00     0.078 C 
ATOM      2  C1' OXE d   1      -0.063   1.515  -1.115  0.00  0.00     0.078 C 
ATOM      3  C1  OXE d   1       0.343   0.099  -0.791  0.00  0.00    -0.078 A 
ATOM      4  C2  OXE d   1      -0.193  -0.469   0.340  0.00  0.00    -0.078 A 
ATOM      5  C3  OXE d   1       0.106  -1.792   0.654  0.00  0.00     0.003 A 
ATOM      6  C4  OXE d   1       1.065  -2.496  -0.083  0.00  0.00    -0.002 A 
ATOM      7  C5  OXE d   1       1.653  -1.922  -1.215  0.00  0.00    -0.002 A 
ATOM      8  C6  OXE d   1       1.272  -0.643  -1.607  0.00  0.00     0.003 A 
ENDROOT
TORSDOF 0
ENDMDL
