MODEL 1
REMARK minimizedAffinity -4.2962122
REMARK minimizedRMSD -1
REMARK  0 active torsions:
REMARK  status: ('A' for Active; 'I' for Inactive)
ROOT
ATOM      1  C2' OXE d   1       3.121  -0.553  -1.548  0.00  0.00     0.078 C 
ATOM      2  C1' OXE d   1       1.942   1.995  -1.577  0.00  0.00     0.078 C 
ATOM      3  C1  OXE d   1       1.084   0.827  -1.156  0.00  0.00    -0.078 A 
ATOM      4  C2  OXE d   1       1.656  -0.422  -1.190  0.00  0.00    -0.078 A 
ATOM      5  C3  OXE d   1       0.927  -1.526  -0.760  0.00  0.00     0.003 A 
ATOM      6  C4  OXE d   1      -0.430  -1.398  -0.440  0.00  0.00    -0.002 A 
ATOM      7  C5  OXE d   1      -1.044  -0.140  -0.437  0.00  0.00    -0.002 A 
ATOM      8  C6  OXE d   1      -0.290   0.985  -0.751  0.00  0.00     0.003 A 
ENDROOT
TORSDOF 0
ENDMDL
