MODEL 1
REMARK minimizedAffinity -4.36102486
REMARK minimizedRMSD -1
REMARK  0 active torsions:
REMARK  status: ('A' for Active; 'I' for Inactive)
ROOT
ATOM      1  C2' OXE d   1      -1.996   0.464   0.463  0.00  0.00     0.078 C 
ATOM      2  C1' OXE d   1      -1.892   2.292   2.592  0.00  0.00     0.078 C 
ATOM      3  C1  OXE d   1      -2.228   0.857   2.912  0.00  0.00    -0.078 A 
ATOM      4  C2  OXE d   1      -2.323  -0.021   1.859  0.00  0.00    -0.078 A 
ATOM      5  C3  OXE d   1      -2.576  -1.367   2.105  0.00  0.00     0.003 A 
ATOM      6  C4  OXE d   1      -2.887  -1.806   3.397  0.00  0.00    -0.002 A 
ATOM      7  C5  OXE d   1      -2.836  -0.920   4.479  0.00  0.00    -0.002 A 
ATOM      8  C6  OXE d   1      -2.467   0.402   4.260  0.00  0.00     0.003 A 
ENDROOT
TORSDOF 0
ENDMDL
