MODEL 1
REMARK minimizedAffinity 5.04671192
REMARK minimizedRMSD -1
REMARK  1 active torsions:
REMARK  status: ('A' for Active; 'I' for Inactive)
REMARK    1  A    between atoms: C1_2  and  C2_3 
ROOT
ATOM      1  C2  UNL d   1       0.162   3.161  -0.085  0.00  0.00    -0.077 A 
ATOM      2  C3  UNL d   1       1.305   3.886   0.281  0.00  0.00     0.002 A 
ATOM      3  C4  UNL d   1       1.792   3.824   1.588  0.00  0.00     0.002 A 
ATOM      4  C5  UNL d   1       1.145   3.037   2.538  0.00  0.00    -0.004 A 
ATOM      5  C6  UNL d   1       0.006   2.314   2.185  0.00  0.00     0.002 A 
ATOM      6  C7  UNL d   1      -0.482   2.375   0.879  0.00  0.00     0.002 A 
ENDROOT
BRANCH   1   7
ATOM      7  C1  UNL d   1      -0.336   3.187  -1.506  0.00  0.00     0.055 C 
ATOM      8  C   UNL d   1      -1.425   4.233  -1.692  0.00  0.00     0.019 C 
ENDBRANCH   1   7
TORSDOF 1
ENDMDL
