MODEL 1
REMARK minimizedAffinity 4.82991362
REMARK minimizedRMSD -1
REMARK  1 active torsions:
REMARK  status: ('A' for Active; 'I' for Inactive)
REMARK    1  A    between atoms: C1_2  and  C2_3 
ROOT
ATOM      1  C2  UNL d   1      -0.738   3.332  -1.026  0.00  0.00    -0.077 A 
ATOM      2  C3  UNL d   1       0.178   2.366  -1.465  0.00  0.00     0.002 A 
ATOM      3  C4  UNL d   1       1.105   1.817  -0.576  0.00  0.00     0.002 A 
ATOM      4  C5  UNL d   1       1.121   2.224   0.756  0.00  0.00    -0.004 A 
ATOM      5  C6  UNL d   1       0.215   3.185   1.202  0.00  0.00     0.002 A 
ATOM      6  C7  UNL d   1      -0.711   3.736   0.315  0.00  0.00     0.002 A 
ENDROOT
BRANCH   1   7
ATOM      7  C1  UNL d   1      -1.771   3.889  -1.971  0.00  0.00     0.055 C 
ATOM      8  C   UNL d   1      -2.040   5.360  -1.692  0.00  0.00     0.019 C 
ENDBRANCH   1   7
TORSDOF 1
ENDMDL
