MODEL 1
REMARK minimizedAffinity 0.558033168
REMARK minimizedRMSD -1
REMARK  1 active torsions:
REMARK  status: ('A' for Active; 'I' for Inactive)
REMARK    1  A    between atoms: C1_2  and  C2_3 
ROOT
ATOM      1  C2  UNL d   1      -4.921   3.324  -4.168  0.00  0.00    -0.077 A 
ATOM      2  C3  UNL d   1      -3.793   3.600  -3.382  0.00  0.00     0.002 A 
ATOM      3  C4  UNL d   1      -3.748   3.200  -2.045  0.00  0.00     0.002 A 
ATOM      4  C5  UNL d   1      -4.826   2.519  -1.484  0.00  0.00    -0.004 A 
ATOM      5  C6  UNL d   1      -5.953   2.241  -2.256  0.00  0.00     0.002 A 
ATOM      6  C7  UNL d   1      -6.000   2.641  -3.592  0.00  0.00     0.002 A 
ENDROOT
BRANCH   1   7
ATOM      7  C1  UNL d   1      -4.951   3.711  -5.623  0.00  0.00     0.055 C 
ATOM      8  C   UNL d   1      -3.734   4.543  -6.000  0.00  0.00     0.019 C 
ENDBRANCH   1   7
TORSDOF 1
ENDMDL
