MODEL 1
REMARK minimizedAffinity -0.513042867
REMARK minimizedRMSD -1
REMARK  1 active torsions:
REMARK  status: ('A' for Active; 'I' for Inactive)
REMARK    1  A    between atoms: C1_2  and  C2_3 
ROOT
ATOM      1  C2  UNL d   1      -0.290   1.782  -0.833  0.00  0.00    -0.077 A 
ATOM      2  C3  UNL d   1       0.820   1.006  -1.195  0.00  0.00     0.002 A 
ATOM      3  C4  UNL d   1       0.709  -0.383  -1.290  0.00  0.00     0.002 A 
ATOM      4  C5  UNL d   1      -0.509  -1.006  -1.030  0.00  0.00    -0.004 A 
ATOM      5  C6  UNL d   1      -1.618  -0.242  -0.667  0.00  0.00     0.002 A 
ATOM      6  C7  UNL d   1      -1.509   1.145  -0.570  0.00  0.00     0.002 A 
ENDROOT
BRANCH   1   7
ATOM      7  C1  UNL d   1      -0.185   3.284  -0.777  0.00  0.00     0.055 C 
ATOM      8  C   UNL d   1      -0.804   3.835   0.499  0.00  0.00     0.019 C 
ENDBRANCH   1   7
TORSDOF 1
ENDMDL
