MODEL 1
REMARK minimizedAffinity 4.3944602
REMARK minimizedRMSD -1
REMARK  1 active torsions:
REMARK  status: ('A' for Active; 'I' for Inactive)
REMARK    1  A    between atoms: C1_2  and  C2_3 
ROOT
ATOM      1  C2  UNL d   1       0.418   3.439   0.827  0.00  0.00    -0.077 A 
ATOM      2  C3  UNL d   1       1.482   2.612   1.213  0.00  0.00     0.002 A 
ATOM      3  C4  UNL d   1       1.428   1.908   2.418  0.00  0.00     0.002 A 
ATOM      4  C5  UNL d   1       0.311   2.021   3.243  0.00  0.00    -0.004 A 
ATOM      5  C6  UNL d   1      -0.752   2.843   2.869  0.00  0.00     0.002 A 
ATOM      6  C7  UNL d   1      -0.699   3.548   1.666  0.00  0.00     0.002 A 
ENDROOT
BRANCH   1   7
ATOM      7  C1  UNL d   1       0.453   4.160  -0.495  0.00  0.00     0.055 C 
ATOM      8  C   UNL d   1       1.666   5.074  -0.595  0.00  0.00     0.019 C 
ENDBRANCH   1   7
TORSDOF 1
ENDMDL
