MODEL 1
REMARK minimizedAffinity -1.09870481
REMARK minimizedRMSD -1
REMARK  1 active torsions:
REMARK  status: ('A' for Active; 'I' for Inactive)
REMARK    1  A    between atoms: C1_2  and  C2_3 
ROOT
ATOM      1  C2  UNL d   1      -5.321   3.151  -3.476  0.00  0.00    -0.077 A 
ATOM      2  C3  UNL d   1      -6.000   3.765  -4.538  0.00  0.00     0.002 A 
ATOM      3  C4  UNL d   1      -5.393   3.883  -5.790  0.00  0.00     0.002 A 
ATOM      4  C5  UNL d   1      -4.108   3.385  -5.993  0.00  0.00    -0.004 A 
ATOM      5  C6  UNL d   1      -3.423   2.775  -4.942  0.00  0.00     0.002 A 
ATOM      6  C7  UNL d   1      -4.028   2.657  -3.690  0.00  0.00     0.002 A 
ENDROOT
BRANCH   1   7
ATOM      7  C1  UNL d   1      -5.992   2.979  -2.139  0.00  0.00     0.055 C 
ATOM      8  C   UNL d   1      -5.628   1.645  -1.504  0.00  0.00     0.019 C 
ENDBRANCH   1   7
TORSDOF 1
ENDMDL
