MODEL 1
REMARK minimizedAffinity 4.32727766
REMARK minimizedRMSD -1
REMARK  1 active torsions:
REMARK  status: ('A' for Active; 'I' for Inactive)
REMARK    1  A    between atoms: C1_2  and  C2_3 
ROOT
ATOM      1  C2  UNL d   1       0.744  -1.550  -1.765  0.00  0.00    -0.077 A 
ATOM      2  C3  UNL d   1       1.173  -2.338  -0.689  0.00  0.00     0.002 A 
ATOM      3  C4  UNL d   1       0.826  -3.689  -0.620  0.00  0.00     0.002 A 
ATOM      4  C5  UNL d   1       0.052  -4.263  -1.626  0.00  0.00    -0.004 A 
ATOM      5  C6  UNL d   1      -0.382  -3.487  -2.700  0.00  0.00     0.002 A 
ATOM      6  C7  UNL d   1      -0.037  -2.136  -2.770  0.00  0.00     0.002 A 
ENDROOT
BRANCH   1   7
ATOM      7  C1  UNL d   1       1.159  -0.105  -1.867  0.00  0.00     0.055 C 
ATOM      8  C   UNL d   1       0.238   0.794  -1.055  0.00  0.00     0.019 C 
ENDBRANCH   1   7
TORSDOF 1
ENDMDL
