MODEL 1
REMARK minimizedAffinity 3.00161028
REMARK minimizedRMSD -1
REMARK  1 active torsions:
REMARK  status: ('A' for Active; 'I' for Inactive)
REMARK    1  A    between atoms: C1_2  and  C2_3 
ROOT
ATOM      1  C2  UNL d   1      -0.223   3.658  -0.746  0.00  0.00    -0.077 A 
ATOM      2  C3  UNL d   1       0.857   4.512  -1.011  0.00  0.00     0.002 A 
ATOM      3  C4  UNL d   1       0.672   5.673  -1.764  0.00  0.00     0.002 A 
ATOM      4  C5  UNL d   1      -0.592   5.993  -2.255  0.00  0.00    -0.004 A 
ATOM      5  C6  UNL d   1      -1.672   5.149  -1.999  0.00  0.00     0.002 A 
ATOM      6  C7  UNL d   1      -1.489   3.987  -1.247  0.00  0.00     0.002 A 
ENDROOT
BRANCH   1   7
ATOM      7  C1  UNL d   1      -0.035   2.431   0.107  0.00  0.00     0.055 C 
ATOM      8  C   UNL d   1      -0.183   2.757   1.586  0.00  0.00     0.019 C 
ENDBRANCH   1   7
TORSDOF 1
ENDMDL
