MODEL 1
REMARK minimizedAffinity -0.0325344354
REMARK minimizedRMSD -1
REMARK  1 active torsions:
REMARK  status: ('A' for Active; 'I' for Inactive)
REMARK    1  A    between atoms: C1_2  and  C2_3 
ROOT
ATOM      1  C2  UNL d   1      -4.558   3.025  -3.780  0.00  0.00    -0.077 A 
ATOM      2  C3  UNL d   1      -4.564   1.708  -3.299  0.00  0.00     0.002 A 
ATOM      3  C4  UNL d   1      -5.281   1.380  -2.146  0.00  0.00     0.002 A 
ATOM      4  C5  UNL d   1      -5.999   2.362  -1.468  0.00  0.00    -0.004 A 
ATOM      5  C6  UNL d   1      -5.998   3.675  -1.937  0.00  0.00     0.002 A 
ATOM      6  C7  UNL d   1      -5.281   4.005  -3.088  0.00  0.00     0.002 A 
ENDROOT
BRANCH   1   7
ATOM      7  C1  UNL d   1      -3.826   3.371  -5.050  0.00  0.00     0.055 C 
ATOM      8  C   UNL d   1      -4.708   4.171  -5.997  0.00  0.00     0.019 C 
ENDBRANCH   1   7
TORSDOF 1
ENDMDL
