MODEL 1
REMARK minimizedAffinity -5.10288191
REMARK minimizedRMSD -1
REMARK  1 active torsions:
REMARK  status: ('A' for Active; 'I' for Inactive)
REMARK    1  A    between atoms: C1_2  and  C2_3 
ROOT
ATOM      1  C2  UNL d   1      -1.677  -1.338  -0.013  0.00  0.00    -0.073 A 
ATOM      2  C3  UNL d   1      -2.218  -0.723  -1.148  0.00  0.00    -0.002 A 
ATOM      3  C4  UNL d   1      -1.510   0.282  -1.810  0.00  0.00     0.004 A 
ATOM      4  C5  UNL d   1      -0.254   0.676  -1.349  0.00  0.00    -0.004 A 
ATOM      5  C6  UNL d   1       0.308   0.065  -0.224  0.00  0.00    -0.075 A 
ATOM      6  C7  UNL d   1       1.657   0.479   0.285  0.00  0.00     0.076 C 
ATOM      7  C8  UNL d   1      -0.409  -0.941   0.437  0.00  0.00     0.001 A 
ENDROOT
BRANCH   1   8
ATOM      8  C1  UNL d   1      -2.434  -2.427   0.701  0.00  0.00     0.053 C 
ATOM      9  C   UNL d   1      -1.526  -3.264   1.589  0.00  0.00     0.018 C 
ENDBRANCH   1   8
TORSDOF 1
ENDMDL
