MODEL 1
REMARK minimizedAffinity -5.23873472
REMARK minimizedRMSD -1
REMARK  1 active torsions:
REMARK  status: ('A' for Active; 'I' for Inactive)
REMARK    1  A    between atoms: C1_2  and  C2_3 
ROOT
ATOM      1  C2  UNL d   1       0.457   0.046  -0.055  0.00  0.00    -0.073 A 
ATOM      2  C3  UNL d   1      -0.422   0.660  -0.954  0.00  0.00    -0.002 A 
ATOM      3  C4  UNL d   1      -1.684   0.113  -1.191  0.00  0.00     0.004 A 
ATOM      4  C5  UNL d   1      -2.082  -1.048  -0.528  0.00  0.00    -0.004 A 
ATOM      5  C6  UNL d   1      -1.221  -1.670   0.383  0.00  0.00    -0.075 A 
ATOM      6  C7  UNL d   1      -1.633  -2.921   1.102  0.00  0.00     0.076 C 
ATOM      7  C8  UNL d   1       0.045  -1.116   0.613  0.00  0.00     0.001 A 
ENDROOT
BRANCH   1   8
ATOM      8  C1  UNL d   1       1.818   0.636   0.209  0.00  0.00     0.053 C 
ATOM      9  C   UNL d   1       1.738   1.897   1.055  0.00  0.00     0.018 C 
ENDBRANCH   1   8
TORSDOF 1
ENDMDL
