MODEL 1
REMARK minimizedAffinity -3.83840966
REMARK minimizedRMSD -1
REMARK  1 active torsions:
REMARK  status: ('A' for Active; 'I' for Inactive)
REMARK    1  A    between atoms: C1_2  and  C2_3 
ROOT
ATOM      1  C2  UNL d   1       0.018   0.392  -0.392  0.00  0.00    -0.073 A 
ATOM      2  C3  UNL d   1       0.440  -0.878   0.017  0.00  0.00    -0.002 A 
ATOM      3  C4  UNL d   1       1.532  -1.016   0.874  0.00  0.00     0.004 A 
ATOM      4  C5  UNL d   1       2.209   0.113   1.336  0.00  0.00    -0.004 A 
ATOM      5  C6  UNL d   1       1.795   1.392   0.948  0.00  0.00    -0.075 A 
ATOM      6  C7  UNL d   1       2.513   2.616   1.435  0.00  0.00     0.076 C 
ATOM      7  C8  UNL d   1       0.699   1.522   0.085  0.00  0.00     0.001 A 
ENDROOT
BRANCH   1   8
ATOM      8  C1  UNL d   1      -1.165   0.547  -1.313  0.00  0.00     0.053 C 
ATOM      9  C   UNL d   1      -2.109  -0.642  -1.231  0.00  0.00     0.018 C 
ENDBRANCH   1   8
TORSDOF 1
ENDMDL
