MODEL 1
REMARK minimizedAffinity -0.984434068
REMARK minimizedRMSD -1
REMARK  1 active torsions:
REMARK  status: ('A' for Active; 'I' for Inactive)
REMARK    1  A    between atoms: C1_2  and  C2_3 
ROOT
ATOM      1  C2  UNL d   1      -1.844  -1.491  -0.504  0.00  0.00    -0.073 A 
ATOM      2  C3  UNL d   1      -1.881  -1.093  -1.845  0.00  0.00    -0.002 A 
ATOM      3  C4  UNL d   1      -0.891  -0.253  -2.358  0.00  0.00     0.004 A 
ATOM      4  C5  UNL d   1       0.147   0.190  -1.539  0.00  0.00    -0.004 A 
ATOM      5  C6  UNL d   1       0.208  -0.206  -0.199  0.00  0.00    -0.075 A 
ATOM      6  C7  UNL d   1       1.317   0.264   0.696  0.00  0.00     0.076 C 
ATOM      7  C8  UNL d   1      -0.791  -1.048   0.310  0.00  0.00     0.001 A 
ENDROOT
BRANCH   1   8
ATOM      8  C1  UNL d   1      -2.907  -2.403   0.053  0.00  0.00     0.053 C 
ATOM      9  C   UNL d   1      -2.310  -3.579   0.810  0.00  0.00     0.018 C 
ENDBRANCH   1   8
TORSDOF 1
ENDMDL
