MODEL 1
REMARK minimizedAffinity -3.43007421
REMARK minimizedRMSD -1
REMARK  1 active torsions:
REMARK  status: ('A' for Active; 'I' for Inactive)
REMARK    1  A    between atoms: C1_2  and  C2_3 
ROOT
ATOM      1  C2  UNL d   1       0.463   0.513  -0.047  0.00  0.00    -0.073 A 
ATOM      2  C3  UNL d   1       1.816   0.211  -0.238  0.00  0.00    -0.002 A 
ATOM      3  C4  UNL d   1       2.805   1.055   0.267  0.00  0.00     0.004 A 
ATOM      4  C5  UNL d   1       2.453   2.205   0.974  0.00  0.00    -0.004 A 
ATOM      5  C6  UNL d   1       1.106   2.518   1.186  0.00  0.00    -0.075 A 
ATOM      6  C7  UNL d   1       0.710   3.752   1.942  0.00  0.00     0.076 C 
ATOM      7  C8  UNL d   1       0.118   1.666   0.672  0.00  0.00     0.001 A 
ENDROOT
BRANCH   1   8
ATOM      8  C1  UNL d   1      -0.609  -0.399  -0.586  0.00  0.00     0.053 C 
ATOM      9  C   UNL d   1      -1.732   0.375  -1.258  0.00  0.00     0.018 C 
ENDBRANCH   1   8
TORSDOF 1
ENDMDL
