MODEL 1
REMARK minimizedAffinity -3.8107264
REMARK minimizedRMSD -1
REMARK  1 active torsions:
REMARK  status: ('A' for Active; 'I' for Inactive)
REMARK    1  A    between atoms: C1_2  and  C2_3 
ROOT
ATOM      1  C2  UNL d   1      -1.667  -1.015   0.413  0.00  0.00    -0.073 A 
ATOM      2  C3  UNL d   1      -1.337  -1.999   1.353  0.00  0.00    -0.002 A 
ATOM      3  C4  UNL d   1      -0.066  -2.024   1.929  0.00  0.00     0.004 A 
ATOM      4  C5  UNL d   1       0.883  -1.065   1.578  0.00  0.00    -0.004 A 
ATOM      5  C6  UNL d   1       0.568  -0.067   0.650  0.00  0.00    -0.075 A 
ATOM      6  C7  UNL d   1       1.578   0.972   0.261  0.00  0.00     0.076 C 
ATOM      7  C8  UNL d   1      -0.709  -0.049   0.074  0.00  0.00     0.001 A 
ENDROOT
BRANCH   1   8
ATOM      8  C1  UNL d   1      -3.040  -0.980  -0.207  0.00  0.00     0.053 C 
ATOM      9  C   UNL d   1      -3.238  -2.098  -1.218  0.00  0.00     0.018 C 
ENDBRANCH   1   8
TORSDOF 1
ENDMDL
