MODEL 1
REMARK minimizedAffinity -2.82634068
REMARK minimizedRMSD -1
REMARK  1 active torsions:
REMARK  status: ('A' for Active; 'I' for Inactive)
REMARK    1  A    between atoms: C1_2  and  C2_3 
ROOT
ATOM      1  C2  UNL d   1       0.711   0.661  -0.040  0.00  0.00    -0.073 A 
ATOM      2  C3  UNL d   1       1.949   0.480  -0.667  0.00  0.00    -0.002 A 
ATOM      3  C4  UNL d   1       3.028   1.306  -0.347  0.00  0.00     0.004 A 
ATOM      4  C5  UNL d   1       2.883   2.313   0.607  0.00  0.00    -0.004 A 
ATOM      5  C6  UNL d   1       1.657   2.501   1.253  0.00  0.00    -0.075 A 
ATOM      6  C7  UNL d   1       1.484   3.582   2.280  0.00  0.00     0.076 C 
ATOM      7  C8  UNL d   1       0.577   1.670   0.924  0.00  0.00     0.001 A 
ENDROOT
BRANCH   1   8
ATOM      8  C1  UNL d   1      -0.455  -0.232  -0.377  0.00  0.00     0.053 C 
ATOM      9  C   UNL d   1      -1.279   0.319  -1.530  0.00  0.00     0.018 C 
ENDBRANCH   1   8
TORSDOF 1
ENDMDL
