MODEL 1
REMARK minimizedAffinity -3.08771658
REMARK minimizedRMSD -1
REMARK  1 active torsions:
REMARK  status: ('A' for Active; 'I' for Inactive)
REMARK    1  A    between atoms: C1_2  and  C2_3 
ROOT
ATOM      1  C2  UNL d   1       0.822   0.444  -0.425  0.00  0.00    -0.073 A 
ATOM      2  C3  UNL d   1       1.328  -0.510   0.465  0.00  0.00    -0.002 A 
ATOM      3  C4  UNL d   1       2.328  -0.164   1.375  0.00  0.00     0.004 A 
ATOM      4  C5  UNL d   1       2.828   1.138   1.408  0.00  0.00    -0.004 A 
ATOM      5  C6  UNL d   1       2.326   2.108   0.535  0.00  0.00    -0.075 A 
ATOM      6  C7  UNL d   1       2.854   3.513   0.557  0.00  0.00     0.076 C 
ATOM      7  C8  UNL d   1       1.324   1.753  -0.378  0.00  0.00     0.001 A 
ENDROOT
BRANCH   1   8
ATOM      8  C1  UNL d   1      -0.263   0.078  -1.405  0.00  0.00     0.053 C 
ATOM      9  C   UNL d   1      -1.537  -0.366  -0.704  0.00  0.00     0.018 C 
ENDBRANCH   1   8
TORSDOF 1
ENDMDL
