MODEL 1
REMARK minimizedAffinity 2.1103828
REMARK minimizedRMSD -1
REMARK  1 active torsions:
REMARK  status: ('A' for Active; 'I' for Inactive)
REMARK    1  A    between atoms: C1_2  and  C2_3 
ROOT
ATOM      1  C2  UNL d   1       0.444   2.518   2.119  0.00  0.00    -0.077 A 
ATOM      2  C3  UNL d   1       0.443   1.254   2.724  0.00  0.00     0.002 A 
ATOM      3  C4  UNL d   1       0.375   0.098   1.944  0.00  0.00     0.002 A 
ATOM      4  C5  UNL d   1       0.311   0.195   0.555  0.00  0.00    -0.004 A 
ATOM      5  C6  UNL d   1       0.310   1.449  -0.056  0.00  0.00     0.002 A 
ATOM      6  C7  UNL d   1       0.377   2.605   0.723  0.00  0.00     0.002 A 
ENDROOT
BRANCH   1   7
ATOM      7  C1  UNL d   1       0.567   3.765   2.956  0.00  0.00     0.055 C 
ATOM      8  C   UNL d   1       1.546   3.566   4.105  0.00  0.00     0.019 C 
ENDBRANCH   1   7
TORSDOF 1
ENDMDL
