MODEL 1
REMARK minimizedAffinity -1.04313302
REMARK minimizedRMSD -1
REMARK  1 active torsions:
REMARK  status: ('A' for Active; 'I' for Inactive)
REMARK    1  A    between atoms: C1_2  and  C2_3 
ROOT
ATOM      1  C2  UNL d   1       0.148   0.038   1.848  0.00  0.00    -0.077 A 
ATOM      2  C3  UNL d   1       0.965   1.120   1.493  0.00  0.00     0.002 A 
ATOM      3  C4  UNL d   1       0.636   1.925   0.400  0.00  0.00     0.002 A 
ATOM      4  C5  UNL d   1      -0.512   1.659  -0.343  0.00  0.00    -0.004 A 
ATOM      5  C6  UNL d   1      -1.330   0.584   0.002  0.00  0.00     0.002 A 
ATOM      6  C7  UNL d   1      -1.002  -0.223   1.092  0.00  0.00     0.002 A 
ENDROOT
BRANCH   1   7
ATOM      7  C1  UNL d   1       0.475  -0.801   3.055  0.00  0.00     0.055 C 
ATOM      8  C   UNL d   1       1.910  -1.305   3.008  0.00  0.00     0.019 C 
ENDBRANCH   1   7
TORSDOF 1
ENDMDL
