MODEL 1
REMARK minimizedAffinity -3.15062022
REMARK minimizedRMSD -1
REMARK  1 active torsions:
REMARK  status: ('A' for Active; 'I' for Inactive)
REMARK    1  A    between atoms: C1_2  and  C2_3 
ROOT
ATOM      1  C2  UNL d   1      -3.772   3.667  -4.317  0.00  0.00    -0.077 A 
ATOM      2  C3  UNL d   1      -4.044   4.449  -5.448  0.00  0.00     0.002 A 
ATOM      3  C4  UNL d   1      -3.051   5.261  -6.000  0.00  0.00     0.002 A 
ATOM      4  C5  UNL d   1      -1.780   5.296  -5.430  0.00  0.00    -0.004 A 
ATOM      5  C6  UNL d   1      -1.501   4.524  -4.304  0.00  0.00     0.002 A 
ATOM      6  C7  UNL d   1      -2.491   3.712  -3.750  0.00  0.00     0.002 A 
ENDROOT
BRANCH   1   7
ATOM      7  C1  UNL d   1      -4.826   2.753  -3.749  0.00  0.00     0.055 C 
ATOM      8  C   UNL d   1      -5.243   1.694  -4.760  0.00  0.00     0.019 C 
ENDBRANCH   1   7
TORSDOF 1
ENDMDL
