MODEL 1
REMARK minimizedAffinity 3.14151859
REMARK minimizedRMSD -1
REMARK  1 active torsions:
REMARK  status: ('A' for Active; 'I' for Inactive)
REMARK    1  A    between atoms: C1_2  and  C2_3 
ROOT
ATOM      1  C2  UNL d   1      -3.673   3.541  -4.302  0.00  0.00    -0.077 A 
ATOM      2  C3  UNL d   1      -4.422   4.278  -5.230  0.00  0.00     0.002 A 
ATOM      3  C4  UNL d   1      -5.405   3.654  -6.000  0.00  0.00     0.002 A 
ATOM      4  C5  UNL d   1      -5.652   2.291  -5.847  0.00  0.00    -0.004 A 
ATOM      5  C6  UNL d   1      -4.911   1.549  -4.928  0.00  0.00     0.002 A 
ATOM      6  C7  UNL d   1      -3.927   2.171  -4.158  0.00  0.00     0.002 A 
ENDROOT
BRANCH   1   7
ATOM      7  C1  UNL d   1      -2.646   4.222  -3.436  0.00  0.00     0.055 C 
ATOM      8  C   UNL d   1      -2.114   5.485  -4.097  0.00  0.00     0.019 C 
ENDBRANCH   1   7
TORSDOF 1
ENDMDL
