MODEL 1
REMARK minimizedAffinity -0.0777227655
REMARK minimizedRMSD -1
REMARK  1 active torsions:
REMARK  status: ('A' for Active; 'I' for Inactive)
REMARK    1  A    between atoms: C1_2  and  C2_3 
ROOT
ATOM      1  C2  UNL d   1      -3.597   4.130  -5.556  0.00  0.00    -0.077 A 
ATOM      2  C3  UNL d   1      -3.480   3.002  -4.733  0.00  0.00     0.002 A 
ATOM      3  C4  UNL d   1      -4.616   2.280  -4.360  0.00  0.00     0.002 A 
ATOM      4  C5  UNL d   1      -5.874   2.675  -4.809  0.00  0.00    -0.004 A 
ATOM      5  C6  UNL d   1      -6.000   3.798  -5.627  0.00  0.00     0.002 A 
ATOM      6  C7  UNL d   1      -4.866   4.521  -6.000  0.00  0.00     0.002 A 
ENDROOT
BRANCH   1   7
ATOM      7  C1  UNL d   1      -2.368   4.881  -6.000  0.00  0.00     0.055 C 
ATOM      8  C   UNL d   1      -1.212   4.673  -5.032  0.00  0.00     0.019 C 
ENDBRANCH   1   7
TORSDOF 1
ENDMDL
