MODEL 1
REMARK minimizedAffinity 1.12735486
REMARK minimizedRMSD -1
REMARK  1 active torsions:
REMARK  status: ('A' for Active; 'I' for Inactive)
REMARK    1  A    between atoms: C1_2  and  C2_3 
ROOT
ATOM      1  C2  UNL d   1      -3.468   3.043  -4.810  0.00  0.00    -0.077 A 
ATOM      2  C3  UNL d   1      -4.065   4.165  -5.402  0.00  0.00     0.002 A 
ATOM      3  C4  UNL d   1      -5.324   4.064  -5.996  0.00  0.00     0.002 A 
ATOM      4  C5  UNL d   1      -5.999   2.845  -6.000  0.00  0.00    -0.004 A 
ATOM      5  C6  UNL d   1      -5.414   1.723  -5.415  0.00  0.00     0.002 A 
ATOM      6  C7  UNL d   1      -4.154   1.822  -4.822  0.00  0.00     0.002 A 
ENDROOT
BRANCH   1   7
ATOM      7  C1  UNL d   1      -2.132   3.161  -4.125  0.00  0.00     0.055 C 
ATOM      8  C   UNL d   1      -1.419   4.446  -4.521  0.00  0.00     0.019 C 
ENDBRANCH   1   7
TORSDOF 1
ENDMDL
