MODEL 1
REMARK minimizedAffinity 1.62313271
REMARK minimizedRMSD -1
REMARK  1 active torsions:
REMARK  status: ('A' for Active; 'I' for Inactive)
REMARK    1  A    between atoms: C1_2  and  C2_3 
ROOT
ATOM      1  C2  UNL d   1       0.494  -0.115   2.108  0.00  0.00    -0.077 A 
ATOM      2  C3  UNL d   1       0.129   1.210   2.380  0.00  0.00     0.002 A 
ATOM      3  C4  UNL d   1       0.103   2.160   1.356  0.00  0.00     0.002 A 
ATOM      4  C5  UNL d   1       0.438   1.792   0.054  0.00  0.00    -0.004 A 
ATOM      5  C6  UNL d   1       0.805   0.477  -0.225  0.00  0.00     0.002 A 
ATOM      6  C7  UNL d   1       0.832  -0.473   0.797  0.00  0.00     0.002 A 
ENDROOT
BRANCH   1   7
ATOM      7  C1  UNL d   1       0.475  -1.152   3.201  0.00  0.00     0.055 C 
ATOM      8  C   UNL d   1       1.878  -1.653   3.514  0.00  0.00     0.019 C 
ENDBRANCH   1   7
TORSDOF 1
ENDMDL
