MODEL 1
REMARK minimizedAffinity 0.906404078
REMARK minimizedRMSD -1
REMARK  1 active torsions:
REMARK  status: ('A' for Active; 'I' for Inactive)
REMARK    1  A    between atoms: C1_2  and  C2_3 
ROOT
ATOM      1  C2  UNL d   1      -3.580   3.703  -5.315  0.00  0.00    -0.077 A 
ATOM      2  C3  UNL d   1      -4.800   3.805  -5.999  0.00  0.00     0.002 A 
ATOM      3  C4  UNL d   1      -6.000   3.507  -5.351  0.00  0.00     0.002 A 
ATOM      4  C5  UNL d   1      -5.993   3.108  -4.016  0.00  0.00    -0.004 A 
ATOM      5  C6  UNL d   1      -4.785   3.001  -3.328  0.00  0.00     0.002 A 
ATOM      6  C7  UNL d   1      -3.584   3.298  -3.974  0.00  0.00     0.002 A 
ENDROOT
BRANCH   1   7
ATOM      7  C1  UNL d   1      -2.289   4.072  -5.997  0.00  0.00     0.055 C 
ATOM      8  C   UNL d   1      -1.484   5.058  -5.162  0.00  0.00     0.019 C 
ENDBRANCH   1   7
TORSDOF 1
ENDMDL
