MODEL 1
REMARK minimizedAffinity 5.02618742
REMARK minimizedRMSD -1
REMARK  1 active torsions:
REMARK  status: ('A' for Active; 'I' for Inactive)
REMARK    1  A    between atoms: C1_2  and  C2_3 
ROOT
ATOM      1  C2  UNL d   1      -5.093   1.561  -4.765  0.00  0.00    -0.077 A 
ATOM      2  C3  UNL d   1      -4.181   2.412  -4.125  0.00  0.00     0.002 A 
ATOM      3  C4  UNL d   1      -4.174   3.780  -4.407  0.00  0.00     0.002 A 
ATOM      4  C5  UNL d   1      -5.079   4.308  -5.325  0.00  0.00    -0.004 A 
ATOM      5  C6  UNL d   1      -5.989   3.470  -5.968  0.00  0.00     0.002 A 
ATOM      6  C7  UNL d   1      -5.996   2.103  -5.689  0.00  0.00     0.002 A 
ENDROOT
BRANCH   1   7
ATOM      7  C1  UNL d   1      -5.135   0.094  -4.426  0.00  0.00     0.055 C 
ATOM      8  C   UNL d   1      -5.962  -0.162  -3.175  0.00  0.00     0.019 C 
ENDBRANCH   1   7
TORSDOF 1
ENDMDL
