MODEL 1
REMARK minimizedAffinity -0.350034773
REMARK minimizedRMSD -1
REMARK  1 active torsions:
REMARK  status: ('A' for Active; 'I' for Inactive)
REMARK    1  A    between atoms: C1_2  and  C2_3 
ROOT
ATOM      1  C2  UNL d   1      -3.232   4.106  -5.240  0.00  0.00    -0.077 A 
ATOM      2  C3  UNL d   1      -4.135   4.885  -5.977  0.00  0.00     0.002 A 
ATOM      3  C4  UNL d   1      -5.493   4.563  -5.998  0.00  0.00     0.002 A 
ATOM      4  C5  UNL d   1      -5.961   3.464  -5.281  0.00  0.00    -0.004 A 
ATOM      5  C6  UNL d   1      -5.071   2.682  -4.546  0.00  0.00     0.002 A 
ATOM      6  C7  UNL d   1      -3.713   3.002  -4.525  0.00  0.00     0.002 A 
ENDROOT
BRANCH   1   7
ATOM      7  C1  UNL d   1      -1.775   4.481  -5.176  0.00  0.00     0.055 C 
ATOM      8  C   UNL d   1      -1.563   5.943  -5.541  0.00  0.00     0.019 C 
ENDBRANCH   1   7
TORSDOF 1
ENDMDL
