MODEL 1
REMARK minimizedAffinity -1.10449708
REMARK minimizedRMSD -1
REMARK  1 active torsions:
REMARK  status: ('A' for Active; 'I' for Inactive)
REMARK    1  A    between atoms: C1_2  and  C2_3 
ROOT
ATOM      1  C2  UNL d   1      -4.766   3.109  -4.507  0.00  0.00    -0.077 A 
ATOM      2  C3  UNL d   1      -4.762   3.940  -5.636  0.00  0.00     0.002 A 
ATOM      3  C4  UNL d   1      -3.604   4.630  -6.000  0.00  0.00     0.002 A 
ATOM      4  C5  UNL d   1      -2.442   4.493  -5.244  0.00  0.00    -0.004 A 
ATOM      5  C6  UNL d   1      -2.437   3.670  -4.118  0.00  0.00     0.002 A 
ATOM      6  C7  UNL d   1      -3.594   2.980  -3.752  0.00  0.00     0.002 A 
ENDROOT
BRANCH   1   7
ATOM      7  C1  UNL d   1      -6.000   2.325  -4.141  0.00  0.00     0.055 C 
ATOM      8  C   UNL d   1      -5.992   0.947  -4.786  0.00  0.00     0.019 C 
ENDBRANCH   1   7
TORSDOF 1
ENDMDL
