MODEL 1
REMARK minimizedAffinity -0.632083416
REMARK minimizedRMSD -1
REMARK  1 active torsions:
REMARK  status: ('A' for Active; 'I' for Inactive)
REMARK    1  A    between atoms: C1_2  and  C2_3 
ROOT
ATOM      1  C2  UNL d   1      -3.286   3.781  -4.973  0.00  0.00    -0.077 A 
ATOM      2  C3  UNL d   1      -4.135   4.217  -6.000  0.00  0.00     0.002 A 
ATOM      3  C4  UNL d   1      -5.485   3.863  -5.999  0.00  0.00     0.002 A 
ATOM      4  C5  UNL d   1      -6.000   3.075  -4.972  0.00  0.00    -0.004 A 
ATOM      5  C6  UNL d   1      -5.164   2.635  -3.947  0.00  0.00     0.002 A 
ATOM      6  C7  UNL d   1      -3.814   2.986  -3.946  0.00  0.00     0.002 A 
ENDROOT
BRANCH   1   7
ATOM      7  C1  UNL d   1      -1.840   4.202  -4.945  0.00  0.00     0.055 C 
ATOM      8  C   UNL d   1      -1.561   5.289  -5.973  0.00  0.00     0.019 C 
ENDBRANCH   1   7
TORSDOF 1
ENDMDL
