MODEL 1
REMARK minimizedAffinity 6.64585638
REMARK minimizedRMSD -1
REMARK  1 active torsions:
REMARK  status: ('A' for Active; 'I' for Inactive)
REMARK    1  A    between atoms: C1_2  and  C2_3 
ROOT
ATOM      1  C2  UNL d   1       4.087   2.710   2.939  0.00  0.00    -0.076 A 
ATOM      2  C3  UNL d   1       4.022   2.708   1.534  0.00  0.00     0.004 A 
ATOM      3  C4  UNL d   1       4.023   3.902   0.815  0.00  0.00    -0.003 A 
ATOM      4  C5  UNL d   1       4.090   5.117   1.488  0.00  0.00     0.000 A 
ATOM      5  C6  UNL d   1       4.173   5.137   2.880  0.00  0.00     0.000 A 
ATOM      6  C7  UNL d   1       4.190   3.942   3.620  0.00  0.00    -0.073 A 
ATOM      7  C8  UNL d   1       4.274   4.022   5.119  0.00  0.00     0.078 C 
ENDROOT
BRANCH   1   8
ATOM      8  C1  UNL d   1       4.055   1.385   3.667  0.00  0.00     0.053 C 
ATOM      9  C   UNL d   1       2.701   0.699   3.569  0.00  0.00     0.018 C 
ENDBRANCH   1   8
TORSDOF 1
ENDMDL
