MODEL 1
REMARK minimizedAffinity 13.3185434
REMARK minimizedRMSD -1
REMARK  1 active torsions:
REMARK  status: ('A' for Active; 'I' for Inactive)
REMARK    1  A    between atoms: C1_2  and  C2_3 
ROOT
ATOM      1  C2  UNL d   1      -0.860  -0.243   2.302  0.00  0.00    -0.076 A 
ATOM      2  C3  UNL d   1      -0.064  -1.402   2.314  0.00  0.00     0.004 A 
ATOM      3  C4  UNL d   1       1.271  -1.352   2.712  0.00  0.00    -0.003 A 
ATOM      4  C5  UNL d   1       1.832  -0.141   3.105  0.00  0.00     0.000 A 
ATOM      5  C6  UNL d   1       1.052   1.015   3.115  0.00  0.00     0.000 A 
ATOM      6  C7  UNL d   1      -0.299   0.978   2.733  0.00  0.00    -0.073 A 
ATOM      7  C8  UNL d   1      -1.091   2.257   2.757  0.00  0.00     0.078 C 
ENDROOT
BRANCH   1   8
ATOM      8  C1  UNL d   1      -2.293  -0.354   1.834  0.00  0.00     0.053 C 
ATOM      9  C   UNL d   1      -2.592  -1.696   1.184  0.00  0.00     0.018 C 
ENDBRANCH   1   8
TORSDOF 1
ENDMDL
