MODEL 1
REMARK minimizedAffinity 12.5946999
REMARK minimizedRMSD -1
REMARK  0 active torsions:
REMARK  status: ('A' for Active; 'I' for Inactive)
ROOT
ATOM      1  C   UNL d   1       0.194   2.876  -0.358  0.00  0.00    -0.002 A 
ATOM      2  C1  UNL d   1       0.994   1.783  -0.055  0.00  0.00     0.010 A 
ATOM      3  C2  UNL d   1       0.436   0.624   0.490  0.00  0.00     0.041 A 
ATOM      4  C3  UNL d   1      -0.953   0.582   0.725  0.00  0.00    -0.075 A 
ATOM      5  S   UNL d   1      -1.856  -0.730   1.384  0.00  0.00     0.015 SA
ATOM      6  C4  UNL d   1      -3.324   0.129   1.278  0.00  0.00     0.022 A 
ATOM      7  C5  UNL d   1      -3.148   1.388   0.755  0.00  0.00     0.026 A 
ATOM      8  C6  UNL d   1      -1.778   1.670   0.427  0.00  0.00    -0.082 A 
ATOM      9  C7  UNL d   1      -1.182   2.830  -0.123  0.00  0.00     0.045 A 
ENDROOT
TORSDOF 0
ENDMDL
