MODEL 1
REMARK minimizedAffinity 15.071352
REMARK minimizedRMSD -1
REMARK  0 active torsions:
REMARK  status: ('A' for Active; 'I' for Inactive)
ROOT
ATOM      1  C   UNL d   1       1.249   1.859   0.899  0.00  0.00    -0.002 A 
ATOM      2  C1  UNL d   1       2.191   2.395   1.766  0.00  0.00     0.010 A 
ATOM      3  C2  UNL d   1       1.791   3.041   2.937  0.00  0.00     0.041 A 
ATOM      4  C3  UNL d   1       0.415   3.139   3.226  0.00  0.00    -0.075 A 
ATOM      5  S   UNL d   1      -0.307   3.885   4.602  0.00  0.00     0.015 SA
ATOM      6  C4  UNL d   1      -1.883   3.509   4.072  0.00  0.00     0.022 A 
ATOM      7  C5  UNL d   1      -1.876   2.832   2.876  0.00  0.00     0.026 A 
ATOM      8  C6  UNL d   1      -0.552   2.607   2.369  0.00  0.00    -0.082 A 
ATOM      9  C7  UNL d   1      -0.114   1.958   1.189  0.00  0.00     0.045 A 
ENDROOT
TORSDOF 0
ENDMDL
