MODEL 1
REMARK minimizedAffinity 11.0237722
REMARK minimizedRMSD -1
REMARK  0 active torsions:
REMARK  status: ('A' for Active; 'I' for Inactive)
ROOT
ATOM      1  C   UNL d   1      -0.704   1.343  -6.000  0.00  0.00    -0.002 A 
ATOM      2  C1  UNL d   1       0.198   2.397  -5.999  0.00  0.00     0.010 A 
ATOM      3  C2  UNL d   1      -0.253   3.718  -5.999  0.00  0.00     0.041 A 
ATOM      4  C3  UNL d   1      -1.640   3.965  -5.998  0.00  0.00    -0.075 A 
ATOM      5  S   UNL d   1      -2.423   5.501  -5.997  0.00  0.00     0.015 SA
ATOM      6  C4  UNL d   1      -3.974   4.794  -5.997  0.00  0.00     0.022 A 
ATOM      7  C5  UNL d   1      -3.915   3.420  -5.998  0.00  0.00     0.026 A 
ATOM      8  C6  UNL d   1      -2.569   2.920  -5.998  0.00  0.00    -0.082 A 
ATOM      9  C7  UNL d   1      -2.079   1.591  -5.999  0.00  0.00     0.045 A 
ENDROOT
TORSDOF 0
ENDMDL
