MODEL 1
REMARK minimizedAffinity 5.89006948
REMARK minimizedRMSD -1
REMARK  0 active torsions:
REMARK  status: ('A' for Active; 'I' for Inactive)
ROOT
ATOM      1  C   UNL d   1      -1.727   2.835  -5.943  0.00  0.00    -0.002 A 
ATOM      2  C1  UNL d   1      -2.731   1.877  -5.967  0.00  0.00     0.010 A 
ATOM      3  C2  UNL d   1      -4.075   2.257  -5.970  0.00  0.00     0.041 A 
ATOM      4  C3  UNL d   1      -4.395   3.629  -5.951  0.00  0.00    -0.075 A 
ATOM      5  S   UNL d   1      -5.971   4.329  -5.952  0.00  0.00     0.015 SA
ATOM      6  C4  UNL d   1      -5.348   5.915  -5.923  0.00  0.00     0.022 A 
ATOM      7  C5  UNL d   1      -3.973   5.929  -5.912  0.00  0.00     0.026 A 
ATOM      8  C6  UNL d   1      -3.401   4.612  -5.928  0.00  0.00    -0.082 A 
ATOM      9  C7  UNL d   1      -2.048   4.194  -5.925  0.00  0.00     0.045 A 
ENDROOT
TORSDOF 0
ENDMDL
