MODEL 1
REMARK minimizedAffinity 1.16827106
REMARK minimizedRMSD -1
REMARK  0 active torsions:
REMARK  status: ('A' for Active; 'I' for Inactive)
ROOT
ATOM      1  C   UNL d   1      -5.664   4.666  -5.988  0.00  0.00    -0.002 A 
ATOM      2  C1  UNL d   1      -4.917   5.835  -5.984  0.00  0.00     0.010 A 
ATOM      3  C2  UNL d   1      -3.521   5.786  -5.985  0.00  0.00     0.041 A 
ATOM      4  C3  UNL d   1      -2.883   4.529  -5.990  0.00  0.00    -0.075 A 
ATOM      5  S   UNL d   1      -1.186   4.225  -5.993  0.00  0.00     0.015 SA
ATOM      6  C4  UNL d   1      -1.414   2.536  -5.999  0.00  0.00     0.022 A 
ATOM      7  C5  UNL d   1      -2.746   2.195  -6.000  0.00  0.00     0.026 A 
ATOM      8  C6  UNL d   1      -3.615   3.338  -5.995  0.00  0.00    -0.082 A 
ATOM      9  C7  UNL d   1      -5.028   3.421  -5.994  0.00  0.00     0.045 A 
ENDROOT
TORSDOF 0
ENDMDL
