MODEL 1
REMARK minimizedAffinity 6.24668837
REMARK minimizedRMSD -1
REMARK  0 active torsions:
REMARK  status: ('A' for Active; 'I' for Inactive)
ROOT
ATOM      1  C   UNL d   1      -2.999   5.930  -3.752  0.00  0.00    -0.002 A 
ATOM      2  C1  UNL d   1      -3.945   4.933  -3.940  0.00  0.00     0.010 A 
ATOM      3  C2  UNL d   1      -3.605   3.745  -4.591  0.00  0.00     0.041 A 
ATOM      4  C3  UNL d   1      -2.285   3.575  -5.053  0.00  0.00    -0.075 A 
ATOM      5  S   UNL d   1      -1.641   2.204  -5.877  0.00  0.00     0.015 SA
ATOM      6  C4  UNL d   1      -0.095   2.910  -5.998  0.00  0.00     0.022 A 
ATOM      7  C5  UNL d   1      -0.053   4.161  -5.429  0.00  0.00     0.026 A 
ATOM      8  C6  UNL d   1      -1.315   4.564  -4.875  0.00  0.00    -0.082 A 
ATOM      9  C7  UNL d   1      -1.690   5.757  -4.212  0.00  0.00     0.045 A 
ENDROOT
TORSDOF 0
ENDMDL
