MODEL 1
REMARK minimizedAffinity 11.5572195
REMARK minimizedRMSD -1
REMARK  0 active torsions:
REMARK  status: ('A' for Active; 'I' for Inactive)
ROOT
ATOM      1  C   UNL d   1      -4.794  -4.805   0.326  0.00  0.00    -0.002 A 
ATOM      2  C1  UNL d   1      -4.211  -5.999  -0.074  0.00  0.00     0.010 A 
ATOM      3  C2  UNL d   1      -3.016  -6.000  -0.796  0.00  0.00     0.041 A 
ATOM      4  C3  UNL d   1      -2.409  -4.768  -1.110  0.00  0.00    -0.075 A 
ATOM      5  S   UNL d   1      -0.943  -4.524  -1.983  0.00  0.00     0.015 SA
ATOM      6  C4  UNL d   1      -1.055  -2.829  -1.845  0.00  0.00     0.022 A 
ATOM      7  C5  UNL d   1      -2.177  -2.441  -1.153  0.00  0.00     0.026 A 
ATOM      8  C6  UNL d   1      -2.976  -3.552  -0.717  0.00  0.00    -0.082 A 
ATOM      9  C7  UNL d   1      -4.189  -3.585   0.013  0.00  0.00     0.045 A 
ENDROOT
TORSDOF 0
ENDMDL
