MODEL 1
REMARK minimizedAffinity 15.8909731
REMARK minimizedRMSD -1
REMARK  0 active torsions:
REMARK  status: ('A' for Active; 'I' for Inactive)
ROOT
ATOM      1  C   UNL d   1      -0.077   1.955   0.430  0.00  0.00    -0.002 A 
ATOM      2  C1  UNL d   1      -0.636   0.698   0.615  0.00  0.00     0.010 A 
ATOM      3  C2  UNL d   1      -0.060  -0.429   0.025  0.00  0.00     0.041 A 
ATOM      4  C3  UNL d   1       1.100  -0.271  -0.759  0.00  0.00    -0.075 A 
ATOM      5  S   UNL d   1       1.979  -1.508  -1.577  0.00  0.00     0.015 SA
ATOM      6  C4  UNL d   1       3.117  -0.398  -2.190  0.00  0.00     0.022 A 
ATOM      7  C5  UNL d   1       2.848   0.890  -1.791  0.00  0.00     0.026 A 
ATOM      8  C6  UNL d   1       1.682   0.984  -0.959  0.00  0.00    -0.082 A 
ATOM      9  C7  UNL d   1       1.073   2.108  -0.349  0.00  0.00     0.045 A 
ENDROOT
TORSDOF 0
ENDMDL
