MODEL 1
REMARK minimizedAffinity 17.498991
REMARK minimizedRMSD -1
REMARK  0 active torsions:
REMARK  status: ('A' for Active; 'I' for Inactive)
ROOT
ATOM      1  C   UNL d   1       3.046   3.691  -5.882  0.00  0.00    -0.002 A 
ATOM      2  C1  UNL d   1       2.475   4.956  -5.892  0.00  0.00     0.010 A 
ATOM      3  C2  UNL d   1       1.087   5.108  -5.925  0.00  0.00     0.041 A 
ATOM      4  C3  UNL d   1       0.276   3.956  -5.946  0.00  0.00    -0.075 A 
ATOM      5  S   UNL d   1      -1.447   3.899  -5.986  0.00  0.00     0.015 SA
ATOM      6  C4  UNL d   1      -1.465   2.195  -5.991  0.00  0.00     0.022 A 
ATOM      7  C5  UNL d   1      -0.196   1.666  -5.963  0.00  0.00     0.026 A 
ATOM      8  C6  UNL d   1       0.828   2.672  -5.936  0.00  0.00    -0.082 A 
ATOM      9  C7  UNL d   1       2.238   2.552  -5.904  0.00  0.00     0.045 A 
ENDROOT
TORSDOF 0
ENDMDL
