MODEL 1
REMARK minimizedAffinity 5.29140615
REMARK minimizedRMSD -1
REMARK  0 active torsions:
REMARK  status: ('A' for Active; 'I' for Inactive)
ROOT
ATOM      1  C   UNL d   1      -2.020   3.812  -5.994  0.00  0.00    -0.002 A 
ATOM      2  C1  UNL d   1      -1.728   2.456  -5.997  0.00  0.00     0.010 A 
ATOM      3  C2  UNL d   1      -0.403   2.015  -6.000  0.00  0.00     0.041 A 
ATOM      4  C3  UNL d   1       0.633   2.970  -5.996  0.00  0.00    -0.075 A 
ATOM      5  S   UNL d   1       2.330   2.662  -5.998  0.00  0.00     0.015 SA
ATOM      6  C4  UNL d   1       2.706   4.325  -5.992  0.00  0.00     0.022 A 
ATOM      7  C5  UNL d   1       1.577   5.109  -5.990  0.00  0.00     0.026 A 
ATOM      8  C6  UNL d   1       0.364   4.341  -5.992  0.00  0.00    -0.082 A 
ATOM      9  C7  UNL d   1      -0.989   4.756  -5.990  0.00  0.00     0.045 A 
ENDROOT
TORSDOF 0
ENDMDL
