MODEL 1
REMARK minimizedAffinity 8.17266273
REMARK minimizedRMSD -1
REMARK  0 active torsions:
REMARK  status: ('A' for Active; 'I' for Inactive)
ROOT
ATOM      1  C1  DEN d   1       6.000  -0.322   0.786  0.00  0.00     0.130 A 
ATOM      2  C2  DEN d   1       5.150  -0.745  -0.324  0.00  0.00    -0.031 A 
ATOM      3  C3  DEN d   1       4.164   0.324  -0.578  0.00  0.00     0.027 A 
ATOM      4  C4  DEN d   1       3.875   2.585   0.630  0.00  0.00     0.027 A 
ATOM      5  C5  DEN d   1       4.354   3.386   1.643  0.00  0.00    -0.003 A 
ATOM      6  C6  DEN d   1       5.384   2.995   2.457  0.00  0.00     0.001 A 
ATOM      7  C7  DEN d   1       6.000   1.790   2.243  0.00  0.00     0.017 A 
ATOM      8  C8  DEN d   1       5.518   0.975   1.227  0.00  0.00    -0.094 A 
ATOM      9  C9  DEN d   1       4.483   1.392   0.407  0.00  0.00    -0.072 A 
ENDROOT
TORSDOF 0
ENDMDL
