MODEL 1
REMARK minimizedAffinity -2.81162214
REMARK minimizedRMSD -1
REMARK  0 active torsions:
REMARK  status: ('A' for Active; 'I' for Inactive)
ROOT
ATOM      1  C1  DEN d   1       1.432  -1.845  -0.079  0.00  0.00     0.130 A 
ATOM      2  C2  DEN d   1       2.113  -2.781   0.811  0.00  0.00    -0.031 A 
ATOM      3  C3  DEN d   1       1.496  -2.670   2.148  0.00  0.00     0.027 A 
ATOM      4  C4  DEN d   1      -0.440  -1.151   2.921  0.00  0.00     0.027 A 
ATOM      5  C5  DEN d   1      -1.329  -0.177   2.524  0.00  0.00    -0.003 A 
ATOM      6  C6  DEN d   1      -1.338   0.330   1.252  0.00  0.00     0.001 A 
ATOM      7  C7  DEN d   1      -0.469  -0.169   0.317  0.00  0.00     0.017 A 
ATOM      8  C8  DEN d   1       0.435  -1.146   0.711  0.00  0.00    -0.094 A 
ATOM      9  C9  DEN d   1       0.420  -1.654   1.999  0.00  0.00    -0.072 A 
ENDROOT
TORSDOF 0
ENDMDL
