MODEL 1
REMARK minimizedAffinity -0.0717264339
REMARK minimizedRMSD -1
REMARK  0 active torsions:
REMARK  status: ('A' for Active; 'I' for Inactive)
ROOT
ATOM      1  C1  DEN d   1       3.748  -3.753   2.338  0.00  0.00     0.130 A 
ATOM      2  C2  DEN d   1       4.079  -5.053   1.761  0.00  0.00    -0.031 A 
ATOM      3  C3  DEN d   1       4.908  -5.788   2.738  0.00  0.00     0.027 A 
ATOM      4  C4  DEN d   1       5.703  -5.045   5.076  0.00  0.00     0.027 A 
ATOM      5  C5  DEN d   1       5.683  -4.019   5.995  0.00  0.00    -0.003 A 
ATOM      6  C6  DEN d   1       5.050  -2.829   5.748  0.00  0.00     0.001 A 
ATOM      7  C7  DEN d   1       4.373  -2.653   4.570  0.00  0.00     0.017 A 
ATOM      8  C8  DEN d   1       4.395  -3.680   3.636  0.00  0.00    -0.094 A 
ATOM      9  C9  DEN d   1       5.029  -4.879   3.910  0.00  0.00    -0.072 A 
ENDROOT
TORSDOF 0
ENDMDL
