MODEL 1
REMARK minimizedAffinity -1.41438532
REMARK minimizedRMSD -1
REMARK  0 active torsions:
REMARK  status: ('A' for Active; 'I' for Inactive)
ROOT
ATOM      1  C1  DEN d   1       1.121  -1.819   1.953  0.00  0.00     0.130 A 
ATOM      2  C2  DEN d   1       1.156  -2.384   0.607  0.00  0.00    -0.031 A 
ATOM      3  C3  DEN d   1       2.466  -3.040   0.420  0.00  0.00     0.027 A 
ATOM      4  C4  DEN d   1       4.431  -3.240   2.078  0.00  0.00     0.027 A 
ATOM      5  C5  DEN d   1       4.873  -2.908   3.340  0.00  0.00    -0.003 A 
ATOM      6  C6  DEN d   1       4.116  -2.168   4.208  0.00  0.00     0.001 A 
ATOM      7  C7  DEN d   1       2.856  -1.772   3.843  0.00  0.00     0.017 A 
ATOM      8  C8  DEN d   1       2.406  -2.096   2.570  0.00  0.00    -0.094 A 
ATOM      9  C9  DEN d   1       3.182  -2.856   1.711  0.00  0.00    -0.072 A 
ENDROOT
TORSDOF 0
ENDMDL
