MODEL 1
REMARK minimizedAffinity -4.59989023
REMARK minimizedRMSD -1
REMARK  0 active torsions:
REMARK  status: ('A' for Active; 'I' for Inactive)
ROOT
ATOM      1  C1  DEN d   1       2.996   3.703  -5.999  0.00  0.00     0.130 A 
ATOM      2  C2  DEN d   1       3.859   4.870  -5.845  0.00  0.00    -0.031 A 
ATOM      3  C3  DEN d   1       5.192   4.399  -5.418  0.00  0.00     0.027 A 
ATOM      4  C4  DEN d   1       6.000   1.988  -4.988  0.00  0.00     0.027 A 
ATOM      5  C5  DEN d   1       5.623   0.663  -4.976  0.00  0.00    -0.003 A 
ATOM      6  C6  DEN d   1       4.346   0.265  -5.269  0.00  0.00     0.001 A 
ATOM      7  C7  DEN d   1       3.410   1.197  -5.631  0.00  0.00     0.017 A 
ATOM      8  C8  DEN d   1       3.780   2.536  -5.638  0.00  0.00    -0.094 A 
ATOM      9  C9  DEN d   1       5.080   2.917  -5.350  0.00  0.00    -0.072 A 
ENDROOT
TORSDOF 0
ENDMDL
