MODEL 1
REMARK minimizedAffinity 1.04820108
REMARK minimizedRMSD -1
REMARK  0 active torsions:
REMARK  status: ('A' for Active; 'I' for Inactive)
ROOT
ATOM      1  C1  DEN d   1      -4.719   1.532  -5.854  0.00  0.00     0.130 A 
ATOM      2  C2  DEN d   1      -5.880   1.459  -4.971  0.00  0.00    -0.031 A 
ATOM      3  C3  DEN d   1      -5.660   0.354  -4.017  0.00  0.00     0.027 A 
ATOM      4  C4  DEN d   1      -3.642  -1.240  -3.819  0.00  0.00     0.027 A 
ATOM      5  C5  DEN d   1      -2.418  -1.574  -4.355  0.00  0.00    -0.003 A 
ATOM      6  C6  DEN d   1      -1.894  -0.923  -5.441  0.00  0.00     0.001 A 
ATOM      7  C7  DEN d   1      -2.578   0.126  -5.998  0.00  0.00     0.017 A 
ATOM      8  C8  DEN d   1      -3.816   0.463  -5.467  0.00  0.00    -0.094 A 
ATOM      9  C9  DEN d   1      -4.322  -0.199  -4.362  0.00  0.00    -0.072 A 
ENDROOT
TORSDOF 0
ENDMDL
