MODEL 1
REMARK minimizedAffinity 10.7663412
REMARK minimizedRMSD -1
REMARK  0 active torsions:
REMARK  status: ('A' for Active; 'I' for Inactive)
ROOT
ATOM      1  C1  DEN d   1       1.302  -4.363   1.086  0.00  0.00     0.130 A 
ATOM      2  C2  DEN d   1       2.531  -3.779   0.556  0.00  0.00    -0.031 A 
ATOM      3  C3  DEN d   1       2.570  -2.358   0.955  0.00  0.00     0.027 A 
ATOM      4  C4  DEN d   1       0.858  -1.014   2.339  0.00  0.00     0.027 A 
ATOM      5  C5  DEN d   1      -0.350  -1.077   2.999  0.00  0.00    -0.003 A 
ATOM      6  C6  DEN d   1      -1.101  -2.221   3.037  0.00  0.00     0.001 A 
ATOM      7  C7  DEN d   1      -0.631  -3.363   2.443  0.00  0.00     0.017 A 
ATOM      8  C8  DEN d   1       0.582  -3.305   1.770  0.00  0.00    -0.094 A 
ATOM      9  C9  DEN d   1       1.333  -2.142   1.753  0.00  0.00    -0.072 A 
ENDROOT
TORSDOF 0
ENDMDL
