MODEL 1
REMARK minimizedAffinity -4.5083828
REMARK minimizedRMSD -1
REMARK  3 active torsions:
REMARK  status: ('A' for Active; 'I' for Inactive)
REMARK    1  A    between atoms: C3'_2  and  C2'_3 
REMARK    2  A    between atoms: C2'_3  and  C1'_4 
REMARK    3  A    between atoms: C1'_4  and  C1_5 
ROOT
ATOM      1  C1  N4B d   1      -0.426  -0.313   0.352  0.00  0.00    -0.075 A 
ATOM      2  C2  N4B d   1      -0.230  -1.682   0.639  0.00  0.00     0.002 A 
ATOM      3  C3  N4B d   1       0.426  -2.485  -0.262  0.00  0.00     0.002 A 
ATOM      4  C4  N4B d   1       0.874  -1.948  -1.460  0.00  0.00    -0.004 A 
ATOM      5  C5  N4B d   1       0.703  -0.620  -1.718  0.00  0.00     0.002 A 
ATOM      6  C6  N4B d   1       0.050   0.200  -0.820  0.00  0.00     0.002 A 
ENDROOT
BRANCH   1   7
ATOM      7  C1' N4B d   1      -1.212   0.585   1.267  0.00  0.00     0.057 C 
BRANCH   7   8
ATOM      8  C2' N4B d   1      -2.390  -0.194   1.844  0.00  0.00     0.009 C 
BRANCH   8   9
ATOM      9  C3' N4B d   1      -3.684   0.599   1.776  0.00  0.00     0.004 C 
ATOM     10  C4' N4B d   1      -4.807  -0.175   1.152  0.00  0.00     0.003 C 
ENDBRANCH   8   9
ENDBRANCH   7   8
ENDBRANCH   1   7
TORSDOF 3
ENDMDL
