MODEL 1
REMARK minimizedAffinity -0.686267853
REMARK minimizedRMSD -1
REMARK  3 active torsions:
REMARK  status: ('A' for Active; 'I' for Inactive)
REMARK    1  A    between atoms: C3'_2  and  C2'_3 
REMARK    2  A    between atoms: C2'_3  and  C1'_4 
REMARK    3  A    between atoms: C1'_4  and  C1_5 
ROOT
ATOM      1  C1  N4B d   1       0.313   0.151  -0.178  0.00  0.00    -0.075 A 
ATOM      2  C2  N4B d   1      -0.105  -0.816  -1.118  0.00  0.00     0.002 A 
ATOM      3  C3  N4B d   1       0.598  -0.986  -2.286  0.00  0.00     0.002 A 
ATOM      4  C4  N4B d   1       1.705  -0.192  -2.543  0.00  0.00    -0.004 A 
ATOM      5  C5  N4B d   1       2.117   0.723  -1.618  0.00  0.00     0.002 A 
ATOM      6  C6  N4B d   1       1.423   0.902  -0.438  0.00  0.00     0.002 A 
ENDROOT
BRANCH   1   7
ATOM      7  C1' N4B d   1      -0.472   0.432   1.074  0.00  0.00     0.057 C 
BRANCH   7   8
ATOM      8  C2' N4B d   1      -1.931   0.047   0.847  0.00  0.00     0.009 C 
BRANCH   8   9
ATOM      9  C3' N4B d   1      -2.883   0.965   1.594  0.00  0.00     0.004 C 
ATOM     10  C4' N4B d   1      -4.268   0.400   1.704  0.00  0.00     0.003 C 
ENDBRANCH   8   9
ENDBRANCH   7   8
ENDBRANCH   1   7
TORSDOF 3
ENDMDL
