MODEL 1
REMARK minimizedAffinity -3.69560122
REMARK minimizedRMSD -1
REMARK  3 active torsions:
REMARK  status: ('A' for Active; 'I' for Inactive)
REMARK    1  A    between atoms: C3'_2  and  C2'_3 
REMARK    2  A    between atoms: C2'_3  and  C1'_4 
REMARK    3  A    between atoms: C1'_4  and  C1_5 
ROOT
ATOM      1  C1  N4B d   1       1.107   1.175   1.948  0.00  0.00    -0.075 A 
ATOM      2  C2  N4B d   1       1.931   2.272   1.611  0.00  0.00     0.002 A 
ATOM      3  C3  N4B d   1       2.573   2.977   2.600  0.00  0.00     0.002 A 
ATOM      4  C4  N4B d   1       2.393   2.616   3.927  0.00  0.00    -0.004 A 
ATOM      5  C5  N4B d   1       1.617   1.540   4.241  0.00  0.00     0.002 A 
ATOM      6  C6  N4B d   1       0.968   0.820   3.258  0.00  0.00     0.002 A 
ENDROOT
BRANCH   1   7
ATOM      7  C1' N4B d   1       0.316   0.428   0.909  0.00  0.00     0.057 C 
BRANCH   7   8
ATOM      8  C2' N4B d   1       0.434   1.154  -0.428  0.00  0.00     0.009 C 
BRANCH   8   9
ATOM      9  C3' N4B d   1       1.114   0.297  -1.482  0.00  0.00     0.004 C 
ATOM     10  C4' N4B d   1       2.539   0.696  -1.723  0.00  0.00     0.003 C 
ENDBRANCH   8   9
ENDBRANCH   7   8
ENDBRANCH   1   7
TORSDOF 3
ENDMDL
