MODEL 1
REMARK minimizedAffinity 4.3230648
REMARK minimizedRMSD -1
REMARK  3 active torsions:
REMARK  status: ('A' for Active; 'I' for Inactive)
REMARK    1  A    between atoms: C3'_2  and  C2'_3 
REMARK    2  A    between atoms: C2'_3  and  C1'_4 
REMARK    3  A    between atoms: C1'_4  and  C1_5 
ROOT
ATOM      1  C1  N4B d   1       0.768   1.449   1.868  0.00  0.00    -0.075 A 
ATOM      2  C2  N4B d   1       0.291   0.723   2.981  0.00  0.00     0.002 A 
ATOM      3  C3  N4B d   1       0.975   0.763   4.171  0.00  0.00     0.002 A 
ATOM      4  C4  N4B d   1       2.143   1.504   4.267  0.00  0.00    -0.004 A 
ATOM      5  C5  N4B d   1       2.583   2.224   3.194  0.00  0.00     0.002 A 
ATOM      6  C6  N4B d   1       1.903   2.196   1.993  0.00  0.00     0.002 A 
ENDROOT
BRANCH   1   7
ATOM      7  C1' N4B d   1       0.101   1.368   0.522  0.00  0.00     0.057 C 
BRANCH   7   8
ATOM      8  C2' N4B d   1      -0.567   0.004   0.376  0.00  0.00     0.009 C 
BRANCH   8   9
ATOM      9  C3' N4B d   1       0.114  -0.853  -0.678  0.00  0.00     0.004 C 
ATOM     10  C4' N4B d   1       0.074  -2.316  -0.353  0.00  0.00     0.003 C 
ENDBRANCH   8   9
ENDBRANCH   7   8
ENDBRANCH   1   7
TORSDOF 3
ENDMDL
