MODEL 1
REMARK minimizedAffinity -4.47892475
REMARK minimizedRMSD -1
REMARK  3 active torsions:
REMARK  status: ('A' for Active; 'I' for Inactive)
REMARK    1  A    between atoms: C3'_2  and  C2'_3 
REMARK    2  A    between atoms: C2'_3  and  C1'_4 
REMARK    3  A    between atoms: C1'_4  and  C1_5 
ROOT
ATOM      1  C1  N4B d   1      -0.622   0.123  -0.626  0.00  0.00    -0.075 A 
ATOM      2  C2  N4B d   1      -0.233  -0.329  -1.907  0.00  0.00     0.002 A 
ATOM      3  C3  N4B d   1       1.070  -0.187  -2.318  0.00  0.00     0.002 A 
ATOM      4  C4  N4B d   1       1.992   0.418  -1.478  0.00  0.00    -0.004 A 
ATOM      5  C5  N4B d   1       1.615   0.829  -0.233  0.00  0.00     0.002 A 
ATOM      6  C6  N4B d   1       0.310   0.688   0.195  0.00  0.00     0.002 A 
ENDROOT
BRANCH   1   7
ATOM      7  C1' N4B d   1      -2.052   0.067  -0.165  0.00  0.00     0.057 C 
BRANCH   7   8
ATOM      8  C2' N4B d   1      -2.088  -0.315   1.312  0.00  0.00     0.009 C 
BRANCH   8   9
ATOM      9  C3' N4B d   1      -3.508  -0.383   1.847  0.00  0.00     0.004 C 
ATOM     10  C4' N4B d   1      -4.278   0.882   1.613  0.00  0.00     0.003 C 
ENDBRANCH   8   9
ENDBRANCH   7   8
ENDBRANCH   1   7
TORSDOF 3
ENDMDL
