MODEL 1
REMARK minimizedAffinity -5.48913431
REMARK minimizedRMSD -1
REMARK  3 active torsions:
REMARK  status: ('A' for Active; 'I' for Inactive)
REMARK    1  A    between atoms: C3'_2  and  C2'_3 
REMARK    2  A    between atoms: C2'_3  and  C1'_4 
REMARK    3  A    between atoms: C1'_4  and  C1_5 
ROOT
ATOM      1  C1  N4B d   1      -0.028   0.211   0.192  0.00  0.00    -0.075 A 
ATOM      2  C2  N4B d   1       0.060  -0.961  -0.590  0.00  0.00     0.002 A 
ATOM      3  C3  N4B d   1       0.912  -1.006  -1.666  0.00  0.00     0.002 A 
ATOM      4  C4  N4B d   1       1.669   0.110  -1.989  0.00  0.00    -0.004 A 
ATOM      5  C5  N4B d   1       1.598   1.229  -1.212  0.00  0.00     0.002 A 
ATOM      6  C6  N4B d   1       0.748   1.287  -0.126  0.00  0.00     0.002 A 
ENDROOT
BRANCH   1   7
ATOM      7  C1' N4B d   1      -1.008   0.337   1.326  0.00  0.00     0.057 C 
BRANCH   7   8
ATOM      8  C2' N4B d   1      -2.227  -0.534   1.034  0.00  0.00     0.009 C 
BRANCH   8   9
ATOM      9  C3' N4B d   1      -3.451  -0.075   1.807  0.00  0.00     0.004 C 
ATOM     10  C4' N4B d   1      -3.811   1.354   1.530  0.00  0.00     0.003 C 
ENDBRANCH   8   9
ENDBRANCH   7   8
ENDBRANCH   1   7
TORSDOF 3
ENDMDL
