MODEL 1
REMARK minimizedAffinity -2.19586802
REMARK minimizedRMSD -1
REMARK  3 active torsions:
REMARK  status: ('A' for Active; 'I' for Inactive)
REMARK    1  A    between atoms: C3'_2  and  C2'_3 
REMARK    2  A    between atoms: C2'_3  and  C1'_4 
REMARK    3  A    between atoms: C1'_4  and  C1_5 
ROOT
ATOM      1  C1  N4B d   1      -2.239  -0.049   1.414  0.00  0.00    -0.075 A 
ATOM      2  C2  N4B d   1      -2.984  -1.237   1.585  0.00  0.00     0.002 A 
ATOM      3  C3  N4B d   1      -4.353  -1.181   1.685  0.00  0.00     0.002 A 
ATOM      4  C4  N4B d   1      -4.994   0.048   1.637  0.00  0.00    -0.004 A 
ATOM      5  C5  N4B d   1      -4.269   1.188   1.447  0.00  0.00     0.002 A 
ATOM      6  C6  N4B d   1      -2.894   1.147   1.341  0.00  0.00     0.002 A 
ENDROOT
BRANCH   1   7
ATOM      7  C1' N4B d   1      -0.735  -0.052   1.386  0.00  0.00     0.057 C 
BRANCH   7   8
ATOM      8  C2' N4B d   1      -0.262  -0.289  -0.045  0.00  0.00     0.009 C 
BRANCH   8   9
ATOM      9  C3' N4B d   1      -0.026  -1.763  -0.328  0.00  0.00     0.004 C 
ATOM     10  C4' N4B d   1       0.051  -2.067  -1.795  0.00  0.00     0.003 C 
ENDBRANCH   8   9
ENDBRANCH   7   8
ENDBRANCH   1   7
TORSDOF 3
ENDMDL
