MODEL 1
REMARK minimizedAffinity -3.82098413
REMARK minimizedRMSD -1
REMARK  3 active torsions:
REMARK  status: ('A' for Active; 'I' for Inactive)
REMARK    1  A    between atoms: C3'_2  and  C2'_3 
REMARK    2  A    between atoms: C2'_3  and  C1'_4 
REMARK    3  A    between atoms: C1'_4  and  C1_5 
ROOT
ATOM      1  C1  N4B d   1       0.781  -0.520  -1.469  0.00  0.00    -0.075 A 
ATOM      2  C2  N4B d   1       0.258   0.329  -0.469  0.00  0.00     0.002 A 
ATOM      3  C3  N4B d   1      -0.314  -0.209   0.657  0.00  0.00     0.002 A 
ATOM      4  C4  N4B d   1      -0.391  -1.587   0.797  0.00  0.00    -0.004 A 
ATOM      5  C5  N4B d   1       0.139  -2.400  -0.162  0.00  0.00     0.002 A 
ATOM      6  C6  N4B d   1       0.721  -1.873  -1.297  0.00  0.00     0.002 A 
ENDROOT
BRANCH   1   7
ATOM      7  C1' N4B d   1       1.339   0.020  -2.758  0.00  0.00     0.057 C 
BRANCH   7   8
ATOM      8  C2' N4B d   1       2.863   0.006  -2.689  0.00  0.00     0.009 C 
BRANCH   8   9
ATOM      9  C3' N4B d   1       3.383   0.751  -1.472  0.00  0.00     0.004 C 
ATOM     10  C4' N4B d   1       4.880   0.739  -1.379  0.00  0.00     0.003 C 
ENDBRANCH   8   9
ENDBRANCH   7   8
ENDBRANCH   1   7
TORSDOF 3
ENDMDL
