MODEL 1
REMARK minimizedAffinity 0.324989259
REMARK minimizedRMSD -1
REMARK  3 active torsions:
REMARK  status: ('A' for Active; 'I' for Inactive)
REMARK    1  A    between atoms: C3'_2  and  C2'_3 
REMARK    2  A    between atoms: C2'_3  and  C1'_4 
REMARK    3  A    between atoms: C1'_4  and  C1_5 
ROOT
ATOM      1  C1  N4B d   1       0.076   0.743   1.632  0.00  0.00    -0.075 A 
ATOM      2  C2  N4B d   1       0.998   1.562   0.944  0.00  0.00     0.002 A 
ATOM      3  C3  N4B d   1       1.987   2.215   1.638  0.00  0.00     0.002 A 
ATOM      4  C4  N4B d   1       2.062   2.080   3.016  0.00  0.00    -0.004 A 
ATOM      5  C5  N4B d   1       1.183   1.267   3.670  0.00  0.00     0.002 A 
ATOM      6  C6  N4B d   1       0.186   0.601   2.985  0.00  0.00     0.002 A 
ENDROOT
BRANCH   1   7
ATOM      7  C1' N4B d   1      -1.075   0.077   0.928  0.00  0.00     0.057 C 
BRANCH   7   8
ATOM      8  C2' N4B d   1      -0.727  -1.387   0.675  0.00  0.00     0.009 C 
BRANCH   8   9
ATOM      9  C3' N4B d   1      -0.672  -1.709  -0.809  0.00  0.00     0.004 C 
ATOM     10  C4' N4B d   1       0.540  -2.507  -1.186  0.00  0.00     0.003 C 
ENDBRANCH   8   9
ENDBRANCH   7   8
ENDBRANCH   1   7
TORSDOF 3
ENDMDL
