MODEL 1
REMARK minimizedAffinity -3.14067459
REMARK minimizedRMSD -1
REMARK  3 active torsions:
REMARK  status: ('A' for Active; 'I' for Inactive)
REMARK    1  A    between atoms: C3'_2  and  C2'_3 
REMARK    2  A    between atoms: C2'_3  and  C1'_4 
REMARK    3  A    between atoms: C1'_4  and  C1_5 
ROOT
ATOM      1  C1  N4B d   1       1.307   1.010  -0.325  0.00  0.00    -0.075 A 
ATOM      2  C2  N4B d   1       2.067   0.556  -1.425  0.00  0.00     0.002 A 
ATOM      3  C3  N4B d   1       1.675  -0.564  -2.116  0.00  0.00     0.002 A 
ATOM      4  C4  N4B d   1       0.542  -1.255  -1.714  0.00  0.00    -0.004 A 
ATOM      5  C5  N4B d   1      -0.201  -0.796  -0.665  0.00  0.00     0.002 A 
ATOM      6  C6  N4B d   1       0.179   0.331   0.035  0.00  0.00     0.002 A 
ENDROOT
BRANCH   1   7
ATOM      7  C1' N4B d   1       1.744   2.180   0.513  0.00  0.00     0.057 C 
BRANCH   7   8
ATOM      8  C2' N4B d   1       2.368   1.665   1.807  0.00  0.00     0.009 C 
BRANCH   8   9
ATOM      9  C3' N4B d   1       2.102   2.597   2.976  0.00  0.00     0.004 C 
ATOM     10  C4' N4B d   1       2.928   3.848   2.921  0.00  0.00     0.003 C 
ENDBRANCH   8   9
ENDBRANCH   7   8
ENDBRANCH   1   7
TORSDOF 3
ENDMDL
