MODEL 1
REMARK minimizedAffinity -4.79038715
REMARK minimizedRMSD -1
REMARK  3 active torsions:
REMARK  status: ('A' for Active; 'I' for Inactive)
REMARK    1  A    between atoms: C3'_2  and  C2'_3 
REMARK    2  A    between atoms: C2'_3  and  C1'_4 
REMARK    3  A    between atoms: C1'_4  and  C1_5 
ROOT
ATOM      1  C1  N4B d   1       0.791   1.172   0.412  0.00  0.00    -0.075 A 
ATOM      2  C2  N4B d   1       1.023   0.932  -0.960  0.00  0.00     0.002 A 
ATOM      3  C3  N4B d   1       0.344  -0.072  -1.606  0.00  0.00     0.002 A 
ATOM      4  C4  N4B d   1      -0.554  -0.858  -0.899  0.00  0.00    -0.004 A 
ATOM      5  C5  N4B d   1      -0.791  -0.603   0.420  0.00  0.00     0.002 A 
ATOM      6  C6  N4B d   1      -0.118   0.405   1.081  0.00  0.00     0.002 A 
ENDROOT
BRANCH   1   7
ATOM      7  C1' N4B d   1       1.572   2.202   1.181  0.00  0.00     0.057 C 
BRANCH   7   8
ATOM      8  C2' N4B d   1       1.507   1.872   2.669  0.00  0.00     0.009 C 
BRANCH   8   9
ATOM      9  C3' N4B d   1       2.572   2.608   3.462  0.00  0.00     0.004 C 
ATOM     10  C4' N4B d   1       2.719   4.042   3.047  0.00  0.00     0.003 C 
ENDBRANCH   8   9
ENDBRANCH   7   8
ENDBRANCH   1   7
TORSDOF 3
ENDMDL
