MODEL 1
REMARK minimizedAffinity -2.83968091
REMARK minimizedRMSD -1
REMARK  3 active torsions:
REMARK  status: ('A' for Active; 'I' for Inactive)
REMARK    1  A    between atoms: C3'_2  and  C2'_3 
REMARK    2  A    between atoms: C2'_3  and  C1'_4 
REMARK    3  A    between atoms: C1'_4  and  C1_5 
ROOT
ATOM      1  C1  N4B d   1       0.317   0.410   1.554  0.00  0.00    -0.075 A 
ATOM      2  C2  N4B d   1       0.138   0.176   2.935  0.00  0.00     0.002 A 
ATOM      3  C3  N4B d   1       1.000   0.739   3.844  0.00  0.00     0.002 A 
ATOM      4  C4  N4B d   1       2.055   1.520   3.396  0.00  0.00    -0.004 A 
ATOM      5  C5  N4B d   1       2.206   1.761   2.062  0.00  0.00     0.002 A 
ATOM      6  C6  N4B d   1       1.345   1.205   1.137  0.00  0.00     0.002 A 
ENDROOT
BRANCH   1   7
ATOM      7  C1' N4B d   1      -0.549  -0.253   0.517  0.00  0.00     0.057 C 
BRANCH   7   8
ATOM      8  C2' N4B d   1      -0.092  -1.698   0.333  0.00  0.00     0.009 C 
BRANCH   8   9
ATOM      9  C3' N4B d   1       0.268  -2.000  -1.111  0.00  0.00     0.004 C 
ATOM     10  C4' N4B d   1       0.378  -0.764  -1.953  0.00  0.00     0.003 C 
ENDBRANCH   8   9
ENDBRANCH   7   8
ENDBRANCH   1   7
TORSDOF 3
ENDMDL
