MODEL 1
REMARK minimizedAffinity -2.84194422
REMARK minimizedRMSD -1
REMARK  0 active torsions:
REMARK  status: ('A' for Active; 'I' for Inactive)
ROOT
ATOM      1  C4' PXY d   1      -0.425  -1.057  -1.704  0.00  0.00     0.077 C 
ATOM      2  C1' PXY d   1      -0.450   2.045   3.174  0.00  0.00     0.077 C 
ATOM      3  C1  PXY d   1      -0.432   1.237   1.891  0.00  0.00    -0.082 A 
ATOM      4  C2  PXY d   1      -1.569   0.793   1.382  0.00  0.00     0.003 A 
ATOM      5  C3  PXY d   1      -1.568   0.033   0.240  0.00  0.00     0.003 A 
ATOM      6  C4  PXY d   1      -0.396  -0.229  -0.416  0.00  0.00    -0.082 A 
ATOM      7  C5  PXY d   1       0.768   0.229   0.091  0.00  0.00     0.003 A 
ATOM      8  C6  PXY d   1       0.749   0.963   1.274  0.00  0.00     0.003 A 
ENDROOT
TORSDOF 0
ENDMDL
