MODEL 1
REMARK minimizedAffinity -4.75055313
REMARK minimizedRMSD -1
REMARK  0 active torsions:
REMARK  status: ('A' for Active; 'I' for Inactive)
ROOT
ATOM      1  C4' PXY d   1       0.128  -0.862  -1.381  0.00  0.00     0.077 C 
ATOM      2  C1' PXY d   1      -0.266   1.027   4.068  0.00  0.00     0.077 C 
ATOM      3  C1  PXY d   1      -0.150   0.532   2.640  0.00  0.00    -0.082 A 
ATOM      4  C2  PXY d   1      -1.139   0.751   1.789  0.00  0.00     0.003 A 
ATOM      5  C3  PXY d   1      -1.064   0.282   0.502  0.00  0.00     0.003 A 
ATOM      6  C4  PXY d   1       0.058  -0.372   0.068  0.00  0.00    -0.082 A 
ATOM      7  C5  PXY d   1       1.076  -0.590   0.927  0.00  0.00     0.003 A 
ATOM      8  C6  PXY d   1       0.962  -0.142   2.240  0.00  0.00     0.003 A 
ENDROOT
TORSDOF 0
ENDMDL
