MODEL 1
REMARK minimizedAffinity -5.00926971
REMARK minimizedRMSD -1
REMARK  0 active torsions:
REMARK  status: ('A' for Active; 'I' for Inactive)
ROOT
ATOM      1  C4' PXY d   1       2.159   0.707  -3.055  0.00  0.00     0.077 C 
ATOM      2  C1' PXY d   1      -2.399  -1.356  -5.949  0.00  0.00     0.077 C 
ATOM      3  C1  PXY d   1      -1.199  -0.810  -5.201  0.00  0.00    -0.082 A 
ATOM      4  C2  PXY d   1      -0.819  -1.379  -4.069  0.00  0.00     0.003 A 
ATOM      5  C3  PXY d   1       0.244  -0.879  -3.363  0.00  0.00     0.003 A 
ATOM      6  C4  PXY d   1       0.959   0.183  -3.849  0.00  0.00    -0.082 A 
ATOM      7  C5  PXY d   1       0.585   0.763  -5.009  0.00  0.00     0.003 A 
ATOM      8  C6  PXY d   1      -0.523   0.265  -5.689  0.00  0.00     0.003 A 
ENDROOT
TORSDOF 0
ENDMDL
