MODEL 1
REMARK minimizedAffinity -3.13832211
REMARK minimizedRMSD -1
REMARK  0 active torsions:
REMARK  status: ('A' for Active; 'I' for Inactive)
ROOT
ATOM      1  C4' PXY d   1       0.957  -0.733  -2.379  0.00  0.00     0.077 C 
ATOM      2  C1' PXY d   1      -1.355   0.883   2.666  0.00  0.00     0.077 C 
ATOM      3  C1  PXY d   1      -0.737   0.460   1.348  0.00  0.00    -0.082 A 
ATOM      4  C2  PXY d   1      -1.417   0.623   0.225  0.00  0.00     0.003 A 
ATOM      5  C3  PXY d   1      -0.885   0.217  -0.972  0.00  0.00     0.003 A 
ATOM      6  C4  PXY d   1       0.376  -0.312  -1.027  0.00  0.00    -0.082 A 
ATOM      7  C5  PXY d   1       1.080  -0.472   0.114  0.00  0.00     0.003 A 
ATOM      8  C6  PXY d   1       0.507  -0.091   1.324  0.00  0.00     0.003 A 
ENDROOT
TORSDOF 0
ENDMDL
