MODEL 1
REMARK minimizedAffinity -5.27338505
REMARK minimizedRMSD -1
REMARK  0 active torsions:
REMARK  status: ('A' for Active; 'I' for Inactive)
ROOT
ATOM      1  C4' PXY d   1       0.055  -0.545  -1.196  0.00  0.00     0.077 C 
ATOM      2  C1' PXY d   1       0.044   1.397   4.249  0.00  0.00     0.077 C 
ATOM      3  C1  PXY d   1       0.034   0.887   2.821  0.00  0.00    -0.082 A 
ATOM      4  C2  PXY d   1       1.111   0.298   2.329  0.00  0.00     0.003 A 
ATOM      5  C3  PXY d   1       1.131  -0.141   1.030  0.00  0.00     0.003 A 
ATOM      6  C4  PXY d   1       0.017  -0.023   0.243  0.00  0.00    -0.082 A 
ATOM      7  C5  PXY d   1      -1.091   0.568   0.741  0.00  0.00     0.003 A 
ATOM      8  C6  PXY d   1      -1.076   1.043   2.049  0.00  0.00     0.003 A 
ENDROOT
TORSDOF 0
ENDMDL
