MODEL 1
REMARK minimizedAffinity -1.9683007
REMARK minimizedRMSD -1
REMARK  0 active torsions:
REMARK  status: ('A' for Active; 'I' for Inactive)
ROOT
ATOM      1  C4' PXY d   1       1.994  -1.581   0.079  0.00  0.00     0.077 C 
ATOM      2  C1' PXY d   1      -1.046   0.632  -4.312  0.00  0.00     0.077 C 
ATOM      3  C1  PXY d   1      -0.253   0.061  -3.152  0.00  0.00    -0.082 A 
ATOM      4  C2  PXY d   1       0.794  -0.712  -3.393  0.00  0.00     0.003 A 
ATOM      5  C3  PXY d   1       1.503  -1.262  -2.357  0.00  0.00     0.003 A 
ATOM      6  C4  PXY d   1       1.169  -0.976  -1.060  0.00  0.00    -0.082 A 
ATOM      7  C5  PXY d   1       0.109  -0.179  -0.806  0.00  0.00     0.003 A 
ATOM      8  C6  PXY d   1      -0.622   0.336  -1.872  0.00  0.00     0.003 A 
ENDROOT
TORSDOF 0
ENDMDL
