MODEL 1
REMARK minimizedAffinity -1.28138804
REMARK minimizedRMSD -1
REMARK  0 active torsions:
REMARK  status: ('A' for Active; 'I' for Inactive)
ROOT
ATOM      1  C4' PXY d   1       0.232  -0.489  -1.688  0.00  0.00     0.077 C 
ATOM      2  C1' PXY d   1      -0.933   1.255   3.699  0.00  0.00     0.077 C 
ATOM      3  C1  PXY d   1      -0.637   0.788   2.287  0.00  0.00    -0.082 A 
ATOM      4  C2  PXY d   1       0.533   1.071   1.737  0.00  0.00     0.003 A 
ATOM      5  C3  PXY d   1       0.806   0.684   0.450  0.00  0.00     0.003 A 
ATOM      6  C4  PXY d   1      -0.108  -0.046  -0.262  0.00  0.00    -0.082 A 
ATOM      7  C5  PXY d   1      -1.299  -0.348   0.296  0.00  0.00     0.003 A 
ATOM      8  C6  PXY d   1      -1.573   0.090   1.589  0.00  0.00     0.003 A 
ENDROOT
TORSDOF 0
ENDMDL
