MODEL 1
REMARK minimizedAffinity -1.63671684
REMARK minimizedRMSD -1
REMARK  0 active torsions:
REMARK  status: ('A' for Active; 'I' for Inactive)
ROOT
ATOM      1  C4' PXY d   1       1.055   0.080  -1.650  0.00  0.00     0.077 C 
ATOM      2  C1' PXY d   1      -0.795   1.608   3.609  0.00  0.00     0.077 C 
ATOM      3  C1  PXY d   1      -0.313   1.195   2.232  0.00  0.00    -0.082 A 
ATOM      4  C2  PXY d   1       0.581   1.939   1.602  0.00  0.00     0.003 A 
ATOM      5  C3  PXY d   1       1.004   1.597   0.343  0.00  0.00     0.003 A 
ATOM      6  C4  PXY d   1       0.547   0.453  -0.255  0.00  0.00    -0.082 A 
ATOM      7  C5  PXY d   1      -0.357  -0.317   0.387  0.00  0.00     0.003 A 
ATOM      8  C6  PXY d   1      -0.805   0.069   1.647  0.00  0.00     0.003 A 
ENDROOT
TORSDOF 0
ENDMDL
