MODEL 1
REMARK minimizedAffinity -3.44545484
REMARK minimizedRMSD -1
REMARK  0 active torsions:
REMARK  status: ('A' for Active; 'I' for Inactive)
ROOT
ATOM      1  C4' PXY d   1       0.761  -1.188  -1.658  0.00  0.00     0.077 C 
ATOM      2  C1' PXY d   1      -0.688   1.589   3.201  0.00  0.00     0.077 C 
ATOM      3  C1  PXY d   1      -0.320   0.856   1.925  0.00  0.00    -0.082 A 
ATOM      4  C2  PXY d   1       0.939   0.511   1.709  0.00  0.00     0.003 A 
ATOM      5  C3  PXY d   1       1.294  -0.123   0.546  0.00  0.00     0.003 A 
ATOM      6  C4  PXY d   1       0.342  -0.456  -0.380  0.00  0.00    -0.082 A 
ATOM      7  C5  PXY d   1      -0.946  -0.117  -0.162  0.00  0.00     0.003 A 
ATOM      8  C6  PXY d   1      -1.280   0.564   1.006  0.00  0.00     0.003 A 
ENDROOT
TORSDOF 0
ENDMDL
