MODEL 1
REMARK minimizedAffinity -3.18432045
REMARK minimizedRMSD -1
REMARK  0 active torsions:
REMARK  status: ('A' for Active; 'I' for Inactive)
ROOT
ATOM      1  C4' PXY d   1      -0.666   1.594   3.608  0.00  0.00     0.077 C 
ATOM      2  C1' PXY d   1       0.386  -1.679  -1.039  0.00  0.00     0.077 C 
ATOM      3  C1  PXY d   1       0.099  -0.816   0.174  0.00  0.00    -0.082 A 
ATOM      4  C2  PXY d   1       1.092  -0.459   0.972  0.00  0.00     0.003 A 
ATOM      5  C3  PXY d   1       0.846   0.295   2.091  0.00  0.00     0.003 A 
ATOM      6  C4  PXY d   1      -0.422   0.731   2.367  0.00  0.00    -0.082 A 
ATOM      7  C5  PXY d   1      -1.439   0.379   1.552  0.00  0.00     0.003 A 
ATOM      8  C6  PXY d   1      -1.174  -0.420   0.444  0.00  0.00     0.003 A 
ENDROOT
TORSDOF 0
ENDMDL
