MODEL 1
REMARK minimizedAffinity -3.39536524
REMARK minimizedRMSD -1
REMARK  0 active torsions:
REMARK  status: ('A' for Active; 'I' for Inactive)
ROOT
ATOM      1  O1  BZF d   1       1.948  -0.791   1.777  0.00  0.00    -0.204 OA
ATOM      2  C2  BZF d   1       1.429  -1.039   3.033  0.00  0.00     0.174 A 
ATOM      3  C3  BZF d   1       0.115  -0.741   3.075  0.00  0.00    -0.012 A 
ATOM      4  C3A BZF d   1      -0.229  -0.366   1.737  0.00  0.00    -0.107 A 
ATOM      5  C4  BZF d   1      -1.395   0.022   1.141  0.00  0.00     0.055 A 
ATOM      6  C5  BZF d   1      -1.377   0.390  -0.167  0.00  0.00    -0.016 A 
ATOM      7  C6  BZF d   1      -0.213   0.386  -0.906  0.00  0.00     0.022 A 
ATOM      8  C7  BZF d   1       0.967   0.005  -0.360  0.00  0.00     0.029 A 
ATOM      9  C7A BZF d   1       0.947  -0.399   0.953  0.00  0.00     0.058 A 
ENDROOT
TORSDOF 0
ENDMDL
