MODEL 1
REMARK minimizedAffinity -2.66484094
REMARK minimizedRMSD -1
REMARK  0 active torsions:
REMARK  status: ('A' for Active; 'I' for Inactive)
ROOT
ATOM      1  O1  BZF d   1       0.823  -1.369   1.879  0.00  0.00    -0.204 OA
ATOM      2  C2  BZF d   1      -0.143  -0.674   2.583  0.00  0.00     0.174 A 
ATOM      3  C3  BZF d   1      -0.785   0.197   1.779  0.00  0.00    -0.012 A 
ATOM      4  C3A BZF d   1      -0.247  -0.027   0.473  0.00  0.00    -0.107 A 
ATOM      5  C4  BZF d   1      -0.496   0.522  -0.752  0.00  0.00     0.055 A 
ATOM      6  C5  BZF d   1       0.254   0.132  -1.816  0.00  0.00    -0.016 A 
ATOM      7  C6  BZF d   1       1.264  -0.800  -1.690  0.00  0.00     0.022 A 
ATOM      8  C7  BZF d   1       1.544  -1.376  -0.496  0.00  0.00     0.029 A 
ATOM      9  C7A BZF d   1       0.766  -1.008   0.575  0.00  0.00     0.058 A 
ENDROOT
TORSDOF 0
ENDMDL
