MODEL 1
REMARK minimizedAffinity 0.513422251
REMARK minimizedRMSD -1
REMARK  0 active torsions:
REMARK  status: ('A' for Active; 'I' for Inactive)
ROOT
ATOM      1  O1  BZF d   1       0.233   3.341  -2.263  0.00  0.00    -0.204 OA
ATOM      2  C2  BZF d   1      -1.110   3.630  -2.402  0.00  0.00     0.174 A 
ATOM      3  C3  BZF d   1      -1.868   2.667  -1.837  0.00  0.00    -0.012 A 
ATOM      4  C3A BZF d   1      -0.938   1.764  -1.232  0.00  0.00    -0.107 A 
ATOM      5  C4  BZF d   1      -1.081   0.616  -0.506  0.00  0.00     0.055 A 
ATOM      6  C5  BZF d   1       0.030  -0.066  -0.123  0.00  0.00    -0.016 A 
ATOM      7  C6  BZF d   1       1.297   0.367  -0.453  0.00  0.00     0.022 A 
ATOM      8  C7  BZF d   1       1.490   1.502  -1.167  0.00  0.00     0.029 A 
ATOM      9  C7A BZF d   1       0.370   2.212  -1.527  0.00  0.00     0.058 A 
ENDROOT
TORSDOF 0
ENDMDL
