MODEL 1
REMARK minimizedAffinity -1.99603844
REMARK minimizedRMSD -1
REMARK  0 active torsions:
REMARK  status: ('A' for Active; 'I' for Inactive)
ROOT
ATOM      1  O1  BZF d   1       1.944  -1.703  -0.383  0.00  0.00    -0.204 OA
ATOM      2  C2  BZF d   1       2.578  -2.689   0.348  0.00  0.00     0.174 A 
ATOM      3  C3  BZF d   1       2.132  -2.703   1.621  0.00  0.00    -0.012 A 
ATOM      4  C3A BZF d   1       1.092  -1.722   1.666  0.00  0.00    -0.107 A 
ATOM      5  C4  BZF d   1       0.256  -1.285   2.653  0.00  0.00     0.055 A 
ATOM      6  C5  BZF d   1      -0.598  -0.261   2.390  0.00  0.00    -0.016 A 
ATOM      7  C6  BZF d   1      -0.640   0.350   1.154  0.00  0.00     0.022 A 
ATOM      8  C7  BZF d   1       0.166  -0.052   0.142  0.00  0.00     0.029 A 
ATOM      9  C7A BZF d   1       1.008  -1.108   0.395  0.00  0.00     0.058 A 
ENDROOT
TORSDOF 0
ENDMDL
