MODEL 1
REMARK minimizedAffinity -1.23457754
REMARK minimizedRMSD -1
REMARK  0 active torsions:
REMARK  status: ('A' for Active; 'I' for Inactive)
ROOT
ATOM      1  O1  BZF d   1       1.272   2.910  -1.801  0.00  0.00    -0.204 OA
ATOM      2  C2  BZF d   1       0.015   3.464  -1.951  0.00  0.00     0.174 A 
ATOM      3  C3  BZF d   1      -0.943   2.558  -1.667  0.00  0.00    -0.012 A 
ATOM      4  C3A BZF d   1      -0.240   1.391  -1.228  0.00  0.00    -0.107 A 
ATOM      5  C4  BZF d   1      -0.642   0.161  -0.793  0.00  0.00     0.055 A 
ATOM      6  C5  BZF d   1       0.298  -0.779  -0.510  0.00  0.00    -0.016 A 
ATOM      7  C6  BZF d   1       1.646  -0.525  -0.656  0.00  0.00     0.022 A 
ATOM      8  C7  BZF d   1       2.093   0.682  -1.080  0.00  0.00     0.029 A 
ATOM      9  C7A BZF d   1       1.147   1.645  -1.335  0.00  0.00     0.058 A 
ENDROOT
TORSDOF 0
ENDMDL
