MODEL 1
REMARK minimizedAffinity -3.80692029
REMARK minimizedRMSD -1
REMARK  0 active torsions:
REMARK  status: ('A' for Active; 'I' for Inactive)
ROOT
ATOM      1  O1  BZF d   1       1.136  -0.417  -0.778  0.00  0.00    -0.204 OA
ATOM      2  C2  BZF d   1      -0.047   0.014  -1.347  0.00  0.00     0.174 A 
ATOM      3  C3  BZF d   1      -1.006   0.152  -0.410  0.00  0.00    -0.012 A 
ATOM      4  C3A BZF d   1      -0.358  -0.127   0.835  0.00  0.00    -0.107 A 
ATOM      5  C4  BZF d   1      -0.783  -0.138   2.133  0.00  0.00     0.055 A 
ATOM      6  C5  BZF d   1       0.081  -0.523   3.108  0.00  0.00    -0.016 A 
ATOM      7  C6  BZF d   1       1.374  -0.909   2.821  0.00  0.00     0.022 A 
ATOM      8  C7  BZF d   1       1.843  -0.910   1.549  0.00  0.00     0.029 A 
ATOM      9  C7A BZF d   1       0.982  -0.489   0.565  0.00  0.00     0.058 A 
ENDROOT
TORSDOF 0
ENDMDL
