MODEL 1
REMARK minimizedAffinity -3.7636683
REMARK minimizedRMSD -1
REMARK  1 active torsions:
REMARK  status: ('A' for Active; 'I' for Inactive)
REMARK    1  A    between atoms: C3_4  and  O_7 
ROOT
ATOM      1  C   UNL d   1       0.584   0.031   2.984  0.00  0.00    -0.033 A 
ATOM      2  C1  UNL d   1      -0.282  -0.977   2.557  0.00  0.00     0.039 A 
ATOM      3  C2  UNL d   1      -0.554  -1.137   1.196  0.00  0.00    -0.080 A 
ATOM      4  C3  UNL d   1       0.048  -0.284   0.275  0.00  0.00     0.150 A 
ATOM      5  C4  UNL d   1       0.915   0.719   0.693  0.00  0.00    -0.007 A 
ATOM      6  C5  UNL d   1       1.184   0.878   2.051  0.00  0.00     0.039 A 
ENDROOT
BRANCH   4   7
ATOM      7  O   UNL d   1      -0.191  -0.399  -1.063  0.00  0.00    -0.526 OA
ATOM      8  H5  UNL d   1      -0.831  -1.116  -1.201  0.00  0.00     0.418 HD
ENDBRANCH   4   7
TORSDOF 1
ENDMDL
