MODEL 1
REMARK minimizedAffinity -0.721242011
REMARK minimizedRMSD -1
REMARK  1 active torsions:
REMARK  status: ('A' for Active; 'I' for Inactive)
REMARK    1  A    between atoms: C3_4  and  O_7 
ROOT
ATOM      1  C   UNL d   1      -0.562   0.362  -1.026  0.00  0.00    -0.033 A 
ATOM      2  C1  UNL d   1       0.743  -0.048  -0.749  0.00  0.00     0.039 A 
ATOM      3  C2  UNL d   1       1.048  -0.625   0.486  0.00  0.00    -0.080 A 
ATOM      4  C3  UNL d   1       0.040  -0.786   1.432  0.00  0.00     0.150 A 
ATOM      5  C4  UNL d   1      -1.264  -0.384   1.161  0.00  0.00    -0.007 A 
ATOM      6  C5  UNL d   1      -1.566   0.193  -0.072  0.00  0.00     0.039 A 
ENDROOT
BRANCH   4   7
ATOM      7  O   UNL d   1       0.290  -1.339   2.653  0.00  0.00    -0.526 OA
ATOM      8  H5  UNL d   1       1.239  -1.543   2.710  0.00  0.00     0.418 HD
ENDBRANCH   4   7
TORSDOF 1
ENDMDL
