MODEL 1
REMARK minimizedAffinity -3.27167249
REMARK minimizedRMSD -1
REMARK  1 active torsions:
REMARK  status: ('A' for Active; 'I' for Inactive)
REMARK    1  A    between atoms: C3_4  and  O_7 
ROOT
ATOM      1  C   UNL d   1       0.032   2.642  -2.665  0.00  0.00    -0.033 A 
ATOM      2  C1  UNL d   1      -0.281   3.951  -3.036  0.00  0.00     0.039 A 
ATOM      3  C2  UNL d   1      -1.589   4.423  -2.905  0.00  0.00    -0.080 A 
ATOM      4  C3  UNL d   1      -2.573   3.576  -2.401  0.00  0.00     0.150 A 
ATOM      5  C4  UNL d   1      -2.267   2.272  -2.026  0.00  0.00    -0.007 A 
ATOM      6  C5  UNL d   1      -0.961   1.803  -2.159  0.00  0.00     0.039 A 
ENDROOT
BRANCH   4   7
ATOM      7  O   UNL d   1      -3.864   3.990  -2.259  0.00  0.00    -0.526 OA
ATOM      8  H5  UNL d   1      -3.932   4.903  -2.585  0.00  0.00     0.418 HD
ENDBRANCH   4   7
TORSDOF 1
ENDMDL
