MODEL 1
REMARK minimizedAffinity -2.96118522
REMARK minimizedRMSD -1
REMARK  1 active torsions:
REMARK  status: ('A' for Active; 'I' for Inactive)
REMARK    1  A    between atoms: C3_4  and  O_7 
ROOT
ATOM      1  C   UNL d   1       0.594  -1.051  -1.354  0.00  0.00    -0.033 A 
ATOM      2  C1  UNL d   1      -0.709  -0.794  -0.923  0.00  0.00     0.039 A 
ATOM      3  C2  UNL d   1      -1.040  -0.936   0.426  0.00  0.00    -0.080 A 
ATOM      4  C3  UNL d   1      -0.061  -1.333   1.332  0.00  0.00     0.150 A 
ATOM      5  C4  UNL d   1       1.240  -1.587   0.911  0.00  0.00    -0.007 A 
ATOM      6  C5  UNL d   1       1.569  -1.446  -0.437  0.00  0.00     0.039 A 
ENDROOT
BRANCH   4   7
ATOM      7  O   UNL d   1      -0.339  -1.489   2.658  0.00  0.00    -0.526 OA
ATOM      8  H5  UNL d   1      -1.283  -1.308   2.798  0.00  0.00     0.418 HD
ENDBRANCH   4   7
TORSDOF 1
ENDMDL
