MODEL 1
REMARK minimizedAffinity -3.4770999
REMARK minimizedRMSD -1
REMARK  3 active torsions:
REMARK  status: ('A' for Active; 'I' for Inactive)
REMARK    1  A    between atoms: C3'_2  and  C2'_3 
REMARK    2  A    between atoms: C2'_3  and  C1'_4 
REMARK    3  A    between atoms: C1'_4  and  C1_5 
ROOT
ATOM      1  C1  N4B d   1       4.443  -2.815  -4.539  0.00  0.00    -0.075 A 
ATOM      2  C2  N4B d   1       4.380  -1.928  -3.442  0.00  0.00     0.002 A 
ATOM      3  C3  N4B d   1       5.131  -0.779  -3.443  0.00  0.00     0.002 A 
ATOM      4  C4  N4B d   1       5.963  -0.504  -4.518  0.00  0.00    -0.004 A 
ATOM      5  C5  N4B d   1       5.999  -1.353  -5.586  0.00  0.00     0.002 A 
ATOM      6  C6  N4B d   1       5.247  -2.510  -5.600  0.00  0.00     0.002 A 
ENDROOT
BRANCH   1   7
ATOM      7  C1' N4B d   1       3.706  -4.126  -4.545  0.00  0.00     0.057 C 
BRANCH   7   8
ATOM      8  C2' N4B d   1       4.125  -4.931  -5.772  0.00  0.00     0.009 C 
BRANCH   8   9
ATOM      9  C3' N4B d   1       5.256  -5.895  -5.460  0.00  0.00     0.004 C 
ATOM     10  C4' N4B d   1       5.542  -6.000  -3.991  0.00  0.00     0.003 C 
ENDBRANCH   8   9
ENDBRANCH   7   8
ENDBRANCH   1   7
TORSDOF 3
ENDMDL
