MODEL 1
REMARK minimizedAffinity 2.75149775
REMARK minimizedRMSD -1
REMARK  3 active torsions:
REMARK  status: ('A' for Active; 'I' for Inactive)
REMARK    1  A    between atoms: C3'_2  and  C2'_3 
REMARK    2  A    between atoms: C2'_3  and  C1'_4 
REMARK    3  A    between atoms: C1'_4  and  C1_5 
ROOT
ATOM      1  C1  N4B d   1       3.849  -4.098  -4.403  0.00  0.00    -0.075 A 
ATOM      2  C2  N4B d   1       4.241  -5.440  -4.208  0.00  0.00     0.002 A 
ATOM      3  C3  N4B d   1       5.308  -5.952  -4.906  0.00  0.00     0.002 A 
ATOM      4  C4  N4B d   1       5.982  -5.149  -5.814  0.00  0.00    -0.004 A 
ATOM      5  C5  N4B d   1       5.613  -3.846  -5.977  0.00  0.00     0.002 A 
ATOM      6  C6  N4B d   1       4.546  -3.317  -5.279  0.00  0.00     0.002 A 
ENDROOT
BRANCH   1   7
ATOM      7  C1' N4B d   1       2.637  -3.518  -3.726  0.00  0.00     0.057 C 
BRANCH   7   8
ATOM      8  C2' N4B d   1       2.384  -2.114  -4.267  0.00  0.00     0.009 C 
BRANCH   8   9
ATOM      9  C3' N4B d   1       1.307  -1.387  -3.480  0.00  0.00     0.004 C 
ATOM     10  C4' N4B d   1       0.800  -0.164  -4.184  0.00  0.00     0.003 C 
ENDBRANCH   8   9
ENDBRANCH   7   8
ENDBRANCH   1   7
TORSDOF 3
ENDMDL
