MODEL 1
REMARK minimizedAffinity -0.698248506
REMARK minimizedRMSD -1
REMARK  1 active torsions:
REMARK  status: ('A' for Active; 'I' for Inactive)
REMARK    1  A    between atoms: C1_2  and  C2_3 
ROOT
ATOM      1  C2  UNL d   1       4.903   4.039  -4.097  0.00  0.00    -0.073 A 
ATOM      2  C3  UNL d   1       5.885   4.550  -4.953  0.00  0.00    -0.002 A 
ATOM      3  C4  UNL d   1       5.557   5.519  -5.902  0.00  0.00     0.004 A 
ATOM      4  C5  UNL d   1       4.248   5.992  -6.000  0.00  0.00    -0.004 A 
ATOM      5  C6  UNL d   1       3.256   5.502  -5.144  0.00  0.00    -0.075 A 
ATOM      6  C7  UNL d   1       1.843   5.999  -5.238  0.00  0.00     0.076 C 
ATOM      7  C8  UNL d   1       3.592   4.527  -4.196  0.00  0.00     0.001 A 
ENDROOT
BRANCH   1   8
ATOM      8  C1  UNL d   1       5.254   2.997  -3.066  0.00  0.00     0.053 C 
ATOM      9  C   UNL d   1       4.063   2.117  -2.717  0.00  0.00     0.018 C 
ENDBRANCH   1   8
TORSDOF 1
ENDMDL
