MODEL 1
REMARK minimizedAffinity 3.48415828
REMARK minimizedRMSD -1
REMARK  1 active torsions:
REMARK  status: ('A' for Active; 'I' for Inactive)
REMARK    1  A    between atoms: C1_2  and  C2_3 
ROOT
ATOM      1  C2  UNL d   1       3.692   3.530  -4.653  0.00  0.00    -0.073 A 
ATOM      2  C3  UNL d   1       4.887   4.174  -4.993  0.00  0.00    -0.002 A 
ATOM      3  C4  UNL d   1       4.863   5.399  -5.661  0.00  0.00     0.004 A 
ATOM      4  C5  UNL d   1       3.645   5.994  -5.991  0.00  0.00    -0.004 A 
ATOM      5  C6  UNL d   1       2.440   5.372  -5.650  0.00  0.00    -0.075 A 
ATOM      6  C7  UNL d   1       1.122   5.998  -5.999  0.00  0.00     0.076 C 
ATOM      7  C8  UNL d   1       2.473   4.141  -4.981  0.00  0.00     0.001 A 
ENDROOT
BRANCH   1   8
ATOM      8  C1  UNL d   1       3.714   2.210  -3.925  0.00  0.00     0.053 C 
ATOM      9  C   UNL d   1       4.552   2.272  -2.658  0.00  0.00     0.018 C 
ENDBRANCH   1   8
TORSDOF 1
ENDMDL
