MODEL 1
REMARK minimizedAffinity 3.75143838
REMARK minimizedRMSD -1
REMARK  1 active torsions:
REMARK  status: ('A' for Active; 'I' for Inactive)
REMARK    1  A    between atoms: C1_2  and  C2_3 
ROOT
ATOM      1  C2  UNL d   1       3.702   3.270  -4.479  0.00  0.00    -0.073 A 
ATOM      2  C3  UNL d   1       2.445   3.847  -4.695  0.00  0.00    -0.002 A 
ATOM      3  C4  UNL d   1       2.341   5.117  -5.263  0.00  0.00     0.004 A 
ATOM      4  C5  UNL d   1       3.489   5.820  -5.627  0.00  0.00    -0.004 A 
ATOM      5  C6  UNL d   1       4.754   5.256  -5.430  0.00  0.00    -0.075 A 
ATOM      6  C7  UNL d   1       5.999   6.000  -5.814  0.00  0.00     0.076 C 
ATOM      7  C8  UNL d   1       4.850   3.981  -4.856  0.00  0.00     0.001 A 
ENDROOT
BRANCH   1   8
ATOM      8  C1  UNL d   1       3.819   1.896  -3.871  0.00  0.00     0.053 C 
ATOM      9  C   UNL d   1       4.642   1.907  -2.593  0.00  0.00     0.018 C 
ENDBRANCH   1   8
TORSDOF 1
ENDMDL
