MODEL 1
REMARK minimizedAffinity 6.46082973
REMARK minimizedRMSD -1
REMARK  1 active torsions:
REMARK  status: ('A' for Active; 'I' for Inactive)
REMARK    1  A    between atoms: C1_2  and  C2_3 
ROOT
ATOM      1  C2  UNL d   1      -3.370   1.625   4.105  0.00  0.00    -0.073 A 
ATOM      2  C3  UNL d   1      -3.450   0.268   3.771  0.00  0.00    -0.002 A 
ATOM      3  C4  UNL d   1      -2.453  -0.328   2.998  0.00  0.00     0.004 A 
ATOM      4  C5  UNL d   1      -1.363   0.423   2.558  0.00  0.00    -0.004 A 
ATOM      5  C6  UNL d   1      -1.259   1.777   2.891  0.00  0.00    -0.075 A 
ATOM      6  C7  UNL d   1      -0.094   2.600   2.424  0.00  0.00     0.076 C 
ATOM      7  C8  UNL d   1      -2.266   2.369   3.666  0.00  0.00     0.001 A 
ENDROOT
BRANCH   1   8
ATOM      8  C1  UNL d   1      -4.441   2.271   4.945  0.00  0.00     0.053 C 
ATOM      9  C   UNL d   1      -4.988   1.322   6.000  0.00  0.00     0.018 C 
ENDBRANCH   1   8
TORSDOF 1
ENDMDL
