MODEL 1
REMARK minimizedAffinity -0.864370406
REMARK minimizedRMSD -1
REMARK  1 active torsions:
REMARK  status: ('A' for Active; 'I' for Inactive)
REMARK    1  A    between atoms: C1_2  and  C2_3 
ROOT
ATOM      1  C2  UNL d   1      -3.770   1.498   3.771  0.00  0.00    -0.073 A 
ATOM      2  C3  UNL d   1      -3.871   0.116   3.575  0.00  0.00    -0.002 A 
ATOM      3  C4  UNL d   1      -2.858  -0.578   2.912  0.00  0.00     0.004 A 
ATOM      4  C5  UNL d   1      -1.732   0.101   2.445  0.00  0.00    -0.004 A 
ATOM      5  C6  UNL d   1      -1.608   1.480   2.641  0.00  0.00    -0.075 A 
ATOM      6  C7  UNL d   1      -0.404   2.224   2.143  0.00  0.00     0.076 C 
ATOM      7  C8  UNL d   1      -2.631   2.170   3.306  0.00  0.00     0.001 A 
ENDROOT
BRANCH   1   8
ATOM      8  C1  UNL d   1      -4.859   2.251   4.492  0.00  0.00     0.053 C 
ATOM      9  C   UNL d   1      -4.668   2.223   6.000  0.00  0.00     0.018 C 
ENDBRANCH   1   8
TORSDOF 1
ENDMDL
