MODEL 1
REMARK minimizedAffinity 3.12863612
REMARK minimizedRMSD -1
REMARK  1 active torsions:
REMARK  status: ('A' for Active; 'I' for Inactive)
REMARK    1  A    between atoms: C1_2  and  C2_3 
ROOT
ATOM      1  C2  UNL d   1      -3.837   1.507   3.833  0.00  0.00    -0.073 A 
ATOM      2  C3  UNL d   1      -3.724   0.120   3.692  0.00  0.00    -0.002 A 
ATOM      3  C4  UNL d   1      -2.676  -0.431   2.954  0.00  0.00     0.004 A 
ATOM      4  C5  UNL d   1      -1.726   0.398   2.357  0.00  0.00    -0.004 A 
ATOM      5  C6  UNL d   1      -1.815   1.787   2.497  0.00  0.00    -0.075 A 
ATOM      6  C7  UNL d   1      -0.803   2.693   1.859  0.00  0.00     0.076 C 
ATOM      7  C8  UNL d   1      -2.872   2.333   3.237  0.00  0.00     0.001 A 
ENDROOT
BRANCH   1   8
ATOM      8  C1  UNL d   1      -4.964   2.106   4.634  0.00  0.00     0.053 C 
ATOM      9  C   UNL d   1      -4.499   2.590   5.999  0.00  0.00     0.018 C 
ENDBRANCH   1   8
TORSDOF 1
ENDMDL
