MODEL 1
REMARK minimizedAffinity 0.239465654
REMARK minimizedRMSD -1
REMARK  1 active torsions:
REMARK  status: ('A' for Active; 'I' for Inactive)
REMARK    1  A    between atoms: C1_2  and  C2_3 
ROOT
ATOM      1  C2  UNL d   1      -3.700   1.507   3.797  0.00  0.00    -0.073 A 
ATOM      2  C3  UNL d   1      -3.539   0.118   3.743  0.00  0.00    -0.002 A 
ATOM      3  C4  UNL d   1      -2.436  -0.439   3.095  0.00  0.00     0.004 A 
ATOM      4  C5  UNL d   1      -1.480   0.385   2.501  0.00  0.00    -0.004 A 
ATOM      5  C6  UNL d   1      -1.617   1.776   2.555  0.00  0.00    -0.075 A 
ATOM      6  C7  UNL d   1      -0.600   2.677   1.919  0.00  0.00     0.076 C 
ATOM      7  C8  UNL d   1      -2.729   2.328   3.205  0.00  0.00     0.001 A 
ENDROOT
BRANCH   1   8
ATOM      8  C1  UNL d   1      -4.886   2.113   4.502  0.00  0.00     0.053 C 
ATOM      9  C   UNL d   1      -4.656   2.239   5.999  0.00  0.00     0.018 C 
ENDBRANCH   1   8
TORSDOF 1
ENDMDL
