MODEL 1
REMARK minimizedAffinity 4.91317177
REMARK minimizedRMSD -1
REMARK  1 active torsions:
REMARK  status: ('A' for Active; 'I' for Inactive)
REMARK    1  A    between atoms: C1_2  and  C2_3 
ROOT
ATOM      1  C2  UNL d   1      -3.806   2.094   4.496  0.00  0.00    -0.073 A 
ATOM      2  C3  UNL d   1      -4.113   0.753   4.242  0.00  0.00    -0.002 A 
ATOM      3  C4  UNL d   1      -3.351   0.015   3.336  0.00  0.00     0.004 A 
ATOM      4  C5  UNL d   1      -2.272   0.607   2.680  0.00  0.00    -0.004 A 
ATOM      5  C6  UNL d   1      -1.942   1.943   2.929  0.00  0.00    -0.075 A 
ATOM      6  C7  UNL d   1      -0.785   2.595   2.230  0.00  0.00     0.076 C 
ATOM      7  C8  UNL d   1      -2.714   2.678   3.839  0.00  0.00     0.001 A 
ENDROOT
BRANCH   1   8
ATOM      8  C1  UNL d   1      -4.622   2.894   5.478  0.00  0.00     0.053 C 
ATOM      9  C   UNL d   1      -5.816   2.109   6.000  0.00  0.00     0.018 C 
ENDBRANCH   1   8
TORSDOF 1
ENDMDL
