MODEL 1
REMARK minimizedAffinity 1.82794702
REMARK minimizedRMSD -1
REMARK  1 active torsions:
REMARK  status: ('A' for Active; 'I' for Inactive)
REMARK    1  A    between atoms: C1_2  and  C2_3 
ROOT
ATOM      1  C2  UNL d   1      -0.399   1.612   2.506  0.00  0.00    -0.073 A 
ATOM      2  C3  UNL d   1       0.095   0.364   2.901  0.00  0.00    -0.002 A 
ATOM      3  C4  UNL d   1       1.369  -0.048   2.508  0.00  0.00     0.004 A 
ATOM      4  C5  UNL d   1       2.164   0.786   1.721  0.00  0.00    -0.004 A 
ATOM      5  C6  UNL d   1       1.693   2.042   1.326  0.00  0.00    -0.075 A 
ATOM      6  C7  UNL d   1       2.535   2.950   0.478  0.00  0.00     0.076 C 
ATOM      7  C8  UNL d   1       0.412   2.447   1.723  0.00  0.00     0.001 A 
ENDROOT
BRANCH   1   8
ATOM      8  C1  UNL d   1      -1.771   2.064   2.934  0.00  0.00     0.053 C 
ATOM      9  C   UNL d   1      -2.776   0.923   2.919  0.00  0.00     0.018 C 
ENDBRANCH   1   8
TORSDOF 1
ENDMDL
