MODEL 1
REMARK minimizedAffinity 5.08263063
REMARK minimizedRMSD -1
REMARK  1 active torsions:
REMARK  status: ('A' for Active; 'I' for Inactive)
REMARK    1  A    between atoms: C1_2  and  C2_3 
ROOT
ATOM      1  C2  UNL d   1      -3.809   2.107   3.764  0.00  0.00    -0.073 A 
ATOM      2  C3  UNL d   1      -3.014   3.183   3.353  0.00  0.00    -0.002 A 
ATOM      3  C4  UNL d   1      -1.846   2.957   2.623  0.00  0.00     0.004 A 
ATOM      4  C5  UNL d   1      -1.466   1.656   2.291  0.00  0.00    -0.004 A 
ATOM      5  C6  UNL d   1      -2.254   0.569   2.683  0.00  0.00    -0.075 A 
ATOM      6  C7  UNL d   1      -1.857  -0.836   2.337  0.00  0.00     0.076 C 
ATOM      7  C8  UNL d   1      -3.424   0.804   3.418  0.00  0.00     0.001 A 
ENDROOT
BRANCH   1   8
ATOM      8  C1  UNL d   1      -5.075   2.347   4.547  0.00  0.00     0.053 C 
ATOM      9  C   UNL d   1      -4.789   2.692   6.000  0.00  0.00     0.018 C 
ENDBRANCH   1   8
TORSDOF 1
ENDMDL
