MODEL 1
REMARK minimizedAffinity 10.7884007
REMARK minimizedRMSD -1
REMARK  0 active torsions:
REMARK  status: ('A' for Active; 'I' for Inactive)
ROOT
ATOM      1  C4' PXY d   1       5.792  -5.982   5.953  0.00  0.00     0.077 C 
ATOM      2  C1' PXY d   1       2.039  -5.504   1.583  0.00  0.00     0.077 C 
ATOM      3  C1  PXY d   1       3.015  -5.622   2.736  0.00  0.00    -0.082 A 
ATOM      4  C2  PXY d   1       4.294  -5.858   2.490  0.00  0.00     0.003 A 
ATOM      5  C3  PXY d   1       5.184  -6.000   3.523  0.00  0.00     0.003 A 
ATOM      6  C4  PXY d   1       4.772  -5.846   4.819  0.00  0.00    -0.082 A 
ATOM      7  C5  PXY d   1       3.472  -5.594   5.078  0.00  0.00     0.003 A 
ATOM      8  C6  PXY d   1       2.576  -5.495   4.018  0.00  0.00     0.003 A 
ENDROOT
TORSDOF 0
ENDMDL
