MODEL 1
REMARK minimizedAffinity -1.29953933
REMARK minimizedRMSD -1
REMARK  0 active torsions:
REMARK  status: ('A' for Active; 'I' for Inactive)
ROOT
ATOM      1  C4' PXY d   1       4.302   4.880   2.239  0.00  0.00     0.077 C 
ATOM      2  C1' PXY d   1       2.999   6.000  -3.280  0.00  0.00     0.077 C 
ATOM      3  C1  PXY d   1       3.328   5.707  -1.830  0.00  0.00    -0.082 A 
ATOM      4  C2  PXY d   1       4.530   5.999  -1.360  0.00  0.00     0.003 A 
ATOM      5  C3  PXY d   1       4.855   5.711  -0.059  0.00  0.00     0.003 A 
ATOM      6  C4  PXY d   1       3.923   5.167   0.784  0.00  0.00    -0.082 A 
ATOM      7  C5  PXY d   1       2.691   4.877   0.315  0.00  0.00     0.003 A 
ATOM      8  C6  PXY d   1       2.394   5.139  -1.020  0.00  0.00     0.003 A 
ENDROOT
TORSDOF 0
ENDMDL
