MODEL 1
REMARK minimizedAffinity 2.34606218
REMARK minimizedRMSD -1
REMARK  0 active torsions:
REMARK  status: ('A' for Active; 'I' for Inactive)
ROOT
ATOM      1  C4' PXY d   1       2.611  -1.787  -1.496  0.00  0.00     0.077 C 
ATOM      2  C1' PXY d   1       0.794   3.247  -3.680  0.00  0.00     0.077 C 
ATOM      3  C1  PXY d   1       1.274   1.923  -3.120  0.00  0.00    -0.082 A 
ATOM      4  C2  PXY d   1       0.790   1.486  -1.968  0.00  0.00     0.003 A 
ATOM      5  C3  PXY d   1       1.236   0.307  -1.431  0.00  0.00     0.003 A 
ATOM      6  C4  PXY d   1       2.148  -0.460  -2.105  0.00  0.00    -0.082 A 
ATOM      7  C5  PXY d   1       2.639  -0.027  -3.285  0.00  0.00     0.003 A 
ATOM      8  C6  PXY d   1       2.204   1.193  -3.794  0.00  0.00     0.003 A 
ENDROOT
TORSDOF 0
ENDMDL
