MODEL 1
REMARK minimizedAffinity -0.309943676
REMARK minimizedRMSD -1
REMARK  0 active torsions:
REMARK  status: ('A' for Active; 'I' for Inactive)
ROOT
ATOM      1  C4' PXY d   1       6.000  -0.049  -6.000  0.00  0.00     0.077 C 
ATOM      2  C1' PXY d   1       3.614   4.333  -3.080  0.00  0.00     0.077 C 
ATOM      3  C1  PXY d   1       4.246   3.193  -3.854  0.00  0.00    -0.082 A 
ATOM      4  C2  PXY d   1       3.695   1.990  -3.812  0.00  0.00     0.003 A 
ATOM      5  C3  PXY d   1       4.270   0.940  -4.480  0.00  0.00     0.003 A 
ATOM      6  C4  PXY d   1       5.391   1.135  -5.242  0.00  0.00    -0.082 A 
ATOM      7  C5  PXY d   1       5.953   2.361  -5.298  0.00  0.00     0.003 A 
ATOM      8  C6  PXY d   1       5.377   3.404  -4.580  0.00  0.00     0.003 A 
ENDROOT
TORSDOF 0
ENDMDL
