MODEL 1
REMARK minimizedAffinity 8.80615807
REMARK minimizedRMSD -1
REMARK  0 active torsions:
REMARK  status: ('A' for Active; 'I' for Inactive)
ROOT
ATOM      1  C4' PXY d   1      -1.269   3.015   1.234  0.00  0.00     0.077 C 
ATOM      2  C1' PXY d   1       2.903   0.203  -1.613  0.00  0.00     0.077 C 
ATOM      3  C1  PXY d   1       1.815   0.937  -0.855  0.00  0.00    -0.082 A 
ATOM      4  C2  PXY d   1       0.638   1.134  -1.427  0.00  0.00     0.003 A 
ATOM      5  C3  PXY d   1      -0.347   1.823  -0.768  0.00  0.00     0.003 A 
ATOM      6  C4  PXY d   1      -0.144   2.271   0.510  0.00  0.00    -0.082 A 
ATOM      7  C5  PXY d   1       1.051   2.065   1.104  0.00  0.00     0.003 A 
ATOM      8  C6  PXY d   1       2.051   1.399   0.403  0.00  0.00     0.003 A 
ENDROOT
TORSDOF 0
ENDMDL
