MODEL 1
REMARK minimizedAffinity 12.149003
REMARK minimizedRMSD -1
REMARK  0 active torsions:
REMARK  status: ('A' for Active; 'I' for Inactive)
ROOT
ATOM      1  C4' PXY d   1       3.351   2.161   2.108  0.00  0.00     0.077 C 
ATOM      2  C1' PXY d   1      -1.410   2.433  -1.158  0.00  0.00     0.077 C 
ATOM      3  C1  PXY d   1      -0.167   2.370  -0.293  0.00  0.00    -0.082 A 
ATOM      4  C2  PXY d   1       0.989   2.020  -0.833  0.00  0.00     0.003 A 
ATOM      5  C3  PXY d   1       2.117   1.927  -0.059  0.00  0.00     0.003 A 
ATOM      6  C4  PXY d   1       2.072   2.247   1.271  0.00  0.00    -0.082 A 
ATOM      7  C5  PXY d   1       0.899   2.616   1.828  0.00  0.00     0.003 A 
ATOM      8  C6  PXY d   1      -0.243   2.664   1.034  0.00  0.00     0.003 A 
ENDROOT
TORSDOF 0
ENDMDL
