MODEL 1
REMARK minimizedAffinity 6.81463242
REMARK minimizedRMSD -1
REMARK  0 active torsions:
REMARK  status: ('A' for Active; 'I' for Inactive)
ROOT
ATOM      1  C4' PXY d   1       1.690  -3.120   0.423  0.00  0.00     0.077 C 
ATOM      2  C1' PXY d   1       5.626  -1.052   4.117  0.00  0.00     0.077 C 
ATOM      3  C1  PXY d   1       4.588  -1.583   3.149  0.00  0.00    -0.082 A 
ATOM      4  C2  PXY d   1       4.406  -2.888   3.035  0.00  0.00     0.003 A 
ATOM      5  C3  PXY d   1       3.494  -3.387   2.142  0.00  0.00     0.003 A 
ATOM      6  C4  PXY d   1       2.721  -2.538   1.395  0.00  0.00    -0.082 A 
ATOM      7  C5  PXY d   1       2.892  -1.205   1.513  0.00  0.00     0.003 A 
ATOM      8  C6  PXY d   1       3.853  -0.720   2.396  0.00  0.00     0.003 A 
ENDROOT
TORSDOF 0
ENDMDL
