MODEL 1
REMARK minimizedAffinity -0.863740504
REMARK minimizedRMSD -1
REMARK  0 active torsions:
REMARK  status: ('A' for Active; 'I' for Inactive)
ROOT
ATOM      1  C4' PXY d   1       2.988  -2.633  -1.228  0.00  0.00     0.077 C 
ATOM      2  C1' PXY d   1      -0.600   1.898  -1.335  0.00  0.00     0.077 C 
ATOM      3  C1  PXY d   1       0.337   0.707  -1.295  0.00  0.00    -0.082 A 
ATOM      4  C2  PXY d   1       1.424   0.704  -2.049  0.00  0.00     0.003 A 
ATOM      5  C3  PXY d   1       2.265  -0.379  -2.049  0.00  0.00     0.003 A 
ATOM      6  C4  PXY d   1       2.019  -1.448  -1.229  0.00  0.00    -0.082 A 
ATOM      7  C5  PXY d   1       0.917  -1.448  -0.450  0.00  0.00     0.003 A 
ATOM      8  C6  PXY d   1       0.054  -0.357  -0.495  0.00  0.00     0.003 A 
ENDROOT
TORSDOF 0
ENDMDL
