MODEL 1
REMARK minimizedAffinity 2.28299809
REMARK minimizedRMSD -1
REMARK  0 active torsions:
REMARK  status: ('A' for Active; 'I' for Inactive)
ROOT
ATOM      1  C4' PXY d   1       1.604   1.310   1.854  0.00  0.00     0.077 C 
ATOM      2  C1' PXY d   1       0.955   1.330  -3.890  0.00  0.00     0.077 C 
ATOM      3  C1  PXY d   1       1.118   1.336  -2.382  0.00  0.00    -0.082 A 
ATOM      4  C2  PXY d   1       2.141   0.701  -1.833  0.00  0.00     0.003 A 
ATOM      5  C3  PXY d   1       2.286   0.669  -0.470  0.00  0.00     0.003 A 
ATOM      6  C4  PXY d   1       1.404   1.338   0.337  0.00  0.00    -0.082 A 
ATOM      7  C5  PXY d   1       0.365   1.997  -0.217  0.00  0.00     0.003 A 
ATOM      8  C6  PXY d   1       0.212   1.983  -1.601  0.00  0.00     0.003 A 
ENDROOT
TORSDOF 0
ENDMDL
