MODEL 1
REMARK minimizedAffinity 11.1861973
REMARK minimizedRMSD -1
REMARK  0 active torsions:
REMARK  status: ('A' for Active; 'I' for Inactive)
ROOT
ATOM      1  C4' PXY d   1      -4.175  -0.353   4.923  0.00  0.00     0.077 C 
ATOM      2  C1' PXY d   1      -5.080  -0.486  -0.785  0.00  0.00     0.077 C 
ATOM      3  C1  PXY d   1      -4.835  -0.440   0.711  0.00  0.00    -0.082 A 
ATOM      4  C2  PXY d   1      -4.919  -1.553   1.422  0.00  0.00     0.003 A 
ATOM      5  C3  PXY d   1      -4.733  -1.524   2.780  0.00  0.00     0.003 A 
ATOM      6  C4  PXY d   1      -4.404  -0.354   3.409  0.00  0.00    -0.082 A 
ATOM      7  C5  PXY d   1      -4.307   0.784   2.690  0.00  0.00     0.003 A 
ATOM      8  C6  PXY d   1      -4.540   0.741   1.318  0.00  0.00     0.003 A 
ENDROOT
TORSDOF 0
ENDMDL
