MODEL 1
REMARK minimizedAffinity 8.48317146
REMARK minimizedRMSD -1
REMARK  0 active torsions:
REMARK  status: ('A' for Active; 'I' for Inactive)
ROOT
ATOM      1  C4' PXY d   1      -2.637  -0.534  -0.645  0.00  0.00     0.077 C 
ATOM      2  C1' PXY d   1       2.922  -1.732  -1.685  0.00  0.00     0.077 C 
ATOM      3  C1  PXY d   1       1.467  -1.410  -1.402  0.00  0.00    -0.082 A 
ATOM      4  C2  PXY d   1       0.525  -2.263  -1.769  0.00  0.00     0.003 A 
ATOM      5  C3  PXY d   1      -0.797  -1.973  -1.550  0.00  0.00     0.003 A 
ATOM      6  C4  PXY d   1      -1.155  -0.822  -0.901  0.00  0.00    -0.082 A 
ATOM      7  C5  PXY d   1      -0.199   0.049  -0.515  0.00  0.00     0.003 A 
ATOM      8  C6  PXY d   1       1.134  -0.245  -0.783  0.00  0.00     0.003 A 
ENDROOT
TORSDOF 0
ENDMDL
