MODEL 1
REMARK minimizedAffinity 7.93234825
REMARK minimizedRMSD -1
REMARK  0 active torsions:
REMARK  status: ('A' for Active; 'I' for Inactive)
ROOT
ATOM      1  C4' PXY d   1       1.469  -3.432  -0.052  0.00  0.00     0.077 C 
ATOM      2  C1' PXY d   1       1.681   1.740  -2.625  0.00  0.00     0.077 C 
ATOM      3  C1  PXY d   1       1.613   0.386  -1.948  0.00  0.00    -0.082 A 
ATOM      4  C2  PXY d   1       2.719  -0.167  -1.478  0.00  0.00     0.003 A 
ATOM      5  C3  PXY d   1       2.681  -1.405  -0.891  0.00  0.00     0.003 A 
ATOM      6  C4  PXY d   1       1.489  -2.061  -0.735  0.00  0.00    -0.082 A 
ATOM      7  C5  PXY d   1       0.354  -1.499  -1.203  0.00  0.00     0.003 A 
ATOM      8  C6  PXY d   1       0.421  -0.260  -1.832  0.00  0.00     0.003 A 
ENDROOT
TORSDOF 0
ENDMDL
