MODEL 1
REMARK minimizedAffinity 2.64969349
REMARK minimizedRMSD -1
REMARK  0 active torsions:
REMARK  status: ('A' for Active; 'I' for Inactive)
ROOT
ATOM      1  C4' PXY d   1       1.123  -2.224  -2.324  0.00  0.00     0.077 C 
ATOM      2  C1' PXY d   1       3.003  -4.749   2.524  0.00  0.00     0.077 C 
ATOM      3  C1  PXY d   1       2.522  -4.088   1.248  0.00  0.00    -0.082 A 
ATOM      4  C2  PXY d   1       1.474  -3.281   1.283  0.00  0.00     0.003 A 
ATOM      5  C3  PXY d   1       1.006  -2.701   0.133  0.00  0.00     0.003 A 
ATOM      6  C4  PXY d   1       1.650  -2.906  -1.058  0.00  0.00    -0.082 A 
ATOM      7  C5  PXY d   1       2.726  -3.719  -1.101  0.00  0.00     0.003 A 
ATOM      8  C6  PXY d   1       3.161  -4.331   0.071  0.00  0.00     0.003 A 
ENDROOT
TORSDOF 0
ENDMDL
