MODEL 1
REMARK minimizedAffinity 9.89735889
REMARK minimizedRMSD -1
REMARK  0 active torsions:
REMARK  status: ('A' for Active; 'I' for Inactive)
ROOT
ATOM      1  C4' PXY d   1       6.000   6.000  -2.246  0.00  0.00     0.077 C 
ATOM      2  C1' PXY d   1       3.115   2.911   1.697  0.00  0.00     0.077 C 
ATOM      3  C1  PXY d   1       3.878   3.727   0.672  0.00  0.00    -0.082 A 
ATOM      4  C2  PXY d   1       3.380   3.880  -0.544  0.00  0.00     0.003 A 
ATOM      5  C3  PXY d   1       4.072   4.588  -1.493  0.00  0.00     0.003 A 
ATOM      6  C4  PXY d   1       5.260   5.192  -1.177  0.00  0.00    -0.082 A 
ATOM      7  C5  PXY d   1       5.769   5.050   0.065  0.00  0.00     0.003 A 
ATOM      8  C6  PXY d   1       5.071   4.292   1.001  0.00  0.00     0.003 A 
ENDROOT
TORSDOF 0
ENDMDL
