MODEL 1
REMARK minimizedAffinity -1.83240712
REMARK minimizedRMSD -1
REMARK  0 active torsions:
REMARK  status: ('A' for Active; 'I' for Inactive)
ROOT
ATOM      1  C4' PXY d   1      -0.409   2.204  -1.518  0.00  0.00     0.077 C 
ATOM      2  C1' PXY d   1       2.187  -2.950  -1.189  0.00  0.00     0.077 C 
ATOM      3  C1  PXY d   1       1.494  -1.604  -1.274  0.00  0.00    -0.082 A 
ATOM      4  C2  PXY d   1       2.109  -0.588  -1.859  0.00  0.00     0.003 A 
ATOM      5  C3  PXY d   1       1.510   0.644  -1.916  0.00  0.00     0.003 A 
ATOM      6  C4  PXY d   1       0.248   0.825  -1.418  0.00  0.00    -0.082 A 
ATOM      7  C5  PXY d   1      -0.390  -0.209  -0.829  0.00  0.00     0.003 A 
ATOM      8  C6  PXY d   1       0.252  -1.441  -0.744  0.00  0.00     0.003 A 
ENDROOT
TORSDOF 0
ENDMDL
