MODEL 1
REMARK minimizedAffinity 5.65654182
REMARK minimizedRMSD -1
REMARK  0 active torsions:
REMARK  status: ('A' for Active; 'I' for Inactive)
ROOT
ATOM      1  C4' PXY d   1       0.142   1.888  -1.132  0.00  0.00     0.077 C 
ATOM      2  C1' PXY d   1       2.458  -3.408  -1.080  0.00  0.00     0.077 C 
ATOM      3  C1  PXY d   1       1.859  -2.015  -1.103  0.00  0.00    -0.082 A 
ATOM      4  C2  PXY d   1       1.244  -1.550  -0.028  0.00  0.00     0.003 A 
ATOM      5  C3  PXY d   1       0.668  -0.306  -0.042  0.00  0.00     0.003 A 
ATOM      6  C4  PXY d   1       0.770   0.492  -1.150  0.00  0.00    -0.082 A 
ATOM      7  C5  PXY d   1       1.405   0.028  -2.247  0.00  0.00     0.003 A 
ATOM      8  C6  PXY d   1       1.947  -1.254  -2.227  0.00  0.00     0.003 A 
ENDROOT
TORSDOF 0
ENDMDL
