MODEL 1
REMARK minimizedAffinity 0.259543389
REMARK minimizedRMSD -1
REMARK  0 active torsions:
REMARK  status: ('A' for Active; 'I' for Inactive)
ROOT
ATOM      1  C4' PXY d   1       2.889  -3.052  -1.030  0.00  0.00     0.077 C 
ATOM      2  C1' PXY d   1       3.058   2.553  -2.432  0.00  0.00     0.077 C 
ATOM      3  C1  PXY d   1       3.027   1.082  -2.067  0.00  0.00    -0.082 A 
ATOM      4  C2  PXY d   1       1.890   0.411  -2.155  0.00  0.00     0.003 A 
ATOM      5  C3  PXY d   1       1.836  -0.912  -1.798  0.00  0.00     0.003 A 
ATOM      6  C4  PXY d   1       2.969  -1.568  -1.397  0.00  0.00    -0.082 A 
ATOM      7  C5  PXY d   1       4.135  -0.893  -1.315  0.00  0.00     0.003 A 
ATOM      8  C6  PXY d   1       4.160   0.460  -1.643  0.00  0.00     0.003 A 
ENDROOT
TORSDOF 0
ENDMDL
