MODEL 1
REMARK minimizedAffinity 3.98841596
REMARK minimizedRMSD -1
REMARK  0 active torsions:
REMARK  status: ('A' for Active; 'I' for Inactive)
ROOT
ATOM      1  C4' PXY d   1       1.952  -4.796   0.848  0.00  0.00     0.077 C 
ATOM      2  C1' PXY d   1       1.865  -0.354  -2.850  0.00  0.00     0.077 C 
ATOM      3  C1  PXY d   1       1.900  -1.521  -1.883  0.00  0.00    -0.082 A 
ATOM      4  C2  PXY d   1       0.780  -2.159  -1.587  0.00  0.00     0.003 A 
ATOM      5  C3  PXY d   1       0.789  -3.196  -0.690  0.00  0.00     0.003 A 
ATOM      6  C4  PXY d   1       1.965  -3.618  -0.130  0.00  0.00    -0.082 A 
ATOM      7  C5  PXY d   1       3.114  -2.979  -0.436  0.00  0.00     0.003 A 
ATOM      8  C6  PXY d   1       3.077  -1.902  -1.317  0.00  0.00     0.003 A 
ENDROOT
TORSDOF 0
ENDMDL
