MODEL 1
REMARK minimizedAffinity 5.14766026
REMARK minimizedRMSD -1
REMARK  0 active torsions:
REMARK  status: ('A' for Active; 'I' for Inactive)
ROOT
ATOM      1  C4' PXY d   1       2.701  -2.653  -1.678  0.00  0.00     0.077 C 
ATOM      2  C1' PXY d   1       1.205   2.917  -2.079  0.00  0.00     0.077 C 
ATOM      3  C1  PXY d   1       1.601   1.456  -1.987  0.00  0.00    -0.082 A 
ATOM      4  C2  PXY d   1       1.033   0.681  -1.077  0.00  0.00     0.003 A 
ATOM      5  C3  PXY d   1       1.403  -0.634  -0.958  0.00  0.00     0.003 A 
ATOM      6  C4  PXY d   1       2.325  -1.175  -1.814  0.00  0.00    -0.082 A 
ATOM      7  C5  PXY d   1       2.901  -0.393  -2.752  0.00  0.00     0.003 A 
ATOM      8  C6  PXY d   1       2.542   0.950  -2.829  0.00  0.00     0.003 A 
ENDROOT
TORSDOF 0
ENDMDL
