MODEL 1
REMARK minimizedAffinity -3.91934657
REMARK minimizedRMSD -1
REMARK  0 active torsions:
REMARK  status: ('A' for Active; 'I' for Inactive)
ROOT
ATOM      1  C4' PXY d   1       1.896  -4.618   1.078  0.00  0.00     0.077 C 
ATOM      2  C1' PXY d   1       2.096   0.173  -2.150  0.00  0.00     0.077 C 
ATOM      3  C1  PXY d   1       2.031  -1.080  -1.299  0.00  0.00    -0.082 A 
ATOM      4  C2  PXY d   1       3.152  -1.683  -0.936  0.00  0.00     0.003 A 
ATOM      5  C3  PXY d   1       3.112  -2.834  -0.194  0.00  0.00     0.003 A 
ATOM      6  C4  PXY d   1       1.913  -3.346   0.227  0.00  0.00    -0.082 A 
ATOM      7  C5  PXY d   1       0.765  -2.731  -0.130  0.00  0.00     0.003 A 
ATOM      8  C6  PXY d   1       0.827  -1.586  -0.919  0.00  0.00     0.003 A 
ENDROOT
TORSDOF 0
ENDMDL
