MODEL 1
REMARK minimizedAffinity -2.7417419
REMARK minimizedRMSD -1
REMARK  1 active torsions:
REMARK  status: ('A' for Active; 'I' for Inactive)
REMARK    1  A    between atoms: N_2  and  C1_3 
ROOT
ATOM      1  C1  UNL d   1       1.488  -1.093   0.228  0.00  0.00     0.143 A 
ATOM      2  C2  UNL d   1       1.574   0.238   0.652  0.00  0.00    -0.057 A 
ATOM      3  C3  UNL d   1       0.507   1.127   0.473  0.00  0.00     0.033 A 
ATOM      4  C4  UNL d   1      -0.658   0.706  -0.161  0.00  0.00    -0.042 A 
ATOM      5  C5  UNL d   1      -0.755  -0.605  -0.613  0.00  0.00     0.033 A 
ATOM      6  C6  UNL d   1       0.311  -1.490  -0.425  0.00  0.00    -0.057 A 
ENDROOT
BRANCH   1   7
ATOM      7  N   UNL d   1       2.551  -1.998   0.288  0.00  0.00    -0.732 N 
ATOM      8  C   UNL d   1       3.803  -1.624   0.910  0.00  0.00     0.284 C 
ATOM      9  H3  UNL d   1       2.244  -2.943   0.507  0.00  0.00     0.395 HD
ENDBRANCH   1   7
TORSDOF 1
ENDMDL
