MODEL 1
REMARK minimizedAffinity -3.10931945
REMARK minimizedRMSD -1
REMARK  1 active torsions:
REMARK  status: ('A' for Active; 'I' for Inactive)
REMARK    1  A    between atoms: N_2  and  C1_3 
ROOT
ATOM      1  C1  UNL d   1       0.252  -0.052  -0.173  0.00  0.00     0.143 A 
ATOM      2  C2  UNL d   1       0.697  -1.281  -0.670  0.00  0.00    -0.057 A 
ATOM      3  C3  UNL d   1       1.984  -1.756  -0.387  0.00  0.00     0.033 A 
ATOM      4  C4  UNL d   1       2.861  -0.993   0.377  0.00  0.00    -0.042 A 
ATOM      5  C5  UNL d   1       2.448   0.243   0.860  0.00  0.00     0.033 A 
ATOM      6  C6  UNL d   1       1.160   0.709   0.580  0.00  0.00    -0.057 A 
ENDROOT
BRANCH   1   7
ATOM      7  N   UNL d   1      -0.980   0.519  -0.501  0.00  0.00    -0.732 N 
ATOM      8  C   UNL d   1      -1.996   0.713   0.512  0.00  0.00     0.284 C 
ATOM      9  H3  UNL d   1      -0.887   1.297  -1.150  0.00  0.00     0.395 HD
ENDBRANCH   1   7
TORSDOF 1
ENDMDL
