MODEL 1
REMARK minimizedAffinity -1.56493294
REMARK minimizedRMSD -1
REMARK  1 active torsions:
REMARK  status: ('A' for Active; 'I' for Inactive)
REMARK    1  A    between atoms: N_2  and  C1_3 
ROOT
ATOM      1  C1  UNL d   1      -0.812   0.568  -0.253  0.00  0.00     0.143 A 
ATOM      2  C2  UNL d   1      -0.149   1.730  -0.665  0.00  0.00    -0.057 A 
ATOM      3  C3  UNL d   1       1.205   1.936  -0.373  0.00  0.00     0.033 A 
ATOM      4  C4  UNL d   1       1.915   0.993   0.363  0.00  0.00    -0.042 A 
ATOM      5  C5  UNL d   1       1.270  -0.157   0.804  0.00  0.00     0.033 A 
ATOM      6  C6  UNL d   1      -0.080  -0.360   0.504  0.00  0.00    -0.057 A 
ENDROOT
BRANCH   1   7
ATOM      7  N   UNL d   1      -2.181   0.351  -0.427  0.00  0.00    -0.732 N 
ATOM      8  C   UNL d   1      -3.126   0.748   0.595  0.00  0.00     0.284 C 
ATOM      9  H3  UNL d   1      -2.488   0.547  -1.376  0.00  0.00     0.395 HD
ENDBRANCH   1   7
TORSDOF 1
ENDMDL
