MODEL 1
REMARK minimizedAffinity -4.73409367
REMARK minimizedRMSD -1
REMARK  1 active torsions:
REMARK  status: ('A' for Active; 'I' for Inactive)
REMARK    1  A    between atoms: N_2  and  C1_3 
ROOT
ATOM      1  C1  UNL d   1       1.105  -0.818   0.076  0.00  0.00     0.143 A 
ATOM      2  C2  UNL d   1       2.204  -1.648  -0.167  0.00  0.00    -0.057 A 
ATOM      3  C3  UNL d   1       3.513  -1.205   0.057  0.00  0.00     0.033 A 
ATOM      4  C4  UNL d   1       3.747   0.092   0.503  0.00  0.00    -0.042 A 
ATOM      5  C5  UNL d   1       2.671   0.943   0.727  0.00  0.00     0.033 A 
ATOM      6  C6  UNL d   1       1.366   0.492   0.507  0.00  0.00    -0.057 A 
ENDROOT
BRANCH   1   7
ATOM      7  N   UNL d   1      -0.215  -1.167  -0.222  0.00  0.00    -0.732 N 
ATOM      8  C   UNL d   1      -1.222  -0.146  -0.415  0.00  0.00     0.284 C 
ATOM      9  H3  UNL d   1      -0.273  -1.938  -0.883  0.00  0.00     0.395 HD
ENDBRANCH   1   7
TORSDOF 1
ENDMDL
