MODEL 1
REMARK minimizedAffinity -0.8179425
REMARK minimizedRMSD -1
REMARK  1 active torsions:
REMARK  status: ('A' for Active; 'I' for Inactive)
REMARK    1  A    between atoms: N_2  and  C1_3 
ROOT
ATOM      1  C1  UNL d   1       1.523   0.115   0.841  0.00  0.00     0.143 A 
ATOM      2  C2  UNL d   1       0.246   0.427   0.362  0.00  0.00    -0.057 A 
ATOM      3  C3  UNL d   1      -0.462  -0.466  -0.451  0.00  0.00     0.033 A 
ATOM      4  C4  UNL d   1       0.108  -1.678  -0.824  0.00  0.00    -0.042 A 
ATOM      5  C5  UNL d   1       1.386  -1.998  -0.380  0.00  0.00     0.033 A 
ATOM      6  C6  UNL d   1       2.086  -1.105   0.437  0.00  0.00    -0.057 A 
ENDROOT
BRANCH   1   7
ATOM      7  N   UNL d   1       2.317   1.002   1.572  0.00  0.00    -0.732 N 
ATOM      8  C   UNL d   1       2.380   2.403   1.213  0.00  0.00     0.284 C 
ATOM      9  H3  UNL d   1       2.269   0.832   2.574  0.00  0.00     0.395 HD
ENDBRANCH   1   7
TORSDOF 1
ENDMDL
