MODEL 1
REMARK minimizedAffinity -6.18410635
REMARK minimizedRMSD -1
REMARK  0 active torsions:
REMARK  status: ('A' for Active; 'I' for Inactive)
ROOT
ATOM      1  N1  IND d   1      -1.217   0.170   2.251  0.00  0.00    -0.196 N 
ATOM      2  C2  IND d   1      -0.315  -0.851   2.133  0.00  0.00     0.054 A 
ATOM      3  C3  IND d   1       0.185  -0.893   0.877  0.00  0.00    -0.031 A 
ATOM      4  C4  IND d   1      -0.259   0.676  -1.114  0.00  0.00     0.051 A 
ATOM      5  C5  IND d   1      -1.035   1.733  -1.501  0.00  0.00    -0.031 A 
ATOM      6  C6  IND d   1      -1.927   2.337  -0.638  0.00  0.00     0.015 A 
ATOM      7  C7  IND d   1      -2.069   1.911   0.652  0.00  0.00    -0.016 A 
ATOM      8  C8  IND d   1      -1.288   0.834   1.046  0.00  0.00    -0.047 A 
ATOM      9  C9  IND d   1      -0.412   0.190   0.163  0.00  0.00    -0.096 A 
ATOM     10  HN1 IND d   1      -1.664   0.364   2.959  0.00  0.00     0.298 HD
ENDROOT
TORSDOF 0
ENDMDL
