MODEL 1
REMARK minimizedAffinity -2.01418781
REMARK minimizedRMSD -1
REMARK  0 active torsions:
REMARK  status: ('A' for Active; 'I' for Inactive)
ROOT
ATOM      1  N1  IND d   1       1.329   0.793  -1.803  0.00  0.00    -0.196 N 
ATOM      2  C2  IND d   1       0.802   2.020  -2.095  0.00  0.00     0.054 A 
ATOM      3  C3  IND d   1      -0.150   2.351  -1.193  0.00  0.00    -0.031 A 
ATOM      4  C4  IND d   1      -0.933   1.074   0.900  0.00  0.00     0.051 A 
ATOM      5  C5  IND d   1      -0.771  -0.111   1.563  0.00  0.00    -0.031 A 
ATOM      6  C6  IND d   1       0.119  -1.073   1.130  0.00  0.00     0.015 A 
ATOM      7  C7  IND d   1       0.892  -0.880   0.021  0.00  0.00    -0.016 A 
ATOM      8  C8  IND d   1       0.725   0.318  -0.659  0.00  0.00    -0.047 A 
ATOM      9  C9  IND d   1      -0.207   1.280  -0.249  0.00  0.00    -0.096 A 
ATOM     10  HN1 IND d   1       1.935   0.386  -2.257  0.00  0.00     0.298 HD
ENDROOT
TORSDOF 0
ENDMDL
