MODEL 1
REMARK minimizedAffinity -4.34181881
REMARK minimizedRMSD -1
REMARK  0 active torsions:
REMARK  status: ('A' for Active; 'I' for Inactive)
ROOT
ATOM      1  N1  IND d   1       0.901  -1.095  -1.856  0.00  0.00    -0.196 N 
ATOM      2  C2  IND d   1       1.594  -0.919  -0.691  0.00  0.00     0.054 A 
ATOM      3  C3  IND d   1       1.708  -2.093  -0.030  0.00  0.00    -0.031 A 
ATOM      4  C4  IND d   1       0.922  -4.444  -0.724  0.00  0.00     0.051 A 
ATOM      5  C5  IND d   1       0.210  -5.101  -1.688  0.00  0.00    -0.031 A 
ATOM      6  C6  IND d   1      -0.316  -4.443  -2.781  0.00  0.00     0.015 A 
ATOM      7  C7  IND d   1      -0.140  -3.100  -2.957  0.00  0.00    -0.016 A 
ATOM      8  C8  IND d   1       0.577  -2.428  -1.976  0.00  0.00    -0.047 A 
ATOM      9  C9  IND d   1       1.077  -3.083  -0.843  0.00  0.00    -0.096 A 
ATOM     10  HN1 IND d   1       0.701  -0.476  -2.419  0.00  0.00     0.298 HD
ENDROOT
TORSDOF 0
ENDMDL
