MODEL 1
REMARK minimizedAffinity -5.01012278
REMARK minimizedRMSD -1
REMARK  0 active torsions:
REMARK  status: ('A' for Active; 'I' for Inactive)
ROOT
ATOM      1  N1  IND d   1       0.488  -0.561  -0.351  0.00  0.00    -0.196 N 
ATOM      2  C2  IND d   1       0.368   0.207  -1.475  0.00  0.00     0.054 A 
ATOM      3  C3  IND d   1      -0.437   1.267  -1.237  0.00  0.00    -0.031 A 
ATOM      4  C4  IND d   1      -1.584   1.990   0.952  0.00  0.00     0.051 A 
ATOM      5  C5  IND d   1      -1.799   1.586   2.240  0.00  0.00    -0.031 A 
ATOM      6  C6  IND d   1      -1.249   0.424   2.741  0.00  0.00     0.015 A 
ATOM      7  C7  IND d   1      -0.451  -0.376   1.972  0.00  0.00    -0.016 A 
ATOM      8  C8  IND d   1      -0.237   0.027   0.662  0.00  0.00    -0.047 A 
ATOM      9  C9  IND d   1      -0.826   1.184   0.135  0.00  0.00    -0.096 A 
ATOM     10  HN1 IND d   1       0.940  -1.290  -0.287  0.00  0.00     0.298 HD
ENDROOT
TORSDOF 0
ENDMDL
