MODEL 1
REMARK minimizedAffinity -1.86731839
REMARK minimizedRMSD -1
REMARK  0 active torsions:
REMARK  status: ('A' for Active; 'I' for Inactive)
ROOT
ATOM      1  N1  IND d   1      -1.332   2.248   1.477  0.00  0.00    -0.196 N 
ATOM      2  C2  IND d   1      -1.475   1.231   2.379  0.00  0.00     0.054 A 
ATOM      3  C3  IND d   1      -0.851   0.117   1.935  0.00  0.00    -0.031 A 
ATOM      4  C4  IND d   1       0.550  -0.233  -0.196  0.00  0.00     0.051 A 
ATOM      5  C5  IND d   1       0.935   0.395  -1.348  0.00  0.00    -0.031 A 
ATOM      6  C6  IND d   1       0.579   1.700  -1.621  0.00  0.00     0.015 A 
ATOM      7  C7  IND d   1      -0.169   2.433  -0.743  0.00  0.00    -0.016 A 
ATOM      8  C8  IND d   1      -0.568   1.796   0.424  0.00  0.00    -0.047 A 
ATOM      9  C9  IND d   1      -0.245   0.459   0.687  0.00  0.00    -0.096 A 
ATOM     10  HN1 IND d   1      -1.665   3.038   1.554  0.00  0.00     0.298 HD
ENDROOT
TORSDOF 0
ENDMDL
