MODEL 1
REMARK minimizedAffinity -4.06987238
REMARK minimizedRMSD -1
REMARK  0 active torsions:
REMARK  status: ('A' for Active; 'I' for Inactive)
ROOT
ATOM      1  N1  IND d   1       0.406   1.718  -1.165  0.00  0.00    -0.196 N 
ATOM      2  C2  IND d   1       1.236   0.654  -1.387  0.00  0.00     0.054 A 
ATOM      3  C3  IND d   1       0.990  -0.328  -0.491  0.00  0.00    -0.031 A 
ATOM      4  C4  IND d   1      -0.795  -0.445   1.360  0.00  0.00     0.051 A 
ATOM      5  C5  IND d   1      -1.763   0.302   1.972  0.00  0.00    -0.031 A 
ATOM      6  C6  IND d   1      -2.066   1.583   1.558  0.00  0.00     0.015 A 
ATOM      7  C7  IND d   1      -1.416   2.164   0.506  0.00  0.00    -0.016 A 
ATOM      8  C8  IND d   1      -0.427   1.412  -0.112  0.00  0.00    -0.047 A 
ATOM      9  C9  IND d   1      -0.087   0.127   0.330  0.00  0.00    -0.096 A 
ATOM     10  HN1 IND d   1       0.406   2.455  -1.609  0.00  0.00     0.298 HD
ENDROOT
TORSDOF 0
ENDMDL
