MODEL 1
REMARK minimizedAffinity -2.21998572
REMARK minimizedRMSD -1
REMARK  0 active torsions:
REMARK  status: ('A' for Active; 'I' for Inactive)
ROOT
ATOM      1  N1  IND d   1       1.016  -0.270  -1.345  0.00  0.00    -0.196 N 
ATOM      2  C2  IND d   1       1.037  -1.540  -0.841  0.00  0.00     0.054 A 
ATOM      3  C3  IND d   1       0.480  -1.567   0.391  0.00  0.00    -0.031 A 
ATOM      4  C4  IND d   1      -0.621   0.337   1.730  0.00  0.00     0.051 A 
ATOM      5  C5  IND d   1      -0.848   1.684   1.699  0.00  0.00    -0.031 A 
ATOM      6  C6  IND d   1      -0.461   2.464   0.629  0.00  0.00     0.015 A 
ATOM      7  C7  IND d   1       0.162   1.922  -0.460  0.00  0.00    -0.016 A 
ATOM      8  C8  IND d   1       0.401   0.555  -0.429  0.00  0.00    -0.047 A 
ATOM      9  C9  IND d   1       0.048  -0.235   0.673  0.00  0.00    -0.096 A 
ATOM     10  HN1 IND d   1       1.333  -0.026  -2.106  0.00  0.00     0.298 HD
ENDROOT
TORSDOF 0
ENDMDL
