MODEL 1
REMARK minimizedAffinity 0.710517704
REMARK minimizedRMSD -1
REMARK  0 active torsions:
REMARK  status: ('A' for Active; 'I' for Inactive)
ROOT
ATOM      1  N1  IND d   1       1.185   1.568  -0.274  0.00  0.00    -0.196 N 
ATOM      2  C2  IND d   1       0.504   1.554  -1.459  0.00  0.00     0.054 A 
ATOM      3  C3  IND d   1      -0.538   0.695  -1.394  0.00  0.00    -0.031 A 
ATOM      4  C4  IND d   1      -1.371  -0.716   0.592  0.00  0.00     0.051 A 
ATOM      5  C5  IND d   1      -1.053  -1.064   1.874  0.00  0.00    -0.031 A 
ATOM      6  C6  IND d   1       0.048  -0.540   2.521  0.00  0.00     0.015 A 
ATOM      7  C7  IND d   1       0.869   0.364   1.909  0.00  0.00    -0.016 A 
ATOM      8  C8  IND d   1       0.553   0.715   0.604  0.00  0.00    -0.047 A 
ATOM      9  C9  IND d   1      -0.538   0.154  -0.071  0.00  0.00    -0.096 A 
ATOM     10  HN1 IND d   1       1.889   2.032  -0.105  0.00  0.00     0.298 HD
ENDROOT
TORSDOF 0
ENDMDL
