MODEL 1
REMARK minimizedAffinity -3.69142771
REMARK minimizedRMSD -1
REMARK  0 active torsions:
REMARK  status: ('A' for Active; 'I' for Inactive)
ROOT
ATOM      1  N1  IND d   1       0.725  -1.116   0.300  0.00  0.00    -0.196 N 
ATOM      2  C2  IND d   1       0.624   0.238   0.141  0.00  0.00     0.054 A 
ATOM      3  C3  IND d   1       0.281   0.538  -1.132  0.00  0.00    -0.031 A 
ATOM      4  C4  IND d   1      -0.264  -1.038  -3.093  0.00  0.00     0.051 A 
ATOM      5  C5  IND d   1      -0.274  -2.359  -3.443  0.00  0.00    -0.031 A 
ATOM      6  C6  IND d   1       0.052  -3.354  -2.544  0.00  0.00     0.015 A 
ATOM      7  C7  IND d   1       0.392  -3.064  -1.253  0.00  0.00    -0.016 A 
ATOM      8  C8  IND d   1       0.410  -1.723  -0.896  0.00  0.00    -0.047 A 
ATOM      9  C9  IND d   1       0.120  -0.706  -1.816  0.00  0.00    -0.096 A 
ATOM     10  HN1 IND d   1       0.948  -1.521   1.025  0.00  0.00     0.298 HD
ENDROOT
TORSDOF 0
ENDMDL
