MODEL 1
REMARK minimizedAffinity -6.00040674
REMARK minimizedRMSD -1
REMARK  0 active torsions:
REMARK  status: ('A' for Active; 'I' for Inactive)
ROOT
ATOM      1  N1  IND d   1      -1.539   1.636   2.485  0.00  0.00    -0.196 N 
ATOM      2  C2  IND d   1      -2.327   2.557   1.853  0.00  0.00     0.054 A 
ATOM      3  C3  IND d   1      -2.116   2.519   0.518  0.00  0.00    -0.031 A 
ATOM      4  C4  IND d   1      -0.601   0.955  -0.855  0.00  0.00     0.051 A 
ATOM      5  C5  IND d   1       0.340  -0.027  -0.717  0.00  0.00    -0.031 A 
ATOM      6  C6  IND d   1       0.707  -0.517   0.519  0.00  0.00     0.015 A 
ATOM      7  C7  IND d   1       0.137  -0.048   1.669  0.00  0.00    -0.016 A 
ATOM      8  C8  IND d   1      -0.813   0.954   1.534  0.00  0.00    -0.047 A 
ATOM      9  C9  IND d   1      -1.159   1.484   0.285  0.00  0.00    -0.096 A 
ATOM     10  HN1 IND d   1      -1.503   1.505   3.334  0.00  0.00     0.298 HD
ENDROOT
TORSDOF 0
ENDMDL
