MODEL 1
REMARK minimizedAffinity -6.46205521
REMARK minimizedRMSD -1
REMARK  0 active torsions:
REMARK  status: ('A' for Active; 'I' for Inactive)
ROOT
ATOM      1  N1  IND d   1       1.069   2.070  -1.412  0.00  0.00    -0.196 N 
ATOM      2  C2  IND d   1       1.600   0.823  -1.590  0.00  0.00     0.054 A 
ATOM      3  C3  IND d   1       0.959  -0.076  -0.810  0.00  0.00    -0.031 A 
ATOM      4  C4  IND d   1      -1.056   0.259   0.757  0.00  0.00     0.051 A 
ATOM      5  C5  IND d   1      -1.866   1.229   1.277  0.00  0.00    -0.031 A 
ATOM      6  C6  IND d   1      -1.739   2.555   0.918  0.00  0.00     0.015 A 
ATOM      7  C7  IND d   1      -0.799   2.961   0.013  0.00  0.00    -0.016 A 
ATOM      8  C8  IND d   1       0.030   1.980  -0.512  0.00  0.00    -0.047 A 
ATOM      9  C9  IND d   1      -0.067   0.639  -0.120  0.00  0.00    -0.096 A 
ATOM     10  HN1 IND d   1       1.339   2.790  -1.797  0.00  0.00     0.298 HD
ENDROOT
TORSDOF 0
ENDMDL
