MODEL 1
REMARK minimizedAffinity -5.47530031
REMARK minimizedRMSD -1
REMARK  0 active torsions:
REMARK  status: ('A' for Active; 'I' for Inactive)
ROOT
ATOM      1  N1  IND d   1      -0.293  -0.183   0.696  0.00  0.00    -0.196 N 
ATOM      2  C2  IND d   1      -0.919   0.031   1.892  0.00  0.00     0.054 A 
ATOM      3  C3  IND d   1      -1.038   1.357   2.131  0.00  0.00    -0.031 A 
ATOM      4  C4  IND d   1      -0.368   3.352   0.648  0.00  0.00     0.051 A 
ATOM      5  C5  IND d   1       0.270   3.659  -0.521  0.00  0.00    -0.031 A 
ATOM      6  C6  IND d   1       0.761   2.681  -1.362  0.00  0.00     0.015 A 
ATOM      7  C7  IND d   1       0.621   1.354  -1.070  0.00  0.00    -0.016 A 
ATOM      8  C8  IND d   1      -0.020   1.039   0.119  0.00  0.00    -0.047 A 
ATOM      9  C9  IND d   1      -0.483   2.027   0.998  0.00  0.00    -0.096 A 
ATOM     10  HN1 IND d   1      -0.102  -0.951   0.360  0.00  0.00     0.298 HD
ENDROOT
TORSDOF 0
ENDMDL
