MODEL 1
REMARK minimizedAffinity -3.91806555
REMARK minimizedRMSD -1
REMARK  0 active torsions:
REMARK  status: ('A' for Active; 'I' for Inactive)
ROOT
ATOM      1  N1  IND d   1       0.699  -0.000  -0.971  0.00  0.00    -0.196 N 
ATOM      2  C2  IND d   1       0.537  -1.355  -0.885  0.00  0.00     0.054 A 
ATOM      3  C3  IND d   1      -0.199  -1.673   0.204  0.00  0.00    -0.031 A 
ATOM      4  C4  IND d   1      -1.326  -0.124   1.925  0.00  0.00     0.051 A 
ATOM      5  C5  IND d   1      -1.432   1.190   2.285  0.00  0.00    -0.031 A 
ATOM      6  C6  IND d   1      -0.823   2.195   1.561  0.00  0.00     0.015 A 
ATOM      7  C7  IND d   1      -0.092   1.923   0.440  0.00  0.00    -0.016 A 
ATOM      8  C8  IND d   1       0.024   0.589   0.076  0.00  0.00    -0.047 A 
ATOM      9  C9  IND d   1      -0.556  -0.439   0.830  0.00  0.00    -0.096 A 
ATOM     10  HN1 IND d   1       1.146   0.414  -1.577  0.00  0.00     0.298 HD
ENDROOT
TORSDOF 0
ENDMDL
