MODEL 1
REMARK minimizedAffinity -3.50383615
REMARK minimizedRMSD -1
REMARK  0 active torsions:
REMARK  status: ('A' for Active; 'I' for Inactive)
ROOT
ATOM      1  N1  IND d   1      -0.537  -1.838  -3.011  0.00  0.00    -0.196 N 
ATOM      2  C2  IND d   1      -0.430  -3.184  -2.797  0.00  0.00     0.054 A 
ATOM      3  C3  IND d   1       0.025  -3.427  -1.548  0.00  0.00    -0.031 A 
ATOM      4  C4  IND d   1       0.559  -1.771   0.350  0.00  0.00     0.051 A 
ATOM      5  C5  IND d   1       0.649  -0.434   0.619  0.00  0.00    -0.031 A 
ATOM      6  C6  IND d   1       0.339   0.522  -0.326  0.00  0.00     0.015 A 
ATOM      7  C7  IND d   1      -0.085   0.176  -1.577  0.00  0.00    -0.016 A 
ATOM      8  C8  IND d   1      -0.171  -1.180  -1.857  0.00  0.00    -0.047 A 
ATOM      9  C9  IND d   1       0.184  -2.156  -0.916  0.00  0.00    -0.096 A 
ATOM     10  HN1 IND d   1      -0.791  -1.464  -3.742  0.00  0.00     0.298 HD
ENDROOT
TORSDOF 0
ENDMDL
