MODEL 1
REMARK minimizedAffinity -3.20343661
REMARK minimizedRMSD -1
REMARK  0 active torsions:
REMARK  status: ('A' for Active; 'I' for Inactive)
ROOT
ATOM      1  N1  IND d   1      -0.106   0.823  -1.355  0.00  0.00    -0.196 N 
ATOM      2  C2  IND d   1      -0.736   1.959  -1.780  0.00  0.00     0.054 A 
ATOM      3  C3  IND d   1      -1.320   2.591  -0.737  0.00  0.00    -0.031 A 
ATOM      4  C4  IND d   1      -1.281   1.993   1.767  0.00  0.00     0.051 A 
ATOM      5  C5  IND d   1      -0.863   1.026   2.637  0.00  0.00    -0.031 A 
ATOM      6  C6  IND d   1      -0.154  -0.080   2.213  0.00  0.00     0.015 A 
ATOM      7  C7  IND d   1       0.174  -0.254   0.898  0.00  0.00    -0.016 A 
ATOM      8  C8  IND d   1      -0.255   0.723   0.011  0.00  0.00    -0.047 A 
ATOM      9  C9  IND d   1      -1.011   1.825   0.430  0.00  0.00    -0.096 A 
ATOM     10  HN1 IND d   1       0.314   0.265  -1.856  0.00  0.00     0.298 HD
ENDROOT
TORSDOF 0
ENDMDL
