MODEL 1
REMARK minimizedAffinity 1.90267539
REMARK minimizedRMSD -1
REMARK  0 active torsions:
REMARK  status: ('A' for Active; 'I' for Inactive)
ROOT
ATOM      1  N1  IND d   1      -4.406   3.094  -4.020  0.00  0.00    -0.196 N 
ATOM      2  C2  IND d   1      -3.695   4.230  -4.286  0.00  0.00     0.054 A 
ATOM      3  C3  IND d   1      -2.592   4.288  -3.506  0.00  0.00    -0.031 A 
ATOM      4  C4  IND d   1      -1.705   2.579  -1.797  0.00  0.00     0.051 A 
ATOM      5  C5  IND d   1      -2.030   1.402  -1.183  0.00  0.00    -0.031 A 
ATOM      6  C6  IND d   1      -3.185   0.713  -1.492  0.00  0.00     0.015 A 
ATOM      7  C7  IND d   1      -4.057   1.173  -2.438  0.00  0.00    -0.016 A 
ATOM      8  C8  IND d   1      -3.734   2.371  -3.059  0.00  0.00    -0.047 A 
ATOM      9  C9  IND d   1      -2.585   3.096  -2.719  0.00  0.00    -0.096 A 
ATOM     10  HN1 IND d   1      -5.148   2.868  -4.391  0.00  0.00     0.298 HD
ENDROOT
TORSDOF 0
ENDMDL
