MODEL 1
REMARK minimizedAffinity 19.9284515
REMARK minimizedRMSD -1
REMARK  0 active torsions:
REMARK  status: ('A' for Active; 'I' for Inactive)
ROOT
ATOM      1  C   UNL d   1      -5.315   1.475  -4.856  0.00  0.00    -0.002 A 
ATOM      2  C1  UNL d   1      -5.969   2.471  -4.145  0.00  0.00     0.010 A 
ATOM      3  C2  UNL d   1      -6.000   2.444  -2.749  0.00  0.00     0.041 A 
ATOM      4  C3  UNL d   1      -5.353   1.391  -2.073  0.00  0.00    -0.075 A 
ATOM      5  S   UNL d   1      -5.258   1.152  -0.369  0.00  0.00     0.015 SA
ATOM      6  C4  UNL d   1      -4.346  -0.276  -0.544  0.00  0.00     0.022 A 
ATOM      7  C5  UNL d   1      -4.110  -0.579  -1.864  0.00  0.00     0.026 A 
ATOM      8  C6  UNL d   1      -4.686   0.377  -2.767  0.00  0.00    -0.082 A 
ATOM      9  C7  UNL d   1      -4.674   0.432  -4.182  0.00  0.00     0.045 A 
ENDROOT
TORSDOF 0
ENDMDL
