MODEL 1
REMARK minimizedAffinity 18.1153984
REMARK minimizedRMSD -1
REMARK  0 active torsions:
REMARK  status: ('A' for Active; 'I' for Inactive)
ROOT
ATOM      1  C   UNL d   1       1.685  -0.408  -0.028  0.00  0.00    -0.002 A 
ATOM      2  C1  UNL d   1       1.462   0.643   0.850  0.00  0.00     0.010 A 
ATOM      3  C2  UNL d   1       2.352   1.717   0.913  0.00  0.00     0.041 A 
ATOM      4  C3  UNL d   1       3.480   1.717   0.070  0.00  0.00    -0.075 A 
ATOM      5  S   UNL d   1       4.705   2.927  -0.027  0.00  0.00     0.015 SA
ATOM      6  C4  UNL d   1       5.553   2.077  -1.237  0.00  0.00     0.022 A 
ATOM      7  C5  UNL d   1       4.931   0.897  -1.571  0.00  0.00     0.026 A 
ATOM      8  C6  UNL d   1       3.726   0.671  -0.824  0.00  0.00    -0.082 A 
ATOM      9  C7  UNL d   1       2.805  -0.404  -0.864  0.00  0.00     0.045 A 
ENDROOT
TORSDOF 0
ENDMDL
