MODEL 1
REMARK minimizedAffinity 13.3139563
REMARK minimizedRMSD -1
REMARK  0 active torsions:
REMARK  status: ('A' for Active; 'I' for Inactive)
ROOT
ATOM      1  C   UNL d   1       1.980  -0.899  -0.012  0.00  0.00    -0.002 A 
ATOM      2  C1  UNL d   1       1.366   0.345  -0.026  0.00  0.00     0.010 A 
ATOM      3  C2  UNL d   1       2.129   1.513  -0.061  0.00  0.00     0.041 A 
ATOM      4  C3  UNL d   1       3.534   1.409  -0.085  0.00  0.00    -0.075 A 
ATOM      5  S   UNL d   1       4.672   2.704  -0.131  0.00  0.00     0.015 SA
ATOM      6  C4  UNL d   1       6.000   1.636  -0.135  0.00  0.00     0.022 A 
ATOM      7  C5  UNL d   1       5.603   0.320  -0.102  0.00  0.00     0.026 A 
ATOM      8  C6  UNL d   1       4.175   0.167  -0.074  0.00  0.00    -0.082 A 
ATOM      9  C7  UNL d   1       3.374  -0.999  -0.036  0.00  0.00     0.045 A 
ENDROOT
TORSDOF 0
ENDMDL
