MODEL 1
REMARK minimizedAffinity 15.3951426
REMARK minimizedRMSD -1
REMARK  0 active torsions:
REMARK  status: ('A' for Active; 'I' for Inactive)
ROOT
ATOM      1  C   UNL d   1       1.284   0.158   3.569  0.00  0.00    -0.002 A 
ATOM      2  C1  UNL d   1       0.435   0.378   4.644  0.00  0.00     0.010 A 
ATOM      3  C2  UNL d   1      -0.006   1.668   4.948  0.00  0.00     0.041 A 
ATOM      4  C3  UNL d   1       0.425   2.742   4.145  0.00  0.00    -0.075 A 
ATOM      5  S   UNL d   1       0.014   4.407   4.328  0.00  0.00     0.015 SA
ATOM      6  C4  UNL d   1       0.956   4.864   2.983  0.00  0.00     0.022 A 
ATOM      7  C5  UNL d   1       1.576   3.786   2.397  0.00  0.00     0.026 A 
ATOM      8  C6  UNL d   1       1.280   2.545   3.057  0.00  0.00    -0.082 A 
ATOM      9  C7  UNL d   1       1.710   1.226   2.775  0.00  0.00     0.045 A 
ENDROOT
TORSDOF 0
ENDMDL
