MODEL 1
REMARK minimizedAffinity 9.09841251
REMARK minimizedRMSD -1
REMARK  0 active torsions:
REMARK  status: ('A' for Active; 'I' for Inactive)
ROOT
ATOM      1  C   UNL d   1      -5.337   5.981   0.600  0.00  0.00    -0.002 A 
ATOM      2  C1  UNL d   1      -3.950   5.987   0.552  0.00  0.00     0.010 A 
ATOM      3  C2  UNL d   1      -3.198   5.993   1.728  0.00  0.00     0.041 A 
ATOM      4  C3  UNL d   1      -3.870   5.991   2.966  0.00  0.00    -0.075 A 
ATOM      5  S   UNL d   1      -3.157   5.996   4.536  0.00  0.00     0.015 SA
ATOM      6  C4  UNL d   1      -4.676   5.990   5.308  0.00  0.00     0.022 A 
ATOM      7  C5  UNL d   1      -5.713   5.984   4.405  0.00  0.00     0.026 A 
ATOM      8  C6  UNL d   1      -5.266   5.984   3.041  0.00  0.00    -0.082 A 
ATOM      9  C7  UNL d   1      -6.000   5.979   1.830  0.00  0.00     0.045 A 
ENDROOT
TORSDOF 0
ENDMDL
