MODEL 1
REMARK minimizedAffinity 2.79828525
REMARK minimizedRMSD -1
REMARK  0 active torsions:
REMARK  status: ('A' for Active; 'I' for Inactive)
ROOT
ATOM      1  C   UNL d   1      -4.472   5.813   0.748  0.00  0.00    -0.002 A 
ATOM      2  C1  UNL d   1      -3.140   5.918   1.123  0.00  0.00     0.010 A 
ATOM      3  C2  UNL d   1      -2.784   5.983   2.472  0.00  0.00     0.041 A 
ATOM      4  C3  UNL d   1      -3.800   5.937   3.447  0.00  0.00    -0.075 A 
ATOM      5  S   UNL d   1      -3.602   6.000   5.158  0.00  0.00     0.015 SA
ATOM      6  C4  UNL d   1      -5.280   5.887   5.432  0.00  0.00     0.022 A 
ATOM      7  C5  UNL d   1      -5.990   5.804   4.257  0.00  0.00     0.026 A 
ATOM      8  C6  UNL d   1      -5.148   5.830   3.094  0.00  0.00    -0.082 A 
ATOM      9  C7  UNL d   1      -5.476   5.768   1.718  0.00  0.00     0.045 A 
ENDROOT
TORSDOF 0
ENDMDL
