MODEL 1
REMARK minimizedAffinity -3.06280184
REMARK minimizedRMSD -1
REMARK  0 active torsions:
REMARK  status: ('A' for Active; 'I' for Inactive)
ROOT
ATOM      1  C   UNL d   1      -3.870   5.999   1.101  0.00  0.00    -0.002 A 
ATOM      2  C1  UNL d   1      -5.258   5.994   1.071  0.00  0.00     0.010 A 
ATOM      3  C2  UNL d   1      -5.994   5.968   2.257  0.00  0.00     0.041 A 
ATOM      4  C3  UNL d   1      -5.306   5.950   3.486  0.00  0.00    -0.075 A 
ATOM      5  S   UNL d   1      -5.999   5.918   5.064  0.00  0.00     0.015 SA
ATOM      6  C4  UNL d   1      -4.470   5.911   5.817  0.00  0.00     0.022 A 
ATOM      7  C5  UNL d   1      -3.445   5.932   4.901  0.00  0.00     0.026 A 
ATOM      8  C6  UNL d   1      -3.910   5.955   3.543  0.00  0.00    -0.082 A 
ATOM      9  C7  UNL d   1      -3.192   5.980   2.323  0.00  0.00     0.045 A 
ENDROOT
TORSDOF 0
ENDMDL
