MODEL 1
REMARK minimizedAffinity -1.50147212
REMARK minimizedRMSD -1
REMARK  1 active torsions:
REMARK  status: ('A' for Active; 'I' for Inactive)
REMARK    1  A    between atoms: C1_2  and  C2_3 
ROOT
ATOM      1  C2  UNL d   1      -0.924   0.261   1.428  0.00  0.00    -0.081 A 
ATOM      2  C3  UNL d   1      -1.486  -0.735   0.619  0.00  0.00     0.006 A 
ATOM      3  C4  UNL d   1      -0.748  -1.300  -0.425  0.00  0.00     0.002 A 
ATOM      4  C5  UNL d   1       0.565  -0.884  -0.671  0.00  0.00    -0.080 A 
ATOM      5  C6  UNL d   1       1.378  -1.503  -1.769  0.00  0.00     0.076 C 
ATOM      6  C7  UNL d   1       1.120   0.123   0.126  0.00  0.00     0.002 A 
ATOM      7  C8  UNL d   1       0.382   0.688   1.168  0.00  0.00     0.006 A 
ENDROOT
BRANCH   1   8
ATOM      8  C1  UNL d   1      -1.695   0.825   2.594  0.00  0.00     0.054 C 
ATOM      9  C   UNL d   1      -0.777   1.567   3.556  0.00  0.00     0.018 C 
ENDBRANCH   1   8
TORSDOF 1
ENDMDL
