MODEL 1
REMARK minimizedAffinity -1.05371034
REMARK minimizedRMSD -1
REMARK  1 active torsions:
REMARK  status: ('A' for Active; 'I' for Inactive)
REMARK    1  A    between atoms: C1_2  and  C2_3 
ROOT
ATOM      1  C2  UNL d   1      -1.302  -0.192   1.145  0.00  0.00    -0.081 A 
ATOM      2  C3  UNL d   1      -0.736  -1.471   1.216  0.00  0.00     0.006 A 
ATOM      3  C4  UNL d   1       0.197  -1.886   0.264  0.00  0.00     0.002 A 
ATOM      4  C5  UNL d   1       0.587  -1.028  -0.770  0.00  0.00    -0.080 A 
ATOM      5  C6  UNL d   1       1.610  -1.451  -1.781  0.00  0.00     0.076 C 
ATOM      6  C7  UNL d   1       0.009   0.243  -0.852  0.00  0.00     0.002 A 
ATOM      7  C8  UNL d   1      -0.925   0.659   0.100  0.00  0.00     0.006 A 
ENDROOT
BRANCH   1   8
ATOM      8  C1  UNL d   1      -2.260   0.283   2.207  0.00  0.00     0.054 C 
ATOM      9  C   UNL d   1      -1.545   1.105   3.270  0.00  0.00     0.018 C 
ENDBRANCH   1   8
TORSDOF 1
ENDMDL
