MODEL 1
REMARK minimizedAffinity 8.30727005
REMARK minimizedRMSD -1
REMARK  1 active torsions:
REMARK  status: ('A' for Active; 'I' for Inactive)
REMARK    1  A    between atoms: C1_2  and  C2_3 
ROOT
ATOM      1  C2  UNL d   1      -2.475  -0.407   3.919  0.00  0.00    -0.081 A 
ATOM      2  C3  UNL d   1      -3.016  -0.574   2.638  0.00  0.00     0.006 A 
ATOM      3  C4  UNL d   1      -4.025  -1.513   2.412  0.00  0.00     0.002 A 
ATOM      4  C5  UNL d   1      -4.516  -2.294   3.464  0.00  0.00    -0.080 A 
ATOM      5  C6  UNL d   1      -5.620  -3.284   3.241  0.00  0.00     0.076 C 
ATOM      6  C7  UNL d   1      -3.964  -2.139   4.740  0.00  0.00     0.002 A 
ATOM      7  C8  UNL d   1      -2.955  -1.201   4.966  0.00  0.00     0.006 A 
ENDROOT
BRANCH   1   8
ATOM      8  C1  UNL d   1      -1.432   0.650   4.178  0.00  0.00     0.054 C 
ATOM      9  C   UNL d   1      -1.815   1.975   3.534  0.00  0.00     0.018 C 
ENDBRANCH   1   8
TORSDOF 1
ENDMDL
