MODEL 1
REMARK minimizedAffinity -2.72669125
REMARK minimizedRMSD -1
REMARK  1 active torsions:
REMARK  status: ('A' for Active; 'I' for Inactive)
REMARK    1  A    between atoms: C1_2  and  C2_3 
ROOT
ATOM      1  C2  UNL d   1       1.167  -0.986  -0.597  0.00  0.00    -0.081 A 
ATOM      2  C3  UNL d   1       0.895  -1.682   0.587  0.00  0.00     0.006 A 
ATOM      3  C4  UNL d   1      -0.117  -1.248   1.447  0.00  0.00     0.002 A 
ATOM      4  C5  UNL d   1      -0.878  -0.116   1.134  0.00  0.00    -0.080 A 
ATOM      5  C6  UNL d   1      -1.987   0.343   2.033  0.00  0.00     0.076 C 
ATOM      6  C7  UNL d   1      -0.594   0.589  -0.041  0.00  0.00     0.002 A 
ATOM      7  C8  UNL d   1       0.418   0.156  -0.900  0.00  0.00     0.006 A 
ENDROOT
BRANCH   1   8
ATOM      8  C1  UNL d   1       2.214  -1.488  -1.558  0.00  0.00     0.054 C 
ATOM      9  C   UNL d   1       2.780  -0.355  -2.403  0.00  0.00     0.018 C 
ENDBRANCH   1   8
TORSDOF 1
ENDMDL
