MODEL 1
REMARK minimizedAffinity -3.34259224
REMARK minimizedRMSD -1
REMARK  1 active torsions:
REMARK  status: ('A' for Active; 'I' for Inactive)
REMARK    1  A    between atoms: C1_2  and  C2_3 
ROOT
ATOM      1  C2  UNL d   1      -0.898  -0.122   0.439  0.00  0.00    -0.081 A 
ATOM      2  C3  UNL d   1      -0.305  -1.274   0.970  0.00  0.00     0.006 A 
ATOM      3  C4  UNL d   1       0.958  -1.684   0.537  0.00  0.00     0.002 A 
ATOM      4  C5  UNL d   1       1.652  -0.946  -0.428  0.00  0.00    -0.080 A 
ATOM      5  C6  UNL d   1       3.021  -1.359  -0.879  0.00  0.00     0.076 C 
ATOM      6  C7  UNL d   1       1.052   0.195  -0.972  0.00  0.00     0.002 A 
ATOM      7  C8  UNL d   1      -0.211   0.605  -0.540  0.00  0.00     0.006 A 
ENDROOT
BRANCH   1   8
ATOM      8  C1  UNL d   1      -2.232   0.359   0.950  0.00  0.00     0.054 C 
ATOM      9  C   UNL d   1      -2.197   0.590   2.454  0.00  0.00     0.018 C 
ENDBRANCH   1   8
TORSDOF 1
ENDMDL
