MODEL 1
REMARK minimizedAffinity -2.37589836
REMARK minimizedRMSD -1
REMARK  1 active torsions:
REMARK  status: ('A' for Active; 'I' for Inactive)
REMARK    1  A    between atoms: C1_2  and  C2_3 
ROOT
ATOM      1  C2  UNL d   1      -0.013   0.722  -1.105  0.00  0.00    -0.081 A 
ATOM      2  C3  UNL d   1       0.918  -0.004  -1.858  0.00  0.00     0.006 A 
ATOM      3  C4  UNL d   1       1.278  -1.300  -1.480  0.00  0.00     0.002 A 
ATOM      4  C5  UNL d   1       0.708  -1.894  -0.349  0.00  0.00    -0.080 A 
ATOM      5  C6  UNL d   1       1.063  -3.295   0.051  0.00  0.00     0.076 C 
ATOM      6  C7  UNL d   1      -0.209  -1.162   0.413  0.00  0.00     0.002 A 
ATOM      7  C8  UNL d   1      -0.569   0.134   0.036  0.00  0.00     0.006 A 
ENDROOT
BRANCH   1   8
ATOM      8  C1  UNL d   1      -0.451   2.095  -1.547  0.00  0.00     0.054 C 
ATOM      9  C   UNL d   1       0.510   2.680  -2.572  0.00  0.00     0.018 C 
ENDBRANCH   1   8
TORSDOF 1
ENDMDL
