MODEL 1
REMARK minimizedAffinity -4.32608795
REMARK minimizedRMSD -1
REMARK  1 active torsions:
REMARK  status: ('A' for Active; 'I' for Inactive)
REMARK    1  A    between atoms: C1_2  and  C2_3 
ROOT
ATOM      1  C2  UNL d   1       1.323   0.076  -1.390  0.00  0.00    -0.081 A 
ATOM      2  C3  UNL d   1       0.465   1.169  -1.565  0.00  0.00     0.006 A 
ATOM      3  C4  UNL d   1      -0.592   1.389  -0.679  0.00  0.00     0.002 A 
ATOM      4  C5  UNL d   1      -0.804   0.524   0.401  0.00  0.00    -0.080 A 
ATOM      5  C6  UNL d   1      -1.917   0.766   1.377  0.00  0.00     0.076 C 
ATOM      6  C7  UNL d   1       0.042  -0.578   0.565  0.00  0.00     0.002 A 
ATOM      7  C8  UNL d   1       1.099  -0.798  -0.321  0.00  0.00     0.006 A 
ENDROOT
BRANCH   1   8
ATOM      8  C1  UNL d   1       2.503  -0.126  -2.307  0.00  0.00     0.054 C 
ATOM      9  C   UNL d   1       2.276  -1.299  -3.249  0.00  0.00     0.018 C 
ENDBRANCH   1   8
TORSDOF 1
ENDMDL
