MODEL 1
REMARK minimizedAffinity -2.64988112
REMARK minimizedRMSD -1
REMARK  1 active torsions:
REMARK  status: ('A' for Active; 'I' for Inactive)
REMARK    1  A    between atoms: C1_2  and  C2_3 
ROOT
ATOM      1  C2  UNL d   1      -0.985   0.271   1.117  0.00  0.00    -0.081 A 
ATOM      2  C3  UNL d   1      -0.402  -0.998   1.208  0.00  0.00     0.006 A 
ATOM      3  C4  UNL d   1       0.532  -1.418   0.259  0.00  0.00     0.002 A 
ATOM      4  C5  UNL d   1       0.905  -0.574  -0.793  0.00  0.00    -0.080 A 
ATOM      5  C6  UNL d   1       1.929  -1.001  -1.802  0.00  0.00     0.076 C 
ATOM      6  C7  UNL d   1       0.309   0.688  -0.894  0.00  0.00     0.002 A 
ATOM      7  C8  UNL d   1      -0.625   1.108   0.055  0.00  0.00     0.006 A 
ENDROOT
BRANCH   1   8
ATOM      8  C1  UNL d   1      -1.944   0.752   2.176  0.00  0.00     0.054 C 
ATOM      9  C   UNL d   1      -1.276   0.813   3.541  0.00  0.00     0.018 C 
ENDBRANCH   1   8
TORSDOF 1
ENDMDL
