MODEL 1
REMARK minimizedAffinity -3.46823692
REMARK minimizedRMSD -1
REMARK  1 active torsions:
REMARK  status: ('A' for Active; 'I' for Inactive)
REMARK    1  A    between atoms: C1_2  and  C2_3 
ROOT
ATOM      1  C2  UNL d   1      -0.527  -0.334   0.224  0.00  0.00    -0.081 A 
ATOM      2  C3  UNL d   1       0.198  -1.504  -0.032  0.00  0.00     0.006 A 
ATOM      3  C4  UNL d   1       1.454  -1.440  -0.642  0.00  0.00     0.002 A 
ATOM      4  C5  UNL d   1       2.008  -0.206  -0.998  0.00  0.00    -0.080 A 
ATOM      5  C6  UNL d   1       3.367  -0.121  -1.625  0.00  0.00     0.076 C 
ATOM      6  C7  UNL d   1       1.276   0.962  -0.757  0.00  0.00     0.002 A 
ATOM      7  C8  UNL d   1       0.020   0.898  -0.148  0.00  0.00     0.006 A 
ENDROOT
BRANCH   1   8
ATOM      8  C1  UNL d   1      -1.852  -0.395   0.940  0.00  0.00     0.054 C 
ATOM      9  C   UNL d   1      -2.139   0.901   1.685  0.00  0.00     0.018 C 
ENDBRANCH   1   8
TORSDOF 1
ENDMDL
