MODEL 1
REMARK minimizedAffinity 0.34045431
REMARK minimizedRMSD -1
REMARK  1 active torsions:
REMARK  status: ('A' for Active; 'I' for Inactive)
REMARK    1  A    between atoms: C1_2  and  C2_3 
ROOT
ATOM      1  C2  UNL d   1       0.490   1.140  -1.911  0.00  0.00    -0.081 A 
ATOM      2  C3  UNL d   1      -0.224   0.729  -0.778  0.00  0.00     0.006 A 
ATOM      3  C4  UNL d   1      -0.080  -0.569  -0.283  0.00  0.00     0.002 A 
ATOM      4  C5  UNL d   1       0.786  -1.474  -0.906  0.00  0.00    -0.080 A 
ATOM      5  C6  UNL d   1       0.973  -2.861  -0.366  0.00  0.00     0.076 C 
ATOM      6  C7  UNL d   1       1.486  -1.069  -2.047  0.00  0.00     0.002 A 
ATOM      7  C8  UNL d   1       1.342   0.229  -2.543  0.00  0.00     0.006 A 
ENDROOT
BRANCH   1   8
ATOM      8  C1  UNL d   1       0.385   2.559  -2.409  0.00  0.00     0.054 C 
ATOM      9  C   UNL d   1      -0.765   3.298  -1.740  0.00  0.00     0.018 C 
ENDBRANCH   1   8
TORSDOF 1
ENDMDL
