MODEL 1
REMARK minimizedAffinity -4.39901876
REMARK minimizedRMSD -1
REMARK  1 active torsions:
REMARK  status: ('A' for Active; 'I' for Inactive)
REMARK    1  A    between atoms: C1_2  and  C2_3 
ROOT
ATOM      1  C2  UNL d   1       1.880   0.252  -1.814  0.00  0.00    -0.081 A 
ATOM      2  C3  UNL d   1       2.783  -0.778  -2.108  0.00  0.00     0.006 A 
ATOM      3  C4  UNL d   1       3.689  -0.645  -3.163  0.00  0.00     0.002 A 
ATOM      4  C5  UNL d   1       3.715   0.522  -3.934  0.00  0.00    -0.080 A 
ATOM      5  C6  UNL d   1       4.703   0.690  -5.050  0.00  0.00     0.076 C 
ATOM      6  C7  UNL d   1       2.801   1.543  -3.652  0.00  0.00     0.002 A 
ATOM      7  C8  UNL d   1       1.894   1.411  -2.598  0.00  0.00     0.006 A 
ENDROOT
BRANCH   1   8
ATOM      8  C1  UNL d   1       0.945   0.138  -0.637  0.00  0.00     0.054 C 
ATOM      9  C   UNL d   1       0.439   1.505  -0.199  0.00  0.00     0.018 C 
ENDBRANCH   1   8
TORSDOF 1
ENDMDL
