MODEL 1
REMARK minimizedAffinity 2.06275654
REMARK minimizedRMSD -1
REMARK  0 active torsions:
REMARK  status: ('A' for Active; 'I' for Inactive)
ROOT
ATOM      1  C   UNL d   1       3.845  -3.041  -0.275  0.00  0.00     0.077 C 
ATOM      2  C1  UNL d   1       2.480  -2.816   0.305  0.00  0.00    -0.074 A 
ATOM      3  C2  UNL d   1       1.402  -3.629  -0.057  0.00  0.00    -0.005 A 
ATOM      4  C3  UNL d   1       0.140  -3.414   0.498  0.00  0.00     0.006 A 
ATOM      5  C4  UNL d   1      -0.055  -2.385   1.420  0.00  0.00    -0.005 A 
ATOM      6  C5  UNL d   1       1.011  -1.561   1.795  0.00  0.00    -0.074 A 
ATOM      7  C6  UNL d   1       0.821  -0.457   2.791  0.00  0.00     0.077 C 
ATOM      8  C7  UNL d   1       2.277  -1.789   1.238  0.00  0.00    -0.001 A 
ENDROOT
TORSDOF 0
ENDMDL
