MODEL 1
REMARK minimizedAffinity -1.79576254
REMARK minimizedRMSD -1
REMARK  0 active torsions:
REMARK  status: ('A' for Active; 'I' for Inactive)
ROOT
ATOM      1  C   UNL d   1       1.357  -4.484  -0.787  0.00  0.00     0.077 C 
ATOM      2  C1  UNL d   1       1.309  -3.121  -0.163  0.00  0.00    -0.074 A 
ATOM      3  C2  UNL d   1       2.470  -2.515   0.331  0.00  0.00    -0.005 A 
ATOM      4  C3  UNL d   1       2.411  -1.243   0.899  0.00  0.00     0.006 A 
ATOM      5  C4  UNL d   1       1.195  -0.564   0.980  0.00  0.00    -0.005 A 
ATOM      6  C5  UNL d   1       0.025  -1.153   0.491  0.00  0.00    -0.074 A 
ATOM      7  C6  UNL d   1      -1.289  -0.434   0.560  0.00  0.00     0.077 C 
ATOM      8  C7  UNL d   1       0.092  -2.429  -0.086  0.00  0.00    -0.001 A 
ENDROOT
TORSDOF 0
ENDMDL
