MODEL 1
REMARK minimizedAffinity -1.62330854
REMARK minimizedRMSD -1
REMARK  0 active torsions:
REMARK  status: ('A' for Active; 'I' for Inactive)
ROOT
ATOM      1  C   UNL d   1       3.198  -4.366  -0.053  0.00  0.00     0.077 C 
ATOM      2  C1  UNL d   1       2.206  -3.257   0.135  0.00  0.00    -0.074 A 
ATOM      3  C2  UNL d   1       0.833  -3.492   0.005  0.00  0.00    -0.005 A 
ATOM      4  C3  UNL d   1      -0.078  -2.453   0.192  0.00  0.00     0.006 A 
ATOM      5  C4  UNL d   1       0.373  -1.171   0.510  0.00  0.00    -0.005 A 
ATOM      6  C5  UNL d   1       1.741  -0.918   0.644  0.00  0.00    -0.074 A 
ATOM      7  C6  UNL d   1       2.243   0.452   0.995  0.00  0.00     0.077 C 
ATOM      8  C7  UNL d   1       2.651  -1.969   0.462  0.00  0.00    -0.001 A 
ENDROOT
TORSDOF 0
ENDMDL
