MODEL 1
REMARK minimizedAffinity -0.912647724
REMARK minimizedRMSD -1
REMARK  0 active torsions:
REMARK  status: ('A' for Active; 'I' for Inactive)
ROOT
ATOM      1  C   UNL d   1       1.846  -4.276   0.286  0.00  0.00     0.077 C 
ATOM      2  C1  UNL d   1       1.402  -2.856   0.472  0.00  0.00    -0.074 A 
ATOM      3  C2  UNL d   1       2.336  -1.823   0.611  0.00  0.00    -0.005 A 
ATOM      4  C3  UNL d   1       1.908  -0.506   0.774  0.00  0.00     0.006 A 
ATOM      5  C4  UNL d   1       0.545  -0.208   0.799  0.00  0.00    -0.005 A 
ATOM      6  C5  UNL d   1      -0.403  -1.227   0.661  0.00  0.00    -0.074 A 
ATOM      7  C6  UNL d   1      -1.872  -0.923   0.677  0.00  0.00     0.077 C 
ATOM      8  C7  UNL d   1       0.035  -2.547   0.491  0.00  0.00    -0.001 A 
ENDROOT
TORSDOF 0
ENDMDL
