MODEL 1
REMARK minimizedAffinity -0.448654383
REMARK minimizedRMSD -1
REMARK  0 active torsions:
REMARK  status: ('A' for Active; 'I' for Inactive)
ROOT
ATOM      1  C   UNL d   1       1.820  -4.177   0.341  0.00  0.00     0.077 C 
ATOM      2  C1  UNL d   1       1.352  -2.793   0.678  0.00  0.00    -0.074 A 
ATOM      3  C2  UNL d   1      -0.010  -2.476   0.686  0.00  0.00    -0.005 A 
ATOM      4  C3  UNL d   1      -0.431  -1.187   1.011  0.00  0.00     0.006 A 
ATOM      5  C4  UNL d   1       0.505  -0.202   1.331  0.00  0.00    -0.005 A 
ATOM      6  C5  UNL d   1       1.871  -0.500   1.329  0.00  0.00    -0.074 A 
ATOM      7  C6  UNL d   1       2.889   0.544   1.681  0.00  0.00     0.077 C 
ATOM      8  C7  UNL d   1       2.286  -1.800   1.008  0.00  0.00    -0.001 A 
ENDROOT
TORSDOF 0
ENDMDL
