MODEL 1
REMARK minimizedAffinity 1.94869649
REMARK minimizedRMSD -1
REMARK  0 active torsions:
REMARK  status: ('A' for Active; 'I' for Inactive)
ROOT
ATOM      1  C   UNL d   1       0.188  -3.031   0.640  0.00  0.00     0.077 C 
ATOM      2  C1  UNL d   1       1.652  -3.026   0.313  0.00  0.00    -0.074 A 
ATOM      3  C2  UNL d   1       2.346  -1.824   0.144  0.00  0.00    -0.005 A 
ATOM      4  C3  UNL d   1       3.709  -1.834  -0.150  0.00  0.00     0.006 A 
ATOM      5  C4  UNL d   1       4.391  -3.045  -0.278  0.00  0.00    -0.005 A 
ATOM      6  C5  UNL d   1       3.714  -4.257  -0.112  0.00  0.00    -0.074 A 
ATOM      7  C6  UNL d   1       4.434  -5.567  -0.237  0.00  0.00     0.077 C 
ATOM      8  C7  UNL d   1       2.345  -4.238   0.190  0.00  0.00    -0.001 A 
ENDROOT
TORSDOF 0
ENDMDL
