MODEL 1
REMARK minimizedAffinity -1.24739373
REMARK minimizedRMSD -1
REMARK  0 active torsions:
REMARK  status: ('A' for Active; 'I' for Inactive)
ROOT
ATOM      1  C   UNL d   1       4.580  -1.977   0.365  0.00  0.00     0.077 C 
ATOM      2  C1  UNL d   1       3.107  -2.260   0.337  0.00  0.00    -0.074 A 
ATOM      3  C2  UNL d   1       2.627  -3.539   0.035  0.00  0.00    -0.005 A 
ATOM      4  C3  UNL d   1       1.255  -3.790   0.022  0.00  0.00     0.006 A 
ATOM      5  C4  UNL d   1       0.351  -2.767   0.311  0.00  0.00    -0.005 A 
ATOM      6  C5  UNL d   1       0.812  -1.483   0.617  0.00  0.00    -0.074 A 
ATOM      7  C6  UNL d   1      -0.146  -0.374   0.939  0.00  0.00     0.077 C 
ATOM      8  C7  UNL d   1       2.193  -1.240   0.634  0.00  0.00    -0.001 A 
ENDROOT
TORSDOF 0
ENDMDL
