MODEL 1
REMARK minimizedAffinity -5.17349148
REMARK minimizedRMSD -1
REMARK  0 active torsions:
REMARK  status: ('A' for Active; 'I' for Inactive)
ROOT
ATOM      1  C   UNL d   1       1.073   0.365   0.979  0.00  0.00     0.077 C 
ATOM      2  C1  UNL d   1       0.620  -1.000   0.553  0.00  0.00    -0.074 A 
ATOM      3  C2  UNL d   1      -0.720  -1.247   0.237  0.00  0.00    -0.005 A 
ATOM      4  C3  UNL d   1      -1.125  -2.519  -0.166  0.00  0.00     0.006 A 
ATOM      5  C4  UNL d   1      -0.196  -3.556  -0.258  0.00  0.00    -0.005 A 
ATOM      6  C5  UNL d   1       1.149  -3.328   0.053  0.00  0.00    -0.074 A 
ATOM      7  C6  UNL d   1       2.162  -4.429  -0.049  0.00  0.00     0.077 C 
ATOM      8  C7  UNL d   1       1.549  -2.045   0.451  0.00  0.00    -0.001 A 
ENDROOT
TORSDOF 0
ENDMDL
