MODEL 1
REMARK minimizedAffinity 1.45288801
REMARK minimizedRMSD -1
REMARK  0 active torsions:
REMARK  status: ('A' for Active; 'I' for Inactive)
ROOT
ATOM      1  C   UNL d   1       4.008  -5.756  -0.205  0.00  0.00     0.077 C 
ATOM      2  C1  UNL d   1       3.443  -4.372  -0.091  0.00  0.00    -0.074 A 
ATOM      3  C2  UNL d   1       4.281  -3.251  -0.092  0.00  0.00    -0.005 A 
ATOM      4  C3  UNL d   1       3.740  -1.969   0.006  0.00  0.00     0.006 A 
ATOM      5  C4  UNL d   1       2.360  -1.795   0.106  0.00  0.00    -0.005 A 
ATOM      6  C5  UNL d   1       1.507  -2.903   0.108  0.00  0.00    -0.074 A 
ATOM      7  C6  UNL d   1       0.020  -2.732   0.205  0.00  0.00     0.077 C 
ATOM      8  C7  UNL d   1       2.057  -4.188   0.002  0.00  0.00    -0.001 A 
ENDROOT
TORSDOF 0
ENDMDL
