MODEL 1
REMARK minimizedAffinity -0.436401635
REMARK minimizedRMSD -1
REMARK  0 active torsions:
REMARK  status: ('A' for Active; 'I' for Inactive)
ROOT
ATOM      1  C   UNL d   1       4.050  -1.483  -0.055  0.00  0.00     0.077 C 
ATOM      2  C1  UNL d   1       2.659  -2.010   0.140  0.00  0.00    -0.074 A 
ATOM      3  C2  UNL d   1       2.372  -3.367  -0.046  0.00  0.00    -0.005 A 
ATOM      4  C3  UNL d   1       1.076  -3.844   0.148  0.00  0.00     0.006 A 
ATOM      5  C4  UNL d   1       0.056  -2.972   0.529  0.00  0.00    -0.005 A 
ATOM      6  C5  UNL d   1       0.324  -1.613   0.721  0.00  0.00    -0.074 A 
ATOM      7  C6  UNL d   1      -0.759  -0.664   1.140  0.00  0.00     0.077 C 
ATOM      8  C7  UNL d   1       1.631  -1.142   0.530  0.00  0.00    -0.001 A 
ENDROOT
TORSDOF 0
ENDMDL
