MODEL 1
REMARK minimizedAffinity 7.54858494
REMARK minimizedRMSD -1
REMARK  0 active torsions:
REMARK  status: ('A' for Active; 'I' for Inactive)
ROOT
ATOM      1  C   UNL d   1      -4.233   0.205  -0.696  0.00  0.00     0.077 C 
ATOM      2  C1  UNL d   1      -3.299   0.885   0.261  0.00  0.00    -0.074 A 
ATOM      3  C2  UNL d   1      -2.629   0.159   1.250  0.00  0.00    -0.005 A 
ATOM      4  C3  UNL d   1      -1.757   0.804   2.127  0.00  0.00     0.006 A 
ATOM      5  C4  UNL d   1      -1.546   2.179   2.023  0.00  0.00    -0.005 A 
ATOM      6  C5  UNL d   1      -2.206   2.922   1.039  0.00  0.00    -0.074 A 
ATOM      7  C6  UNL d   1      -1.984   4.399   0.908  0.00  0.00     0.077 C 
ATOM      8  C7  UNL d   1      -3.076   2.266   0.158  0.00  0.00    -0.001 A 
ENDROOT
TORSDOF 0
ENDMDL
