MODEL 1
REMARK minimizedAffinity -3.9536922
REMARK minimizedRMSD -1
REMARK  0 active torsions:
REMARK  status: ('A' for Active; 'I' for Inactive)
ROOT
ATOM      1  C   UNL d   1       1.932   0.392   1.865  0.00  0.00     0.077 C 
ATOM      2  C1  UNL d   1       1.310  -0.821   1.241  0.00  0.00    -0.074 A 
ATOM      3  C2  UNL d   1      -0.076  -0.915   1.078  0.00  0.00    -0.005 A 
ATOM      4  C3  UNL d   1      -0.640  -2.046   0.487  0.00  0.00     0.006 A 
ATOM      5  C4  UNL d   1       0.175  -3.093   0.054  0.00  0.00    -0.005 A 
ATOM      6  C5  UNL d   1       1.563  -3.016   0.208  0.00  0.00    -0.074 A 
ATOM      7  C6  UNL d   1       2.454  -4.128  -0.261  0.00  0.00     0.077 C 
ATOM      8  C7  UNL d   1       2.122  -1.874   0.796  0.00  0.00    -0.001 A 
ENDROOT
TORSDOF 0
ENDMDL
