MODEL 1
REMARK minimizedAffinity -1.87483513
REMARK minimizedRMSD -1
REMARK  0 active torsions:
REMARK  status: ('A' for Active; 'I' for Inactive)
ROOT
ATOM      1  C   UNL d   1       1.559   0.588   1.648  0.00  0.00     0.077 C 
ATOM      2  C1  UNL d   1       0.849  -0.653   1.195  0.00  0.00    -0.074 A 
ATOM      3  C2  UNL d   1      -0.545  -0.748   1.260  0.00  0.00    -0.005 A 
ATOM      4  C3  UNL d   1      -1.192  -1.905   0.826  0.00  0.00     0.006 A 
ATOM      5  C4  UNL d   1      -0.453  -2.977   0.324  0.00  0.00    -0.005 A 
ATOM      6  C5  UNL d   1       0.941  -2.900   0.251  0.00  0.00    -0.074 A 
ATOM      7  C6  UNL d   1       1.750  -4.039  -0.296  0.00  0.00     0.077 C 
ATOM      8  C7  UNL d   1       1.584  -1.731   0.682  0.00  0.00    -0.001 A 
ENDROOT
TORSDOF 0
ENDMDL
