MODEL 1
REMARK minimizedAffinity -1.4481976
REMARK minimizedRMSD -1
REMARK  0 active torsions:
REMARK  status: ('A' for Active; 'I' for Inactive)
ROOT
ATOM      1  C   UNL d   1       3.327  -0.483  -0.647  0.00  0.00     0.077 C 
ATOM      2  C1  UNL d   1       2.087  -1.222  -0.240  0.00  0.00    -0.074 A 
ATOM      3  C2  UNL d   1       2.062  -2.620  -0.207  0.00  0.00    -0.005 A 
ATOM      4  C3  UNL d   1       0.904  -3.294   0.183  0.00  0.00     0.006 A 
ATOM      5  C4  UNL d   1      -0.238  -2.578   0.542  0.00  0.00    -0.005 A 
ATOM      6  C5  UNL d   1      -0.232  -1.180   0.516  0.00  0.00    -0.074 A 
ATOM      7  C6  UNL d   1      -1.448  -0.395   0.908  0.00  0.00     0.077 C 
ATOM      8  C7  UNL d   1       0.937  -0.510   0.130  0.00  0.00    -0.001 A 
ENDROOT
TORSDOF 0
ENDMDL
