MODEL 1
REMARK minimizedAffinity 3.74009323
REMARK minimizedRMSD -1
REMARK  0 active torsions:
REMARK  status: ('A' for Active; 'I' for Inactive)
ROOT
ATOM      1  C   UNL d   1       2.964   0.076   1.459  0.00  0.00     0.077 C 
ATOM      2  C1  UNL d   1       1.658  -0.582   1.129  0.00  0.00    -0.074 A 
ATOM      3  C2  UNL d   1       0.451   0.113   1.255  0.00  0.00    -0.005 A 
ATOM      4  C3  UNL d   1      -0.756  -0.509   0.936  0.00  0.00     0.006 A 
ATOM      5  C4  UNL d   1      -0.768  -1.831   0.488  0.00  0.00    -0.005 A 
ATOM      6  C5  UNL d   1       0.429  -2.541   0.354  0.00  0.00    -0.074 A 
ATOM      7  C6  UNL d   1       0.434  -3.959  -0.135  0.00  0.00     0.077 C 
ATOM      8  C7  UNL d   1       1.638  -1.907   0.671  0.00  0.00    -0.001 A 
ENDROOT
TORSDOF 0
ENDMDL
