MODEL 1
REMARK minimizedAffinity 1.29812944
REMARK minimizedRMSD -1
REMARK  0 active torsions:
REMARK  status: ('A' for Active; 'I' for Inactive)
ROOT
ATOM      1  O1  BZF d   1       0.619   2.103   1.143  0.00  0.00    -0.204 OA
ATOM      2  C2  BZF d   1       1.328   1.029   0.641  0.00  0.00     0.174 A 
ATOM      3  C3  BZF d   1       0.613  -0.109   0.753  0.00  0.00    -0.012 A 
ATOM      4  C3A BZF d   1      -0.656   0.293   1.278  0.00  0.00    -0.107 A 
ATOM      5  C4  BZF d   1      -1.798  -0.385   1.595  0.00  0.00     0.055 A 
ATOM      6  C5  BZF d   1      -2.834   0.293   2.156  0.00  0.00    -0.016 A 
ATOM      7  C6  BZF d   1      -2.759   1.645   2.419  0.00  0.00     0.022 A 
ATOM      8  C7  BZF d   1      -1.649   2.361   2.118  0.00  0.00     0.029 A 
ATOM      9  C7A BZF d   1      -0.613   1.685   1.520  0.00  0.00     0.058 A 
ENDROOT
TORSDOF 0
ENDMDL
