MODEL 1
REMARK minimizedAffinity 1.12653637
REMARK minimizedRMSD -1
REMARK  0 active torsions:
REMARK  status: ('A' for Active; 'I' for Inactive)
ROOT
ATOM      1  O1  BZF d   1      -3.007  -3.905  -2.427  0.00  0.00    -0.204 OA
ATOM      2  C2  BZF d   1      -3.449  -2.618  -2.668  0.00  0.00     0.174 A 
ATOM      3  C3  BZF d   1      -4.417  -2.274  -1.794  0.00  0.00    -0.012 A 
ATOM      4  C3A BZF d   1      -4.527  -3.383  -0.897  0.00  0.00    -0.107 A 
ATOM      5  C4  BZF d   1      -5.306  -3.632   0.197  0.00  0.00     0.055 A 
ATOM      6  C5  BZF d   1      -5.219  -4.843   0.807  0.00  0.00    -0.016 A 
ATOM      7  C6  BZF d   1      -4.370  -5.829   0.348  0.00  0.00     0.022 A 
ATOM      8  C7  BZF d   1      -3.574  -5.626  -0.731  0.00  0.00     0.029 A 
ATOM      9  C7A BZF d   1      -3.635  -4.391  -1.329  0.00  0.00     0.058 A 
ENDROOT
TORSDOF 0
ENDMDL
