MODEL 1
REMARK minimizedAffinity 11.4694242
REMARK minimizedRMSD -1
REMARK  0 active torsions:
REMARK  status: ('A' for Active; 'I' for Inactive)
ROOT
ATOM      1  O1  BZF d   1      -2.514   3.434   1.633  0.00  0.00    -0.204 OA
ATOM      2  C2  BZF d   1      -3.133   2.692   2.620  0.00  0.00     0.174 A 
ATOM      3  C3  BZF d   1      -2.404   1.599   2.924  0.00  0.00    -0.012 A 
ATOM      4  C3A BZF d   1      -1.212   1.711   2.139  0.00  0.00    -0.107 A 
ATOM      5  C4  BZF d   1      -0.094   0.937   2.015  0.00  0.00     0.055 A 
ATOM      6  C5  BZF d   1       0.854   1.288   1.107  0.00  0.00    -0.016 A 
ATOM      7  C6  BZF d   1       0.714   2.401   0.304  0.00  0.00     0.022 A 
ATOM      8  C7  BZF d   1      -0.376   3.201   0.394  0.00  0.00     0.029 A 
ATOM      9  C7A BZF d   1      -1.320   2.868   1.334  0.00  0.00     0.058 A 
ENDROOT
TORSDOF 0
ENDMDL
