MODEL 1
REMARK minimizedAffinity -3.66729593
REMARK minimizedRMSD -1
REMARK  0 active torsions:
REMARK  status: ('A' for Active; 'I' for Inactive)
ROOT
ATOM      1  O1  BZF d   1       1.546   1.445   3.703  0.00  0.00    -0.204 OA
ATOM      2  C2  BZF d   1       1.780   0.174   4.191  0.00  0.00     0.174 A 
ATOM      3  C3  BZF d   1       1.128  -0.748   3.454  0.00  0.00    -0.012 A 
ATOM      4  C3A BZF d   1       0.518  -0.015   2.387  0.00  0.00    -0.107 A 
ATOM      5  C4  BZF d   1      -0.251  -0.378   1.319  0.00  0.00     0.055 A 
ATOM      6  C5  BZF d   1      -0.748   0.590   0.504  0.00  0.00    -0.016 A 
ATOM      7  C6  BZF d   1      -0.500   1.928   0.730  0.00  0.00     0.022 A 
ATOM      8  C7  BZF d   1       0.262   2.336   1.774  0.00  0.00     0.029 A 
ATOM      9  C7A BZF d   1       0.793   1.358   2.580  0.00  0.00     0.058 A 
ENDROOT
TORSDOF 0
ENDMDL
