MODEL 1
REMARK minimizedAffinity -1.481341
REMARK minimizedRMSD -1
REMARK  0 active torsions:
REMARK  status: ('A' for Active; 'I' for Inactive)
ROOT
ATOM      1  O1  BZF d   1      -3.051  -0.056   2.111  0.00  0.00    -0.204 OA
ATOM      2  C2  BZF d   1      -3.613   1.126   2.553  0.00  0.00     0.174 A 
ATOM      3  C3  BZF d   1      -2.733   2.143   2.449  0.00  0.00    -0.012 A 
ATOM      4  C3A BZF d   1      -1.578   1.578   1.822  0.00  0.00    -0.107 A 
ATOM      5  C4  BZF d   1      -0.373   2.092   1.435  0.00  0.00     0.055 A 
ATOM      6  C5  BZF d   1       0.566   1.257   0.917  0.00  0.00    -0.016 A 
ATOM      7  C6  BZF d   1       0.336  -0.096   0.776  0.00  0.00     0.022 A 
ATOM      8  C7  BZF d   1      -0.846  -0.651   1.140  0.00  0.00     0.029 A 
ATOM      9  C7A BZF d   1      -1.808   0.195   1.634  0.00  0.00     0.058 A 
ENDROOT
TORSDOF 0
ENDMDL
