MODEL 1
REMARK minimizedAffinity -0.566963375
REMARK minimizedRMSD -1
REMARK  0 active torsions:
REMARK  status: ('A' for Active; 'I' for Inactive)
ROOT
ATOM      1  O1  BZF d   1      -2.242   2.667   2.256  0.00  0.00    -0.204 OA
ATOM      2  C2  BZF d   1      -3.218   1.925   2.893  0.00  0.00     0.174 A 
ATOM      3  C3  BZF d   1      -2.892   0.616   2.904  0.00  0.00    -0.012 A 
ATOM      4  C3A BZF d   1      -1.591   0.547   2.313  0.00  0.00    -0.107 A 
ATOM      5  C4  BZF d   1      -0.729  -0.482   2.058  0.00  0.00     0.055 A 
ATOM      6  C5  BZF d   1       0.433  -0.222   1.403  0.00  0.00    -0.016 A 
ATOM      7  C6  BZF d   1       0.762   1.050   0.984  0.00  0.00     0.022 A 
ATOM      8  C7  BZF d   1      -0.059   2.103   1.218  0.00  0.00     0.029 A 
ATOM      9  C7A BZF d   1      -1.219   1.850   1.909  0.00  0.00     0.058 A 
ENDROOT
TORSDOF 0
ENDMDL
