MODEL 1
REMARK minimizedAffinity -1.09479856
REMARK minimizedRMSD -1
REMARK  0 active torsions:
REMARK  status: ('A' for Active; 'I' for Inactive)
ROOT
ATOM      1  O1  BZF d   1      -2.667   0.327   1.995  0.00  0.00    -0.204 OA
ATOM      2  C2  BZF d   1      -3.322   1.488   2.359  0.00  0.00     0.174 A 
ATOM      3  C3  BZF d   1      -2.474   2.537   2.358  0.00  0.00    -0.012 A 
ATOM      4  C3A BZF d   1      -1.231   2.015   1.880  0.00  0.00    -0.107 A 
ATOM      5  C4  BZF d   1      -0.008   2.574   1.643  0.00  0.00     0.055 A 
ATOM      6  C5  BZF d   1       1.018   1.774   1.248  0.00  0.00    -0.016 A 
ATOM      7  C6  BZF d   1       0.858   0.414   1.086  0.00  0.00     0.022 A 
ATOM      8  C7  BZF d   1      -0.338  -0.185   1.305  0.00  0.00     0.029 A 
ATOM      9  C7A BZF d   1      -1.385   0.625   1.672  0.00  0.00     0.058 A 
ENDROOT
TORSDOF 0
ENDMDL
