MODEL 1
REMARK minimizedAffinity 1.66206408
REMARK minimizedRMSD -1
REMARK  0 active torsions:
REMARK  status: ('A' for Active; 'I' for Inactive)
ROOT
ATOM      1  O1  BZF d   1      -2.663   0.915   2.245  0.00  0.00    -0.204 OA
ATOM      2  C2  BZF d   1      -2.754   2.231   1.835  0.00  0.00     0.174 A 
ATOM      3  C3  BZF d   1      -1.615   2.622   1.226  0.00  0.00    -0.012 A 
ATOM      4  C3A BZF d   1      -0.795   1.451   1.176  0.00  0.00    -0.107 A 
ATOM      5  C4  BZF d   1       0.450   1.197   0.675  0.00  0.00     0.055 A 
ATOM      6  C5  BZF d   1       0.995  -0.035   0.852  0.00  0.00    -0.016 A 
ATOM      7  C6  BZF d   1       0.327  -1.034   1.529  0.00  0.00     0.022 A 
ATOM      8  C7  BZF d   1      -0.912  -0.832   2.039  0.00  0.00     0.029 A 
ATOM      9  C7A BZF d   1      -1.479   0.402   1.833  0.00  0.00     0.058 A 
ENDROOT
TORSDOF 0
ENDMDL
