MODEL 1
REMARK minimizedAffinity 3.89558792
REMARK minimizedRMSD -1
REMARK  0 active torsions:
REMARK  status: ('A' for Active; 'I' for Inactive)
ROOT
ATOM      1  O1  BZF d   1       2.415  -0.865   0.300  0.00  0.00    -0.204 OA
ATOM      2  C2  BZF d   1       2.865   0.124  -0.553  0.00  0.00     0.174 A 
ATOM      3  C3  BZF d   1       1.921   1.071  -0.729  0.00  0.00    -0.012 A 
ATOM      4  C3A BZF d   1       0.846   0.695   0.138  0.00  0.00    -0.107 A 
ATOM      5  C4  BZF d   1      -0.370   1.249   0.420  0.00  0.00     0.055 A 
ATOM      6  C5  BZF d   1      -1.216   0.593   1.257  0.00  0.00    -0.016 A 
ATOM      7  C6  BZF d   1      -0.881  -0.618   1.825  0.00  0.00     0.022 A 
ATOM      8  C7  BZF d   1       0.316  -1.205   1.579  0.00  0.00     0.029 A 
ATOM      9  C7A BZF d   1       1.186  -0.529   0.760  0.00  0.00     0.058 A 
ENDROOT
TORSDOF 0
ENDMDL
