MODEL 1
REMARK minimizedAffinity 1.50998831
REMARK minimizedRMSD -1
REMARK  0 active torsions:
REMARK  status: ('A' for Active; 'I' for Inactive)
ROOT
ATOM      1  O1  BZF d   1       1.586  -0.357   2.601  0.00  0.00    -0.204 OA
ATOM      2  C2  BZF d   1       1.203  -1.533   3.218  0.00  0.00     0.174 A 
ATOM      3  C3  BZF d   1      -0.048  -1.879   2.851  0.00  0.00    -0.012 A 
ATOM      4  C3A BZF d   1      -0.438  -0.906   1.877  0.00  0.00    -0.107 A 
ATOM      5  C4  BZF d   1      -1.567  -0.724   1.132  0.00  0.00     0.055 A 
ATOM      6  C5  BZF d   1      -1.659   0.367   0.327  0.00  0.00    -0.016 A 
ATOM      7  C6  BZF d   1      -0.644   1.298   0.247  0.00  0.00     0.022 A 
ATOM      8  C7  BZF d   1       0.498   1.157   0.964  0.00  0.00     0.029 A 
ATOM      9  C7A BZF d   1       0.607   0.039   1.753  0.00  0.00     0.058 A 
ENDROOT
TORSDOF 0
ENDMDL
