MODEL 1
REMARK minimizedAffinity 4.37355661
REMARK minimizedRMSD -1
REMARK  0 active torsions:
REMARK  status: ('A' for Active; 'I' for Inactive)
ROOT
ATOM      1  O1  BZF d   1       0.447  -0.833   1.144  0.00  0.00    -0.204 OA
ATOM      2  C2  BZF d   1       1.515  -0.010   0.843  0.00  0.00     0.174 A 
ATOM      3  C3  BZF d   1       1.138   1.285   0.851  0.00  0.00    -0.012 A 
ATOM      4  C3A BZF d   1      -0.231   1.276   1.267  0.00  0.00    -0.107 A 
ATOM      5  C4  BZF d   1      -1.154   2.259   1.481  0.00  0.00     0.055 A 
ATOM      6  C5  BZF d   1      -2.425   1.912   1.812  0.00  0.00    -0.016 A 
ATOM      7  C6  BZF d   1      -2.809   0.592   1.932  0.00  0.00     0.022 A 
ATOM      8  C7  BZF d   1      -1.928  -0.419   1.734  0.00  0.00     0.029 A 
ATOM      9  C7A BZF d   1      -0.634  -0.070   1.432  0.00  0.00     0.058 A 
ENDROOT
TORSDOF 0
ENDMDL
