MODEL 1
REMARK minimizedAffinity 4.4081583
REMARK minimizedRMSD -1
REMARK  0 active torsions:
REMARK  status: ('A' for Active; 'I' for Inactive)
ROOT
ATOM      1  O1  BZF d   1       2.351  -0.491   1.045  0.00  0.00    -0.204 OA
ATOM      2  C2  BZF d   1       2.992  -0.341  -0.170  0.00  0.00     0.174 A 
ATOM      3  C3  BZF d   1       2.518   0.734  -0.832  0.00  0.00    -0.012 A 
ATOM      4  C3A BZF d   1       1.582   1.343   0.063  0.00  0.00    -0.107 A 
ATOM      5  C4  BZF d   1       0.794   2.456  -0.018  0.00  0.00     0.055 A 
ATOM      6  C5  BZF d   1      -0.062   2.734   1.000  0.00  0.00    -0.016 A 
ATOM      7  C6  BZF d   1      -0.160   1.921   2.110  0.00  0.00     0.022 A 
ATOM      8  C7  BZF d   1       0.605   0.809   2.237  0.00  0.00     0.029 A 
ATOM      9  C7A BZF d   1       1.495   0.543   1.225  0.00  0.00     0.058 A 
ENDROOT
TORSDOF 0
ENDMDL
