MODEL 1
REMARK minimizedAffinity 6.36383486
REMARK minimizedRMSD -1
REMARK  0 active torsions:
REMARK  status: ('A' for Active; 'I' for Inactive)
ROOT
ATOM      1  O1  BZF d   1      -1.423   3.086   1.569  0.00  0.00    -0.204 OA
ATOM      2  C2  BZF d   1      -2.591   2.817   2.254  0.00  0.00     0.174 A 
ATOM      3  C3  BZF d   1      -2.589   1.553   2.726  0.00  0.00    -0.012 A 
ATOM      4  C3A BZF d   1      -1.302   1.028   2.388  0.00  0.00    -0.107 A 
ATOM      5  C4  BZF d   1      -0.694  -0.176   2.602  0.00  0.00     0.055 A 
ATOM      6  C5  BZF d   1       0.542  -0.394   2.080  0.00  0.00    -0.016 A 
ATOM      7  C6  BZF d   1       1.195   0.566   1.335  0.00  0.00     0.022 A 
ATOM      8  C7  BZF d   1       0.633   1.777   1.100  0.00  0.00     0.029 A 
ATOM      9  C7A BZF d   1      -0.601   2.012   1.654  0.00  0.00     0.058 A 
ENDROOT
TORSDOF 0
ENDMDL
