MODEL 1
REMARK minimizedAffinity 2.24922824
REMARK minimizedRMSD -1
REMARK  0 active torsions:
REMARK  status: ('A' for Active; 'I' for Inactive)
ROOT
ATOM      1  O1  BZF d   1      -3.944  -0.582  -3.264  0.00  0.00    -0.204 OA
ATOM      2  C2  BZF d   1      -4.525   0.182  -2.270  0.00  0.00     0.174 A 
ATOM      3  C3  BZF d   1      -4.787  -0.569  -1.181  0.00  0.00    -0.012 A 
ATOM      4  C3A BZF d   1      -4.258  -1.864  -1.480  0.00  0.00    -0.107 A 
ATOM      5  C4  BZF d   1      -4.197  -3.037  -0.785  0.00  0.00     0.055 A 
ATOM      6  C5  BZF d   1      -3.679  -4.138  -1.390  0.00  0.00    -0.016 A 
ATOM      7  C6  BZF d   1      -3.219  -4.103  -2.690  0.00  0.00     0.022 A 
ATOM      8  C7  BZF d   1      -3.254  -2.961  -3.419  0.00  0.00     0.029 A 
ATOM      9  C7A BZF d   1      -3.746  -1.838  -2.798  0.00  0.00     0.058 A 
ENDROOT
TORSDOF 0
ENDMDL
