MODEL 1
REMARK minimizedAffinity 1.73708093
REMARK minimizedRMSD -1
REMARK  0 active torsions:
REMARK  status: ('A' for Active; 'I' for Inactive)
ROOT
ATOM      1  O1  BZF d   1      -0.665   2.968   1.452  0.00  0.00    -0.204 OA
ATOM      2  C2  BZF d   1       0.487   2.288   1.106  0.00  0.00     0.174 A 
ATOM      3  C3  BZF d   1       0.385   0.982   1.425  0.00  0.00    -0.012 A 
ATOM      4  C3A BZF d   1      -0.947   0.819   1.923  0.00  0.00    -0.107 A 
ATOM      5  C4  BZF d   1      -1.651  -0.256   2.385  0.00  0.00     0.055 A 
ATOM      6  C5  BZF d   1      -2.908  -0.065   2.866  0.00  0.00    -0.016 A 
ATOM      7  C6  BZF d   1      -3.488   1.186   2.904  0.00  0.00     0.022 A 
ATOM      8  C7  BZF d   1      -2.830   2.281   2.452  0.00  0.00     0.029 A 
ATOM      9  C7A BZF d   1      -1.573   2.086   1.935  0.00  0.00     0.058 A 
ENDROOT
TORSDOF 0
ENDMDL
