MODEL 1
REMARK minimizedAffinity -1.89931834
REMARK minimizedRMSD -1
REMARK  0 active torsions:
REMARK  status: ('A' for Active; 'I' for Inactive)
ROOT
ATOM      1  O1  BZF d   1       1.427   2.191   0.627  0.00  0.00    -0.204 OA
ATOM      2  C2  BZF d   1       2.221   1.107   0.306  0.00  0.00     0.174 A 
ATOM      3  C3  BZF d   1       1.594  -0.049   0.605  0.00  0.00    -0.012 A 
ATOM      4  C3A BZF d   1       0.293   0.335   1.061  0.00  0.00    -0.107 A 
ATOM      5  C4  BZF d   1      -0.798  -0.368   1.488  0.00  0.00     0.055 A 
ATOM      6  C5  BZF d   1      -1.887   0.311   1.933  0.00  0.00    -0.016 A 
ATOM      7  C6  BZF d   1      -1.919   1.690   1.970  0.00  0.00     0.022 A 
ATOM      8  C7  BZF d   1      -0.863   2.430   1.552  0.00  0.00     0.029 A 
ATOM      9  C7A BZF d   1       0.227   1.747   1.071  0.00  0.00     0.058 A 
ENDROOT
TORSDOF 0
ENDMDL
