MODEL 1
REMARK minimizedAffinity 2.44316626
REMARK minimizedRMSD -1
REMARK  0 active torsions:
REMARK  status: ('A' for Active; 'I' for Inactive)
ROOT
ATOM      1  O1  BZF d   1      -2.466   1.156   2.011  0.00  0.00    -0.204 OA
ATOM      2  C2  BZF d   1      -3.006  -0.106   1.860  0.00  0.00     0.174 A 
ATOM      3  C3  BZF d   1      -2.085  -0.965   1.376  0.00  0.00    -0.012 A 
ATOM      4  C3A BZF d   1      -0.870  -0.213   1.302  0.00  0.00    -0.107 A 
ATOM      5  C4  BZF d   1       0.402  -0.520   0.913  0.00  0.00     0.055 A 
ATOM      6  C5  BZF d   1       1.341   0.462   0.890  0.00  0.00    -0.016 A 
ATOM      7  C6  BZF d   1       1.041   1.761   1.245  0.00  0.00     0.022 A 
ATOM      8  C7  BZF d   1      -0.205   2.113   1.642  0.00  0.00     0.029 A 
ATOM      9  C7A BZF d   1      -1.148   1.116   1.698  0.00  0.00     0.058 A 
ENDROOT
TORSDOF 0
ENDMDL
