MODEL 1
REMARK minimizedAffinity -2.12637138
REMARK minimizedRMSD -1
REMARK  0 active torsions:
REMARK  status: ('A' for Active; 'I' for Inactive)
ROOT
ATOM      1  O1  BZF d   1      -0.922   2.661   1.934  0.00  0.00    -0.204 OA
ATOM      2  C2  BZF d   1      -2.052   1.875   2.047  0.00  0.00     0.174 A 
ATOM      3  C3  BZF d   1      -1.782   0.598   1.709  0.00  0.00    -0.012 A 
ATOM      4  C3A BZF d   1      -0.375   0.566   1.452  0.00  0.00    -0.107 A 
ATOM      5  C4  BZF d   1       0.491  -0.425   1.088  0.00  0.00     0.055 A 
ATOM      6  C5  BZF d   1       1.791  -0.111   0.846  0.00  0.00    -0.016 A 
ATOM      7  C6  BZF d   1       2.257   1.183   0.953  0.00  0.00     0.022 A 
ATOM      8  C7  BZF d   1       1.437   2.199   1.316  0.00  0.00     0.029 A 
ATOM      9  C7A BZF d   1       0.130   1.879   1.593  0.00  0.00     0.058 A 
ENDROOT
TORSDOF 0
ENDMDL
