MODEL 1
REMARK minimizedAffinity -0.00529886875
REMARK minimizedRMSD -1
REMARK  0 active torsions:
REMARK  status: ('A' for Active; 'I' for Inactive)
ROOT
ATOM      1  C1  DEN d   1       6.000   2.867  -4.778  0.00  0.00     0.130 A 
ATOM      2  C2  DEN d   1       5.179   2.713  -5.976  0.00  0.00    -0.031 A 
ATOM      3  C3  DEN d   1       4.099   3.719  -5.921  0.00  0.00     0.027 A 
ATOM      4  C4  DEN d   1       3.624   5.492  -4.109  0.00  0.00     0.027 A 
ATOM      5  C5  DEN d   1       4.040   5.999  -2.898  0.00  0.00    -0.003 A 
ATOM      6  C6  DEN d   1       5.110   5.480  -2.218  0.00  0.00     0.001 A 
ATOM      7  C7  DEN d   1       5.828   4.450  -2.766  0.00  0.00     0.017 A 
ATOM      8  C8  DEN d   1       5.409   3.929  -3.983  0.00  0.00    -0.094 A 
ATOM      9  C9  DEN d   1       4.333   4.475  -4.661  0.00  0.00    -0.072 A 
ENDROOT
TORSDOF 0
ENDMDL
