MODEL 1
REMARK minimizedAffinity -0.389745384
REMARK minimizedRMSD -1
REMARK  0 active torsions:
REMARK  status: ('A' for Active; 'I' for Inactive)
ROOT
ATOM      1  C1  DEN d   1      -1.039  -1.892  -3.665  0.00  0.00     0.130 A 
ATOM      2  C2  DEN d   1      -0.026  -1.522  -2.680  0.00  0.00    -0.031 A 
ATOM      3  C3  DEN d   1       0.662  -2.755  -2.248  0.00  0.00     0.027 A 
ATOM      4  C4  DEN d   1       0.264  -5.187  -3.009  0.00  0.00     0.027 A 
ATOM      5  C5  DEN d   1      -0.497  -5.999  -3.821  0.00  0.00    -0.003 A 
ATOM      6  C6  DEN d   1      -1.507  -5.507  -4.606  0.00  0.00     0.001 A 
ATOM      7  C7  DEN d   1      -1.752  -4.160  -4.630  0.00  0.00     0.017 A 
ATOM      8  C8  DEN d   1      -0.994  -3.336  -3.808  0.00  0.00    -0.094 A 
ATOM      9  C9  DEN d   1       0.030  -3.851  -3.032  0.00  0.00    -0.072 A 
ENDROOT
TORSDOF 0
ENDMDL
