MODEL 1
REMARK minimizedAffinity -0.852176309
REMARK minimizedRMSD -1
REMARK  0 active torsions:
REMARK  status: ('A' for Active; 'I' for Inactive)
ROOT
ATOM      1  C1  DEN d   1       3.805   4.545  -2.363  0.00  0.00     0.130 A 
ATOM      2  C2  DEN d   1       2.996   5.707  -2.721  0.00  0.00    -0.031 A 
ATOM      3  C3  DEN d   1       3.224   6.000  -4.150  0.00  0.00     0.027 A 
ATOM      4  C4  DEN d   1       4.739   4.770  -5.837  0.00  0.00     0.027 A 
ATOM      5  C5  DEN d   1       5.630   3.732  -5.996  0.00  0.00    -0.003 A 
ATOM      6  C6  DEN d   1       5.998   2.920  -4.956  0.00  0.00     0.001 A 
ATOM      7  C7  DEN d   1       5.438   3.105  -3.719  0.00  0.00     0.017 A 
ATOM      8  C8  DEN d   1       4.545   4.154  -3.549  0.00  0.00    -0.094 A 
ATOM      9  C9  DEN d   1       4.176   4.956  -4.616  0.00  0.00    -0.072 A 
ENDROOT
TORSDOF 0
ENDMDL
