MODEL 1
REMARK minimizedAffinity -1.62415004
REMARK minimizedRMSD -1
REMARK  0 active torsions:
REMARK  status: ('A' for Active; 'I' for Inactive)
ROOT
ATOM      1  C1  DEN d   1       5.999   5.984  -4.647  0.00  0.00     0.130 A 
ATOM      2  C2  DEN d   1       5.582   5.626  -6.000  0.00  0.00    -0.031 A 
ATOM      3  C3  DEN d   1       4.365   4.795  -5.897  0.00  0.00     0.027 A 
ATOM      4  C4  DEN d   1       3.092   4.037  -3.786  0.00  0.00     0.027 A 
ATOM      5  C5  DEN d   1       3.072   4.083  -2.410  0.00  0.00    -0.003 A 
ATOM      6  C6  DEN d   1       4.038   4.732  -1.687  0.00  0.00     0.001 A 
ATOM      7  C7  DEN d   1       5.040   5.400  -2.340  0.00  0.00     0.017 A 
ATOM      8  C8  DEN d   1       5.071   5.352  -3.728  0.00  0.00    -0.094 A 
ATOM      9  C9  DEN d   1       4.078   4.701  -4.440  0.00  0.00    -0.072 A 
ENDROOT
TORSDOF 0
ENDMDL
