MODEL 1
REMARK minimizedAffinity 1.33380985
REMARK minimizedRMSD -1
REMARK  0 active torsions:
REMARK  status: ('A' for Active; 'I' for Inactive)
ROOT
ATOM      1  C1  DEN d   1       3.771   4.729  -4.876  0.00  0.00     0.130 A 
ATOM      2  C2  DEN d   1       4.921   5.235  -5.619  0.00  0.00    -0.031 A 
ATOM      3  C3  DEN d   1       5.999   5.523  -4.652  0.00  0.00     0.027 A 
ATOM      4  C4  DEN d   1       6.000   5.230  -2.089  0.00  0.00     0.027 A 
ATOM      5  C5  DEN d   1       5.246   4.842  -1.003  0.00  0.00    -0.003 A 
ATOM      6  C6  DEN d   1       3.947   4.426  -1.128  0.00  0.00     0.001 A 
ATOM      7  C7  DEN d   1       3.376   4.343  -2.370  0.00  0.00     0.017 A 
ATOM      8  C8  DEN d   1       4.128   4.739  -3.469  0.00  0.00    -0.094 A 
ATOM      9  C9  DEN d   1       5.443   5.146  -3.324  0.00  0.00    -0.072 A 
ENDROOT
TORSDOF 0
ENDMDL
