MODEL 1
REMARK minimizedAffinity 3.62588072
REMARK minimizedRMSD -1
REMARK  0 active torsions:
REMARK  status: ('A' for Active; 'I' for Inactive)
ROOT
ATOM      1  C1  DEN d   1      -1.523  -2.051  -3.704  0.00  0.00     0.130 A 
ATOM      2  C2  DEN d   1      -0.826  -1.606  -2.500  0.00  0.00    -0.031 A 
ATOM      3  C3  DEN d   1      -0.034  -2.742  -1.986  0.00  0.00     0.027 A 
ATOM      4  C4  DEN d   1       0.185  -5.130  -2.935  0.00  0.00     0.027 A 
ATOM      5  C5  DEN d   1      -0.228  -5.982  -3.935  0.00  0.00    -0.003 A 
ATOM      6  C6  DEN d   1      -1.120  -5.598  -4.901  0.00  0.00     0.001 A 
ATOM      7  C7  DEN d   1      -1.594  -4.313  -4.914  0.00  0.00     0.017 A 
ATOM      8  C8  DEN d   1      -1.189  -3.449  -3.904  0.00  0.00    -0.094 A 
ATOM      9  C9  DEN d   1      -0.277  -3.854  -2.944  0.00  0.00    -0.072 A 
ENDROOT
TORSDOF 0
ENDMDL
