MODEL 1
REMARK minimizedAffinity -2.67502284
REMARK minimizedRMSD -1
REMARK  0 active torsions:
REMARK  status: ('A' for Active; 'I' for Inactive)
ROOT
ATOM      1  C1  DEN d   1       6.000   2.620  -4.731  0.00  0.00     0.130 A 
ATOM      2  C2  DEN d   1       5.235   2.526  -5.971  0.00  0.00    -0.031 A 
ATOM      3  C3  DEN d   1       4.273   3.647  -6.000  0.00  0.00     0.027 A 
ATOM      4  C4  DEN d   1       3.900   5.510  -4.255  0.00  0.00     0.027 A 
ATOM      5  C5  DEN d   1       4.304   6.000  -3.033  0.00  0.00    -0.003 A 
ATOM      6  C6  DEN d   1       5.269   5.384  -2.281  0.00  0.00     0.001 A 
ATOM      7  C7  DEN d   1       5.896   4.266  -2.766  0.00  0.00     0.017 A 
ATOM      8  C8  DEN d   1       5.489   3.762  -3.994  0.00  0.00    -0.094 A 
ATOM      9  C9  DEN d   1       4.520   4.406  -4.744  0.00  0.00    -0.072 A 
ENDROOT
TORSDOF 0
ENDMDL
