MODEL 1
REMARK minimizedAffinity 3.84825087
REMARK minimizedRMSD -1
REMARK  0 active torsions:
REMARK  status: ('A' for Active; 'I' for Inactive)
ROOT
ATOM      1  C1  DEN d   1       3.754   5.120  -2.098  0.00  0.00     0.130 A 
ATOM      2  C2  DEN d   1       4.913   5.484  -1.287  0.00  0.00    -0.031 A 
ATOM      3  C3  DEN d   1       6.000   5.890  -2.200  0.00  0.00     0.027 A 
ATOM      4  C4  DEN d   1       6.000   5.995  -4.777  0.00  0.00     0.027 A 
ATOM      5  C5  DEN d   1       5.248   5.771  -5.910  0.00  0.00    -0.003 A 
ATOM      6  C6  DEN d   1       3.969   5.285  -5.853  0.00  0.00     0.001 A 
ATOM      7  C7  DEN d   1       3.385   5.051  -4.636  0.00  0.00     0.017 A 
ATOM      8  C8  DEN d   1       4.139   5.268  -3.490  0.00  0.00    -0.094 A 
ATOM      9  C9  DEN d   1       5.427   5.770  -3.568  0.00  0.00    -0.072 A 
ENDROOT
TORSDOF 0
ENDMDL
