MODEL 1
REMARK minimizedAffinity -5.91920376
REMARK minimizedRMSD -1
REMARK  0 active torsions:
REMARK  status: ('A' for Active; 'I' for Inactive)
ROOT
ATOM      1  C1  DEN d   1       2.999   5.397  -2.717  0.00  0.00     0.130 A 
ATOM      2  C2  DEN d   1       3.871   5.723  -1.591  0.00  0.00    -0.031 A 
ATOM      3  C3  DEN d   1       5.204   5.149  -1.866  0.00  0.00     0.027 A 
ATOM      4  C4  DEN d   1       5.999   3.800  -3.915  0.00  0.00     0.027 A 
ATOM      5  C5  DEN d   1       5.614   3.262  -5.123  0.00  0.00    -0.003 A 
ATOM      6  C6  DEN d   1       4.332   3.367  -5.594  0.00  0.00     0.001 A 
ATOM      7  C7  DEN d   1       3.400   4.066  -4.873  0.00  0.00     0.017 A 
ATOM      8  C8  DEN d   1       3.779   4.605  -3.651  0.00  0.00    -0.094 A 
ATOM      9  C9  DEN d   1       5.083   4.498  -3.198  0.00  0.00    -0.072 A 
ENDROOT
TORSDOF 0
ENDMDL
