MODEL 1
REMARK minimizedAffinity 1.74263072
REMARK minimizedRMSD -1
REMARK  0 active torsions:
REMARK  status: ('A' for Active; 'I' for Inactive)
ROOT
ATOM      1  C1  DEN d   1       3.901  -4.148  -4.144  0.00  0.00     0.130 A 
ATOM      2  C2  DEN d   1       3.386  -2.829  -4.499  0.00  0.00    -0.031 A 
ATOM      3  C3  DEN d   1       3.857  -1.867  -3.482  0.00  0.00     0.027 A 
ATOM      4  C4  DEN d   1       5.329  -2.290  -1.407  0.00  0.00     0.027 A 
ATOM      5  C5  DEN d   1       6.000  -3.252  -0.683  0.00  0.00    -0.003 A 
ATOM      6  C6  DEN d   1       5.990  -4.574  -1.041  0.00  0.00     0.001 A 
ATOM      7  C7  DEN d   1       5.332  -4.965  -2.177  0.00  0.00     0.017 A 
ATOM      8  C8  DEN d   1       4.648  -4.002  -2.908  0.00  0.00    -0.094 A 
ATOM      9  C9  DEN d   1       4.680  -2.669  -2.537  0.00  0.00    -0.072 A 
ENDROOT
TORSDOF 0
ENDMDL
