MODEL 1
REMARK minimizedAffinity 3.65724325
REMARK minimizedRMSD -1
REMARK  0 active torsions:
REMARK  status: ('A' for Active; 'I' for Inactive)
ROOT
ATOM      1  C1  DEN d   1       6.000   5.284  -4.890  0.00  0.00     0.130 A 
ATOM      2  C2  DEN d   1       5.079   5.509  -6.000  0.00  0.00    -0.031 A 
ATOM      3  C3  DEN d   1       3.710   5.227  -5.522  0.00  0.00     0.027 A 
ATOM      4  C4  DEN d   1       2.932   4.473  -3.181  0.00  0.00     0.027 A 
ATOM      5  C5  DEN d   1       3.352   4.138  -1.913  0.00  0.00    -0.003 A 
ATOM      6  C6  DEN d   1       4.675   4.129  -1.560  0.00  0.00     0.001 A 
ATOM      7  C7  DEN d   1       5.624   4.505  -2.474  0.00  0.00     0.017 A 
ATOM      8  C8  DEN d   1       5.209   4.837  -3.757  0.00  0.00    -0.094 A 
ATOM      9  C9  DEN d   1       3.866   4.852  -4.091  0.00  0.00    -0.072 A 
ENDROOT
TORSDOF 0
ENDMDL
