MODEL 1
REMARK minimizedAffinity 3.94320607
REMARK minimizedRMSD -1
REMARK  0 active torsions:
REMARK  status: ('A' for Active; 'I' for Inactive)
ROOT
ATOM      1  C1  DEN d   1       6.000   3.849  -1.895  0.00  0.00     0.130 A 
ATOM      2  C2  DEN d   1       6.000   4.974  -0.964  0.00  0.00    -0.031 A 
ATOM      3  C3  DEN d   1       5.074   5.999  -1.487  0.00  0.00     0.027 A 
ATOM      4  C4  DEN d   1       3.645   5.952  -3.633  0.00  0.00     0.027 A 
ATOM      5  C5  DEN d   1       3.319   5.212  -4.749  0.00  0.00    -0.003 A 
ATOM      6  C6  DEN d   1       3.885   3.992  -5.007  0.00  0.00     0.001 A 
ATOM      7  C7  DEN d   1       4.774   3.454  -4.114  0.00  0.00     0.017 A 
ATOM      8  C8  DEN d   1       5.113   4.196  -2.991  0.00  0.00    -0.094 A 
ATOM      9  C9  DEN d   1       4.520   5.423  -2.742  0.00  0.00    -0.072 A 
ENDROOT
TORSDOF 0
ENDMDL
