MODEL 1
REMARK minimizedAffinity 4.96573687
REMARK minimizedRMSD -1
REMARK  0 active torsions:
REMARK  status: ('A' for Active; 'I' for Inactive)
ROOT
ATOM      1  C1  DEN d   1       3.377   5.980  -3.044  0.00  0.00     0.130 A 
ATOM      2  C2  DEN d   1       2.322   5.002  -2.793  0.00  0.00    -0.031 A 
ATOM      3  C3  DEN d   1       2.548   3.848  -3.686  0.00  0.00     0.027 A 
ATOM      4  C4  DEN d   1       4.421   3.481  -5.421  0.00  0.00     0.027 A 
ATOM      5  C5  DEN d   1       5.540   4.038  -5.999  0.00  0.00    -0.003 A 
ATOM      6  C6  DEN d   1       5.994   5.285  -5.660  0.00  0.00     0.001 A 
ATOM      7  C7  DEN d   1       5.350   5.999  -4.684  0.00  0.00     0.017 A 
ATOM      8  C8  DEN d   1       4.217   5.447  -4.101  0.00  0.00    -0.094 A 
ATOM      9  C9  DEN d   1       3.781   4.180  -4.449  0.00  0.00    -0.072 A 
ENDROOT
TORSDOF 0
ENDMDL
