MODEL 1
REMARK minimizedAffinity 6.58108282
REMARK minimizedRMSD -1
REMARK  0 active torsions:
REMARK  status: ('A' for Active; 'I' for Inactive)
ROOT
ATOM      1  C1  DEN d   1       3.725   2.351  -5.124  0.00  0.00     0.130 A 
ATOM      2  C2  DEN d   1       4.901   1.839  -5.822  0.00  0.00    -0.031 A 
ATOM      3  C3  DEN d   1       5.983   2.836  -5.686  0.00  0.00     0.027 A 
ATOM      4  C4  DEN d   1       5.951   5.108  -4.465  0.00  0.00     0.027 A 
ATOM      5  C5  DEN d   1       5.174   5.979  -3.735  0.00  0.00    -0.003 A 
ATOM      6  C6  DEN d   1       3.860   5.719  -3.447  0.00  0.00     0.001 A 
ATOM      7  C7  DEN d   1       3.296   4.539  -3.855  0.00  0.00     0.017 A 
ATOM      8  C8  DEN d   1       4.071   3.659  -4.598  0.00  0.00    -0.094 A 
ATOM      9  C9  DEN d   1       5.401   3.934  -4.868  0.00  0.00    -0.072 A 
ENDROOT
TORSDOF 0
ENDMDL
