MODEL 1
REMARK minimizedAffinity 3.62995148
REMARK minimizedRMSD -1
REMARK  3 active torsions:
REMARK  status: ('A' for Active; 'I' for Inactive)
REMARK    1  A    between atoms: C3'_2  and  C2'_3 
REMARK    2  A    between atoms: C2'_3  and  C1'_4 
REMARK    3  A    between atoms: C1'_4  and  C1_5 
ROOT
ATOM      1  C1  N4B d   1       3.605  -3.268  -0.482  0.00  0.00    -0.075 A 
ATOM      2  C2  N4B d   1       3.734  -4.668  -0.612  0.00  0.00     0.002 A 
ATOM      3  C3  N4B d   1       4.930  -5.213  -1.011  0.00  0.00     0.002 A 
ATOM      4  C4  N4B d   1       6.000  -4.380  -1.303  0.00  0.00    -0.004 A 
ATOM      5  C5  N4B d   1       5.874  -3.030  -1.150  0.00  0.00     0.002 A 
ATOM      6  C6  N4B d   1       4.680  -2.469  -0.746  0.00  0.00     0.002 A 
ENDROOT
BRANCH   1   7
ATOM      7  C1' N4B d   1       2.293  -2.621  -0.132  0.00  0.00     0.057 C 
BRANCH   7   8
ATOM      8  C2' N4B d   1       1.220  -3.699  -0.007  0.00  0.00     0.009 C 
BRANCH   8   9
ATOM      9  C3' N4B d   1       0.372  -3.805  -1.263  0.00  0.00     0.004 C 
ATOM     10  C4' N4B d   1       0.380  -5.183  -1.855  0.00  0.00     0.003 C 
ENDBRANCH   8   9
ENDBRANCH   7   8
ENDBRANCH   1   7
TORSDOF 3
ENDMDL
