MODEL 1
REMARK minimizedAffinity 5.95911646
REMARK minimizedRMSD -1
REMARK  3 active torsions:
REMARK  status: ('A' for Active; 'I' for Inactive)
REMARK    1  A    between atoms: C3'_2  and  C2'_3 
REMARK    2  A    between atoms: C2'_3  and  C1'_4 
REMARK    3  A    between atoms: C1'_4  and  C1_5 
ROOT
ATOM      1  C1  N4B d   1       0.509   2.655   1.634  0.00  0.00    -0.075 A 
ATOM      2  C2  N4B d   1       0.049   2.101   2.849  0.00  0.00     0.002 A 
ATOM      3  C3  N4B d   1       0.907   1.972   3.913  0.00  0.00     0.002 A 
ATOM      4  C4  N4B d   1       2.229   2.370   3.780  0.00  0.00    -0.004 A 
ATOM      5  C5  N4B d   1       2.659   2.928   2.612  0.00  0.00     0.002 A 
ATOM      6  C6  N4B d   1       1.807   3.068   1.535  0.00  0.00     0.002 A 
ENDROOT
BRANCH   1   7
ATOM      7  C1' N4B d   1      -0.369   2.738   0.415  0.00  0.00     0.057 C 
BRANCH   7   8
ATOM      8  C2' N4B d   1       0.018   3.969  -0.398  0.00  0.00     0.009 C 
BRANCH   8   9
ATOM      9  C3' N4B d   1      -0.756   4.054  -1.703  0.00  0.00     0.004 C 
ATOM     10  C4' N4B d   1      -1.473   5.361  -1.869  0.00  0.00     0.003 C 
ENDBRANCH   8   9
ENDBRANCH   7   8
ENDBRANCH   1   7
TORSDOF 3
ENDMDL
