MODEL 1
REMARK minimizedAffinity 0.989383101
REMARK minimizedRMSD -1
REMARK  3 active torsions:
REMARK  status: ('A' for Active; 'I' for Inactive)
REMARK    1  A    between atoms: C3'_2  and  C2'_3 
REMARK    2  A    between atoms: C2'_3  and  C1'_4 
REMARK    3  A    between atoms: C1'_4  and  C1_5 
ROOT
ATOM      1  C1  N4B d   1      -0.352   3.528  -0.058  0.00  0.00    -0.075 A 
ATOM      2  C2  N4B d   1      -0.543   3.411  -1.452  0.00  0.00     0.002 A 
ATOM      3  C3  N4B d   1      -0.838   4.524  -2.201  0.00  0.00     0.002 A 
ATOM      4  C4  N4B d   1      -0.966   5.756  -1.577  0.00  0.00    -0.004 A 
ATOM      5  C5  N4B d   1      -0.755   5.865  -0.233  0.00  0.00     0.002 A 
ATOM      6  C6  N4B d   1      -0.454   4.755   0.531  0.00  0.00     0.002 A 
ENDROOT
BRANCH   1   7
ATOM      7  C1' N4B d   1      -0.113   2.326   0.814  0.00  0.00     0.057 C 
BRANCH   7   8
ATOM      8  C2' N4B d   1       0.290   2.792   2.210  0.00  0.00     0.009 C 
BRANCH   8   9
ATOM      9  C3' N4B d   1      -0.609   2.207   3.286  0.00  0.00     0.004 C 
ATOM     10  C4' N4B d   1       0.147   1.395   4.295  0.00  0.00     0.003 C 
ENDBRANCH   8   9
ENDBRANCH   7   8
ENDBRANCH   1   7
TORSDOF 3
ENDMDL
