MODEL 1
REMARK minimizedAffinity 13.2964058
REMARK minimizedRMSD -1
REMARK  1 active torsions:
REMARK  status: ('A' for Active; 'I' for Inactive)
REMARK    1  A    between atoms: C1_2  and  C2_3 
ROOT
ATOM      1  C2  UNL d   1      -2.116  -4.949  -3.779  0.00  0.00    -0.073 A 
ATOM      2  C3  UNL d   1      -1.218  -4.131  -4.473  0.00  0.00    -0.002 A 
ATOM      3  C4  UNL d   1      -0.453  -3.185  -3.790  0.00  0.00     0.004 A 
ATOM      4  C5  UNL d   1      -0.572  -3.053  -2.406  0.00  0.00    -0.004 A 
ATOM      5  C6  UNL d   1      -1.455  -3.870  -1.693  0.00  0.00    -0.075 A 
ATOM      6  C7  UNL d   1      -1.596  -3.739  -0.205  0.00  0.00     0.076 C 
ATOM      7  C8  UNL d   1      -2.222  -4.815  -2.387  0.00  0.00     0.001 A 
ENDROOT
BRANCH   1   8
ATOM      8  C1  UNL d   1      -2.940  -5.976  -4.512  0.00  0.00     0.053 C 
ATOM      9  C   UNL d   1      -2.629  -6.000  -6.000  0.00  0.00     0.018 C 
ENDBRANCH   1   8
TORSDOF 1
ENDMDL
