MODEL 1
REMARK minimizedAffinity 15.0420694
REMARK minimizedRMSD -1
REMARK  1 active torsions:
REMARK  status: ('A' for Active; 'I' for Inactive)
REMARK    1  A    between atoms: C1_2  and  C2_3 
ROOT
ATOM      1  C2  UNL d   1       0.198   4.789  -3.946  0.00  0.00    -0.073 A 
ATOM      2  C3  UNL d   1       1.080   5.869  -3.830  0.00  0.00    -0.002 A 
ATOM      3  C4  UNL d   1       2.306   5.712  -3.181  0.00  0.00     0.004 A 
ATOM      4  C5  UNL d   1       2.664   4.474  -2.648  0.00  0.00    -0.004 A 
ATOM      5  C6  UNL d   1       1.801   3.379  -2.764  0.00  0.00    -0.075 A 
ATOM      6  C7  UNL d   1       2.170   2.041  -2.194  0.00  0.00     0.076 C 
ATOM      7  C8  UNL d   1       0.571   3.546  -3.415  0.00  0.00     0.001 A 
ENDROOT
BRANCH   1   8
ATOM      8  C1  UNL d   1      -1.123   4.952  -4.652  0.00  0.00     0.053 C 
ATOM      9  C   UNL d   1      -0.970   5.653  -5.993  0.00  0.00     0.018 C 
ENDBRANCH   1   8
TORSDOF 1
ENDMDL
