MODEL 1
REMARK minimizedAffinity 14.1846533
REMARK minimizedRMSD -1
REMARK  1 active torsions:
REMARK  status: ('A' for Active; 'I' for Inactive)
REMARK    1  A    between atoms: C1_2  and  C2_3 
ROOT
ATOM      1  C2  UNL d   1       3.443   3.051  -3.102  0.00  0.00    -0.073 A 
ATOM      2  C3  UNL d   1       4.111   2.831  -4.312  0.00  0.00    -0.002 A 
ATOM      3  C4  UNL d   1       5.381   3.370  -4.524  0.00  0.00     0.004 A 
ATOM      4  C5  UNL d   1       5.998   4.127  -3.528  0.00  0.00    -0.004 A 
ATOM      5  C6  UNL d   1       5.351   4.347  -2.307  0.00  0.00    -0.075 A 
ATOM      6  C7  UNL d   1       5.999   5.161  -1.226  0.00  0.00     0.076 C 
ATOM      7  C8  UNL d   1       4.075   3.805  -2.103  0.00  0.00     0.001 A 
ENDROOT
BRANCH   1   8
ATOM      8  C1  UNL d   1       2.075   2.466  -2.866  0.00  0.00     0.053 C 
ATOM      9  C   UNL d   1       0.969   3.376  -3.378  0.00  0.00     0.018 C 
ENDBRANCH   1   8
TORSDOF 1
ENDMDL
