MODEL 1
REMARK minimizedAffinity 9.76527596
REMARK minimizedRMSD -1
REMARK  1 active torsions:
REMARK  status: ('A' for Active; 'I' for Inactive)
REMARK    1  A    between atoms: C1_2  and  C2_3 
ROOT
ATOM      1  C2  UNL d   1      -0.262  -1.970   2.129  0.00  0.00    -0.073 A 
ATOM      2  C3  UNL d   1      -1.467  -2.613   1.824  0.00  0.00    -0.002 A 
ATOM      3  C4  UNL d   1      -2.616  -1.867   1.556  0.00  0.00     0.004 A 
ATOM      4  C5  UNL d   1      -2.571  -0.474   1.584  0.00  0.00    -0.004 A 
ATOM      5  C6  UNL d   1      -1.373   0.188   1.876  0.00  0.00    -0.075 A 
ATOM      6  C7  UNL d   1      -1.309   1.686   1.912  0.00  0.00     0.076 C 
ATOM      7  C8  UNL d   1      -0.225  -0.568   2.146  0.00  0.00     0.001 A 
ENDROOT
BRANCH   1   8
ATOM      8  C1  UNL d   1       0.982  -2.770   2.413  0.00  0.00     0.053 C 
ATOM      9  C   UNL d   1       1.580  -3.363   1.146  0.00  0.00     0.018 C 
ENDBRANCH   1   8
TORSDOF 1
ENDMDL
