MODEL 1
REMARK minimizedAffinity 8.64394855
REMARK minimizedRMSD -1
REMARK  1 active torsions:
REMARK  status: ('A' for Active; 'I' for Inactive)
REMARK    1  A    between atoms: C1_2  and  C2_3 
ROOT
ATOM      1  C2  UNL d   1       3.355   4.011  -2.970  0.00  0.00    -0.073 A 
ATOM      2  C3  UNL d   1       4.046   3.689  -4.143  0.00  0.00    -0.002 A 
ATOM      3  C4  UNL d   1       5.361   4.120  -4.327  0.00  0.00     0.004 A 
ATOM      4  C5  UNL d   1       5.999   4.870  -3.339  0.00  0.00    -0.004 A 
ATOM      5  C6  UNL d   1       5.328   5.192  -2.155  0.00  0.00    -0.075 A 
ATOM      6  C7  UNL d   1       6.000   6.000  -1.083  0.00  0.00     0.076 C 
ATOM      7  C8  UNL d   1       4.008   4.758  -1.978  0.00  0.00     0.001 A 
ENDROOT
BRANCH   1   8
ATOM      8  C1  UNL d   1       1.937   3.543  -2.764  0.00  0.00     0.053 C 
ATOM      9  C   UNL d   1       1.871   2.284  -1.913  0.00  0.00     0.018 C 
ENDBRANCH   1   8
TORSDOF 1
ENDMDL
