MODEL 1
REMARK minimizedAffinity 16.7519875
REMARK minimizedRMSD -1
REMARK  1 active torsions:
REMARK  status: ('A' for Active; 'I' for Inactive)
REMARK    1  A    between atoms: C1_2  and  C2_3 
ROOT
ATOM      1  C2  UNL d   1       1.432   2.343  -1.284  0.00  0.00    -0.073 A 
ATOM      2  C3  UNL d   1       2.713   2.235  -1.837  0.00  0.00    -0.002 A 
ATOM      3  C4  UNL d   1       2.984   2.772  -3.097  0.00  0.00     0.004 A 
ATOM      4  C5  UNL d   1       1.981   3.426  -3.812  0.00  0.00    -0.004 A 
ATOM      5  C6  UNL d   1       0.698   3.554  -3.271  0.00  0.00    -0.075 A 
ATOM      6  C7  UNL d   1      -0.393   4.253  -4.028  0.00  0.00     0.076 C 
ATOM      7  C8  UNL d   1       0.433   3.010  -2.006  0.00  0.00     0.001 A 
ENDROOT
BRANCH   1   8
ATOM      8  C1  UNL d   1       1.137   1.771   0.079  0.00  0.00     0.053 C 
ATOM      9  C   UNL d   1       1.880   2.510   1.180  0.00  0.00     0.018 C 
ENDBRANCH   1   8
TORSDOF 1
ENDMDL
