MODEL 1
REMARK minimizedAffinity 11.6883183
REMARK minimizedRMSD -1
REMARK  1 active torsions:
REMARK  status: ('A' for Active; 'I' for Inactive)
REMARK    1  A    between atoms: C1_2  and  C2_3 
ROOT
ATOM      1  C2  UNL d   1       2.951   2.937  -2.938  0.00  0.00    -0.073 A 
ATOM      2  C3  UNL d   1       2.621   2.339  -1.716  0.00  0.00    -0.002 A 
ATOM      3  C4  UNL d   1       1.292   2.287  -1.294  0.00  0.00     0.004 A 
ATOM      4  C5  UNL d   1       0.280   2.824  -2.090  0.00  0.00    -0.004 A 
ATOM      5  C6  UNL d   1       0.589   3.414  -3.320  0.00  0.00    -0.075 A 
ATOM      6  C7  UNL d   1      -0.487   3.999  -4.187  0.00  0.00     0.076 C 
ATOM      7  C8  UNL d   1       1.926   3.466  -3.736  0.00  0.00     0.001 A 
ENDROOT
BRANCH   1   8
ATOM      8  C1  UNL d   1       4.384   2.990  -3.401  0.00  0.00     0.053 C 
ATOM      9  C   UNL d   1       4.514   2.690  -4.886  0.00  0.00     0.018 C 
ENDBRANCH   1   8
TORSDOF 1
ENDMDL
