MODEL 1
REMARK minimizedAffinity 4.79444647
REMARK minimizedRMSD -1
REMARK  1 active torsions:
REMARK  status: ('A' for Active; 'I' for Inactive)
REMARK    1  A    between atoms: C1_2  and  C2_3 
ROOT
ATOM      1  C2  UNL d   1       5.287   2.159  -3.693  0.00  0.00    -0.073 A 
ATOM      2  C3  UNL d   1       5.989   0.954  -3.812  0.00  0.00    -0.002 A 
ATOM      3  C4  UNL d   1       5.334  -0.265  -3.636  0.00  0.00     0.004 A 
ATOM      4  C5  UNL d   1       3.970  -0.293  -3.346  0.00  0.00    -0.004 A 
ATOM      5  C6  UNL d   1       3.248   0.900  -3.235  0.00  0.00    -0.075 A 
ATOM      6  C7  UNL d   1       1.780   0.886  -2.921  0.00  0.00     0.076 C 
ATOM      7  C8  UNL d   1       3.914   2.120  -3.410  0.00  0.00     0.001 A 
ENDROOT
BRANCH   1   8
ATOM      8  C1  UNL d   1       5.989   3.477  -3.888  0.00  0.00     0.053 C 
ATOM      9  C   UNL d   1       5.993   4.315  -2.619  0.00  0.00     0.018 C 
ENDBRANCH   1   8
TORSDOF 1
ENDMDL
