MODEL 1
REMARK minimizedAffinity 16.5587158
REMARK minimizedRMSD -1
REMARK  1 active torsions:
REMARK  status: ('A' for Active; 'I' for Inactive)
REMARK    1  A    between atoms: C1_2  and  C2_3 
ROOT
ATOM      1  C2  UNL d   1       0.516  -3.567   1.949  0.00  0.00    -0.073 A 
ATOM      2  C3  UNL d   1       0.688  -2.381   2.672  0.00  0.00    -0.002 A 
ATOM      3  C4  UNL d   1      -0.392  -1.523   2.885  0.00  0.00     0.004 A 
ATOM      4  C5  UNL d   1      -1.653  -1.844   2.383  0.00  0.00    -0.004 A 
ATOM      5  C6  UNL d   1      -1.847  -3.030   1.668  0.00  0.00    -0.075 A 
ATOM      6  C7  UNL d   1      -3.197  -3.388   1.120  0.00  0.00     0.076 C 
ATOM      7  C8  UNL d   1      -0.757  -3.885   1.456  0.00  0.00     0.001 A 
ENDROOT
BRANCH   1   8
ATOM      8  C1  UNL d   1       1.678  -4.500   1.723  0.00  0.00     0.053 C 
ATOM      9  C   UNL d   1       2.299  -4.314   0.347  0.00  0.00     0.018 C 
ENDBRANCH   1   8
TORSDOF 1
ENDMDL
