MODEL 1
REMARK minimizedAffinity 2.98421645
REMARK minimizedRMSD -1
REMARK  1 active torsions:
REMARK  status: ('A' for Active; 'I' for Inactive)
REMARK    1  A    between atoms: C1_2  and  C2_3 
ROOT
ATOM      1  C2  UNL d   1       0.477  -2.385   1.077  0.00  0.00    -0.073 A 
ATOM      2  C3  UNL d   1       1.034  -1.927   2.276  0.00  0.00    -0.002 A 
ATOM      3  C4  UNL d   1       0.337  -1.019   3.075  0.00  0.00     0.004 A 
ATOM      4  C5  UNL d   1      -0.923  -0.566   2.687  0.00  0.00    -0.004 A 
ATOM      5  C6  UNL d   1      -1.501  -1.021   1.497  0.00  0.00    -0.075 A 
ATOM      6  C7  UNL d   1      -2.856  -0.542   1.065  0.00  0.00     0.076 C 
ATOM      7  C8  UNL d   1      -0.795  -1.931   0.700  0.00  0.00     0.001 A 
ENDROOT
BRANCH   1   8
ATOM      8  C1  UNL d   1       1.223  -3.371   0.215  0.00  0.00     0.053 C 
ATOM      9  C   UNL d   1       0.638  -3.459  -1.186  0.00  0.00     0.018 C 
ENDBRANCH   1   8
TORSDOF 1
ENDMDL
