MODEL 1
REMARK minimizedAffinity -1.26651108
REMARK minimizedRMSD -1
REMARK  1 active torsions:
REMARK  status: ('A' for Active; 'I' for Inactive)
REMARK    1  A    between atoms: C1_2  and  C2_3 
ROOT
ATOM      1  C2  UNL d   1       0.470   0.172   0.043  0.00  0.00    -0.073 A 
ATOM      2  C3  UNL d   1      -0.215  -0.715  -0.796  0.00  0.00    -0.002 A 
ATOM      3  C4  UNL d   1      -1.594  -0.595  -0.974  0.00  0.00     0.004 A 
ATOM      4  C5  UNL d   1      -2.300   0.415  -0.321  0.00  0.00    -0.004 A 
ATOM      5  C6  UNL d   1      -1.632   1.318   0.512  0.00  0.00    -0.075 A 
ATOM      6  C7  UNL d   1      -2.378   2.409   1.223  0.00  0.00     0.076 C 
ATOM      7  C8  UNL d   1      -0.248   1.189   0.687  0.00  0.00     0.001 A 
ENDROOT
BRANCH   1   8
ATOM      8  C1  UNL d   1       1.959   0.050   0.233  0.00  0.00     0.053 C 
ATOM      9  C   UNL d   1       2.336  -1.215   0.988  0.00  0.00     0.018 C 
ENDBRANCH   1   8
TORSDOF 1
ENDMDL
