MODEL 1
REMARK minimizedAffinity -0.683112323
REMARK minimizedRMSD -1
REMARK  0 active torsions:
REMARK  status: ('A' for Active; 'I' for Inactive)
ROOT
ATOM      1  C2' OXE d   1       0.874   0.584   0.801  0.00  0.00     0.078 C 
ATOM      2  C1' OXE d   1      -1.409  -0.653  -0.266  0.00  0.00     0.078 C 
ATOM      3  C1  OXE d   1      -0.357  -0.165  -1.231  0.00  0.00    -0.078 A 
ATOM      4  C2  OXE d   1       0.735   0.481  -0.702  0.00  0.00    -0.078 A 
ATOM      5  C3  OXE d   1       1.761   0.902  -1.544  0.00  0.00     0.003 A 
ATOM      6  C4  OXE d   1       1.619   0.811  -2.934  0.00  0.00    -0.002 A 
ATOM      7  C5  OXE d   1       0.497   0.192  -3.494  0.00  0.00    -0.002 A 
ATOM      8  C6  OXE d   1      -0.478  -0.338  -2.657  0.00  0.00     0.003 A 
ENDROOT
TORSDOF 0
ENDMDL
