MODEL 1
REMARK minimizedAffinity -2.3124485
REMARK minimizedRMSD -1
REMARK  0 active torsions:
REMARK  status: ('A' for Active; 'I' for Inactive)
ROOT
ATOM      1  C2' OXE d   1      -3.142   0.296  -0.563  0.00  0.00     0.078 C 
ATOM      2  C1' OXE d   1      -1.876   0.829   1.885  0.00  0.00     0.078 C 
ATOM      3  C1  OXE d   1      -1.030   0.289   0.759  0.00  0.00    -0.078 A 
ATOM      4  C2  OXE d   1      -1.667  -0.013  -0.421  0.00  0.00    -0.078 A 
ATOM      5  C3  OXE d   1      -0.925  -0.463  -1.509  0.00  0.00     0.003 A 
ATOM      6  C4  OXE d   1       0.436  -0.756  -1.367  0.00  0.00    -0.002 A 
ATOM      7  C5  OXE d   1       1.096  -0.494  -0.161  0.00  0.00    -0.002 A 
ATOM      8  C6  OXE d   1       0.388   0.068   0.895  0.00  0.00     0.003 A 
ENDROOT
TORSDOF 0
ENDMDL
