MODEL 1
REMARK minimizedAffinity -3.60149956
REMARK minimizedRMSD -1
REMARK  0 active torsions:
REMARK  status: ('A' for Active; 'I' for Inactive)
ROOT
ATOM      1  C2' OXE d   1       0.916  -1.031  -1.119  0.00  0.00     0.078 C 
ATOM      2  C1' OXE d   1       1.708   0.278   1.235  0.00  0.00     0.078 C 
ATOM      3  C1  OXE d   1       0.232   0.202   0.935  0.00  0.00    -0.078 A 
ATOM      4  C2  OXE d   1      -0.144  -0.399  -0.242  0.00  0.00    -0.078 A 
ATOM      5  C3  OXE d   1      -1.496  -0.544  -0.541  0.00  0.00     0.003 A 
ATOM      6  C4  OXE d   1      -2.469   0.052   0.270  0.00  0.00    -0.002 A 
ATOM      7  C5  OXE d   1      -2.105   0.704   1.453  0.00  0.00    -0.002 A 
ATOM      8  C6  OXE d   1      -0.765   0.751   1.821  0.00  0.00     0.003 A 
ENDROOT
TORSDOF 0
ENDMDL
