MODEL 1
REMARK minimizedAffinity -4.38410854
REMARK minimizedRMSD -1
REMARK  0 active torsions:
REMARK  status: ('A' for Active; 'I' for Inactive)
ROOT
ATOM      1  C2' OXE d   1      -2.187  -0.927  -0.139  0.00  0.00     0.078 C 
ATOM      2  C1' OXE d   1       0.497  -0.755  -0.942  0.00  0.00     0.078 C 
ATOM      3  C1  OXE d   1       0.056   0.094   0.224  0.00  0.00    -0.078 A 
ATOM      4  C2  OXE d   1      -1.270   0.039   0.580  0.00  0.00    -0.078 A 
ATOM      5  C3  OXE d   1      -1.718   0.760   1.683  0.00  0.00     0.003 A 
ATOM      6  C4  OXE d   1      -0.866   1.658   2.337  0.00  0.00    -0.002 A 
ATOM      7  C5  OXE d   1       0.479   1.759   1.965  0.00  0.00    -0.002 A 
ATOM      8  C6  OXE d   1       0.965   0.955   0.940  0.00  0.00     0.003 A 
ENDROOT
TORSDOF 0
ENDMDL
