MODEL 1
REMARK minimizedAffinity -5.64020395
REMARK minimizedRMSD -1
REMARK  0 active torsions:
REMARK  status: ('A' for Active; 'I' for Inactive)
ROOT
ATOM      1  C2' OXE d   1      -0.686   1.121   2.695  0.00  0.00     0.078 C 
ATOM      2  C1' OXE d   1       1.865   0.229   1.934  0.00  0.00     0.078 C 
ATOM      3  C1  OXE d   1       0.755   0.136   0.917  0.00  0.00    -0.078 A 
ATOM      4  C2  OXE d   1      -0.500   0.531   1.313  0.00  0.00    -0.078 A 
ATOM      5  C3  OXE d   1      -1.548   0.517   0.397  0.00  0.00     0.003 A 
ATOM      6  C4  OXE d   1      -1.370  -0.039  -0.875  0.00  0.00    -0.002 A 
ATOM      7  C5  OXE d   1      -0.109  -0.484  -1.286  0.00  0.00    -0.002 A 
ATOM      8  C6  OXE d   1       0.971  -0.364  -0.418  0.00  0.00     0.003 A 
ENDROOT
TORSDOF 0
ENDMDL
