MODEL 1
REMARK minimizedAffinity -4.05246782
REMARK minimizedRMSD -1
REMARK  0 active torsions:
REMARK  status: ('A' for Active; 'I' for Inactive)
ROOT
ATOM      1  C2' OXE d   1      -0.699   1.596   2.897  0.00  0.00     0.078 C 
ATOM      2  C1' OXE d   1       1.757   0.692   1.880  0.00  0.00     0.078 C 
ATOM      3  C1  OXE d   1       0.508   0.358   1.103  0.00  0.00    -0.078 A 
ATOM      4  C2  OXE d   1      -0.694   0.764   1.633  0.00  0.00    -0.078 A 
ATOM      5  C3  OXE d   1      -1.871   0.529   0.929  0.00  0.00     0.003 A 
ATOM      6  C4  OXE d   1      -1.859  -0.250  -0.234  0.00  0.00    -0.002 A 
ATOM      7  C5  OXE d   1      -0.650  -0.708  -0.769  0.00  0.00    -0.002 A 
ATOM      8  C6  OXE d   1       0.544  -0.377  -0.137  0.00  0.00     0.003 A 
ENDROOT
TORSDOF 0
ENDMDL
