MODEL 1
REMARK minimizedAffinity -4.2237916
REMARK minimizedRMSD -1
REMARK  0 active torsions:
REMARK  status: ('A' for Active; 'I' for Inactive)
ROOT
ATOM      1  C2' OXE d   1      -0.587   1.229   2.921  0.00  0.00     0.078 C 
ATOM      2  C1' OXE d   1       1.993   0.246   2.415  0.00  0.00     0.078 C 
ATOM      3  C1  OXE d   1       0.917  -0.047   1.400  0.00  0.00    -0.078 A 
ATOM      4  C2  OXE d   1      -0.353   0.398   1.679  0.00  0.00    -0.078 A 
ATOM      5  C3  OXE d   1      -1.371   0.202   0.750  0.00  0.00     0.003 A 
ATOM      6  C4  OXE d   1      -1.149  -0.577  -0.392  0.00  0.00    -0.002 A 
ATOM      7  C5  OXE d   1       0.128  -1.073  -0.675  0.00  0.00    -0.002 A 
ATOM      8  C6  OXE d   1       1.179  -0.782   0.187  0.00  0.00     0.003 A 
ENDROOT
TORSDOF 0
ENDMDL
