MODEL 1
REMARK minimizedAffinity -5.89723396
REMARK minimizedRMSD -1
REMARK  0 active torsions:
REMARK  status: ('A' for Active; 'I' for Inactive)
ROOT
ATOM      1  C2' OXE d   1       1.043  -0.858  -0.804  0.00  0.00     0.078 C 
ATOM      2  C1' OXE d   1       2.271   0.102   1.531  0.00  0.00     0.078 C 
ATOM      3  C1  OXE d   1       0.809   0.413   1.326  0.00  0.00    -0.078 A 
ATOM      4  C2  OXE d   1       0.228  -0.021   0.159  0.00  0.00    -0.078 A 
ATOM      5  C3  OXE d   1      -1.131   0.191  -0.056  0.00  0.00     0.003 A 
ATOM      6  C4  OXE d   1      -1.875   0.975   0.835  0.00  0.00    -0.002 A 
ATOM      7  C5  OXE d   1      -1.292   1.460   2.011  0.00  0.00    -0.002 A 
ATOM      8  C6  OXE d   1       0.034   1.153   2.291  0.00  0.00     0.003 A 
ENDROOT
TORSDOF 0
ENDMDL
