MODEL 1
REMARK minimizedAffinity -3.58202934
REMARK minimizedRMSD -1
REMARK  0 active torsions:
REMARK  status: ('A' for Active; 'I' for Inactive)
ROOT
ATOM      1  C2' OXE d   1       1.564  -0.371   2.240  0.00  0.00     0.078 C 
ATOM      2  C1' OXE d   1      -0.818   1.055   2.657  0.00  0.00     0.078 C 
ATOM      3  C1  OXE d   1      -0.550   0.523   1.272  0.00  0.00    -0.078 A 
ATOM      4  C2  OXE d   1       0.639  -0.133   1.065  0.00  0.00    -0.078 A 
ATOM      5  C3  OXE d   1       0.912  -0.692  -0.180  0.00  0.00     0.003 A 
ATOM      6  C4  OXE d   1       0.056  -0.459  -1.264  0.00  0.00    -0.002 A 
ATOM      7  C5  OXE d   1      -1.142   0.241  -1.085  0.00  0.00    -0.002 A 
ATOM      8  C6  OXE d   1      -1.479   0.701   0.183  0.00  0.00     0.003 A 
ENDROOT
TORSDOF 0
ENDMDL
