MODEL 1
REMARK minimizedAffinity -4.47612667
REMARK minimizedRMSD -1
REMARK  0 active torsions:
REMARK  status: ('A' for Active; 'I' for Inactive)
ROOT
ATOM      1  C2' OXE d   1      -0.790   1.508   2.789  0.00  0.00     0.078 C 
ATOM      2  C1' OXE d   1       1.839   0.647   2.308  0.00  0.00     0.078 C 
ATOM      3  C1  OXE d   1       0.787   0.302   1.284  0.00  0.00    -0.078 A 
ATOM      4  C2  OXE d   1      -0.505   0.687   1.550  0.00  0.00    -0.078 A 
ATOM      5  C3  OXE d   1      -1.505   0.441   0.613  0.00  0.00     0.003 A 
ATOM      6  C4  OXE d   1      -1.235  -0.328  -0.526  0.00  0.00    -0.002 A 
ATOM      7  C5  OXE d   1       0.066  -0.764  -0.796  0.00  0.00    -0.002 A 
ATOM      8  C6  OXE d   1       1.095  -0.421   0.075  0.00  0.00     0.003 A 
ENDROOT
TORSDOF 0
ENDMDL
