MODEL 1
REMARK minimizedAffinity -4.47096968
REMARK minimizedRMSD -1
REMARK  0 active torsions:
REMARK  status: ('A' for Active; 'I' for Inactive)
ROOT
ATOM      1  C2' OXE d   1      -2.105  -0.553  -0.582  0.00  0.00     0.078 C 
ATOM      2  C1' OXE d   1       0.683  -0.581  -0.910  0.00  0.00     0.078 C 
ATOM      3  C1  OXE d   1       0.120   0.181   0.264  0.00  0.00    -0.078 A 
ATOM      4  C2  OXE d   1      -1.247   0.228   0.390  0.00  0.00    -0.078 A 
ATOM      5  C3  OXE d   1      -1.817   0.872   1.485  0.00  0.00     0.003 A 
ATOM      6  C4  OXE d   1      -1.017   1.601   2.373  0.00  0.00    -0.002 A 
ATOM      7  C5  OXE d   1       0.376   1.599   2.240  0.00  0.00    -0.002 A 
ATOM      8  C6  OXE d   1       0.961   0.861   1.218  0.00  0.00     0.003 A 
ENDROOT
TORSDOF 0
ENDMDL
