MODEL 1
REMARK minimizedAffinity -3.64598989
REMARK minimizedRMSD -1
REMARK  1 active torsions:
REMARK  status: ('A' for Active; 'I' for Inactive)
REMARK    1  A    between atoms: C1_2  and  C2_3 
ROOT
ATOM      1  C2  UNL d   1       4.381   0.467   1.628  0.00  0.00    -0.081 A 
ATOM      2  C3  UNL d   1       3.888  -0.331   2.668  0.00  0.00     0.006 A 
ATOM      3  C4  UNL d   1       2.643  -0.060   3.239  0.00  0.00     0.002 A 
ATOM      4  C5  UNL d   1       1.866   1.008   2.776  0.00  0.00    -0.080 A 
ATOM      5  C6  UNL d   1       0.514   1.291   3.360  0.00  0.00     0.076 C 
ATOM      6  C7  UNL d   1       2.366   1.815   1.748  0.00  0.00     0.002 A 
ATOM      7  C8  UNL d   1       3.611   1.545   1.177  0.00  0.00     0.006 A 
ENDROOT
BRANCH   1   8
ATOM      8  C1  UNL d   1       5.694   0.138   0.966  0.00  0.00     0.054 C 
ATOM      9  C   UNL d   1       5.904   0.970  -0.291  0.00  0.00     0.018 C 
ENDBRANCH   1   8
TORSDOF 1
ENDMDL
