MODEL 1
REMARK minimizedAffinity -1.3078115
REMARK minimizedRMSD -1
REMARK  1 active torsions:
REMARK  status: ('A' for Active; 'I' for Inactive)
REMARK    1  A    between atoms: C1_2  and  C2_3 
ROOT
ATOM      1  C2  UNL d   1       3.021   0.973  -1.739  0.00  0.00    -0.081 A 
ATOM      2  C3  UNL d   1       4.399   1.137  -1.926  0.00  0.00     0.006 A 
ATOM      3  C4  UNL d   1       5.302   0.710  -0.950  0.00  0.00     0.002 A 
ATOM      4  C5  UNL d   1       4.843   0.105   0.226  0.00  0.00    -0.080 A 
ATOM      5  C6  UNL d   1       5.804  -0.385   1.268  0.00  0.00     0.076 C 
ATOM      6  C7  UNL d   1       3.466  -0.042   0.421  0.00  0.00     0.002 A 
ATOM      7  C8  UNL d   1       2.563   0.385  -0.555  0.00  0.00     0.006 A 
ENDROOT
BRANCH   1   8
ATOM      8  C1  UNL d   1       2.048   1.374  -2.818  0.00  0.00     0.054 C 
ATOM      9  C   UNL d   1       2.745   1.526  -4.163  0.00  0.00     0.018 C 
ENDBRANCH   1   8
TORSDOF 1
ENDMDL
