MODEL 1
REMARK minimizedAffinity -3.4886148
REMARK minimizedRMSD -1
REMARK  1 active torsions:
REMARK  status: ('A' for Active; 'I' for Inactive)
REMARK    1  A    between atoms: C1_2  and  C2_3 
ROOT
ATOM      1  C2  UNL d   1       4.036   1.125  -1.388  0.00  0.00    -0.081 A 
ATOM      2  C3  UNL d   1       3.356   0.675  -0.250  0.00  0.00     0.006 A 
ATOM      3  C4  UNL d   1       3.991   0.656   0.994  0.00  0.00     0.002 A 
ATOM      4  C5  UNL d   1       5.314   1.093   1.122  0.00  0.00    -0.080 A 
ATOM      5  C6  UNL d   1       5.998   1.106   2.457  0.00  0.00     0.076 C 
ATOM      6  C7  UNL d   1       6.000   1.526  -0.018  0.00  0.00     0.002 A 
ATOM      7  C8  UNL d   1       5.365   1.545  -1.262  0.00  0.00     0.006 A 
ENDROOT
BRANCH   1   8
ATOM      8  C1  UNL d   1       3.333   1.208  -2.719  0.00  0.00     0.054 C 
ATOM      9  C   UNL d   1       1.978   1.888  -2.587  0.00  0.00     0.018 C 
ENDBRANCH   1   8
TORSDOF 1
ENDMDL
