MODEL 1
REMARK minimizedAffinity 11.2519827
REMARK minimizedRMSD -1
REMARK  1 active torsions:
REMARK  status: ('A' for Active; 'I' for Inactive)
REMARK    1  A    between atoms: C1_2  and  C2_3 
ROOT
ATOM      1  C2  UNL d   1      -3.994  -3.412  -2.621  0.00  0.00    -0.081 A 
ATOM      2  C3  UNL d   1      -2.828  -3.633  -3.364  0.00  0.00     0.006 A 
ATOM      3  C4  UNL d   1      -1.573  -3.383  -2.804  0.00  0.00     0.002 A 
ATOM      4  C5  UNL d   1      -1.463  -2.915  -1.490  0.00  0.00    -0.080 A 
ATOM      5  C6  UNL d   1      -0.121  -2.672  -0.867  0.00  0.00     0.076 C 
ATOM      6  C7  UNL d   1      -2.628  -2.677  -0.754  0.00  0.00     0.002 A 
ATOM      7  C8  UNL d   1      -3.883  -2.926  -1.313  0.00  0.00     0.006 A 
ENDROOT
BRANCH   1   8
ATOM      8  C1  UNL d   1      -5.346  -3.742  -3.200  0.00  0.00     0.054 C 
ATOM      9  C   UNL d   1      -5.997  -4.901  -2.459  0.00  0.00     0.018 C 
ENDBRANCH   1   8
TORSDOF 1
ENDMDL
