MODEL 1
REMARK minimizedAffinity 1.89122593
REMARK minimizedRMSD -1
REMARK  1 active torsions:
REMARK  status: ('A' for Active; 'I' for Inactive)
REMARK    1  A    between atoms: C1_2  and  C2_3 
ROOT
ATOM      1  C2  UNL d   1       3.746   1.285  -1.274  0.00  0.00    -0.081 A 
ATOM      2  C3  UNL d   1       4.716   0.437  -0.726  0.00  0.00     0.006 A 
ATOM      3  C4  UNL d   1       4.535  -0.120   0.543  0.00  0.00     0.002 A 
ATOM      4  C5  UNL d   1       3.379   0.155   1.280  0.00  0.00    -0.080 A 
ATOM      5  C6  UNL d   1       3.158  -0.460   2.630  0.00  0.00     0.076 C 
ATOM      6  C7  UNL d   1       2.418   1.017   0.740  0.00  0.00     0.002 A 
ATOM      7  C8  UNL d   1       2.598   1.574  -0.527  0.00  0.00     0.006 A 
ENDROOT
BRANCH   1   8
ATOM      8  C1  UNL d   1       3.908   1.835  -2.668  0.00  0.00     0.054 C 
ATOM      9  C   UNL d   1       2.565   1.959  -3.373  0.00  0.00     0.018 C 
ENDBRANCH   1   8
TORSDOF 1
ENDMDL
