MODEL 1
REMARK minimizedAffinity 9.58892441
REMARK minimizedRMSD -1
REMARK  1 active torsions:
REMARK  status: ('A' for Active; 'I' for Inactive)
REMARK    1  A    between atoms: C1_2  and  C2_3 
ROOT
ATOM      1  C2  UNL d   1      -1.666  -3.632  -3.757  0.00  0.00    -0.081 A 
ATOM      2  C3  UNL d   1      -2.597  -2.898  -3.012  0.00  0.00     0.006 A 
ATOM      3  C4  UNL d   1      -2.414  -2.707  -1.641  0.00  0.00     0.002 A 
ATOM      4  C5  UNL d   1      -1.294  -3.240  -0.993  0.00  0.00    -0.080 A 
ATOM      5  C6  UNL d   1      -1.070  -3.016   0.473  0.00  0.00     0.076 C 
ATOM      6  C7  UNL d   1      -0.373  -3.988  -1.734  0.00  0.00     0.002 A 
ATOM      7  C8  UNL d   1      -0.556  -4.180  -3.105  0.00  0.00     0.006 A 
ENDROOT
BRANCH   1   8
ATOM      8  C1  UNL d   1      -1.827  -3.785  -5.248  0.00  0.00     0.054 C 
ATOM      9  C   UNL d   1      -1.097  -2.681  -6.000  0.00  0.00     0.018 C 
ENDBRANCH   1   8
TORSDOF 1
ENDMDL
