MODEL 1
REMARK minimizedAffinity 4.26762486
REMARK minimizedRMSD -1
REMARK  1 active torsions:
REMARK  status: ('A' for Active; 'I' for Inactive)
REMARK    1  A    between atoms: C1_2  and  C2_3 
ROOT
ATOM      1  C2  UNL d   1       3.769   0.375  -0.015  0.00  0.00    -0.081 A 
ATOM      2  C3  UNL d   1       4.244   0.635  -1.307  0.00  0.00     0.006 A 
ATOM      3  C4  UNL d   1       3.488   1.399  -2.199  0.00  0.00     0.002 A 
ATOM      4  C5  UNL d   1       2.250   1.922  -1.813  0.00  0.00    -0.080 A 
ATOM      5  C6  UNL d   1       1.443   2.770  -2.751  0.00  0.00     0.076 C 
ATOM      6  C7  UNL d   1       1.767   1.648  -0.529  0.00  0.00     0.002 A 
ATOM      7  C8  UNL d   1       2.522   0.884   0.364  0.00  0.00     0.006 A 
ENDROOT
BRANCH   1   8
ATOM      8  C1  UNL d   1       4.610  -0.394   0.971  0.00  0.00     0.054 C 
ATOM      9  C   UNL d   1       4.068  -0.257   2.386  0.00  0.00     0.018 C 
ENDBRANCH   1   8
TORSDOF 1
ENDMDL
