MODEL 1
REMARK minimizedAffinity 1.68566453
REMARK minimizedRMSD -1
REMARK  1 active torsions:
REMARK  status: ('A' for Active; 'I' for Inactive)
REMARK    1  A    between atoms: C1_2  and  C2_3 
ROOT
ATOM      1  C2  UNL d   1       3.729   0.237   0.097  0.00  0.00    -0.081 A 
ATOM      2  C3  UNL d   1       4.299   0.644  -1.115  0.00  0.00     0.006 A 
ATOM      3  C4  UNL d   1       3.581   1.452  -2.000  0.00  0.00     0.002 A 
ATOM      4  C5  UNL d   1       2.285   1.873  -1.684  0.00  0.00    -0.080 A 
ATOM      5  C6  UNL d   1       1.515   2.766  -2.611  0.00  0.00     0.076 C 
ATOM      6  C7  UNL d   1       1.709   1.452  -0.481  0.00  0.00     0.002 A 
ATOM      7  C8  UNL d   1       2.426   0.643   0.404  0.00  0.00     0.006 A 
ENDROOT
BRANCH   1   8
ATOM      8  C1  UNL d   1       4.524  -0.581   1.082  0.00  0.00     0.054 C 
ATOM      9  C   UNL d   1       6.000  -0.614   0.710  0.00  0.00     0.018 C 
ENDBRANCH   1   8
TORSDOF 1
ENDMDL
