MODEL 1
REMARK minimizedAffinity 13.7960987
REMARK minimizedRMSD -1
REMARK  1 active torsions:
REMARK  status: ('A' for Active; 'I' for Inactive)
REMARK    1  A    between atoms: C1_2  and  C2_3 
ROOT
ATOM      1  C2  UNL d   1      -1.301  -2.536  -1.027  0.00  0.00    -0.081 A 
ATOM      2  C3  UNL d   1      -2.445  -2.890  -0.302  0.00  0.00     0.006 A 
ATOM      3  C4  UNL d   1      -3.649  -3.150  -0.961  0.00  0.00     0.002 A 
ATOM      4  C5  UNL d   1      -3.727  -3.069  -2.355  0.00  0.00    -0.080 A 
ATOM      5  C6  UNL d   1      -5.005  -3.376  -3.077  0.00  0.00     0.076 C 
ATOM      6  C7  UNL d   1      -2.588  -2.699  -3.079  0.00  0.00     0.002 A 
ATOM      7  C8  UNL d   1      -1.384  -2.438  -2.420  0.00  0.00     0.006 A 
ENDROOT
BRANCH   1   8
ATOM      8  C1  UNL d   1       0.015  -2.318  -0.325  0.00  0.00     0.054 C 
ATOM      9  C   UNL d   1       1.094  -3.242  -0.870  0.00  0.00     0.018 C 
ENDBRANCH   1   8
TORSDOF 1
ENDMDL
