MODEL 1
REMARK minimizedAffinity 1.57811987
REMARK minimizedRMSD -1
REMARK  1 active torsions:
REMARK  status: ('A' for Active; 'I' for Inactive)
REMARK    1  A    between atoms: C1_2  and  C2_3 
ROOT
ATOM      1  C2  UNL d   1       2.881   0.923  -2.044  0.00  0.00    -0.081 A 
ATOM      2  C3  UNL d   1       1.672   1.564  -2.342  0.00  0.00     0.006 A 
ATOM      3  C4  UNL d   1       1.442   2.086  -3.617  0.00  0.00     0.002 A 
ATOM      4  C5  UNL d   1       2.413   1.970  -4.617  0.00  0.00    -0.080 A 
ATOM      5  C6  UNL d   1       2.166   2.499  -5.999  0.00  0.00     0.076 C 
ATOM      6  C7  UNL d   1       3.628   1.345  -4.315  0.00  0.00     0.002 A 
ATOM      7  C8  UNL d   1       3.859   0.824  -3.041  0.00  0.00     0.006 A 
ENDROOT
BRANCH   1   8
ATOM      8  C1  UNL d   1       3.107   0.302  -0.690  0.00  0.00     0.054 C 
ATOM      9  C   UNL d   1       2.288   1.004   0.384  0.00  0.00     0.018 C 
ENDBRANCH   1   8
TORSDOF 1
ENDMDL
