MODEL 1
REMARK minimizedAffinity 0.453400284
REMARK minimizedRMSD -1
REMARK  1 active torsions:
REMARK  status: ('A' for Active; 'I' for Inactive)
REMARK    1  A    between atoms: C1_2  and  C2_3 
ROOT
ATOM      1  C2  UNL d   1      -3.350  -4.214  -1.947  0.00  0.00    -0.081 A 
ATOM      2  C3  UNL d   1      -2.661  -2.999  -1.857  0.00  0.00     0.006 A 
ATOM      3  C4  UNL d   1      -1.946  -2.673  -0.702  0.00  0.00     0.002 A 
ATOM      4  C5  UNL d   1      -1.902  -3.561   0.379  0.00  0.00    -0.080 A 
ATOM      5  C6  UNL d   1      -1.113  -3.237   1.613  0.00  0.00     0.076 C 
ATOM      6  C7  UNL d   1      -2.605  -4.767   0.296  0.00  0.00     0.002 A 
ATOM      7  C8  UNL d   1      -3.320  -5.093  -0.858  0.00  0.00     0.006 A 
ENDROOT
BRANCH   1   8
ATOM      8  C1  UNL d   1      -4.068  -4.596  -3.216  0.00  0.00     0.054 C 
ATOM      9  C   UNL d   1      -5.496  -5.040  -2.931  0.00  0.00     0.018 C 
ENDBRANCH   1   8
TORSDOF 1
ENDMDL
