MODEL 1
REMARK minimizedAffinity 12.5372343
REMARK minimizedRMSD -1
REMARK  1 active torsions:
REMARK  status: ('A' for Active; 'I' for Inactive)
REMARK    1  A    between atoms: C1_2  and  C2_3 
ROOT
ATOM      1  C2  UNL d   1       3.927   0.375  -0.525  0.00  0.00    -0.081 A 
ATOM      2  C3  UNL d   1       2.719   1.046  -0.298  0.00  0.00     0.006 A 
ATOM      3  C4  UNL d   1       2.153   1.842  -1.297  0.00  0.00     0.002 A 
ATOM      4  C5  UNL d   1       2.780   1.973  -2.541  0.00  0.00    -0.080 A 
ATOM      5  C6  UNL d   1       2.167   2.800  -3.632  0.00  0.00     0.076 C 
ATOM      6  C7  UNL d   1       3.995   1.317  -2.761  0.00  0.00     0.002 A 
ATOM      7  C8  UNL d   1       4.562   0.521  -1.763  0.00  0.00     0.006 A 
ENDROOT
BRANCH   1   8
ATOM      8  C1  UNL d   1       4.507  -0.536   0.527  0.00  0.00     0.054 C 
ATOM      9  C   UNL d   1       5.998  -0.749   0.313  0.00  0.00     0.018 C 
ENDBRANCH   1   8
TORSDOF 1
ENDMDL
