MODEL 1
REMARK minimizedAffinity 16.1764259
REMARK minimizedRMSD -1
REMARK  0 active torsions:
REMARK  status: ('A' for Active; 'I' for Inactive)
ROOT
ATOM      1  C1  DEN d   1      -2.110  -4.190  -1.858  0.00  0.00     0.130 A 
ATOM      2  C2  DEN d   1      -1.896  -2.942  -2.586  0.00  0.00    -0.031 A 
ATOM      3  C3  DEN d   1      -3.131  -2.631  -3.332  0.00  0.00     0.027 A 
ATOM      4  C4  DEN d   1      -5.346  -3.950  -3.426  0.00  0.00     0.027 A 
ATOM      5  C5  DEN d   1      -6.000  -5.078  -2.982  0.00  0.00    -0.003 A 
ATOM      6  C6  DEN d   1      -5.397  -5.999  -2.167  0.00  0.00     0.001 A 
ATOM      7  C7  DEN d   1      -4.115  -5.785  -1.733  0.00  0.00     0.017 A 
ATOM      8  C8  DEN d   1      -3.447  -4.654  -2.182  0.00  0.00    -0.094 A 
ATOM      9  C9  DEN d   1      -4.078  -3.728  -2.996  0.00  0.00    -0.072 A 
ENDROOT
TORSDOF 0
ENDMDL
