MODEL 1
REMARK minimizedAffinity 11.719552
REMARK minimizedRMSD -1
REMARK  0 active torsions:
REMARK  status: ('A' for Active; 'I' for Inactive)
ROOT
ATOM      1  C1  DEN d   1      -0.597  -3.234   0.592  0.00  0.00     0.130 A 
ATOM      2  C2  DEN d   1      -1.426  -2.661   1.648  0.00  0.00    -0.031 A 
ATOM      3  C3  DEN d   1      -2.642  -2.102   1.023  0.00  0.00     0.027 A 
ATOM      4  C4  DEN d   1      -3.319  -2.073  -1.466  0.00  0.00     0.027 A 
ATOM      5  C5  DEN d   1      -2.931  -2.429  -2.739  0.00  0.00    -0.003 A 
ATOM      6  C6  DEN d   1      -1.733  -3.042  -2.993  0.00  0.00     0.001 A 
ATOM      7  C7  DEN d   1      -0.900  -3.360  -1.953  0.00  0.00     0.017 A 
ATOM      8  C8  DEN d   1      -1.280  -2.997  -0.668  0.00  0.00    -0.094 A 
ATOM      9  C9  DEN d   1      -2.501  -2.389  -0.430  0.00  0.00    -0.072 A 
ENDROOT
TORSDOF 0
ENDMDL
