MODEL 1
REMARK minimizedAffinity 17.7008495
REMARK minimizedRMSD -1
REMARK  0 active torsions:
REMARK  status: ('A' for Active; 'I' for Inactive)
ROOT
ATOM      1  C1  DEN d   1      -2.075  -5.012  -2.692  0.00  0.00     0.130 A 
ATOM      2  C2  DEN d   1      -1.417  -3.745  -3.000  0.00  0.00    -0.031 A 
ATOM      3  C3  DEN d   1      -2.444  -2.684  -2.997  0.00  0.00     0.027 A 
ATOM      4  C4  DEN d   1      -4.976  -2.878  -2.545  0.00  0.00     0.027 A 
ATOM      5  C5  DEN d   1      -6.000  -3.751  -2.250  0.00  0.00    -0.003 A 
ATOM      6  C6  DEN d   1      -5.795  -5.098  -2.116  0.00  0.00     0.001 A 
ATOM      7  C7  DEN d   1      -4.529  -5.607  -2.233  0.00  0.00     0.017 A 
ATOM      8  C8  DEN d   1      -3.492  -4.735  -2.538  0.00  0.00    -0.094 A 
ATOM      9  C9  DEN d   1      -3.718  -3.374  -2.657  0.00  0.00    -0.072 A 
ENDROOT
TORSDOF 0
ENDMDL
