MODEL 1
REMARK minimizedAffinity 9.51791
REMARK minimizedRMSD -1
REMARK  0 active torsions:
REMARK  status: ('A' for Active; 'I' for Inactive)
ROOT
ATOM      1  C1  DEN d   1       2.867   3.814  -6.000  0.00  0.00     0.130 A 
ATOM      2  C2  DEN d   1       2.603   5.150  -5.471  0.00  0.00    -0.031 A 
ATOM      3  C3  DEN d   1       2.988   5.161  -4.046  0.00  0.00     0.027 A 
ATOM      4  C4  DEN d   1       3.966   3.252  -2.614  0.00  0.00     0.027 A 
ATOM      5  C5  DEN d   1       4.356   1.931  -2.620  0.00  0.00    -0.003 A 
ATOM      6  C6  DEN d   1       4.246   1.142  -3.735  0.00  0.00     0.001 A 
ATOM      7  C7  DEN d   1       3.775   1.680  -4.903  0.00  0.00     0.017 A 
ATOM      8  C8  DEN d   1       3.373   3.009  -4.903  0.00  0.00    -0.094 A 
ATOM      9  C9  DEN d   1       3.504   3.793  -3.769  0.00  0.00    -0.072 A 
ENDROOT
TORSDOF 0
ENDMDL
