MODEL 1
REMARK minimizedAffinity 14.120348
REMARK minimizedRMSD -1
REMARK  0 active torsions:
REMARK  status: ('A' for Active; 'I' for Inactive)
ROOT
ATOM      1  C1  DEN d   1      -1.934  -5.168  -2.996  0.00  0.00     0.130 A 
ATOM      2  C2  DEN d   1      -1.426  -3.890  -3.489  0.00  0.00    -0.031 A 
ATOM      3  C3  DEN d   1      -2.577  -2.985  -3.677  0.00  0.00     0.027 A 
ATOM      4  C4  DEN d   1      -5.081  -3.432  -3.251  0.00  0.00     0.027 A 
ATOM      5  C5  DEN d   1      -6.000  -4.374  -2.842  0.00  0.00    -0.003 A 
ATOM      6  C6  DEN d   1      -5.634  -5.646  -2.491  0.00  0.00     0.001 A 
ATOM      7  C7  DEN d   1      -4.310  -5.998  -2.499  0.00  0.00     0.017 A 
ATOM      8  C8  DEN d   1      -3.379  -5.057  -2.918  0.00  0.00    -0.094 A 
ATOM      9  C9  DEN d   1      -3.768  -3.772  -3.257  0.00  0.00    -0.072 A 
ENDROOT
TORSDOF 0
ENDMDL
