MODEL 1
REMARK minimizedAffinity 12.7949924
REMARK minimizedRMSD -1
REMARK  0 active torsions:
REMARK  status: ('A' for Active; 'I' for Inactive)
ROOT
ATOM      1  C1  DEN d   1      -2.261  -3.202  -3.132  0.00  0.00     0.130 A 
ATOM      2  C2  DEN d   1      -1.401  -4.274  -2.637  0.00  0.00    -0.031 A 
ATOM      3  C3  DEN d   1      -2.265  -5.402  -2.232  0.00  0.00     0.027 A 
ATOM      4  C4  DEN d   1      -4.835  -5.594  -2.328  0.00  0.00     0.027 A 
ATOM      5  C5  DEN d   1      -5.998  -4.935  -2.662  0.00  0.00    -0.003 A 
ATOM      6  C6  DEN d   1      -5.999  -3.652  -3.141  0.00  0.00     0.001 A 
ATOM      7  C7  DEN d   1      -4.811  -3.001  -3.341  0.00  0.00     0.017 A 
ATOM      8  C8  DEN d   1      -3.634  -3.655  -3.000  0.00  0.00    -0.094 A 
ATOM      9  C9  DEN d   1      -3.653  -4.957  -2.529  0.00  0.00    -0.072 A 
ENDROOT
TORSDOF 0
ENDMDL
