MODEL 1
REMARK minimizedAffinity 16.4192886
REMARK minimizedRMSD -1
REMARK  0 active torsions:
REMARK  status: ('A' for Active; 'I' for Inactive)
ROOT
ATOM      1  C1  DEN d   1      -5.227  -3.380  -3.489  0.00  0.00     0.130 A 
ATOM      2  C2  DEN d   1      -6.000  -4.508  -2.977  0.00  0.00    -0.031 A 
ATOM      3  C3  DEN d   1      -5.050  -5.538  -2.511  0.00  0.00     0.027 A 
ATOM      4  C4  DEN d   1      -2.471  -5.494  -2.528  0.00  0.00     0.027 A 
ATOM      5  C5  DEN d   1      -1.363  -4.753  -2.877  0.00  0.00    -0.003 A 
ATOM      6  C6  DEN d   1      -1.465  -3.528  -3.480  0.00  0.00     0.001 A 
ATOM      7  C7  DEN d   1      -2.701  -2.986  -3.712  0.00  0.00     0.017 A 
ATOM      8  C8  DEN d   1      -3.823  -3.730  -3.370  0.00  0.00    -0.094 A 
ATOM      9  C9  DEN d   1      -3.699  -4.962  -2.750  0.00  0.00    -0.072 A 
ENDROOT
TORSDOF 0
ENDMDL
