MODEL 1
REMARK minimizedAffinity 6.62382078
REMARK minimizedRMSD -1
REMARK  0 active torsions:
REMARK  status: ('A' for Active; 'I' for Inactive)
ROOT
ATOM      1  C1  DEN d   1      -1.048  -5.999  -4.120  0.00  0.00     0.130 A 
ATOM      2  C2  DEN d   1       0.402  -5.858  -4.023  0.00  0.00    -0.031 A 
ATOM      3  C3  DEN d   1       0.692  -4.728  -3.118  0.00  0.00     0.027 A 
ATOM      4  C4  DEN d   1      -0.956  -3.194  -1.859  0.00  0.00     0.027 A 
ATOM      5  C5  DEN d   1      -2.287  -2.919  -1.637  0.00  0.00    -0.003 A 
ATOM      6  C6  DEN d   1      -3.290  -3.624  -2.248  0.00  0.00     0.001 A 
ATOM      7  C7  DEN d   1      -2.978  -4.669  -3.077  0.00  0.00     0.017 A 
ATOM      8  C8  DEN d   1      -1.638  -4.947  -3.312  0.00  0.00    -0.094 A 
ATOM      9  C9  DEN d   1      -0.639  -4.231  -2.675  0.00  0.00    -0.072 A 
ENDROOT
TORSDOF 0
ENDMDL
