MODEL 1
REMARK minimizedAffinity 9.17459202
REMARK minimizedRMSD -1
REMARK  0 active torsions:
REMARK  status: ('A' for Active; 'I' for Inactive)
ROOT
ATOM      1  C1  DEN d   1      -1.455  -4.574   3.076  0.00  0.00     0.130 A 
ATOM      2  C2  DEN d   1      -0.994  -3.190   3.002  0.00  0.00    -0.031 A 
ATOM      3  C3  DEN d   1      -1.524  -2.598   1.757  0.00  0.00     0.027 A 
ATOM      4  C4  DEN d   1      -3.009  -3.683  -0.051  0.00  0.00     0.027 A 
ATOM      5  C5  DEN d   1      -3.647  -4.843  -0.433  0.00  0.00    -0.003 A 
ATOM      6  C6  DEN d   1      -3.571  -5.995   0.305  0.00  0.00     0.001 A 
ATOM      7  C7  DEN d   1      -2.879  -5.999   1.487  0.00  0.00     0.017 A 
ATOM      8  C8  DEN d   1      -2.227  -4.836   1.875  0.00  0.00    -0.094 A 
ATOM      9  C9  DEN d   1      -2.325  -3.678   1.121  0.00  0.00    -0.072 A 
ENDROOT
TORSDOF 0
ENDMDL
