MODEL 1
REMARK minimizedAffinity 9.82777119
REMARK minimizedRMSD -1
REMARK  0 active torsions:
REMARK  status: ('A' for Active; 'I' for Inactive)
ROOT
ATOM      1  C1  DEN d   1      -0.898  -2.239  -2.465  0.00  0.00     0.130 A 
ATOM      2  C2  DEN d   1      -2.085  -2.855  -3.051  0.00  0.00    -0.031 A 
ATOM      3  C3  DEN d   1      -2.951  -3.318  -1.948  0.00  0.00     0.027 A 
ATOM      4  C4  DEN d   1      -2.573  -3.137   0.597  0.00  0.00     0.027 A 
ATOM      5  C5  DEN d   1      -1.705  -2.705   1.575  0.00  0.00    -0.003 A 
ATOM      6  C6  DEN d   1      -0.502  -2.122   1.278  0.00  0.00     0.001 A 
ATOM      7  C7  DEN d   1      -0.153  -1.915  -0.031  0.00  0.00     0.017 A 
ATOM      8  C8  DEN d   1      -1.019  -2.355  -1.023  0.00  0.00    -0.094 A 
ATOM      9  C9  DEN d   1      -2.237  -2.931  -0.702  0.00  0.00    -0.072 A 
ENDROOT
TORSDOF 0
ENDMDL
