MODEL 1
REMARK minimizedAffinity 0.848185122
REMARK minimizedRMSD -1
REMARK  0 active torsions:
REMARK  status: ('A' for Active; 'I' for Inactive)
ROOT
ATOM      1  C1  DEN d   1      -4.923  -5.423  -3.878  0.00  0.00     0.130 A 
ATOM      2  C2  DEN d   1      -5.994  -4.786  -3.116  0.00  0.00    -0.031 A 
ATOM      3  C3  DEN d   1      -5.414  -3.642  -2.384  0.00  0.00     0.027 A 
ATOM      4  C4  DEN d   1      -2.978  -2.796  -2.362  0.00  0.00     0.027 A 
ATOM      5  C5  DEN d   1      -1.707  -3.020  -2.844  0.00  0.00    -0.003 A 
ATOM      6  C6  DEN d   1      -1.415  -4.073  -3.670  0.00  0.00     0.001 A 
ATOM      7  C7  DEN d   1      -2.416  -4.915  -4.077  0.00  0.00     0.017 A 
ATOM      8  C8  DEN d   1      -3.699  -4.699  -3.589  0.00  0.00    -0.094 A 
ATOM      9  C9  DEN d   1      -3.976  -3.623  -2.764  0.00  0.00    -0.072 A 
ENDROOT
TORSDOF 0
ENDMDL
