MODEL 1
REMARK minimizedAffinity 14.338439
REMARK minimizedRMSD -1
REMARK  0 active torsions:
REMARK  status: ('A' for Active; 'I' for Inactive)
ROOT
ATOM      1  C1  DEN d   1      -2.882  -3.277  -1.556  0.00  0.00     0.130 A 
ATOM      2  C2  DEN d   1      -3.537  -2.659  -2.706  0.00  0.00    -0.031 A 
ATOM      3  C3  DEN d   1      -4.867  -3.282  -2.862  0.00  0.00     0.027 A 
ATOM      4  C4  DEN d   1      -5.971  -5.129  -1.440  0.00  0.00     0.027 A 
ATOM      5  C5  DEN d   1      -5.798  -5.972  -0.365  0.00  0.00    -0.003 A 
ATOM      6  C6  DEN d   1      -4.637  -6.000   0.362  0.00  0.00     0.001 A 
ATOM      7  C7  DEN d   1      -3.620  -5.136   0.050  0.00  0.00     0.017 A 
ATOM      8  C8  DEN d   1      -3.785  -4.288  -1.037  0.00  0.00    -0.094 A 
ATOM      9  C9  DEN d   1      -4.971  -4.267  -1.752  0.00  0.00    -0.072 A 
ENDROOT
TORSDOF 0
ENDMDL
