MODEL 1
REMARK minimizedAffinity 0.0318774991
REMARK minimizedRMSD -1
REMARK  1 active torsions:
REMARK  status: ('A' for Active; 'I' for Inactive)
REMARK    1  A    between atoms: C3_4  and  O_7 
ROOT
ATOM      1  C   UNL d   1       0.702   5.905  -4.758  0.00  0.00    -0.033 A 
ATOM      2  C1  UNL d   1       1.424   6.000  -3.567  0.00  0.00     0.039 A 
ATOM      3  C2  UNL d   1       2.820   5.964  -3.589  0.00  0.00    -0.080 A 
ATOM      4  C3  UNL d   1       3.480   5.835  -4.807  0.00  0.00     0.150 A 
ATOM      5  C4  UNL d   1       2.768   5.744  -5.998  0.00  0.00    -0.007 A 
ATOM      6  C5  UNL d   1       1.374   5.779  -5.974  0.00  0.00     0.039 A 
ENDROOT
BRANCH   4   7
ATOM      7  O   UNL d   1       4.841   5.790  -4.879  0.00  0.00    -0.526 OA
ATOM      8  H5  UNL d   1       5.198   5.835  -3.976  0.00  0.00     0.418 HD
ENDBRANCH   4   7
TORSDOF 1
ENDMDL
