MODEL 1
REMARK minimizedAffinity 2.10932684
REMARK minimizedRMSD -1
REMARK  1 active torsions:
REMARK  status: ('A' for Active; 'I' for Inactive)
REMARK    1  A    between atoms: C3_4  and  O_7 
ROOT
ATOM      1  C   UNL d   1      -0.782   5.998  -4.363  0.00  0.00    -0.033 A 
ATOM      2  C1  UNL d   1       0.155   5.860  -3.337  0.00  0.00     0.039 A 
ATOM      3  C2  UNL d   1       1.510   5.718  -3.641  0.00  0.00    -0.080 A 
ATOM      4  C3  UNL d   1       1.915   5.716  -4.973  0.00  0.00     0.150 A 
ATOM      5  C4  UNL d   1       0.988   5.856  -6.000  0.00  0.00    -0.007 A 
ATOM      6  C5  UNL d   1      -0.365   5.997  -5.694  0.00  0.00     0.039 A 
ENDROOT
BRANCH   4   7
ATOM      7  O   UNL d   1       3.226   5.575  -5.319  0.00  0.00    -0.526 OA
ATOM      8  H5  UNL d   1       3.748   5.459  -4.507  0.00  0.00     0.418 HD
ENDBRANCH   4   7
TORSDOF 1
ENDMDL
