MODEL 1
REMARK minimizedAffinity -2.83936715
REMARK minimizedRMSD -1
REMARK  1 active torsions:
REMARK  status: ('A' for Active; 'I' for Inactive)
REMARK    1  A    between atoms: C3_4  and  O_7 
ROOT
ATOM      1  C   UNL d   1       5.738   4.737  -4.645  0.00  0.00    -0.033 A 
ATOM      2  C1  UNL d   1       4.677   3.994  -4.123  0.00  0.00     0.039 A 
ATOM      3  C2  UNL d   1       3.369   4.254  -4.538  0.00  0.00    -0.080 A 
ATOM      4  C3  UNL d   1       3.136   5.258  -5.473  0.00  0.00     0.150 A 
ATOM      5  C4  UNL d   1       4.188   6.000  -6.000  0.00  0.00    -0.007 A 
ATOM      6  C5  UNL d   1       5.494   5.739  -5.584  0.00  0.00     0.039 A 
ENDROOT
BRANCH   4   7
ATOM      7  O   UNL d   1       1.877   5.552  -5.904  0.00  0.00    -0.526 OA
ATOM      8  H5  UNL d   1       1.249   4.979  -5.433  0.00  0.00     0.418 HD
ENDBRANCH   4   7
TORSDOF 1
ENDMDL
