MODEL 1
REMARK minimizedAffinity -3.1294291
REMARK minimizedRMSD -1
REMARK  1 active torsions:
REMARK  status: ('A' for Active; 'I' for Inactive)
REMARK    1  A    between atoms: C3_4  and  O_7 
ROOT
ATOM      1  C   UNL d   1      -0.494   5.994  -3.606  0.00  0.00    -0.033 A 
ATOM      2  C1  UNL d   1      -0.026   5.983  -2.290  0.00  0.00     0.039 A 
ATOM      3  C2  UNL d   1      -0.930   5.979  -1.226  0.00  0.00    -0.080 A 
ATOM      4  C3  UNL d   1      -2.296   5.987  -1.490  0.00  0.00     0.150 A 
ATOM      5  C4  UNL d   1      -2.769   5.994  -2.798  0.00  0.00    -0.007 A 
ATOM      6  C5  UNL d   1      -1.865   5.998  -3.860  0.00  0.00     0.039 A 
ENDROOT
BRANCH   4   7
ATOM      7  O   UNL d   1      -3.217   5.989  -0.484  0.00  0.00    -0.526 OA
ATOM      8  H5  UNL d   1      -2.744   6.012   0.365  0.00  0.00     0.418 HD
ENDBRANCH   4   7
TORSDOF 1
ENDMDL
