MODEL 1
REMARK minimizedAffinity -1.32048774
REMARK minimizedRMSD -1
REMARK  1 active torsions:
REMARK  status: ('A' for Active; 'I' for Inactive)
REMARK    1  A    between atoms: C3_4  and  O_7 
ROOT
ATOM      1  C   UNL d   1       4.180   4.687  -4.527  0.00  0.00    -0.033 A 
ATOM      2  C1  UNL d   1       3.046   4.235  -3.849  0.00  0.00     0.039 A 
ATOM      3  C2  UNL d   1       1.777   4.665  -4.244  0.00  0.00    -0.080 A 
ATOM      4  C3  UNL d   1       1.656   5.544  -5.317  0.00  0.00     0.150 A 
ATOM      5  C4  UNL d   1       2.782   5.995  -5.999  0.00  0.00    -0.007 A 
ATOM      6  C5  UNL d   1       4.048   5.565  -5.603  0.00  0.00     0.039 A 
ENDROOT
BRANCH   4   7
ATOM      7  O   UNL d   1       0.440   5.995  -5.735  0.00  0.00    -0.526 OA
ATOM      8  H5  UNL d   1      -0.243   5.623  -5.152  0.00  0.00     0.418 HD
ENDBRANCH   4   7
TORSDOF 1
ENDMDL
