MODEL 1
REMARK minimizedAffinity -1.78864396
REMARK minimizedRMSD -1
REMARK  1 active torsions:
REMARK  status: ('A' for Active; 'I' for Inactive)
REMARK    1  A    between atoms: C3_4  and  O_7 
ROOT
ATOM      1  C   UNL d   1      -0.837   5.943  -3.965  0.00  0.00    -0.033 A 
ATOM      2  C1  UNL d   1      -0.835   5.982  -2.569  0.00  0.00     0.039 A 
ATOM      3  C2  UNL d   1      -2.042   5.996  -1.867  0.00  0.00    -0.080 A 
ATOM      4  C3  UNL d   1      -3.242   5.970  -2.572  0.00  0.00     0.150 A 
ATOM      5  C4  UNL d   1      -3.252   5.928  -3.962  0.00  0.00    -0.007 A 
ATOM      6  C5  UNL d   1      -2.046   5.915  -4.661  0.00  0.00     0.039 A 
ENDROOT
BRANCH   4   7
ATOM      7  O   UNL d   1      -4.446   5.988  -1.931  0.00  0.00    -0.526 OA
ATOM      8  H5  UNL d   1      -4.284   6.046  -0.975  0.00  0.00     0.418 HD
ENDBRANCH   4   7
TORSDOF 1
ENDMDL
