MODEL 1
REMARK minimizedAffinity -0.739711225
REMARK minimizedRMSD -1
REMARK  1 active torsions:
REMARK  status: ('A' for Active; 'I' for Inactive)
REMARK    1  A    between atoms: C3_4  and  O_7 
ROOT
ATOM      1  C   UNL d   1       1.608   5.976  -5.921  0.00  0.00    -0.033 A 
ATOM      2  C1  UNL d   1       2.240   5.997  -4.677  0.00  0.00     0.039 A 
ATOM      3  C2  UNL d   1       1.481   6.000  -3.505  0.00  0.00    -0.080 A 
ATOM      4  C3  UNL d   1       0.091   5.980  -3.592  0.00  0.00     0.150 A 
ATOM      5  C4  UNL d   1      -0.545   5.955  -4.829  0.00  0.00    -0.007 A 
ATOM      6  C5  UNL d   1       0.215   5.954  -5.997  0.00  0.00     0.039 A 
ENDROOT
BRANCH   4   7
ATOM      7  O   UNL d   1      -0.693   5.987  -2.477  0.00  0.00    -0.526 OA
ATOM      8  H5  UNL d   1      -0.116   6.034  -1.696  0.00  0.00     0.418 HD
ENDBRANCH   4   7
TORSDOF 1
ENDMDL
