MODEL 1
REMARK minimizedAffinity 3.10379267
REMARK minimizedRMSD -1
REMARK  1 active torsions:
REMARK  status: ('A' for Active; 'I' for Inactive)
REMARK    1  A    between atoms: C3_4  and  O_7 
ROOT
ATOM      1  C   UNL d   1       4.912   5.397  -5.223  0.00  0.00    -0.033 A 
ATOM      2  C1  UNL d   1       4.645   4.233  -4.499  0.00  0.00     0.039 A 
ATOM      3  C2  UNL d   1       3.367   3.672  -4.523  0.00  0.00    -0.080 A 
ATOM      4  C3  UNL d   1       2.366   4.282  -5.274  0.00  0.00     0.150 A 
ATOM      5  C4  UNL d   1       2.626   5.440  -6.000  0.00  0.00    -0.007 A 
ATOM      6  C5  UNL d   1       3.903   6.000  -5.974  0.00  0.00     0.039 A 
ENDROOT
BRANCH   4   7
ATOM      7  O   UNL d   1       1.103   3.774  -5.324  0.00  0.00    -0.526 OA
ATOM      8  H5  UNL d   1       1.063   2.990  -4.752  0.00  0.00     0.418 HD
ENDBRANCH   4   7
TORSDOF 1
ENDMDL
