MODEL 1
REMARK minimizedAffinity -0.87539196
REMARK minimizedRMSD -1
REMARK  1 active torsions:
REMARK  status: ('A' for Active; 'I' for Inactive)
REMARK    1  A    between atoms: C3_4  and  O_7 
ROOT
ATOM      1  C   UNL d   1      -2.374  -3.319   5.017  0.00  0.00    -0.033 A 
ATOM      2  C1  UNL d   1      -2.297  -2.738   3.750  0.00  0.00     0.039 A 
ATOM      3  C2  UNL d   1      -1.497  -3.315   2.762  0.00  0.00    -0.080 A 
ATOM      4  C3  UNL d   1      -0.782  -4.474   3.053  0.00  0.00     0.150 A 
ATOM      5  C4  UNL d   1      -0.857  -5.061   4.312  0.00  0.00    -0.007 A 
ATOM      6  C5  UNL d   1      -1.655  -4.482   5.298  0.00  0.00     0.039 A 
ENDROOT
BRANCH   4   7
ATOM      7  O   UNL d   1       0.016  -5.071   2.122  0.00  0.00    -0.526 OA
ATOM      8  H5  UNL d   1      -0.008  -4.539   1.310  0.00  0.00     0.418 HD
ENDBRANCH   4   7
TORSDOF 1
ENDMDL
