MODEL 1
REMARK minimizedAffinity -3.2165184
REMARK minimizedRMSD -1
REMARK  1 active torsions:
REMARK  status: ('A' for Active; 'I' for Inactive)
REMARK    1  A    between atoms: C3_4  and  O_7 
ROOT
ATOM      1  C   UNL d   1      -0.229   5.619  -4.479  0.00  0.00    -0.033 A 
ATOM      2  C1  UNL d   1      -0.000   5.988  -3.152  0.00  0.00     0.039 A 
ATOM      3  C2  UNL d   1      -1.054   5.992  -2.236  0.00  0.00    -0.080 A 
ATOM      4  C3  UNL d   1      -2.328   5.624  -2.658  0.00  0.00     0.150 A 
ATOM      5  C4  UNL d   1      -2.562   5.251  -3.978  0.00  0.00    -0.007 A 
ATOM      6  C5  UNL d   1      -1.509   5.249  -4.892  0.00  0.00     0.039 A 
ENDROOT
BRANCH   4   7
ATOM      7  O   UNL d   1      -3.388   5.616  -1.801  0.00  0.00    -0.526 OA
ATOM      8  H5  UNL d   1      -3.083   5.924  -0.932  0.00  0.00     0.418 HD
ENDBRANCH   4   7
TORSDOF 1
ENDMDL
