MODEL 1
REMARK minimizedAffinity -2.77012181
REMARK minimizedRMSD -1
REMARK  1 active torsions:
REMARK  status: ('A' for Active; 'I' for Inactive)
REMARK    1  A    between atoms: C3_4  and  O_7 
ROOT
ATOM      1  C   UNL d   1       0.397   5.977  -3.854  0.00  0.00    -0.033 A 
ATOM      2  C1  UNL d   1      -0.528   5.983  -4.899  0.00  0.00     0.039 A 
ATOM      3  C2  UNL d   1      -1.897   5.992  -4.623  0.00  0.00    -0.080 A 
ATOM      4  C3  UNL d   1      -2.327   5.996  -3.298  0.00  0.00     0.150 A 
ATOM      5  C4  UNL d   1      -1.410   5.994  -2.252  0.00  0.00    -0.007 A 
ATOM      6  C5  UNL d   1      -0.044   5.984  -2.530  0.00  0.00     0.039 A 
ENDROOT
BRANCH   4   7
ATOM      7  O   UNL d   1      -3.652   6.000  -2.979  0.00  0.00    -0.526 OA
ATOM      8  H5  UNL d   1      -4.167   5.972  -3.803  0.00  0.00     0.418 HD
ENDBRANCH   4   7
TORSDOF 1
ENDMDL
