MODEL 1
REMARK minimizedAffinity 1.42084157
REMARK minimizedRMSD -1
REMARK  1 active torsions:
REMARK  status: ('A' for Active; 'I' for Inactive)
REMARK    1  A    between atoms: C3_4  and  O_7 
ROOT
ATOM      1  C   UNL d   1       4.491   4.913  -4.855  0.00  0.00    -0.033 A 
ATOM      2  C1  UNL d   1       3.666   3.842  -4.504  0.00  0.00     0.039 A 
ATOM      3  C2  UNL d   1       2.318   3.850  -4.865  0.00  0.00    -0.080 A 
ATOM      4  C3  UNL d   1       1.807   4.932  -5.577  0.00  0.00     0.150 A 
ATOM      5  C4  UNL d   1       2.624   6.000  -5.934  0.00  0.00    -0.007 A 
ATOM      6  C5  UNL d   1       3.971   5.990  -5.572  0.00  0.00     0.039 A 
ENDROOT
BRANCH   4   7
ATOM      7  O   UNL d   1       0.497   4.986  -5.948  0.00  0.00    -0.526 OA
ATOM      8  H5  UNL d   1       0.047   4.194  -5.608  0.00  0.00     0.418 HD
ENDBRANCH   4   7
TORSDOF 1
ENDMDL
