MODEL 1
REMARK minimizedAffinity -0.868447125
REMARK minimizedRMSD -1
REMARK  1 active torsions:
REMARK  status: ('A' for Active; 'I' for Inactive)
REMARK    1  A    between atoms: C3_4  and  O_7 
ROOT
ATOM      1  C   UNL d   1      -2.102   6.000  -2.204  0.00  0.00    -0.033 A 
ATOM      2  C1  UNL d   1      -2.654   5.994  -3.486  0.00  0.00     0.039 A 
ATOM      3  C2  UNL d   1      -1.821   5.992  -4.607  0.00  0.00    -0.080 A 
ATOM      4  C3  UNL d   1      -0.440   5.995  -4.432  0.00  0.00     0.150 A 
ATOM      5  C4  UNL d   1       0.117   5.997  -3.157  0.00  0.00    -0.007 A 
ATOM      6  C5  UNL d   1      -0.716   6.000  -2.040  0.00  0.00     0.039 A 
ENDROOT
BRANCH   4   7
ATOM      7  O   UNL d   1       0.413   5.999  -5.496  0.00  0.00    -0.526 OA
ATOM      8  H5  UNL d   1      -0.114   6.026  -6.312  0.00  0.00     0.418 HD
ENDBRANCH   4   7
TORSDOF 1
ENDMDL
