MODEL 1
REMARK minimizedAffinity 1.60692644
REMARK minimizedRMSD -1
REMARK  1 active torsions:
REMARK  status: ('A' for Active; 'I' for Inactive)
REMARK    1  A    between atoms: C3_4  and  O_7 
ROOT
ATOM      1  C   UNL d   1       5.860   4.890  -4.889  0.00  0.00    -0.033 A 
ATOM      2  C1  UNL d   1       5.358   5.973  -5.614  0.00  0.00     0.039 A 
ATOM      3  C2  UNL d   1       4.015   5.998  -5.995  0.00  0.00    -0.080 A 
ATOM      4  C3  UNL d   1       3.186   4.937  -5.645  0.00  0.00     0.150 A 
ATOM      5  C4  UNL d   1       3.677   3.857  -4.919  0.00  0.00    -0.007 A 
ATOM      6  C5  UNL d   1       5.019   3.833  -4.540  0.00  0.00     0.039 A 
ENDROOT
BRANCH   4   7
ATOM      7  O   UNL d   1       1.869   4.914  -5.999  0.00  0.00    -0.526 OA
ATOM      8  H5  UNL d   1       1.677   5.711  -6.521  0.00  0.00     0.418 HD
ENDBRANCH   4   7
TORSDOF 1
ENDMDL
