MODEL 1
REMARK minimizedAffinity 0.436763436
REMARK minimizedRMSD -1
REMARK  1 active torsions:
REMARK  status: ('A' for Active; 'I' for Inactive)
REMARK    1  A    between atoms: C3_4  and  O_7 
ROOT
ATOM      1  C   UNL d   1       1.809   5.043  -5.225  0.00  0.00    -0.033 A 
ATOM      2  C1  UNL d   1       2.496   5.998  -5.977  0.00  0.00     0.039 A 
ATOM      3  C2  UNL d   1       3.892   6.000  -6.000  0.00  0.00    -0.080 A 
ATOM      4  C3  UNL d   1       4.588   5.042  -5.268  0.00  0.00     0.150 A 
ATOM      5  C4  UNL d   1       3.911   4.085  -4.520  0.00  0.00    -0.007 A 
ATOM      6  C5  UNL d   1       2.517   4.086  -4.497  0.00  0.00     0.039 A 
ENDROOT
BRANCH   4   7
ATOM      7  O   UNL d   1       5.951   5.007  -5.256  0.00  0.00    -0.526 OA
ATOM      8  H5  UNL d   1       6.283   5.745  -5.794  0.00  0.00     0.418 HD
ENDBRANCH   4   7
TORSDOF 1
ENDMDL
