MODEL 1
REMARK minimizedAffinity -4.79034424
REMARK minimizedRMSD -1
REMARK  0 active torsions:
REMARK  status: ('A' for Active; 'I' for Inactive)
ROOT
ATOM      1  C   UNL d   1       1.205   0.669   0.716  0.00  0.00     0.077 C 
ATOM      2  C1  UNL d   1       0.066   0.276  -0.178  0.00  0.00    -0.074 A 
ATOM      3  C2  UNL d   1       0.207   0.289  -1.570  0.00  0.00    -0.005 A 
ATOM      4  C3  UNL d   1      -0.858  -0.089  -2.388  0.00  0.00     0.006 A 
ATOM      5  C4  UNL d   1      -2.072  -0.481  -1.824  0.00  0.00    -0.005 A 
ATOM      6  C5  UNL d   1      -2.231  -0.501  -0.435  0.00  0.00    -0.074 A 
ATOM      7  C6  UNL d   1      -3.527  -0.929   0.188  0.00  0.00     0.077 C 
ATOM      8  C7  UNL d   1      -1.155  -0.127   0.381  0.00  0.00    -0.001 A 
ENDROOT
TORSDOF 0
ENDMDL
