MODEL 1
REMARK minimizedAffinity -5.097435
REMARK minimizedRMSD -1
REMARK  0 active torsions:
REMARK  status: ('A' for Active; 'I' for Inactive)
ROOT
ATOM      1  C   UNL d   1      -3.578  -0.783  -0.516  0.00  0.00     0.077 C 
ATOM      2  C1  UNL d   1      -2.167  -0.327  -0.736  0.00  0.00    -0.074 A 
ATOM      3  C2  UNL d   1      -1.864   0.631  -1.710  0.00  0.00    -0.005 A 
ATOM      4  C3  UNL d   1      -0.548   1.053  -1.896  0.00  0.00     0.006 A 
ATOM      5  C4  UNL d   1       0.478   0.523  -1.112  0.00  0.00    -0.005 A 
ATOM      6  C5  UNL d   1       0.194  -0.435  -0.133  0.00  0.00    -0.074 A 
ATOM      7  C6  UNL d   1       1.283  -1.007   0.725  0.00  0.00     0.077 C 
ATOM      8  C7  UNL d   1      -1.132  -0.848   0.053  0.00  0.00    -0.001 A 
ENDROOT
TORSDOF 0
ENDMDL
