MODEL 1
REMARK minimizedAffinity -1.12384689
REMARK minimizedRMSD -1
REMARK  0 active torsions:
REMARK  status: ('A' for Active; 'I' for Inactive)
ROOT
ATOM      1  C   UNL d   1      -0.724  -2.074   1.940  0.00  0.00     0.077 C 
ATOM      2  C1  UNL d   1      -0.269  -1.107   0.888  0.00  0.00    -0.074 A 
ATOM      3  C2  UNL d   1      -1.050  -0.858  -0.245  0.00  0.00    -0.005 A 
ATOM      4  C3  UNL d   1      -0.618   0.052  -1.211  0.00  0.00     0.006 A 
ATOM      5  C4  UNL d   1       0.597   0.720  -1.053  0.00  0.00    -0.005 A 
ATOM      6  C5  UNL d   1       1.390   0.484   0.074  0.00  0.00    -0.074 A 
ATOM      7  C6  UNL d   1       2.694   1.201   0.264  0.00  0.00     0.077 C 
ATOM      8  C7  UNL d   1       0.946  -0.426   1.043  0.00  0.00    -0.001 A 
ENDROOT
TORSDOF 0
ENDMDL
