MODEL 1
REMARK minimizedAffinity -5.35358286
REMARK minimizedRMSD -1
REMARK  0 active torsions:
REMARK  status: ('A' for Active; 'I' for Inactive)
ROOT
ATOM      1  C   UNL d   1      -3.431  -0.760  -0.008  0.00  0.00     0.077 C 
ATOM      2  C1  UNL d   1      -2.027  -0.446  -0.430  0.00  0.00    -0.074 A 
ATOM      3  C2  UNL d   1      -1.770   0.230  -1.627  0.00  0.00    -0.005 A 
ATOM      4  C3  UNL d   1      -0.458   0.523  -2.001  0.00  0.00     0.006 A 
ATOM      5  C4  UNL d   1       0.607   0.145  -1.184  0.00  0.00    -0.005 A 
ATOM      6  C5  UNL d   1       0.370  -0.531   0.017  0.00  0.00    -0.074 A 
ATOM      7  C6  UNL d   1       1.503  -0.937   0.912  0.00  0.00     0.077 C 
ATOM      8  C7  UNL d   1      -0.951  -0.816   0.390  0.00  0.00    -0.001 A 
ENDROOT
TORSDOF 0
ENDMDL
