MODEL 1
REMARK minimizedAffinity -2.88919568
REMARK minimizedRMSD -1
REMARK  0 active torsions:
REMARK  status: ('A' for Active; 'I' for Inactive)
ROOT
ATOM      1  C   UNL d   1      -3.362  -0.760   0.656  0.00  0.00     0.077 C 
ATOM      2  C1  UNL d   1      -2.099  -0.410  -0.073  0.00  0.00    -0.074 A 
ATOM      3  C2  UNL d   1      -2.003  -0.563  -1.460  0.00  0.00    -0.005 A 
ATOM      4  C3  UNL d   1      -0.825  -0.224  -2.126  0.00  0.00     0.006 A 
ATOM      5  C4  UNL d   1       0.267   0.270  -1.413  0.00  0.00    -0.005 A 
ATOM      6  C5  UNL d   1       0.190   0.431  -0.026  0.00  0.00    -0.074 A 
ATOM      7  C6  UNL d   1       1.352   0.970   0.755  0.00  0.00     0.077 C 
ATOM      8  C7  UNL d   1      -0.999   0.095   0.635  0.00  0.00    -0.001 A 
ENDROOT
TORSDOF 0
ENDMDL
