MODEL 1
REMARK minimizedAffinity -5.53154325
REMARK minimizedRMSD -1
REMARK  0 active torsions:
REMARK  status: ('A' for Active; 'I' for Inactive)
ROOT
ATOM      1  C   UNL d   1       0.205   1.181  -3.175  0.00  0.00     0.077 C 
ATOM      2  C1  UNL d   1      -0.229   0.583  -1.870  0.00  0.00    -0.074 A 
ATOM      3  C2  UNL d   1       0.705   0.264  -0.879  0.00  0.00    -0.005 A 
ATOM      4  C3  UNL d   1       0.285  -0.282   0.334  0.00  0.00     0.006 A 
ATOM      5  C4  UNL d   1      -1.070  -0.516   0.567  0.00  0.00    -0.005 A 
ATOM      6  C5  UNL d   1      -2.019  -0.203  -0.411  0.00  0.00    -0.074 A 
ATOM      7  C6  UNL d   1      -3.481  -0.438  -0.172  0.00  0.00     0.077 C 
ATOM      8  C7  UNL d   1      -1.590   0.353  -1.624  0.00  0.00    -0.001 A 
ENDROOT
TORSDOF 0
ENDMDL
