MODEL 1
REMARK minimizedAffinity -2.98616171
REMARK minimizedRMSD -1
REMARK  0 active torsions:
REMARK  status: ('A' for Active; 'I' for Inactive)
ROOT
ATOM      1  C   UNL d   1       1.066   0.017   0.406  0.00  0.00     0.077 C 
ATOM      2  C1  UNL d   1      -0.233   0.145  -0.333  0.00  0.00    -0.074 A 
ATOM      3  C2  UNL d   1      -0.346   0.980  -1.449  0.00  0.00    -0.005 A 
ATOM      4  C3  UNL d   1      -1.558   1.082  -2.131  0.00  0.00     0.006 A 
ATOM      5  C4  UNL d   1      -2.668   0.351  -1.705  0.00  0.00    -0.005 A 
ATOM      6  C5  UNL d   1      -2.574  -0.489  -0.591  0.00  0.00    -0.074 A 
ATOM      7  C6  UNL d   1      -3.754  -1.289  -0.126  0.00  0.00     0.077 C 
ATOM      8  C7  UNL d   1      -1.350  -0.592   0.085  0.00  0.00    -0.001 A 
ENDROOT
TORSDOF 0
ENDMDL
