MODEL 1
REMARK minimizedAffinity -2.25275278
REMARK minimizedRMSD -1
REMARK  0 active torsions:
REMARK  status: ('A' for Active; 'I' for Inactive)
ROOT
ATOM      1  C   UNL d   1      -1.788  -1.669   2.233  0.00  0.00     0.077 C 
ATOM      2  C1  UNL d   1      -1.341  -0.923   1.011  0.00  0.00    -0.074 A 
ATOM      3  C2  UNL d   1      -2.217  -0.702  -0.057  0.00  0.00    -0.005 A 
ATOM      4  C3  UNL d   1      -1.790   0.002  -1.182  0.00  0.00     0.006 A 
ATOM      5  C4  UNL d   1      -0.485   0.492  -1.251  0.00  0.00    -0.005 A 
ATOM      6  C5  UNL d   1       0.405   0.282  -0.193  0.00  0.00    -0.074 A 
ATOM      7  C6  UNL d   1       1.808   0.810  -0.247  0.00  0.00     0.077 C 
ATOM      8  C7  UNL d   1      -0.034  -0.421   0.938  0.00  0.00    -0.001 A 
ENDROOT
TORSDOF 0
ENDMDL
