MODEL 1
REMARK minimizedAffinity -4.24998903
REMARK minimizedRMSD -1
REMARK  0 active torsions:
REMARK  status: ('A' for Active; 'I' for Inactive)
ROOT
ATOM      1  C   UNL d   1       1.747  -0.038   1.161  0.00  0.00     0.077 C 
ATOM      2  C1  UNL d   1       0.539  -0.004   0.272  0.00  0.00    -0.074 A 
ATOM      3  C2  UNL d   1       0.609   0.542  -1.014  0.00  0.00    -0.005 A 
ATOM      4  C3  UNL d   1      -0.520   0.558  -1.833  0.00  0.00     0.006 A 
ATOM      5  C4  UNL d   1      -1.728   0.030  -1.375  0.00  0.00    -0.005 A 
ATOM      6  C5  UNL d   1      -1.816  -0.520  -0.093  0.00  0.00    -0.074 A 
ATOM      7  C6  UNL d   1      -3.104  -1.100   0.411  0.00  0.00     0.077 C 
ATOM      8  C7  UNL d   1      -0.676  -0.539   0.722  0.00  0.00    -0.001 A 
ENDROOT
TORSDOF 0
ENDMDL
