MODEL 1
REMARK minimizedAffinity -2.64995813
REMARK minimizedRMSD -1
REMARK  0 active torsions:
REMARK  status: ('A' for Active; 'I' for Inactive)
ROOT
ATOM      1  C   UNL d   1      -0.789  -1.949   1.440  0.00  0.00     0.077 C 
ATOM      2  C1  UNL d   1      -0.219  -0.873   0.565  0.00  0.00    -0.074 A 
ATOM      3  C2  UNL d   1      -0.564  -0.788  -0.788  0.00  0.00    -0.005 A 
ATOM      4  C3  UNL d   1      -0.033   0.224  -1.587  0.00  0.00     0.006 A 
ATOM      5  C4  UNL d   1       0.846   1.161  -1.042  0.00  0.00    -0.005 A 
ATOM      6  C5  UNL d   1       1.202   1.093   0.308  0.00  0.00    -0.074 A 
ATOM      7  C6  UNL d   1       2.138   2.097   0.912  0.00  0.00     0.077 C 
ATOM      8  C7  UNL d   1       0.659   0.077   1.106  0.00  0.00    -0.001 A 
ENDROOT
TORSDOF 0
ENDMDL
