MODEL 1
REMARK minimizedAffinity -1.11229348
REMARK minimizedRMSD -1
REMARK  0 active torsions:
REMARK  status: ('A' for Active; 'I' for Inactive)
ROOT
ATOM      1  C   UNL d   1      -2.268  -0.422  -0.432  0.00  0.00     0.077 C 
ATOM      2  C1  UNL d   1      -0.913  -0.547   0.199  0.00  0.00    -0.074 A 
ATOM      3  C2  UNL d   1      -0.659  -1.518   1.172  0.00  0.00    -0.005 A 
ATOM      4  C3  UNL d   1       0.609  -1.628   1.743  0.00  0.00     0.006 A 
ATOM      5  C4  UNL d   1       1.634  -0.769   1.347  0.00  0.00    -0.005 A 
ATOM      6  C5  UNL d   1       1.400   0.209   0.374  0.00  0.00    -0.074 A 
ATOM      7  C6  UNL d   1       2.494   1.134  -0.070  0.00  0.00     0.077 C 
ATOM      8  C7  UNL d   1       0.125   0.308  -0.200  0.00  0.00    -0.001 A 
ENDROOT
TORSDOF 0
ENDMDL
