MODEL 1
REMARK minimizedAffinity -4.04899549
REMARK minimizedRMSD -1
REMARK  0 active torsions:
REMARK  status: ('A' for Active; 'I' for Inactive)
ROOT
ATOM      1  C   UNL d   1       1.324   2.915   1.148  0.00  0.00     0.077 C 
ATOM      2  C1  UNL d   1       0.859   1.493   1.043  0.00  0.00    -0.074 A 
ATOM      3  C2  UNL d   1       1.748   0.431   1.238  0.00  0.00    -0.005 A 
ATOM      4  C3  UNL d   1       1.299  -0.887   1.146  0.00  0.00     0.006 A 
ATOM      5  C4  UNL d   1      -0.040  -1.155   0.860  0.00  0.00    -0.005 A 
ATOM      6  C5  UNL d   1      -0.943  -0.106   0.663  0.00  0.00    -0.074 A 
ATOM      7  C6  UNL d   1      -2.388  -0.376   0.365  0.00  0.00     0.077 C 
ATOM      8  C7  UNL d   1      -0.486   1.216   0.764  0.00  0.00    -0.001 A 
ENDROOT
TORSDOF 0
ENDMDL
