MODEL 1
REMARK minimizedAffinity -5.54621553
REMARK minimizedRMSD -1
REMARK  0 active torsions:
REMARK  status: ('A' for Active; 'I' for Inactive)
ROOT
ATOM      1  C   UNL d   1      -3.021  -0.917   0.006  0.00  0.00     0.077 C 
ATOM      2  C1  UNL d   1      -1.596  -0.893   0.473  0.00  0.00    -0.074 A 
ATOM      3  C2  UNL d   1      -1.134  -1.813   1.420  0.00  0.00    -0.005 A 
ATOM      4  C3  UNL d   1       0.196  -1.784   1.837  0.00  0.00     0.006 A 
ATOM      5  C4  UNL d   1       1.077  -0.837   1.313  0.00  0.00    -0.005 A 
ATOM      6  C5  UNL d   1       0.633   0.090   0.365  0.00  0.00    -0.074 A 
ATOM      7  C6  UNL d   1       1.569   1.108  -0.215  0.00  0.00     0.077 C 
ATOM      8  C7  UNL d   1      -0.703   0.051  -0.054  0.00  0.00    -0.001 A 
ENDROOT
TORSDOF 0
ENDMDL
