MODEL 1
REMARK minimizedAffinity -2.38687134
REMARK minimizedRMSD -1
REMARK  0 active torsions:
REMARK  status: ('A' for Active; 'I' for Inactive)
ROOT
ATOM      1  C   UNL d   1       4.443   2.716  -1.846  0.00  0.00     0.077 C 
ATOM      2  C1  UNL d   1       3.597   2.427  -0.641  0.00  0.00    -0.074 A 
ATOM      3  C2  UNL d   1       3.716   3.195   0.522  0.00  0.00    -0.005 A 
ATOM      4  C3  UNL d   1       2.916   2.920   1.630  0.00  0.00     0.006 A 
ATOM      5  C4  UNL d   1       1.990   1.876   1.588  0.00  0.00    -0.005 A 
ATOM      6  C5  UNL d   1       1.857   1.098   0.433  0.00  0.00    -0.074 A 
ATOM      7  C6  UNL d   1       0.860  -0.020   0.367  0.00  0.00     0.077 C 
ATOM      8  C7  UNL d   1       2.660   1.385  -0.679  0.00  0.00    -0.001 A 
ENDROOT
TORSDOF 0
ENDMDL
