MODEL 1
REMARK minimizedAffinity 13.3191481
REMARK minimizedRMSD -1
REMARK  3 active torsions:
REMARK  status: ('A' for Active; 'I' for Inactive)
REMARK    1  A    between atoms: C3'_2  and  C2'_3 
REMARK    2  A    between atoms: C2'_3  and  C1'_4 
REMARK    3  A    between atoms: C1'_4  and  C1_5 
ROOT
ATOM      1  C1  N4B d   1      -4.137   3.763  -4.803  0.00  0.00    -0.075 A 
ATOM      2  C2  N4B d   1      -4.023   4.938  -4.027  0.00  0.00     0.002 A 
ATOM      3  C3  N4B d   1      -4.864   5.999  -4.260  0.00  0.00     0.002 A 
ATOM      4  C4  N4B d   1      -5.810   5.915  -5.270  0.00  0.00    -0.004 A 
ATOM      5  C5  N4B d   1      -5.930   4.768  -5.998  0.00  0.00     0.002 A 
ATOM      6  C6  N4B d   1      -5.095   3.693  -5.773  0.00  0.00     0.002 A 
ENDROOT
BRANCH   1   7
ATOM      7  C1' N4B d   1      -3.184   2.611  -4.644  0.00  0.00     0.057 C 
BRANCH   7   8
ATOM      8  C2' N4B d   1      -1.862   3.128  -4.084  0.00  0.00     0.009 C 
BRANCH   8   9
ATOM      9  C3' N4B d   1      -0.667   2.459  -4.742  0.00  0.00     0.004 C 
ATOM     10  C4' N4B d   1       0.604   3.235  -4.562  0.00  0.00     0.003 C 
ENDBRANCH   8   9
ENDBRANCH   7   8
ENDBRANCH   1   7
TORSDOF 3
ENDMDL
