MODEL 1
REMARK minimizedAffinity 9.95885944
REMARK minimizedRMSD -1
REMARK  3 active torsions:
REMARK  status: ('A' for Active; 'I' for Inactive)
REMARK    1  A    between atoms: C3'_2  and  C2'_3 
REMARK    2  A    between atoms: C2'_3  and  C1'_4 
REMARK    3  A    between atoms: C1'_4  and  C1_5 
ROOT
ATOM      1  C1  N4B d   1       4.470   3.812   2.061  0.00  0.00    -0.075 A 
ATOM      2  C2  N4B d   1       4.846   5.166   1.918  0.00  0.00     0.002 A 
ATOM      3  C3  N4B d   1       4.886   5.739   0.670  0.00  0.00     0.002 A 
ATOM      4  C4  N4B d   1       4.574   4.976  -0.445  0.00  0.00    -0.004 A 
ATOM      5  C5  N4B d   1       4.187   3.677  -0.296  0.00  0.00     0.002 A 
ATOM      6  C6  N4B d   1       4.138   3.089   0.952  0.00  0.00     0.002 A 
ENDROOT
BRANCH   1   7
ATOM      7  C1' N4B d   1       4.494   3.118   3.395  0.00  0.00     0.057 C 
BRANCH   7   8
ATOM      8  C2' N4B d   1       4.446   4.164   4.505  0.00  0.00     0.009 C 
BRANCH   8   9
ATOM      9  C3' N4B d   1       3.129   4.131   5.261  0.00  0.00     0.004 C 
ATOM     10  C4' N4B d   1       2.850   5.406   5.999  0.00  0.00     0.003 C 
ENDBRANCH   8   9
ENDBRANCH   7   8
ENDBRANCH   1   7
TORSDOF 3
ENDMDL
