MODEL 1
REMARK minimizedAffinity 9.07963371
REMARK minimizedRMSD -1
REMARK  3 active torsions:
REMARK  status: ('A' for Active; 'I' for Inactive)
REMARK    1  A    between atoms: C3'_2  and  C2'_3 
REMARK    2  A    between atoms: C2'_3  and  C1'_4 
REMARK    3  A    between atoms: C1'_4  and  C1_5 
ROOT
ATOM      1  C1  N4B d   1      -2.102  -2.404   3.079  0.00  0.00    -0.075 A 
ATOM      2  C2  N4B d   1      -1.703  -3.434   3.958  0.00  0.00     0.002 A 
ATOM      3  C3  N4B d   1      -1.602  -3.187   5.305  0.00  0.00     0.002 A 
ATOM      4  C4  N4B d   1      -1.877  -1.918   5.792  0.00  0.00    -0.004 A 
ATOM      5  C5  N4B d   1      -2.287  -0.935   4.940  0.00  0.00     0.002 A 
ATOM      6  C6  N4B d   1      -2.396  -1.170   3.584  0.00  0.00     0.002 A 
ENDROOT
BRANCH   1   7
ATOM      7  C1' N4B d   1      -2.144  -2.603   1.589  0.00  0.00     0.057 C 
BRANCH   7   8
ATOM      8  C2' N4B d   1      -0.755  -3.003   1.098  0.00  0.00     0.009 C 
BRANCH   8   9
ATOM      9  C3' N4B d   1      -0.792  -4.268   0.259  0.00  0.00     0.004 C 
ATOM     10  C4' N4B d   1      -0.223  -5.457   0.976  0.00  0.00     0.003 C 
ENDBRANCH   8   9
ENDBRANCH   7   8
ENDBRANCH   1   7
TORSDOF 3
ENDMDL
