MODEL 1
REMARK minimizedAffinity 11.9673862
REMARK minimizedRMSD -1
REMARK  3 active torsions:
REMARK  status: ('A' for Active; 'I' for Inactive)
REMARK    1  A    between atoms: C3'_2  and  C2'_3 
REMARK    2  A    between atoms: C2'_3  and  C1'_4 
REMARK    3  A    between atoms: C1'_4  and  C1_5 
ROOT
ATOM      1  C1  N4B d   1      -0.703   2.651  -4.562  0.00  0.00    -0.075 A 
ATOM      2  C2  N4B d   1      -1.693   1.991  -3.801  0.00  0.00     0.002 A 
ATOM      3  C3  N4B d   1      -3.015   2.094  -4.157  0.00  0.00     0.002 A 
ATOM      4  C4  N4B d   1      -3.372   2.863  -5.254  0.00  0.00    -0.004 A 
ATOM      5  C5  N4B d   1      -2.408   3.477  -5.999  0.00  0.00     0.002 A 
ATOM      6  C6  N4B d   1      -1.075   3.379  -5.656  0.00  0.00     0.002 A 
ENDROOT
BRANCH   1   7
ATOM      7  C1' N4B d   1       0.747   2.639  -4.162  0.00  0.00     0.057 C 
BRANCH   7   8
ATOM      8  C2' N4B d   1       1.044   1.352  -3.398  0.00  0.00     0.009 C 
BRANCH   8   9
ATOM      9  C3' N4B d   1       2.089   1.563  -2.316  0.00  0.00     0.004 C 
ATOM     10  C4' N4B d   1       2.391   0.310  -1.548  0.00  0.00     0.003 C 
ENDBRANCH   8   9
ENDBRANCH   7   8
ENDBRANCH   1   7
TORSDOF 3
ENDMDL
