MODEL 1
REMARK minimizedAffinity 12.751194
REMARK minimizedRMSD -1
REMARK  3 active torsions:
REMARK  status: ('A' for Active; 'I' for Inactive)
REMARK    1  A    between atoms: C3'_2  and  C2'_3 
REMARK    2  A    between atoms: C2'_3  and  C1'_4 
REMARK    3  A    between atoms: C1'_4  and  C1_5 
ROOT
ATOM      1  C1  N4B d   1      -3.107  -1.319   5.482  0.00  0.00    -0.075 A 
ATOM      2  C2  N4B d   1      -3.585  -2.599   5.123  0.00  0.00     0.002 A 
ATOM      3  C3  N4B d   1      -2.729  -3.524   4.579  0.00  0.00     0.002 A 
ATOM      4  C4  N4B d   1      -1.400  -3.188   4.368  0.00  0.00    -0.004 A 
ATOM      5  C5  N4B d   1      -0.940  -1.959   4.741  0.00  0.00     0.002 A 
ATOM      6  C6  N4B d   1      -1.789  -1.020   5.293  0.00  0.00     0.002 A 
ENDROOT
BRANCH   1   7
ATOM      7  C1' N4B d   1      -4.024  -0.245   6.000  0.00  0.00     0.057 C 
BRANCH   7   8
ATOM      8  C2' N4B d   1      -3.302   1.098   5.947  0.00  0.00     0.009 C 
BRANCH   8   9
ATOM      9  C3' N4B d   1      -4.274   2.266   5.942  0.00  0.00     0.004 C 
ATOM     10  C4' N4B d   1      -5.707   1.828   5.995  0.00  0.00     0.003 C 
ENDBRANCH   8   9
ENDBRANCH   7   8
ENDBRANCH   1   7
TORSDOF 3
ENDMDL
