MODEL 1
REMARK minimizedAffinity 11.5217056
REMARK minimizedRMSD -1
REMARK  3 active torsions:
REMARK  status: ('A' for Active; 'I' for Inactive)
REMARK    1  A    between atoms: C3'_2  and  C2'_3 
REMARK    2  A    between atoms: C2'_3  and  C1'_4 
REMARK    3  A    between atoms: C1'_4  and  C1_5 
ROOT
ATOM      1  C1  N4B d   1      -3.075  -0.801   5.581  0.00  0.00    -0.075 A 
ATOM      2  C2  N4B d   1      -2.377   0.410   5.777  0.00  0.00     0.002 A 
ATOM      3  C3  N4B d   1      -3.070   1.576   5.993  0.00  0.00     0.002 A 
ATOM      4  C4  N4B d   1      -4.457   1.557   5.999  0.00  0.00    -0.004 A 
ATOM      5  C5  N4B d   1      -5.124   0.379   5.835  0.00  0.00     0.002 A 
ATOM      6  C6  N4B d   1      -4.440  -0.801   5.620  0.00  0.00     0.002 A 
ENDROOT
BRANCH   1   7
ATOM      7  C1' N4B d   1      -2.363  -2.085   5.255  0.00  0.00     0.057 C 
BRANCH   7   8
ATOM      8  C2' N4B d   1      -3.279  -2.967   4.412  0.00  0.00     0.009 C 
BRANCH   8   9
ATOM      9  C3' N4B d   1      -2.530  -4.132   3.789  0.00  0.00     0.004 C 
ATOM     10  C4' N4B d   1      -2.255  -3.931   2.328  0.00  0.00     0.003 C 
ENDBRANCH   8   9
ENDBRANCH   7   8
ENDBRANCH   1   7
TORSDOF 3
ENDMDL
