MODEL 1
REMARK minimizedAffinity -3.49087667
REMARK minimizedRMSD -1
REMARK  1 active torsions:
REMARK  status: ('A' for Active; 'I' for Inactive)
REMARK    1  A    between atoms: N_2  and  C1_3 
ROOT
ATOM      1  C1  UNL d   1      -0.927  -0.956  -0.360  0.00  0.00     0.143 A 
ATOM      2  C2  UNL d   1       0.407  -0.538  -0.300  0.00  0.00    -0.057 A 
ATOM      3  C3  UNL d   1       0.835   0.389   0.658  0.00  0.00     0.033 A 
ATOM      4  C4  UNL d   1      -0.074   0.939   1.556  0.00  0.00    -0.042 A 
ATOM      5  C5  UNL d   1      -1.409   0.558   1.498  0.00  0.00     0.033 A 
ATOM      6  C6  UNL d   1      -1.829  -0.374   0.544  0.00  0.00    -0.057 A 
ENDROOT
BRANCH   1   7
ATOM      7  N   UNL d   1      -1.433  -1.800  -1.352  0.00  0.00    -0.732 N 
ATOM      8  C   UNL d   1      -1.758  -1.284  -2.664  0.00  0.00     0.284 C 
ATOM      9  H3  UNL d   1      -0.970  -2.706  -1.364  0.00  0.00     0.395 HD
ENDBRANCH   1   7
TORSDOF 1
ENDMDL
