MODEL 1
REMARK minimizedAffinity -2.74975109
REMARK minimizedRMSD -1
REMARK  1 active torsions:
REMARK  status: ('A' for Active; 'I' for Inactive)
REMARK    1  A    between atoms: N_2  and  C1_3 
ROOT
ATOM      1  C1  UNL d   1      -0.225  -0.297  -0.108  0.00  0.00     0.143 A 
ATOM      2  C2  UNL d   1       0.160   1.040  -0.255  0.00  0.00    -0.057 A 
ATOM      3  C3  UNL d   1       0.226   1.902   0.846  0.00  0.00     0.033 A 
ATOM      4  C4  UNL d   1      -0.122   1.448   2.114  0.00  0.00    -0.042 A 
ATOM      5  C5  UNL d   1      -0.531   0.130   2.280  0.00  0.00     0.033 A 
ATOM      6  C6  UNL d   1      -0.588  -0.728   1.177  0.00  0.00    -0.057 A 
ENDROOT
BRANCH   1   7
ATOM      7  N   UNL d   1      -0.404  -1.177  -1.178  0.00  0.00    -0.732 N 
ATOM      8  C   UNL d   1      -1.669  -1.238  -1.879  0.00  0.00     0.284 C 
ATOM      9  H3  UNL d   1       0.410  -1.220  -1.787  0.00  0.00     0.395 HD
ENDBRANCH   1   7
TORSDOF 1
ENDMDL
