MODEL 1
REMARK minimizedAffinity -3.36014199
REMARK minimizedRMSD -1
REMARK  1 active torsions:
REMARK  status: ('A' for Active; 'I' for Inactive)
REMARK    1  A    between atoms: N_2  and  C1_3 
ROOT
ATOM      1  C1  UNL d   1       0.245   0.336   0.685  0.00  0.00     0.143 A 
ATOM      2  C2  UNL d   1       1.553   0.478   0.208  0.00  0.00    -0.057 A 
ATOM      3  C3  UNL d   1       2.500   1.240   0.902  0.00  0.00     0.033 A 
ATOM      4  C4  UNL d   1       2.148   1.899   2.075  0.00  0.00    -0.042 A 
ATOM      5  C5  UNL d   1       0.847   1.793   2.555  0.00  0.00     0.033 A 
ATOM      6  C6  UNL d   1      -0.093   1.025   1.861  0.00  0.00    -0.057 A 
ENDROOT
BRANCH   1   7
ATOM      7  N   UNL d   1      -0.769  -0.327  -0.010  0.00  0.00    -0.732 N 
ATOM      8  C   UNL d   1      -0.461  -1.450  -0.870  0.00  0.00     0.284 C 
ATOM      9  H3  UNL d   1      -1.608  -0.451   0.552  0.00  0.00     0.395 HD
ENDBRANCH   1   7
TORSDOF 1
ENDMDL
