MODEL 1
REMARK minimizedAffinity -2.72858095
REMARK minimizedRMSD -1
REMARK  1 active torsions:
REMARK  status: ('A' for Active; 'I' for Inactive)
REMARK    1  A    between atoms: N_2  and  C1_3 
ROOT
ATOM      1  C1  UNL d   1      -0.822  -0.661  -1.118  0.00  0.00     0.143 A 
ATOM      2  C2  UNL d   1      -1.472   0.520  -0.745  0.00  0.00    -0.057 A 
ATOM      3  C3  UNL d   1      -1.080   1.237   0.391  0.00  0.00     0.033 A 
ATOM      4  C4  UNL d   1      -0.045   0.768   1.194  0.00  0.00    -0.042 A 
ATOM      5  C5  UNL d   1       0.599  -0.417   0.857  0.00  0.00     0.033 A 
ATOM      6  C6  UNL d   1       0.207  -1.125  -0.284  0.00  0.00    -0.057 A 
ENDROOT
BRANCH   1   7
ATOM      7  N   UNL d   1      -1.229  -1.471  -2.181  0.00  0.00    -0.732 N 
ATOM      8  C   UNL d   1      -2.218  -2.509  -1.981  0.00  0.00     0.284 C 
ATOM      9  H3  UNL d   1      -1.346  -0.948  -3.046  0.00  0.00     0.395 HD
ENDBRANCH   1   7
TORSDOF 1
ENDMDL
