MODEL 1
REMARK minimizedAffinity -4.29882717
REMARK minimizedRMSD -1
REMARK  1 active torsions:
REMARK  status: ('A' for Active; 'I' for Inactive)
REMARK    1  A    between atoms: N_2  and  C1_3 
ROOT
ATOM      1  C1  UNL d   1       0.186  -0.550   0.048  0.00  0.00     0.143 A 
ATOM      2  C2  UNL d   1       1.353   0.219  -0.012  0.00  0.00    -0.057 A 
ATOM      3  C3  UNL d   1       1.510   1.363   0.780  0.00  0.00     0.033 A 
ATOM      4  C4  UNL d   1       0.486   1.776   1.627  0.00  0.00    -0.042 A 
ATOM      5  C5  UNL d   1      -0.693   1.041   1.684  0.00  0.00     0.033 A 
ATOM      6  C6  UNL d   1      -0.840  -0.105   0.896  0.00  0.00    -0.057 A 
ENDROOT
BRANCH   1   7
ATOM      7  N   UNL d   1      -0.069  -1.641  -0.786  0.00  0.00    -0.732 N 
ATOM      8  C   UNL d   1      -1.333  -1.758  -1.481  0.00  0.00     0.284 C 
ATOM      9  H3  UNL d   1       0.739  -1.899  -1.347  0.00  0.00     0.395 HD
ENDBRANCH   1   7
TORSDOF 1
ENDMDL
