MODEL 1
REMARK minimizedAffinity -2.68581796
REMARK minimizedRMSD -1
REMARK  1 active torsions:
REMARK  status: ('A' for Active; 'I' for Inactive)
REMARK    1  A    between atoms: N_2  and  C1_3 
ROOT
ATOM      1  C1  UNL d   1      -0.265  -0.781  -0.768  0.00  0.00     0.143 A 
ATOM      2  C2  UNL d   1      -1.345  -1.492  -0.233  0.00  0.00    -0.057 A 
ATOM      3  C3  UNL d   1      -2.326  -2.052  -1.060  0.00  0.00     0.033 A 
ATOM      4  C4  UNL d   1      -2.260  -1.886  -2.439  0.00  0.00    -0.042 A 
ATOM      5  C5  UNL d   1      -1.209  -1.162  -2.991  0.00  0.00     0.033 A 
ATOM      6  C6  UNL d   1      -0.229  -0.611  -2.161  0.00  0.00    -0.057 A 
ENDROOT
BRANCH   1   7
ATOM      7  N   UNL d   1       0.689  -0.117   0.007  0.00  0.00    -0.732 N 
ATOM      8  C   UNL d   1       0.346   1.098   0.716  0.00  0.00     0.284 C 
ATOM      9  H3  UNL d   1       1.273  -0.758   0.538  0.00  0.00     0.395 HD
ENDBRANCH   1   7
TORSDOF 1
ENDMDL
