MODEL 1
REMARK minimizedAffinity -1.26129222
REMARK minimizedRMSD -1
REMARK  1 active torsions:
REMARK  status: ('A' for Active; 'I' for Inactive)
REMARK    1  A    between atoms: N_2  and  C1_3 
ROOT
ATOM      1  C1  UNL d   1       0.390   0.856   1.126  0.00  0.00     0.143 A 
ATOM      2  C2  UNL d   1       1.129   0.296   0.079  0.00  0.00    -0.057 A 
ATOM      3  C3  UNL d   1       0.600  -0.728  -0.717  0.00  0.00     0.033 A 
ATOM      4  C4  UNL d   1      -0.671  -1.231  -0.460  0.00  0.00    -0.042 A 
ATOM      5  C5  UNL d   1      -1.414  -0.706   0.592  0.00  0.00     0.033 A 
ATOM      6  C6  UNL d   1      -0.882   0.320   1.379  0.00  0.00    -0.057 A 
ENDROOT
BRANCH   1   7
ATOM      7  N   UNL d   1       0.898   1.807   2.015  0.00  0.00    -0.732 N 
ATOM      8  C   UNL d   1       2.324   2.032   2.119  0.00  0.00     0.284 C 
ATOM      9  H3  UNL d   1       0.340   2.658   2.033  0.00  0.00     0.395 HD
ENDBRANCH   1   7
TORSDOF 1
ENDMDL
