MODEL 1
REMARK minimizedAffinity -3.55710769
REMARK minimizedRMSD -1
REMARK  1 active torsions:
REMARK  status: ('A' for Active; 'I' for Inactive)
REMARK    1  A    between atoms: N_2  and  C1_3 
ROOT
ATOM      1  C1  UNL d   1      -0.608  -0.459   0.155  0.00  0.00     0.143 A 
ATOM      2  C2  UNL d   1       0.770  -0.222   0.151  0.00  0.00    -0.057 A 
ATOM      3  C3  UNL d   1       1.342   0.750   0.981  0.00  0.00     0.033 A 
ATOM      4  C4  UNL d   1       0.538   1.525   1.811  0.00  0.00    -0.042 A 
ATOM      5  C5  UNL d   1      -0.838   1.323   1.813  0.00  0.00     0.033 A 
ATOM      6  C6  UNL d   1      -1.402   0.347   0.986  0.00  0.00    -0.057 A 
ENDROOT
BRANCH   1   7
ATOM      7  N   UNL d   1      -1.248  -1.342  -0.719  0.00  0.00    -0.732 N 
ATOM      8  C   UNL d   1      -1.391  -1.018  -2.122  0.00  0.00     0.284 C 
ATOM      9  H3  UNL d   1      -1.000  -2.313  -0.540  0.00  0.00     0.395 HD
ENDBRANCH   1   7
TORSDOF 1
ENDMDL
