MODEL 1
REMARK minimizedAffinity 0.000896167068
REMARK minimizedRMSD -1
REMARK  1 active torsions:
REMARK  status: ('A' for Active; 'I' for Inactive)
REMARK    1  A    between atoms: N_2  and  C1_3 
ROOT
ATOM      1  C1  UNL d   1      -0.711  -0.626  -0.387  0.00  0.00     0.143 A 
ATOM      2  C2  UNL d   1       0.625  -0.214  -0.429  0.00  0.00    -0.057 A 
ATOM      3  C3  UNL d   1       1.148   0.656   0.535  0.00  0.00     0.033 A 
ATOM      4  C4  UNL d   1       0.332   1.154   1.546  0.00  0.00    -0.042 A 
ATOM      5  C5  UNL d   1      -1.005   0.778   1.594  0.00  0.00     0.033 A 
ATOM      6  C6  UNL d   1      -1.520  -0.096   0.632  0.00  0.00    -0.057 A 
ENDROOT
BRANCH   1   7
ATOM      7  N   UNL d   1      -1.315  -1.411  -1.372  0.00  0.00    -0.732 N 
ATOM      8  C   UNL d   1      -1.753  -0.820  -2.619  0.00  0.00     0.284 C 
ATOM      9  H3  UNL d   1      -0.865  -2.317  -1.477  0.00  0.00     0.395 HD
ENDBRANCH   1   7
TORSDOF 1
ENDMDL
