MODEL 1
REMARK minimizedAffinity -2.69611526
REMARK minimizedRMSD -1
REMARK  1 active torsions:
REMARK  status: ('A' for Active; 'I' for Inactive)
REMARK    1  A    between atoms: N_2  and  C1_3 
ROOT
ATOM      1  C1  UNL d   1      -0.808  -1.036  -1.306  0.00  0.00     0.143 A 
ATOM      2  C2  UNL d   1      -2.105  -1.554  -1.222  0.00  0.00    -0.057 A 
ATOM      3  C3  UNL d   1      -2.878  -1.768  -2.369  0.00  0.00     0.033 A 
ATOM      4  C4  UNL d   1      -2.376  -1.440  -3.624  0.00  0.00    -0.042 A 
ATOM      5  C5  UNL d   1      -1.099  -0.900  -3.730  0.00  0.00     0.033 A 
ATOM      6  C6  UNL d   1      -0.329  -0.695  -2.581  0.00  0.00    -0.057 A 
ENDROOT
BRANCH   1   7
ATOM      7  N   UNL d   1      -0.027  -0.708  -0.195  0.00  0.00    -0.732 N 
ATOM      8  C   UNL d   1      -0.586   0.056   0.899  0.00  0.00     0.284 C 
ATOM      9  H3  UNL d   1       0.573  -1.475   0.098  0.00  0.00     0.395 HD
ENDBRANCH   1   7
TORSDOF 1
ENDMDL
