MODEL 1
REMARK minimizedAffinity -1.43701839
REMARK minimizedRMSD -1
REMARK  1 active torsions:
REMARK  status: ('A' for Active; 'I' for Inactive)
REMARK    1  A    between atoms: N_2  and  C1_3 
ROOT
ATOM      1  C1  UNL d   1      -1.196  -0.755  -0.808  0.00  0.00     0.143 A 
ATOM      2  C2  UNL d   1      -1.789   0.486  -0.555  0.00  0.00    -0.057 A 
ATOM      3  C3  UNL d   1      -1.316   1.323   0.463  0.00  0.00     0.033 A 
ATOM      4  C4  UNL d   1      -0.256   0.919   1.268  0.00  0.00    -0.042 A 
ATOM      5  C5  UNL d   1       0.333  -0.321   1.051  0.00  0.00     0.033 A 
ATOM      6  C6  UNL d   1      -0.139  -1.150   0.028  0.00  0.00    -0.057 A 
ENDROOT
BRANCH   1   7
ATOM      7  N   UNL d   1      -1.683  -1.674  -1.740  0.00  0.00    -0.732 N 
ATOM      8  C   UNL d   1      -2.083  -1.242  -3.062  0.00  0.00     0.284 C 
ATOM      9  H3  UNL d   1      -1.166  -2.551  -1.728  0.00  0.00     0.395 HD
ENDBRANCH   1   7
TORSDOF 1
ENDMDL
