MODEL 1
REMARK minimizedAffinity -2.14661789
REMARK minimizedRMSD -1
REMARK  1 active torsions:
REMARK  status: ('A' for Active; 'I' for Inactive)
REMARK    1  A    between atoms: N_2  and  C1_3 
ROOT
ATOM      1  C1  UNL d   1      -0.369  -1.156  -0.247  0.00  0.00     0.143 A 
ATOM      2  C2  UNL d   1       1.026  -1.080  -0.175  0.00  0.00    -0.057 A 
ATOM      3  C3  UNL d   1       1.662  -0.078   0.568  0.00  0.00     0.033 A 
ATOM      4  C4  UNL d   1       0.910   0.887   1.231  0.00  0.00    -0.042 A 
ATOM      5  C5  UNL d   1      -0.477   0.846   1.153  0.00  0.00     0.033 A 
ATOM      6  C6  UNL d   1      -1.106  -0.161   0.415  0.00  0.00    -0.057 A 
ENDROOT
BRANCH   1   7
ATOM      7  N   UNL d   1      -1.058  -2.069  -1.049  0.00  0.00    -0.732 N 
ATOM      8  C   UNL d   1      -1.599  -1.665  -2.328  0.00  0.00     0.284 C 
ATOM      9  H3  UNL d   1      -0.622  -2.988  -1.053  0.00  0.00     0.395 HD
ENDBRANCH   1   7
TORSDOF 1
ENDMDL
