MODEL 1
REMARK minimizedAffinity -4.13843203
REMARK minimizedRMSD -1
REMARK  1 active torsions:
REMARK  status: ('A' for Active; 'I' for Inactive)
REMARK    1  A    between atoms: N_2  and  C1_3 
ROOT
ATOM      1  C1  UNL d   1       0.562  -0.166   0.166  0.00  0.00     0.143 A 
ATOM      2  C2  UNL d   1       0.141   0.709   1.173  0.00  0.00    -0.057 A 
ATOM      3  C3  UNL d   1       1.058   1.501   1.876  0.00  0.00     0.033 A 
ATOM      4  C4  UNL d   1       2.418   1.409   1.603  0.00  0.00    -0.042 A 
ATOM      5  C5  UNL d   1       2.861   0.528   0.623  0.00  0.00     0.033 A 
ATOM      6  C6  UNL d   1       1.941  -0.255  -0.080  0.00  0.00    -0.057 A 
ENDROOT
BRANCH   1   7
ATOM      7  N   UNL d   1      -0.289  -1.050  -0.501  0.00  0.00    -0.732 N 
ATOM      8  C   UNL d   1      -1.181  -0.576  -1.537  0.00  0.00     0.284 C 
ATOM      9  H3  UNL d   1       0.162  -1.937  -0.715  0.00  0.00     0.395 HD
ENDBRANCH   1   7
TORSDOF 1
ENDMDL
