MODEL 1
REMARK minimizedAffinity -3.54156613
REMARK minimizedRMSD -1
REMARK  1 active torsions:
REMARK  status: ('A' for Active; 'I' for Inactive)
REMARK    1  A    between atoms: N_2  and  C1_3 
ROOT
ATOM      1  C1  UNL d   1      -0.637  -0.505   0.171  0.00  0.00     0.143 A 
ATOM      2  C2  UNL d   1      -1.216   0.390   1.077  0.00  0.00    -0.057 A 
ATOM      3  C3  UNL d   1      -0.469   1.424   1.655  0.00  0.00     0.033 A 
ATOM      4  C4  UNL d   1       0.883   1.563   1.357  0.00  0.00    -0.042 A 
ATOM      5  C5  UNL d   1       1.485   0.670   0.479  0.00  0.00     0.033 A 
ATOM      6  C6  UNL d   1       0.732  -0.356  -0.100  0.00  0.00    -0.057 A 
ENDROOT
BRANCH   1   7
ATOM      7  N   UNL d   1      -1.302  -1.613  -0.360  0.00  0.00    -0.732 N 
ATOM      8  C   UNL d   1      -2.217  -1.460  -1.471  0.00  0.00     0.284 C 
ATOM      9  H3  UNL d   1      -0.702  -2.431  -0.426  0.00  0.00     0.395 HD
ENDBRANCH   1   7
TORSDOF 1
ENDMDL
