MODEL 1
REMARK minimizedAffinity 2.16248465
REMARK minimizedRMSD -1
REMARK  0 active torsions:
REMARK  status: ('A' for Active; 'I' for Inactive)
ROOT
ATOM      1  C4' PXY d   1      -3.712  -5.651  -5.669  0.00  0.00     0.077 C 
ATOM      2  C1' PXY d   1       1.743  -5.286  -3.791  0.00  0.00     0.077 C 
ATOM      3  C1  PXY d   1       0.308  -5.381  -4.271  0.00  0.00    -0.082 A 
ATOM      4  C2  PXY d   1       0.046  -5.934  -5.444  0.00  0.00     0.003 A 
ATOM      5  C3  PXY d   1      -1.242  -6.000  -5.908  0.00  0.00     0.003 A 
ATOM      6  C4  PXY d   1      -2.279  -5.542  -5.140  0.00  0.00    -0.082 A 
ATOM      7  C5  PXY d   1      -2.021  -4.986  -3.937  0.00  0.00     0.003 A 
ATOM      8  C6  PXY d   1      -0.702  -4.892  -3.503  0.00  0.00     0.003 A 
ENDROOT
TORSDOF 0
ENDMDL
