MODEL 1
REMARK minimizedAffinity 10.274188
REMARK minimizedRMSD -1
REMARK  0 active torsions:
REMARK  status: ('A' for Active; 'I' for Inactive)
ROOT
ATOM      1  C4' PXY d   1       5.997   5.028  -4.599  0.00  0.00     0.077 C 
ATOM      2  C1' PXY d   1       1.667   1.699  -2.706  0.00  0.00     0.077 C 
ATOM      3  C1  PXY d   1       2.806   2.562  -3.211  0.00  0.00    -0.082 A 
ATOM      4  C2  PXY d   1       3.270   3.541  -2.452  0.00  0.00     0.003 A 
ATOM      5  C3  PXY d   1       4.278   4.352  -2.905  0.00  0.00     0.003 A 
ATOM      6  C4  PXY d   1       4.854   4.125  -4.127  0.00  0.00    -0.082 A 
ATOM      7  C5  PXY d   1       4.393   3.121  -4.902  0.00  0.00     0.003 A 
ATOM      8  C6  PXY d   1       3.341   2.335  -4.441  0.00  0.00     0.003 A 
ENDROOT
TORSDOF 0
ENDMDL
