MODEL 1
REMARK minimizedAffinity 1.27811861
REMARK minimizedRMSD -1
REMARK  0 active torsions:
REMARK  status: ('A' for Active; 'I' for Inactive)
ROOT
ATOM      1  C4' PXY d   1       0.895  -5.275  -4.167  0.00  0.00     0.077 C 
ATOM      2  C1' PXY d   1      -4.754  -5.779  -5.286  0.00  0.00     0.077 C 
ATOM      3  C1  PXY d   1      -3.270  -5.654  -5.003  0.00  0.00    -0.082 A 
ATOM      4  C2  PXY d   1      -2.861  -5.339  -3.785  0.00  0.00     0.003 A 
ATOM      5  C3  PXY d   1      -1.524  -5.191  -3.519  0.00  0.00     0.003 A 
ATOM      6  C4  PXY d   1      -0.593  -5.421  -4.497  0.00  0.00    -0.082 A 
ATOM      7  C5  PXY d   1      -1.002  -5.753  -5.740  0.00  0.00     0.003 A 
ATOM      8  C6  PXY d   1      -2.366  -5.857  -5.999  0.00  0.00     0.003 A 
ENDROOT
TORSDOF 0
ENDMDL
