MODEL 1
REMARK minimizedAffinity 15.3316212
REMARK minimizedRMSD -1
REMARK  0 active torsions:
REMARK  status: ('A' for Active; 'I' for Inactive)
ROOT
ATOM      1  C4' PXY d   1      -0.669  -0.871   1.394  0.00  0.00     0.077 C 
ATOM      2  C1' PXY d   1      -4.984  -0.450  -2.429  0.00  0.00     0.077 C 
ATOM      3  C1  PXY d   1      -3.855  -0.549  -1.422  0.00  0.00    -0.082 A 
ATOM      4  C2  PXY d   1      -2.855  -1.386  -1.641  0.00  0.00     0.003 A 
ATOM      5  C3  PXY d   1      -1.842  -1.511  -0.725  0.00  0.00     0.003 A 
ATOM      6  C4  PXY d   1      -1.825  -0.732   0.400  0.00  0.00    -0.082 A 
ATOM      7  C5  PXY d   1      -2.837   0.133   0.626  0.00  0.00     0.003 A 
ATOM      8  C6  PXY d   1      -3.877   0.215  -0.296  0.00  0.00     0.003 A 
ENDROOT
TORSDOF 0
ENDMDL
