MODEL 1
REMARK minimizedAffinity 9.5365839
REMARK minimizedRMSD -1
REMARK  0 active torsions:
REMARK  status: ('A' for Active; 'I' for Inactive)
ROOT
ATOM      1  C4' PXY d   1       3.746   3.384  -4.837  0.00  0.00     0.077 C 
ATOM      2  C1' PXY d   1      -0.018   5.998  -1.314  0.00  0.00     0.077 C 
ATOM      3  C1  PXY d   1       0.978   5.322  -2.236  0.00  0.00    -0.082 A 
ATOM      4  C2  PXY d   1       0.543   4.521  -3.195  0.00  0.00     0.003 A 
ATOM      5  C3  PXY d   1       1.431   3.876  -4.017  0.00  0.00     0.003 A 
ATOM      6  C4  PXY d   1       2.776   4.095  -3.890  0.00  0.00    -0.082 A 
ATOM      7  C5  PXY d   1       3.228   4.919  -2.921  0.00  0.00     0.003 A 
ATOM      8  C6  PXY d   1       2.312   5.532  -2.070  0.00  0.00     0.003 A 
ENDROOT
TORSDOF 0
ENDMDL
