MODEL 1
REMARK minimizedAffinity 12.8384838
REMARK minimizedRMSD -1
REMARK  0 active torsions:
REMARK  status: ('A' for Active; 'I' for Inactive)
ROOT
ATOM      1  C4' PXY d   1       2.253   1.647  -1.564  0.00  0.00     0.077 C 
ATOM      2  C1' PXY d   1       5.999   4.079   2.105  0.00  0.00     0.077 C 
ATOM      3  C1  PXY d   1       5.013   3.433   1.152  0.00  0.00    -0.082 A 
ATOM      4  C2  PXY d   1       5.241   3.471  -0.150  0.00  0.00     0.003 A 
ATOM      5  C3  PXY d   1       4.343   2.920  -1.028  0.00  0.00     0.003 A 
ATOM      6  C4  PXY d   1       3.226   2.277  -0.564  0.00  0.00    -0.082 A 
ATOM      7  C5  PXY d   1       2.992   2.225   0.764  0.00  0.00     0.003 A 
ATOM      8  C6  PXY d   1       3.895   2.827   1.636  0.00  0.00     0.003 A 
ENDROOT
TORSDOF 0
ENDMDL
