MODEL 1
REMARK minimizedAffinity 13.5403452
REMARK minimizedRMSD -1
REMARK  0 active torsions:
REMARK  status: ('A' for Active; 'I' for Inactive)
ROOT
ATOM      1  C4' PXY d   1      -4.629   0.557   1.177  0.00  0.00     0.077 C 
ATOM      2  C1' PXY d   1       0.587  -1.507   2.575  0.00  0.00     0.077 C 
ATOM      3  C1  PXY d   1      -0.782  -0.961   2.220  0.00  0.00    -0.082 A 
ATOM      4  C2  PXY d   1      -1.480  -1.525   1.248  0.00  0.00     0.003 A 
ATOM      5  C3  PXY d   1      -2.706  -1.023   0.893  0.00  0.00     0.003 A 
ATOM      6  C4  PXY d   1      -3.247   0.033   1.576  0.00  0.00    -0.082 A 
ATOM      7  C5  PXY d   1      -2.546   0.607   2.576  0.00  0.00     0.003 A 
ATOM      8  C6  PXY d   1      -1.285   0.109   2.894  0.00  0.00     0.003 A 
ENDROOT
TORSDOF 0
ENDMDL
