MODEL 1
REMARK minimizedAffinity 9.5438633
REMARK minimizedRMSD -1
REMARK  0 active torsions:
REMARK  status: ('A' for Active; 'I' for Inactive)
ROOT
ATOM      1  C4' PXY d   1       5.997   4.763   0.398  0.00  0.00     0.077 C 
ATOM      2  C1' PXY d   1       3.542  -0.234   1.953  0.00  0.00     0.077 C 
ATOM      3  C1  PXY d   1       4.190   1.079   1.557  0.00  0.00    -0.082 A 
ATOM      4  C2  PXY d   1       3.775   1.711   0.472  0.00  0.00     0.003 A 
ATOM      5  C3  PXY d   1       4.372   2.883   0.082  0.00  0.00     0.003 A 
ATOM      6  C4  PXY d   1       5.366   3.440   0.840  0.00  0.00    -0.082 A 
ATOM      7  C5  PXY d   1       5.787   2.806   1.955  0.00  0.00     0.003 A 
ATOM      8  C6  PXY d   1       5.197   1.597   2.311  0.00  0.00     0.003 A 
ENDROOT
TORSDOF 0
ENDMDL
