MODEL 1
REMARK minimizedAffinity 7.08460236
REMARK minimizedRMSD -1
REMARK  0 active torsions:
REMARK  status: ('A' for Active; 'I' for Inactive)
ROOT
ATOM      1  C4' PXY d   1       4.085   0.042  -1.042  0.00  0.00     0.077 C 
ATOM      2  C1' PXY d   1       4.769   4.819   2.141  0.00  0.00     0.077 C 
ATOM      3  C1  PXY d   1       4.580   3.562   1.315  0.00  0.00    -0.082 A 
ATOM      4  C2  PXY d   1       5.549   3.157   0.509  0.00  0.00     0.003 A 
ATOM      5  C3  PXY d   1       5.383   2.041  -0.269  0.00  0.00     0.003 A 
ATOM      6  C4  PXY d   1       4.235   1.300  -0.182  0.00  0.00    -0.082 A 
ATOM      7  C5  PXY d   1       3.246   1.700   0.646  0.00  0.00     0.003 A 
ATOM      8  C6  PXY d   1       3.418   2.859   1.397  0.00  0.00     0.003 A 
ENDROOT
TORSDOF 0
ENDMDL
