MODEL 1
REMARK minimizedAffinity 18.8849545
REMARK minimizedRMSD -1
REMARK  0 active torsions:
REMARK  status: ('A' for Active; 'I' for Inactive)
ROOT
ATOM      1  C4' PXY d   1       3.805   2.943  -4.469  0.00  0.00     0.077 C 
ATOM      2  C1' PXY d   1      -0.294   5.586  -1.367  0.00  0.00     0.077 C 
ATOM      3  C1  PXY d   1       0.789   4.903  -2.178  0.00  0.00    -0.082 A 
ATOM      4  C2  PXY d   1       0.455   4.002  -3.087  0.00  0.00     0.003 A 
ATOM      5  C3  PXY d   1       1.423   3.351  -3.808  0.00  0.00     0.003 A 
ATOM      6  C4  PXY d   1       2.745   3.665  -3.633  0.00  0.00    -0.082 A 
ATOM      7  C5  PXY d   1       3.093   4.591  -2.715  0.00  0.00     0.003 A 
ATOM      8  C6  PXY d   1       2.097   5.210  -1.965  0.00  0.00     0.003 A 
ENDROOT
TORSDOF 0
ENDMDL
