MODEL 1
REMARK minimizedAffinity 8.21764946
REMARK minimizedRMSD -1
REMARK  0 active torsions:
REMARK  status: ('A' for Active; 'I' for Inactive)
ROOT
ATOM      1  C4' PXY d   1       4.211   5.999  -1.039  0.00  0.00     0.077 C 
ATOM      2  C1' PXY d   1       3.977   3.040  -6.000  0.00  0.00     0.077 C 
ATOM      3  C1  PXY d   1       4.025   3.817  -4.699  0.00  0.00    -0.082 A 
ATOM      4  C2  PXY d   1       5.122   4.482  -4.374  0.00  0.00     0.003 A 
ATOM      5  C3  PXY d   1       5.195   5.163  -3.187  0.00  0.00     0.003 A 
ATOM      6  C4  PXY d   1       4.114   5.209  -2.347  0.00  0.00    -0.082 A 
ATOM      7  C5  PXY d   1       2.987   4.542  -2.676  0.00  0.00     0.003 A 
ATOM      8  C6  PXY d   1       2.949   3.822  -3.867  0.00  0.00     0.003 A 
ENDROOT
TORSDOF 0
ENDMDL
