MODEL 1
REMARK minimizedAffinity 18.4372807
REMARK minimizedRMSD -1
REMARK  0 active torsions:
REMARK  status: ('A' for Active; 'I' for Inactive)
ROOT
ATOM      1  C4' PXY d   1       2.512   1.510  -1.461  0.00  0.00     0.077 C 
ATOM      2  C1' PXY d   1       5.998   4.080   2.368  0.00  0.00     0.077 C 
ATOM      3  C1  PXY d   1       5.077   3.400   1.374  0.00  0.00    -0.082 A 
ATOM      4  C2  PXY d   1       5.481   3.219   0.127  0.00  0.00     0.003 A 
ATOM      5  C3  PXY d   1       4.649   2.634  -0.794  0.00  0.00     0.003 A 
ATOM      6  C4  PXY d   1       3.412   2.183  -0.421  0.00  0.00    -0.082 A 
ATOM      7  C5  PXY d   1       2.996   2.355   0.852  0.00  0.00     0.003 A 
ATOM      8  C6  PXY d   1       3.840   2.987   1.761  0.00  0.00     0.003 A 
ENDROOT
TORSDOF 0
ENDMDL
