MODEL 1
REMARK minimizedAffinity 14.5070715
REMARK minimizedRMSD -1
REMARK  0 active torsions:
REMARK  status: ('A' for Active; 'I' for Inactive)
ROOT
ATOM      1  C4' PXY d   1       5.318   5.150  -1.016  0.00  0.00     0.077 C 
ATOM      2  C1' PXY d   1       3.731   2.689  -6.000  0.00  0.00     0.077 C 
ATOM      3  C1  PXY d   1       4.134   3.336  -4.690  0.00  0.00    -0.082 A 
ATOM      4  C2  PXY d   1       5.319   3.917  -4.584  0.00  0.00     0.003 A 
ATOM      5  C3  PXY d   1       5.712   4.478  -3.397  0.00  0.00     0.003 A 
ATOM      6  C4  PXY d   1       4.864   4.492  -2.322  0.00  0.00    -0.082 A 
ATOM      7  C5  PXY d   1       3.651   3.911  -2.425  0.00  0.00     0.003 A 
ATOM      8  C6  PXY d   1       3.286   3.310  -3.626  0.00  0.00     0.003 A 
ENDROOT
TORSDOF 0
ENDMDL
