MODEL 1
REMARK minimizedAffinity 14.5938873
REMARK minimizedRMSD -1
REMARK  0 active torsions:
REMARK  status: ('A' for Active; 'I' for Inactive)
ROOT
ATOM      1  C4' PXY d   1      -2.511  -1.952  -1.986  0.00  0.00     0.077 C 
ATOM      2  C1' PXY d   1      -1.541  -5.998  -6.000  0.00  0.00     0.077 C 
ATOM      3  C1  PXY d   1      -1.784  -4.940  -4.941  0.00  0.00    -0.082 A 
ATOM      4  C2  PXY d   1      -3.019  -4.539  -4.689  0.00  0.00     0.003 A 
ATOM      5  C3  PXY d   1      -3.254  -3.560  -3.758  0.00  0.00     0.003 A 
ATOM      6  C4  PXY d   1      -2.219  -3.025  -3.040  0.00  0.00    -0.082 A 
ATOM      7  C5  PXY d   1      -0.957  -3.436  -3.283  0.00  0.00     0.003 A 
ATOM      8  C6  PXY d   1      -0.735  -4.401  -4.262  0.00  0.00     0.003 A 
ENDROOT
TORSDOF 0
ENDMDL
