MODEL 1
REMARK minimizedAffinity 2.16508651
REMARK minimizedRMSD -1
REMARK  0 active torsions:
REMARK  status: ('A' for Active; 'I' for Inactive)
ROOT
ATOM      1  C4' PXY d   1      -1.322   0.078   4.643  0.00  0.00     0.077 C 
ATOM      2  C1' PXY d   1      -4.755  -0.163  -0.001  0.00  0.00     0.077 C 
ATOM      3  C1  PXY d   1      -3.856  -0.087   1.217  0.00  0.00    -0.082 A 
ATOM      4  C2  PXY d   1      -2.971  -1.045   1.437  0.00  0.00     0.003 A 
ATOM      5  C3  PXY d   1      -2.172  -1.008   2.551  0.00  0.00     0.003 A 
ATOM      6  C4  PXY d   1      -2.243   0.047   3.420  0.00  0.00    -0.082 A 
ATOM      7  C5  PXY d   1      -3.137   1.034   3.197  0.00  0.00     0.003 A 
ATOM      8  C6  PXY d   1      -3.967   0.958   2.082  0.00  0.00     0.003 A 
ENDROOT
TORSDOF 0
ENDMDL
