MODEL 1
REMARK minimizedAffinity 9.32267284
REMARK minimizedRMSD -1
REMARK  0 active torsions:
REMARK  status: ('A' for Active; 'I' for Inactive)
ROOT
ATOM      1  C4' PXY d   1       5.282   4.494  -2.036  0.00  0.00     0.077 C 
ATOM      2  C1' PXY d   1      -0.430   4.210  -2.873  0.00  0.00     0.077 C 
ATOM      3  C1  PXY d   1       1.067   4.297  -2.655  0.00  0.00    -0.082 A 
ATOM      4  C2  PXY d   1       1.825   3.238  -2.887  0.00  0.00     0.003 A 
ATOM      5  C3  PXY d   1       3.177   3.290  -2.665  0.00  0.00     0.003 A 
ATOM      6  C4  PXY d   1       3.767   4.454  -2.251  0.00  0.00    -0.082 A 
ATOM      7  C5  PXY d   1       3.002   5.542  -2.022  0.00  0.00     0.003 A 
ATOM      8  C6  PXY d   1       1.626   5.457  -2.214  0.00  0.00     0.003 A 
ENDROOT
TORSDOF 0
ENDMDL
