MODEL 1
REMARK minimizedAffinity 16.1336575
REMARK minimizedRMSD -1
REMARK  0 active torsions:
REMARK  status: ('A' for Active; 'I' for Inactive)
ROOT
ATOM      1  C4' PXY d   1       3.795   3.062  -6.000  0.00  0.00     0.077 C 
ATOM      2  C1' PXY d   1       5.817   5.977  -1.436  0.00  0.00     0.077 C 
ATOM      3  C1  PXY d   1       5.279   5.205  -2.625  0.00  0.00    -0.082 A 
ATOM      4  C2  PXY d   1       5.999   5.125  -3.732  0.00  0.00     0.003 A 
ATOM      5  C3  PXY d   1       5.514   4.458  -4.828  0.00  0.00     0.003 A 
ATOM      6  C4  PXY d   1       4.302   3.822  -4.772  0.00  0.00    -0.082 A 
ATOM      7  C5  PXY d   1       3.567   3.891  -3.642  0.00  0.00     0.003 A 
ATOM      8  C6  PXY d   1       4.059   4.608  -2.555  0.00  0.00     0.003 A 
ENDROOT
TORSDOF 0
ENDMDL
