MODEL 1
REMARK minimizedAffinity 16.3086109
REMARK minimizedRMSD -1
REMARK  0 active torsions:
REMARK  status: ('A' for Active; 'I' for Inactive)
ROOT
ATOM      1  C4' PXY d   1      -3.905   0.014   0.754  0.00  0.00     0.077 C 
ATOM      2  C1' PXY d   1       0.777  -1.521   3.777  0.00  0.00     0.077 C 
ATOM      3  C1  PXY d   1      -0.455  -1.112   2.995  0.00  0.00    -0.082 A 
ATOM      4  C2  PXY d   1      -0.831  -1.827   1.946  0.00  0.00     0.003 A 
ATOM      5  C3  PXY d   1      -1.925  -1.453   1.208  0.00  0.00     0.003 A 
ATOM      6  C4  PXY d   1      -2.672  -0.367   1.579  0.00  0.00    -0.082 A 
ATOM      7  C5  PXY d   1      -2.302   0.361   2.653  0.00  0.00     0.003 A 
ATOM      8  C6  PXY d   1      -1.165  -0.011   3.365  0.00  0.00     0.003 A 
ENDROOT
TORSDOF 0
ENDMDL
