MODEL 1
REMARK minimizedAffinity 12.3833017
REMARK minimizedRMSD -1
REMARK  0 active torsions:
REMARK  status: ('A' for Active; 'I' for Inactive)
ROOT
ATOM      1  C4' PXY d   1       1.637   0.055   1.510  0.00  0.00     0.077 C 
ATOM      2  C1' PXY d   1       6.000   3.183  -0.634  0.00  0.00     0.077 C 
ATOM      3  C1  PXY d   1       4.860   2.365  -0.060  0.00  0.00    -0.082 A 
ATOM      4  C2  PXY d   1       4.269   1.450  -0.810  0.00  0.00     0.003 A 
ATOM      5  C3  PXY d   1       3.216   0.723  -0.317  0.00  0.00     0.003 A 
ATOM      6  C4  PXY d   1       2.798   0.898   0.975  0.00  0.00    -0.082 A 
ATOM      7  C5  PXY d   1       3.403   1.822   1.751  0.00  0.00     0.003 A 
ATOM      8  C6  PXY d   1       4.443   2.578   1.218  0.00  0.00     0.003 A 
ENDROOT
TORSDOF 0
ENDMDL
