MODEL 1
REMARK minimizedAffinity 19.5015945
REMARK minimizedRMSD -1
REMARK  0 active torsions:
REMARK  status: ('A' for Active; 'I' for Inactive)
ROOT
ATOM      1  C4' PXY d   1      -4.433   0.013   0.773  0.00  0.00     0.077 C 
ATOM      2  C1' PXY d   1       0.589  -1.590   3.143  0.00  0.00     0.077 C 
ATOM      3  C1  PXY d   1      -0.731  -1.163   2.532  0.00  0.00    -0.082 A 
ATOM      4  C2  PXY d   1      -1.275  -1.895   1.574  0.00  0.00     0.003 A 
ATOM      5  C3  PXY d   1      -2.452  -1.506   0.988  0.00  0.00     0.003 A 
ATOM      6  C4  PXY d   1      -3.106  -0.385   1.425  0.00  0.00    -0.082 A 
ATOM      7  C5  PXY d   1      -2.563   0.361   2.410  0.00  0.00     0.003 A 
ATOM      8  C6  PXY d   1      -1.346  -0.029   2.963  0.00  0.00     0.003 A 
ENDROOT
TORSDOF 0
ENDMDL
