MODEL 1
REMARK minimizedAffinity 0.920639992
REMARK minimizedRMSD -1
REMARK  0 active torsions:
REMARK  status: ('A' for Active; 'I' for Inactive)
ROOT
ATOM      1  C   UNL d   1       1.773   5.999   5.617  0.00  0.00     0.172 C 
ATOM      2  N   UNL d   1       3.109   5.507   5.373  0.00  0.00    -0.070 N 
ATOM      3  C1  UNL d   1       3.441   4.487   4.522  0.00  0.00    -0.004 A 
ATOM      4  C2  UNL d   1       4.809   4.325   4.571  0.00  0.00    -0.047 A 
ATOM      5  C3  UNL d   1       5.316   5.281   5.483  0.00  0.00    -0.047 A 
ATOM      6  C4  UNL d   1       4.242   6.000   5.964  0.00  0.00    -0.004 A 
ENDROOT
TORSDOF 0
ENDMDL
