MODEL 1
REMARK minimizedAffinity 3.41887665
REMARK minimizedRMSD -1
REMARK  0 active torsions:
REMARK  status: ('A' for Active; 'I' for Inactive)
ROOT
ATOM      1  C   UNL d   1      -1.984   3.395  -3.745  0.00  0.00     0.172 C 
ATOM      2  N   UNL d   1      -0.812   3.457  -4.587  0.00  0.00    -0.070 N 
ATOM      3  C1  UNL d   1      -0.427   4.533  -5.341  0.00  0.00    -0.004 A 
ATOM      4  C2  UNL d   1       0.737   4.194  -5.996  0.00  0.00    -0.047 A 
ATOM      5  C3  UNL d   1       1.063   2.868  -5.623  0.00  0.00    -0.047 A 
ATOM      6  C4  UNL d   1       0.087   2.436  -4.750  0.00  0.00    -0.004 A 
ENDROOT
TORSDOF 0
ENDMDL
