MODEL 1
REMARK minimizedAffinity 1.20266664
REMARK minimizedRMSD -1
REMARK  0 active torsions:
REMARK  status: ('A' for Active; 'I' for Inactive)
ROOT
ATOM      1  C   UNL d   1      -1.196   4.253  -5.293  0.00  0.00     0.172 C 
ATOM      2  N   UNL d   1      -2.118   3.476  -4.498  0.00  0.00    -0.070 N 
ATOM      3  C1  UNL d   1      -1.783   2.427  -3.685  0.00  0.00    -0.004 A 
ATOM      4  C2  UNL d   1      -2.941   1.957  -3.104  0.00  0.00    -0.047 A 
ATOM      5  C3  UNL d   1      -4.009   2.750  -3.587  0.00  0.00    -0.047 A 
ATOM      6  C4  UNL d   1      -3.472   3.683  -4.448  0.00  0.00    -0.004 A 
ENDROOT
TORSDOF 0
ENDMDL
