MODEL 1
REMARK minimizedAffinity 1.5986774
REMARK minimizedRMSD -1
REMARK  0 active torsions:
REMARK  status: ('A' for Active; 'I' for Inactive)
ROOT
ATOM      1  C   UNL d   1      -2.507   3.070  -3.751  0.00  0.00     0.172 C 
ATOM      2  N   UNL d   1      -1.484   3.519  -4.665  0.00  0.00    -0.070 N 
ATOM      3  C1  UNL d   1      -0.468   2.750  -5.167  0.00  0.00    -0.004 A 
ATOM      4  C2  UNL d   1       0.291   3.543  -6.000  0.00  0.00    -0.047 A 
ATOM      5  C3  UNL d   1      -0.288   4.835  -5.997  0.00  0.00    -0.047 A 
ATOM      6  C4  UNL d   1      -1.385   4.792  -5.163  0.00  0.00    -0.004 A 
ENDROOT
TORSDOF 0
ENDMDL
