MODEL 1
REMARK minimizedAffinity 1.12724471
REMARK minimizedRMSD -1
REMARK  0 active torsions:
REMARK  status: ('A' for Active; 'I' for Inactive)
ROOT
ATOM      1  C   UNL d   1      -1.145   3.977  -4.726  0.00  0.00     0.172 C 
ATOM      2  N   UNL d   1      -2.184   3.577  -3.807  0.00  0.00    -0.070 N 
ATOM      3  C1  UNL d   1      -3.510   3.429  -4.116  0.00  0.00    -0.004 A 
ATOM      4  C2  UNL d   1      -4.169   3.037  -2.971  0.00  0.00    -0.047 A 
ATOM      5  C3  UNL d   1      -3.206   2.948  -1.938  0.00  0.00    -0.047 A 
ATOM      6  C4  UNL d   1      -1.986   3.288  -2.483  0.00  0.00    -0.004 A 
ENDROOT
TORSDOF 0
ENDMDL
