MODEL 1
REMARK minimizedAffinity 0.0866151452
REMARK minimizedRMSD -1
REMARK  0 active torsions:
REMARK  status: ('A' for Active; 'I' for Inactive)
ROOT
ATOM      1  C   UNL d   1      -0.006   0.284  -4.122  0.00  0.00     0.172 C 
ATOM      2  N   UNL d   1       0.411   1.441  -4.879  0.00  0.00    -0.070 N 
ATOM      3  C1  UNL d   1      -0.398   2.477  -5.265  0.00  0.00    -0.004 A 
ATOM      4  C2  UNL d   1       0.375   3.378  -5.964  0.00  0.00    -0.047 A 
ATOM      5  C3  UNL d   1       1.694   2.867  -6.000  0.00  0.00    -0.047 A 
ATOM      6  C4  UNL d   1       1.688   1.667  -5.321  0.00  0.00    -0.004 A 
ENDROOT
TORSDOF 0
ENDMDL
