MODEL 1
REMARK minimizedAffinity -0.212481812
REMARK minimizedRMSD -1
REMARK  0 active torsions:
REMARK  status: ('A' for Active; 'I' for Inactive)
ROOT
ATOM      1  C   UNL d   1      -0.865   3.181  -4.926  0.00  0.00     0.172 C 
ATOM      2  N   UNL d   1      -2.018   2.727  -4.185  0.00  0.00    -0.070 N 
ATOM      3  C1  UNL d   1      -3.098   3.495  -3.840  0.00  0.00    -0.004 A 
ATOM      4  C2  UNL d   1      -3.979   2.695  -3.144  0.00  0.00    -0.047 A 
ATOM      5  C3  UNL d   1      -3.408   1.403  -3.067  0.00  0.00    -0.047 A 
ATOM      6  C4  UNL d   1      -2.195   1.450  -3.720  0.00  0.00    -0.004 A 
ENDROOT
TORSDOF 0
ENDMDL
