MODEL 1
REMARK minimizedAffinity -2.35212827
REMARK minimizedRMSD -1
REMARK  0 active torsions:
REMARK  status: ('A' for Active; 'I' for Inactive)
ROOT
ATOM      1  C   UNL d   1       1.472  -2.608   0.386  0.00  0.00     0.172 C 
ATOM      2  N   UNL d   1       0.680  -1.578   1.017  0.00  0.00    -0.070 N 
ATOM      3  C1  UNL d   1       1.119  -0.325   1.348  0.00  0.00    -0.004 A 
ATOM      4  C2  UNL d   1       0.067   0.352   1.927  0.00  0.00    -0.047 A 
ATOM      5  C3  UNL d   1      -1.043  -0.526   1.945  0.00  0.00    -0.047 A 
ATOM      6  C4  UNL d   1      -0.635  -1.714   1.375  0.00  0.00    -0.004 A 
ENDROOT
TORSDOF 0
ENDMDL
