MODEL 1
REMARK minimizedAffinity -3.51409459
REMARK minimizedRMSD -1
REMARK  0 active torsions:
REMARK  status: ('A' for Active; 'I' for Inactive)
ROOT
ATOM      1  C4' PXY d   1      -0.165  -1.183   0.296  0.00  0.00     0.077 C 
ATOM      2  C1' PXY d   1       2.231   4.072   0.046  0.00  0.00     0.077 C 
ATOM      3  C1  PXY d   1       1.614   2.689   0.116  0.00  0.00    -0.082 A 
ATOM      4  C2  PXY d   1       0.603   2.382  -0.680  0.00  0.00     0.003 A 
ATOM      5  C3  PXY d   1       0.012   1.147  -0.607  0.00  0.00     0.003 A 
ATOM      6  C4  PXY d   1       0.495   0.198   0.253  0.00  0.00    -0.082 A 
ATOM      7  C5  PXY d   1       1.533   0.499   1.061  0.00  0.00     0.003 A 
ATOM      8  C6  PXY d   1       2.092   1.772   1.001  0.00  0.00     0.003 A 
ENDROOT
TORSDOF 0
ENDMDL
