MODEL 1
REMARK minimizedAffinity -2.0459156
REMARK minimizedRMSD -1
REMARK  0 active torsions:
REMARK  status: ('A' for Active; 'I' for Inactive)
ROOT
ATOM      1  C4' PXY d   1       0.299   2.841   0.223  0.00  0.00     0.077 C 
ATOM      2  C1' PXY d   1      -0.930  -2.806   0.350  0.00  0.00     0.077 C 
ATOM      3  C1  PXY d   1      -0.597  -1.327   0.309  0.00  0.00    -0.082 A 
ATOM      4  C2  PXY d   1      -1.007  -0.537   1.288  0.00  0.00     0.003 A 
ATOM      5  C3  PXY d   1      -0.743   0.808   1.251  0.00  0.00     0.003 A 
ATOM      6  C4  PXY d   1      -0.005   1.341   0.228  0.00  0.00    -0.082 A 
ATOM      7  C5  PXY d   1       0.426   0.539  -0.769  0.00  0.00     0.003 A 
ATOM      8  C6  PXY d   1       0.112  -0.816  -0.734  0.00  0.00     0.003 A 
ENDROOT
TORSDOF 0
ENDMDL
