MODEL 1
REMARK minimizedAffinity -4.81912994
REMARK minimizedRMSD -1
REMARK  0 active torsions:
REMARK  status: ('A' for Active; 'I' for Inactive)
ROOT
ATOM      1  C4' PXY d   1      -2.321   0.086   2.257  0.00  0.00     0.077 C 
ATOM      2  C1' PXY d   1       1.410  -1.418  -1.894  0.00  0.00     0.077 C 
ATOM      3  C1  PXY d   1       0.437  -1.012  -0.805  0.00  0.00    -0.082 A 
ATOM      4  C2  PXY d   1      -0.093  -1.937  -0.022  0.00  0.00     0.003 A 
ATOM      5  C3  PXY d   1      -1.000  -1.591   0.946  0.00  0.00     0.003 A 
ATOM      6  C4  PXY d   1      -1.326  -0.277   1.151  0.00  0.00    -0.082 A 
ATOM      7  C5  PXY d   1      -0.782   0.675   0.364  0.00  0.00     0.003 A 
ATOM      8  C6  PXY d   1       0.105   0.298  -0.641  0.00  0.00     0.003 A 
ENDROOT
TORSDOF 0
ENDMDL
