MODEL 1
REMARK minimizedAffinity -2.741436
REMARK minimizedRMSD -1
REMARK  0 active torsions:
REMARK  status: ('A' for Active; 'I' for Inactive)
ROOT
ATOM      1  C4' PXY d   1       0.475  -2.836   0.191  0.00  0.00     0.077 C 
ATOM      2  C1' PXY d   1       0.200   2.860  -0.755  0.00  0.00     0.077 C 
ATOM      3  C1  PXY d   1       0.273   1.364  -0.520  0.00  0.00    -0.082 A 
ATOM      4  C2  PXY d   1      -0.180   0.858   0.616  0.00  0.00     0.003 A 
ATOM      5  C3  PXY d   1      -0.094  -0.489   0.858  0.00  0.00     0.003 A 
ATOM      6  C4  PXY d   1       0.414  -1.333  -0.093  0.00  0.00    -0.082 A 
ATOM      7  C5  PXY d   1       0.868  -0.825  -1.259  0.00  0.00     0.003 A 
ATOM      8  C6  PXY d   1       0.809   0.549  -1.469  0.00  0.00     0.003 A 
ENDROOT
TORSDOF 0
ENDMDL
