MODEL 1
REMARK minimizedAffinity -5.38917637
REMARK minimizedRMSD -1
REMARK  0 active torsions:
REMARK  status: ('A' for Active; 'I' for Inactive)
ROOT
ATOM      1  C4' PXY d   1       0.007  -3.658   0.249  0.00  0.00     0.077 C 
ATOM      2  C1' PXY d   1      -0.239   2.075  -0.448  0.00  0.00     0.077 C 
ATOM      3  C1  PXY d   1      -0.179   0.573  -0.253  0.00  0.00    -0.082 A 
ATOM      4  C2  PXY d   1       0.646  -0.150  -0.993  0.00  0.00     0.003 A 
ATOM      5  C3  PXY d   1       0.690  -1.513  -0.852  0.00  0.00     0.003 A 
ATOM      6  C4  PXY d   1      -0.080  -2.137   0.093  0.00  0.00    -0.082 A 
ATOM      7  C5  PXY d   1      -0.916  -1.405   0.859  0.00  0.00     0.003 A 
ATOM      8  C6  PXY d   1      -0.975  -0.027   0.672  0.00  0.00     0.003 A 
ENDROOT
TORSDOF 0
ENDMDL
