MODEL 1
REMARK minimizedAffinity -3.45998073
REMARK minimizedRMSD -1
REMARK  0 active torsions:
REMARK  status: ('A' for Active; 'I' for Inactive)
ROOT
ATOM      1  C4' PXY d   1      -0.006   2.591   0.159  0.00  0.00     0.077 C 
ATOM      2  C1' PXY d   1       0.097  -3.171   0.605  0.00  0.00     0.077 C 
ATOM      3  C1  PXY d   1       0.057  -1.660   0.488  0.00  0.00    -0.082 A 
ATOM      4  C2  PXY d   1       1.086  -1.017  -0.040  0.00  0.00     0.003 A 
ATOM      5  C3  PXY d   1       1.080   0.351  -0.124  0.00  0.00     0.003 A 
ATOM      6  C4  PXY d   1      -0.013   1.066   0.288  0.00  0.00    -0.082 A 
ATOM      7  C5  PXY d   1      -1.071   0.416   0.818  0.00  0.00     0.003 A 
ATOM      8  C6  PXY d   1      -1.028  -0.970   0.933  0.00  0.00     0.003 A 
ENDROOT
TORSDOF 0
ENDMDL
