MODEL 1
REMARK minimizedAffinity -3.65706921
REMARK minimizedRMSD -1
REMARK  0 active torsions:
REMARK  status: ('A' for Active; 'I' for Inactive)
ROOT
ATOM      1  C4' PXY d   1       1.500   4.214  -0.046  0.00  0.00     0.077 C 
ATOM      2  C1' PXY d   1      -0.393  -1.248  -0.084  0.00  0.00     0.077 C 
ATOM      3  C1  PXY d   1       0.102   0.185  -0.087  0.00  0.00    -0.082 A 
ATOM      4  C2  PXY d   1       0.839   0.624   0.920  0.00  0.00     0.003 A 
ATOM      5  C3  PXY d   1       1.269   1.926   0.949  0.00  0.00     0.003 A 
ATOM      6  C4  PXY d   1       0.986   2.772  -0.090  0.00  0.00    -0.082 A 
ATOM      7  C5  PXY d   1       0.244   2.328  -1.126  0.00  0.00     0.003 A 
ATOM      8  C6  PXY d   1      -0.217   1.015  -1.117  0.00  0.00     0.003 A 
ENDROOT
TORSDOF 0
ENDMDL
