MODEL 1
REMARK minimizedAffinity -5.24782038
REMARK minimizedRMSD -1
REMARK  0 active torsions:
REMARK  status: ('A' for Active; 'I' for Inactive)
ROOT
ATOM      1  C4' PXY d   1      -0.078   1.737   0.229  0.00  0.00     0.077 C 
ATOM      2  C1' PXY d   1       0.277  -3.989  -0.480  0.00  0.00     0.077 C 
ATOM      3  C1  PXY d   1       0.174  -2.489  -0.285  0.00  0.00    -0.082 A 
ATOM      4  C2  PXY d   1       0.562  -1.675  -1.254  0.00  0.00     0.003 A 
ATOM      5  C3  PXY d   1       0.506  -0.316  -1.082  0.00  0.00     0.003 A 
ATOM      6  C4  PXY d   1      -0.001   0.216   0.073  0.00  0.00    -0.082 A 
ATOM      7  C5  PXY d   1      -0.409  -0.607   1.062  0.00  0.00     0.003 A 
ATOM      8  C6  PXY d   1      -0.305  -1.984   0.884  0.00  0.00     0.003 A 
ENDROOT
TORSDOF 0
ENDMDL
