MODEL 1
REMARK minimizedAffinity -3.41003323
REMARK minimizedRMSD -1
REMARK  0 active torsions:
REMARK  status: ('A' for Active; 'I' for Inactive)
ROOT
ATOM      1  C4' PXY d   1       0.121  -3.846  -0.122  0.00  0.00     0.077 C 
ATOM      2  C1' PXY d   1      -0.255   1.899   0.403  0.00  0.00     0.077 C 
ATOM      3  C1  PXY d   1      -0.160   0.391   0.278  0.00  0.00    -0.082 A 
ATOM      4  C2  PXY d   1       0.621  -0.140  -0.649  0.00  0.00     0.003 A 
ATOM      5  C3  PXY d   1       0.694  -1.502  -0.797  0.00  0.00     0.003 A 
ATOM      6  C4  PXY d   1       0.002  -2.328   0.047  0.00  0.00    -0.082 A 
ATOM      7  C5  PXY d   1      -0.788  -1.794   1.002  0.00  0.00     0.003 A 
ATOM      8  C6  PXY d   1      -0.881  -0.409   1.109  0.00  0.00     0.003 A 
ENDROOT
TORSDOF 0
ENDMDL
