MODEL 1
REMARK minimizedAffinity -4.10275841
REMARK minimizedRMSD -1
REMARK  0 active torsions:
REMARK  status: ('A' for Active; 'I' for Inactive)
ROOT
ATOM      1  C4' PXY d   1      -1.806   0.012   2.187  0.00  0.00     0.077 C 
ATOM      2  C1' PXY d   1       1.439  -0.868  -2.515  0.00  0.00     0.077 C 
ATOM      3  C1  PXY d   1       0.586  -0.650  -1.281  0.00  0.00    -0.082 A 
ATOM      4  C2  PXY d   1       0.054   0.540  -1.056  0.00  0.00     0.003 A 
ATOM      5  C3  PXY d   1      -0.694   0.764   0.072  0.00  0.00     0.003 A 
ATOM      6  C4  PXY d   1      -0.945  -0.257   0.949  0.00  0.00    -0.082 A 
ATOM      7  C5  PXY d   1      -0.416  -1.477   0.720  0.00  0.00     0.003 A 
ATOM      8  C6  PXY d   1       0.375  -1.672  -0.408  0.00  0.00     0.003 A 
ENDROOT
TORSDOF 0
ENDMDL
