MODEL 1
REMARK minimizedAffinity -2.39291787
REMARK minimizedRMSD -1
REMARK  0 active torsions:
REMARK  status: ('A' for Active; 'I' for Inactive)
ROOT
ATOM      1  C4' PXY d   1       0.114   2.903   0.374  0.00  0.00     0.077 C 
ATOM      2  C1' PXY d   1      -0.449  -2.835  -0.048  0.00  0.00     0.077 C 
ATOM      3  C1  PXY d   1      -0.290  -1.331   0.057  0.00  0.00    -0.082 A 
ATOM      4  C2  PXY d   1      -0.912  -0.673   1.021  0.00  0.00     0.003 A 
ATOM      5  C3  PXY d   1      -0.805   0.691   1.110  0.00  0.00     0.003 A 
ATOM      6  C4  PXY d   1      -0.010   1.383   0.236  0.00  0.00    -0.082 A 
ATOM      7  C5  PXY d   1       0.637   0.717  -0.744  0.00  0.00     0.003 A 
ATOM      8  C6  PXY d   1       0.482  -0.663  -0.843  0.00  0.00     0.003 A 
ENDROOT
TORSDOF 0
ENDMDL
