MODEL 1
REMARK minimizedAffinity -2.16168284
REMARK minimizedRMSD -1
REMARK  0 active torsions:
REMARK  status: ('A' for Active; 'I' for Inactive)
ROOT
ATOM      1  C4' PXY d   1      -0.068  -3.276   0.363  0.00  0.00     0.077 C 
ATOM      2  C1' PXY d   1       0.082   2.503   0.309  0.00  0.00     0.077 C 
ATOM      3  C1  PXY d   1       0.046   0.987   0.310  0.00  0.00    -0.082 A 
ATOM      4  C2  PXY d   1      -0.655   0.351   1.234  0.00  0.00     0.003 A 
ATOM      5  C3  PXY d   1      -0.673  -1.020   1.270  0.00  0.00     0.003 A 
ATOM      6  C4  PXY d   1      -0.010  -1.746   0.317  0.00  0.00    -0.082 A 
ATOM      7  C5  PXY d   1       0.698  -1.104  -0.636  0.00  0.00     0.003 A 
ATOM      8  C6  PXY d   1       0.738   0.287  -0.629  0.00  0.00     0.003 A 
ENDROOT
TORSDOF 0
ENDMDL
