MODEL 1
REMARK minimizedAffinity -4.39138222
REMARK minimizedRMSD -1
REMARK  0 active torsions:
REMARK  status: ('A' for Active; 'I' for Inactive)
ROOT
ATOM      1  C4' PXY d   1      -1.670   5.464   3.706  0.00  0.00     0.077 C 
ATOM      2  C1' PXY d   1       2.499   3.196   0.407  0.00  0.00     0.077 C 
ATOM      3  C1  PXY d   1       1.415   3.794   1.281  0.00  0.00    -0.082 A 
ATOM      4  C2  PXY d   1       0.175   3.339   1.190  0.00  0.00     0.003 A 
ATOM      5  C3  PXY d   1      -0.824   3.891   1.949  0.00  0.00     0.003 A 
ATOM      6  C4  PXY d   1      -0.541   4.883   2.850  0.00  0.00    -0.082 A 
ATOM      7  C5  PXY d   1       0.722   5.345   2.957  0.00  0.00     0.003 A 
ATOM      8  C6  PXY d   1       1.714   4.800   2.147  0.00  0.00     0.003 A 
ENDROOT
TORSDOF 0
ENDMDL
