MODEL 1
REMARK minimizedAffinity -4.16224384
REMARK minimizedRMSD -1
REMARK  0 active torsions:
REMARK  status: ('A' for Active; 'I' for Inactive)
ROOT
ATOM      1  C4' PXY d   1      -0.100   2.361   0.212  0.00  0.00     0.077 C 
ATOM      2  C1' PXY d   1      -0.159  -3.418   0.313  0.00  0.00     0.077 C 
ATOM      3  C1  PXY d   1      -0.156  -1.902   0.289  0.00  0.00    -0.082 A 
ATOM      4  C2  PXY d   1       0.757  -1.261  -0.421  0.00  0.00     0.003 A 
ATOM      5  C3  PXY d   1       0.794   0.110  -0.428  0.00  0.00     0.003 A 
ATOM      6  C4  PXY d   1      -0.147   0.832   0.257  0.00  0.00    -0.082 A 
ATOM      7  C5  PXY d   1      -1.089   0.184   0.975  0.00  0.00     0.003 A 
ATOM      8  C6  PXY d   1      -1.084  -1.207   1.003  0.00  0.00     0.003 A 
ENDROOT
TORSDOF 0
ENDMDL
