MODEL 1
REMARK minimizedAffinity -3.22865343
REMARK minimizedRMSD -1
REMARK  0 active torsions:
REMARK  status: ('A' for Active; 'I' for Inactive)
ROOT
ATOM      1  C4' PXY d   1       0.037  -4.627  -0.320  0.00  0.00     0.077 C 
ATOM      2  C1' PXY d   1      -0.290   1.142  -0.150  0.00  0.00     0.077 C 
ATOM      3  C1  PXY d   1      -0.203  -0.371  -0.181  0.00  0.00    -0.082 A 
ATOM      4  C2  PXY d   1       0.226  -0.979  -1.275  0.00  0.00     0.003 A 
ATOM      5  C3  PXY d   1       0.280  -2.348  -1.332  0.00  0.00     0.003 A 
ATOM      6  C4  PXY d   1      -0.058  -3.101  -0.240  0.00  0.00    -0.082 A 
ATOM      7  C5  PXY d   1      -0.486  -2.488   0.884  0.00  0.00     0.003 A 
ATOM      8  C6  PXY d   1      -0.574  -1.099   0.907  0.00  0.00     0.003 A 
ENDROOT
TORSDOF 0
ENDMDL
