MODEL 1
REMARK minimizedAffinity -4.79050112
REMARK minimizedRMSD -1
REMARK  0 active torsions:
REMARK  status: ('A' for Active; 'I' for Inactive)
ROOT
ATOM      1  C4' PXY d   1      -0.741  -1.458   0.647  0.00  0.00     0.077 C 
ATOM      2  C1' PXY d   1       1.752   3.745   0.296  0.00  0.00     0.077 C 
ATOM      3  C1  PXY d   1       1.087   2.386   0.385  0.00  0.00    -0.082 A 
ATOM      4  C2  PXY d   1       1.615   1.448   1.155  0.00  0.00     0.003 A 
ATOM      5  C3  PXY d   1       1.044   0.203   1.222  0.00  0.00     0.003 A 
ATOM      6  C4  PXY d   1      -0.108  -0.068   0.534  0.00  0.00    -0.082 A 
ATOM      7  C5  PXY d   1      -0.659   0.886  -0.245  0.00  0.00     0.003 A 
ATOM      8  C6  PXY d   1      -0.041   2.131  -0.332  0.00  0.00     0.003 A 
ENDROOT
TORSDOF 0
ENDMDL
