MODEL 1
REMARK minimizedAffinity -4.04157352
REMARK minimizedRMSD -1
REMARK  0 active torsions:
REMARK  status: ('A' for Active; 'I' for Inactive)
ROOT
ATOM      1  C4' PXY d   1       0.100   1.772  -0.060  0.00  0.00     0.077 C 
ATOM      2  C1' PXY d   1       0.332  -3.923  -1.023  0.00  0.00     0.077 C 
ATOM      3  C1  PXY d   1       0.278  -2.428  -0.782  0.00  0.00    -0.082 A 
ATOM      4  C2  PXY d   1       0.088  -1.970   0.445  0.00  0.00     0.003 A 
ATOM      5  C3  PXY d   1       0.005  -0.621   0.677  0.00  0.00     0.003 A 
ATOM      6  C4  PXY d   1       0.171   0.270  -0.350  0.00  0.00    -0.082 A 
ATOM      7  C5  PXY d   1       0.376  -0.189  -1.602  0.00  0.00     0.003 A 
ATOM      8  C6  PXY d   1       0.417  -1.563  -1.823  0.00  0.00     0.003 A 
ENDROOT
TORSDOF 0
ENDMDL
