MODEL 1
REMARK minimizedAffinity -4.01285934
REMARK minimizedRMSD -1
REMARK  0 active torsions:
REMARK  status: ('A' for Active; 'I' for Inactive)
ROOT
ATOM      1  C4' PXY d   1      -0.447   2.157  -0.389  0.00  0.00     0.077 C 
ATOM      2  C1' PXY d   1       0.252  -3.488   0.636  0.00  0.00     0.077 C 
ATOM      3  C1  PXY d   1       0.082  -2.007   0.365  0.00  0.00    -0.082 A 
ATOM      4  C2  PXY d   1      -0.922  -1.351   0.923  0.00  0.00     0.003 A 
ATOM      5  C3  PXY d   1      -1.110  -0.018   0.663  0.00  0.00     0.003 A 
ATOM      6  C4  PXY d   1      -0.230   0.663  -0.135  0.00  0.00    -0.082 A 
ATOM      7  C5  PXY d   1       0.803   0.003  -0.701  0.00  0.00     0.003 A 
ATOM      8  C6  PXY d   1       0.952  -1.359  -0.457  0.00  0.00     0.003 A 
ENDROOT
TORSDOF 0
ENDMDL
