MODEL 1
REMARK minimizedAffinity -3.57309484
REMARK minimizedRMSD -1
REMARK  0 active torsions:
REMARK  status: ('A' for Active; 'I' for Inactive)
ROOT
ATOM      1  C4' PXY d   1      -0.764  -2.934   0.621  0.00  0.00     0.077 C 
ATOM      2  C1' PXY d   1       0.843   2.618   0.583  0.00  0.00     0.077 C 
ATOM      3  C1  PXY d   1       0.434   1.158   0.593  0.00  0.00    -0.082 A 
ATOM      4  C2  PXY d   1      -0.751   0.808   0.122  0.00  0.00     0.003 A 
ATOM      5  C3  PXY d   1      -1.150  -0.503   0.153  0.00  0.00     0.003 A 
ATOM      6  C4  PXY d   1      -0.306  -1.473   0.622  0.00  0.00    -0.082 A 
ATOM      7  C5  PXY d   1       0.910  -1.125   1.095  0.00  0.00     0.003 A 
ATOM      8  C6  PXY d   1       1.280   0.217   1.093  0.00  0.00     0.003 A 
ENDROOT
TORSDOF 0
ENDMDL
