MODEL 1
REMARK minimizedAffinity -3.15332222
REMARK minimizedRMSD -1
REMARK  0 active torsions:
REMARK  status: ('A' for Active; 'I' for Inactive)
ROOT
ATOM      1  C4' PXY d   1       0.524   0.843  -0.297  0.00  0.00     0.077 C 
ATOM      2  C1' PXY d   1       0.014   6.000   2.264  0.00  0.00     0.077 C 
ATOM      3  C1  PXY d   1       0.160   4.650   1.589  0.00  0.00    -0.082 A 
ATOM      4  C2  PXY d   1      -0.915   4.024   1.139  0.00  0.00     0.003 A 
ATOM      5  C3  PXY d   1      -0.804   2.789   0.554  0.00  0.00     0.003 A 
ATOM      6  C4  PXY d   1       0.425   2.211   0.382  0.00  0.00    -0.082 A 
ATOM      7  C5  PXY d   1       1.528   2.848   0.830  0.00  0.00     0.003 A 
ATOM      8  C6  PXY d   1       1.390   4.083   1.457  0.00  0.00     0.003 A 
ENDROOT
TORSDOF 0
ENDMDL
