MODEL 1
REMARK minimizedAffinity -0.373358339
REMARK minimizedRMSD -1
REMARK  0 active torsions:
REMARK  status: ('A' for Active; 'I' for Inactive)
ROOT
ATOM      1  C   UNL d   1       2.443  -2.781   0.058  0.00  0.00     0.172 C 
ATOM      2  N   UNL d   1       1.555  -1.876   0.748  0.00  0.00    -0.070 N 
ATOM      3  C1  UNL d   1       1.906  -0.665   1.283  0.00  0.00    -0.004 A 
ATOM      4  C2  UNL d   1       0.779  -0.112   1.852  0.00  0.00    -0.047 A 
ATOM      5  C3  UNL d   1      -0.286  -1.023   1.653  0.00  0.00    -0.047 A 
ATOM      6  C4  UNL d   1       0.222  -2.106   0.968  0.00  0.00    -0.004 A 
ENDROOT
TORSDOF 0
ENDMDL
