MODEL 1
REMARK minimizedAffinity -1.35182071
REMARK minimizedRMSD -1
REMARK  0 active torsions:
REMARK  status: ('A' for Active; 'I' for Inactive)
ROOT
ATOM      1  C   UNL d   1      -2.752   4.036   5.998  0.00  0.00     0.172 C 
ATOM      2  N   UNL d   1      -3.903   3.292   5.545  0.00  0.00    -0.070 N 
ATOM      3  C1  UNL d   1      -3.891   2.299   4.601  0.00  0.00    -0.004 A 
ATOM      4  C2  UNL d   1      -5.183   1.843   4.452  0.00  0.00    -0.047 A 
ATOM      5  C3  UNL d   1      -6.000   2.587   5.336  0.00  0.00    -0.047 A 
ATOM      6  C4  UNL d   1      -5.182   3.477   6.000  0.00  0.00    -0.004 A 
ENDROOT
TORSDOF 0
ENDMDL
