MODEL 1
REMARK minimizedAffinity 1.64544439
REMARK minimizedRMSD -1
REMARK  0 active torsions:
REMARK  status: ('A' for Active; 'I' for Inactive)
ROOT
ATOM      1  C   UNL d   1       2.673  -4.670   1.053  0.00  0.00     0.172 C 
ATOM      2  N   UNL d   1       1.901  -3.452   1.127  0.00  0.00    -0.070 N 
ATOM      3  C1  UNL d   1       1.759  -2.535   0.119  0.00  0.00    -0.004 A 
ATOM      4  C2  UNL d   1       0.949  -1.521   0.583  0.00  0.00    -0.047 A 
ATOM      5  C3  UNL d   1       0.595  -1.838   1.916  0.00  0.00    -0.047 A 
ATOM      6  C4  UNL d   1       1.197  -3.039   2.227  0.00  0.00    -0.004 A 
ENDROOT
TORSDOF 0
ENDMDL
