MODEL 1
REMARK minimizedAffinity -2.26590848
REMARK minimizedRMSD -1
REMARK  0 active torsions:
REMARK  status: ('A' for Active; 'I' for Inactive)
ROOT
ATOM      1  C   UNL d   1       3.124  -3.809   0.444  0.00  0.00     0.172 C 
ATOM      2  N   UNL d   1       1.934  -3.155   0.935  0.00  0.00    -0.070 N 
ATOM      3  C1  UNL d   1       1.217  -2.197   0.268  0.00  0.00    -0.004 A 
ATOM      4  C2  UNL d   1       0.158  -1.829   1.069  0.00  0.00    -0.047 A 
ATOM      5  C3  UNL d   1       0.242  -2.590   2.259  0.00  0.00    -0.047 A 
ATOM      6  C4  UNL d   1       1.351  -3.403   2.149  0.00  0.00    -0.004 A 
ENDROOT
TORSDOF 0
ENDMDL
