MODEL 1
REMARK minimizedAffinity -2.01068878
REMARK minimizedRMSD -1
REMARK  0 active torsions:
REMARK  status: ('A' for Active; 'I' for Inactive)
ROOT
ATOM      1  C   UNL d   1      -4.819   0.595  -5.503  0.00  0.00     0.172 C 
ATOM      2  N   UNL d   1      -4.139  -0.623  -5.130  0.00  0.00    -0.070 N 
ATOM      3  C1  UNL d   1      -4.188  -1.807  -5.816  0.00  0.00    -0.004 A 
ATOM      4  C2  UNL d   1      -3.409  -2.720  -5.139  0.00  0.00    -0.047 A 
ATOM      5  C3  UNL d   1      -2.875  -2.062  -4.005  0.00  0.00    -0.047 A 
ATOM      6  C4  UNL d   1      -3.343  -0.765  -4.024  0.00  0.00    -0.004 A 
ENDROOT
TORSDOF 0
ENDMDL
