MODEL 1
REMARK minimizedAffinity -0.601071835
REMARK minimizedRMSD -1
REMARK  0 active torsions:
REMARK  status: ('A' for Active; 'I' for Inactive)
ROOT
ATOM      1  C   UNL d   1       3.700  -4.503  -0.581  0.00  0.00     0.172 C 
ATOM      2  N   UNL d   1       2.726  -3.734   0.157  0.00  0.00    -0.070 N 
ATOM      3  C1  UNL d   1       2.227  -2.513  -0.212  0.00  0.00    -0.004 A 
ATOM      4  C2  UNL d   1       1.327  -2.116   0.754  0.00  0.00    -0.047 A 
ATOM      5  C3  UNL d   1       1.284  -3.133   1.737  0.00  0.00    -0.047 A 
ATOM      6  C4  UNL d   1       2.160  -4.122   1.343  0.00  0.00    -0.004 A 
ENDROOT
TORSDOF 0
ENDMDL
