MODEL 1
REMARK minimizedAffinity -0.92846483
REMARK minimizedRMSD -1
REMARK  0 active torsions:
REMARK  status: ('A' for Active; 'I' for Inactive)
ROOT
ATOM      1  C   UNL d   1      -3.427   4.934   5.997  0.00  0.00     0.172 C 
ATOM      2  N   UNL d   1      -4.140   3.786   5.490  0.00  0.00    -0.070 N 
ATOM      3  C1  UNL d   1      -3.749   3.005   4.435  0.00  0.00    -0.004 A 
ATOM      4  C2  UNL d   1      -4.695   2.016   4.268  0.00  0.00    -0.047 A 
ATOM      5  C3  UNL d   1      -5.689   2.210   5.256  0.00  0.00    -0.047 A 
ATOM      6  C4  UNL d   1      -5.321   3.312   5.998  0.00  0.00    -0.004 A 
ENDROOT
TORSDOF 0
ENDMDL
