MODEL 1
REMARK minimizedAffinity 0.786855161
REMARK minimizedRMSD -1
REMARK  0 active torsions:
REMARK  status: ('A' for Active; 'I' for Inactive)
ROOT
ATOM      1  C   UNL d   1       1.941  -4.349   0.394  0.00  0.00     0.172 C 
ATOM      2  N   UNL d   1       1.375  -3.038   0.610  0.00  0.00    -0.070 N 
ATOM      3  C1  UNL d   1       0.514  -2.697   1.619  0.00  0.00    -0.004 A 
ATOM      4  C2  UNL d   1       0.207  -1.361   1.479  0.00  0.00    -0.047 A 
ATOM      5  C3  UNL d   1       0.906  -0.883   0.345  0.00  0.00    -0.047 A 
ATOM      6  C4  UNL d   1       1.621  -1.942  -0.173  0.00  0.00    -0.004 A 
ENDROOT
TORSDOF 0
ENDMDL
