MODEL 1
REMARK minimizedAffinity -2.42249608
REMARK minimizedRMSD -1
REMARK  0 active torsions:
REMARK  status: ('A' for Active; 'I' for Inactive)
ROOT
ATOM      1  C   UNL d   1       2.194  -4.100   0.723  0.00  0.00     0.172 C 
ATOM      2  N   UNL d   1       1.356  -2.961   1.016  0.00  0.00    -0.070 N 
ATOM      3  C1  UNL d   1       0.697  -2.737   2.195  0.00  0.00    -0.004 A 
ATOM      4  C2  UNL d   1       0.010  -1.548   2.075  0.00  0.00    -0.047 A 
ATOM      5  C3  UNL d   1       0.265  -1.041   0.778  0.00  0.00    -0.047 A 
ATOM      6  C4  UNL d   1       1.101  -1.936   0.144  0.00  0.00    -0.004 A 
ENDROOT
TORSDOF 0
ENDMDL
