MODEL 1
REMARK minimizedAffinity -3.18491435
REMARK minimizedRMSD -1
REMARK  0 active torsions:
REMARK  status: ('A' for Active; 'I' for Inactive)
ROOT
ATOM      1  C4' PXY d   1       3.924  -1.491   0.812  0.00  0.00     0.077 C 
ATOM      2  C1' PXY d   1      -1.581  -0.404  -0.580  0.00  0.00     0.077 C 
ATOM      3  C1  PXY d   1      -0.138  -0.700  -0.222  0.00  0.00    -0.082 A 
ATOM      4  C2  PXY d   1       0.388  -0.166   0.868  0.00  0.00     0.003 A 
ATOM      5  C3  PXY d   1       1.701  -0.397   1.190  0.00  0.00     0.003 A 
ATOM      6  C4  PXY d   1       2.468  -1.227   0.416  0.00  0.00    -0.082 A 
ATOM      7  C5  PXY d   1       1.935  -1.785  -0.692  0.00  0.00     0.003 A 
ATOM      8  C6  PXY d   1       0.613  -1.504  -1.023  0.00  0.00     0.003 A 
ENDROOT
TORSDOF 0
ENDMDL
