MODEL 1
REMARK minimizedAffinity -4.68015718
REMARK minimizedRMSD -1
REMARK  0 active torsions:
REMARK  status: ('A' for Active; 'I' for Inactive)
ROOT
ATOM      1  C4' PXY d   1      -1.100   0.565  -0.335  0.00  0.00     0.077 C 
ATOM      2  C1' PXY d   1       4.348  -0.775   1.055  0.00  0.00     0.077 C 
ATOM      3  C1  PXY d   1       2.918  -0.435   0.685  0.00  0.00    -0.082 A 
ATOM      4  C2  PXY d   1       2.561   0.831   0.548  0.00  0.00     0.003 A 
ATOM      5  C3  PXY d   1       1.264   1.157   0.245  0.00  0.00     0.003 A 
ATOM      6  C4  PXY d   1       0.335   0.175   0.028  0.00  0.00    -0.082 A 
ATOM      7  C5  PXY d   1       0.694  -1.120   0.156  0.00  0.00     0.003 A 
ATOM      8  C6  PXY d   1       2.006  -1.429   0.504  0.00  0.00     0.003 A 
ENDROOT
TORSDOF 0
ENDMDL
