MODEL 1
REMARK minimizedAffinity -5.49451351
REMARK minimizedRMSD -1
REMARK  0 active torsions:
REMARK  status: ('A' for Active; 'I' for Inactive)
ROOT
ATOM      1  C4' PXY d   1      -0.305  -2.278  -0.760  0.00  0.00     0.077 C 
ATOM      2  C1' PXY d   1       2.582   2.524   0.663  0.00  0.00     0.077 C 
ATOM      3  C1  PXY d   1       1.836   1.259   0.285  0.00  0.00    -0.082 A 
ATOM      4  C2  PXY d   1       0.531   1.308   0.073  0.00  0.00     0.003 A 
ATOM      5  C3  PXY d   1      -0.165   0.169  -0.238  0.00  0.00     0.003 A 
ATOM      6  C4  PXY d   1       0.491  -1.024  -0.386  0.00  0.00    -0.082 A 
ATOM      7  C5  PXY d   1       1.824  -1.081  -0.182  0.00  0.00     0.003 A 
ATOM      8  C6  PXY d   1       2.505   0.080   0.173  0.00  0.00     0.003 A 
ENDROOT
TORSDOF 0
ENDMDL
