MODEL 1
REMARK minimizedAffinity 0.966530383
REMARK minimizedRMSD -1
REMARK  0 active torsions:
REMARK  status: ('A' for Active; 'I' for Inactive)
ROOT
ATOM      1  C4' PXY d   1       1.141   2.242   0.018  0.00  0.00     0.077 C 
ATOM      2  C1' PXY d   1       0.074  -3.367  -0.887  0.00  0.00     0.077 C 
ATOM      3  C1  PXY d   1       0.366  -1.899  -0.646  0.00  0.00    -0.082 A 
ATOM      4  C2  PXY d   1      -0.629  -1.070  -0.374  0.00  0.00     0.003 A 
ATOM      5  C3  PXY d   1      -0.386   0.266  -0.185  0.00  0.00     0.003 A 
ATOM      6  C4  PXY d   1       0.894   0.750  -0.223  0.00  0.00    -0.082 A 
ATOM      7  C5  PXY d   1       1.916  -0.091  -0.489  0.00  0.00     0.003 A 
ATOM      8  C6  PXY d   1       1.644  -1.437  -0.719  0.00  0.00     0.003 A 
ENDROOT
TORSDOF 0
ENDMDL
