MODEL 1
REMARK minimizedAffinity -4.56677246
REMARK minimizedRMSD -1
REMARK  0 active torsions:
REMARK  status: ('A' for Active; 'I' for Inactive)
ROOT
ATOM      1  C4' PXY d   1       2.567   2.248   0.394  0.00  0.00     0.077 C 
ATOM      2  C1' PXY d   1      -0.382  -2.470  -1.174  0.00  0.00     0.077 C 
ATOM      3  C1  PXY d   1       0.398  -1.240  -0.754  0.00  0.00    -0.082 A 
ATOM      4  C2  PXY d   1      -0.124  -0.039  -0.942  0.00  0.00     0.003 A 
ATOM      5  C3  PXY d   1       0.581   1.086  -0.597  0.00  0.00     0.003 A 
ATOM      6  C4  PXY d   1       1.812   0.977  -0.006  0.00  0.00    -0.082 A 
ATOM      7  C5  PXY d   1       2.346  -0.245   0.199  0.00  0.00     0.003 A 
ATOM      8  C6  PXY d   1       1.632  -1.372  -0.196  0.00  0.00     0.003 A 
ENDROOT
TORSDOF 0
ENDMDL
