MODEL 1
REMARK minimizedAffinity -4.23037434
REMARK minimizedRMSD -1
REMARK  0 active torsions:
REMARK  status: ('A' for Active; 'I' for Inactive)
ROOT
ATOM      1  C4' PXY d   1      -2.866   1.082   0.154  0.00  0.00     0.077 C 
ATOM      2  C1' PXY d   1       2.227  -1.631  -0.199  0.00  0.00     0.077 C 
ATOM      3  C1  PXY d   1       0.892  -0.916  -0.119  0.00  0.00    -0.082 A 
ATOM      4  C2  PXY d   1       0.442  -0.500   1.054  0.00  0.00     0.003 A 
ATOM      5  C3  PXY d   1      -0.777   0.120   1.148  0.00  0.00     0.003 A 
ATOM      6  C4  PXY d   1      -1.519   0.364   0.024  0.00  0.00    -0.082 A 
ATOM      7  C5  PXY d   1      -1.062  -0.048  -1.177  0.00  0.00     0.003 A 
ATOM      8  C6  PXY d   1       0.159  -0.712  -1.247  0.00  0.00     0.003 A 
ENDROOT
TORSDOF 0
ENDMDL
