MODEL 1
REMARK minimizedAffinity 1.85636127
REMARK minimizedRMSD -1
REMARK  0 active torsions:
REMARK  status: ('A' for Active; 'I' for Inactive)
ROOT
ATOM      1  C1  BNZ d   1      -0.790   3.328   0.007  0.00  0.00     0.000 A 
ATOM      2  C2  BNZ d   1      -0.495   4.279  -0.933  0.00  0.00     0.000 A 
ATOM      3  C3  BNZ d   1       0.778   4.421  -1.410  0.00  0.00     0.000 A 
ATOM      4  C4  BNZ d   1       1.761   3.640  -0.918  0.00  0.00     0.000 A 
ATOM      5  C5  BNZ d   1       1.482   2.683   0.038  0.00  0.00     0.000 A 
ATOM      6  C6  BNZ d   1       0.192   2.517   0.487  0.00  0.00     0.000 A 
ENDROOT
TORSDOF 0
ENDMDL
