MODEL 1
REMARK minimizedAffinity 2.19202566
REMARK minimizedRMSD -1
REMARK  0 active torsions:
REMARK  status: ('A' for Active; 'I' for Inactive)
ROOT
ATOM      1  C1  BNZ d   1       0.680   1.626   1.598  0.00  0.00     0.000 A 
ATOM      2  C2  BNZ d   1       1.172   1.896   0.350  0.00  0.00     0.000 A 
ATOM      3  C3  BNZ d   1       0.568   2.820  -0.456  0.00  0.00     0.000 A 
ATOM      4  C4  BNZ d   1      -0.549   3.443  -0.029  0.00  0.00     0.000 A 
ATOM      5  C5  BNZ d   1      -1.064   3.174   1.223  0.00  0.00     0.000 A 
ATOM      6  C6  BNZ d   1      -0.431   2.272   2.047  0.00  0.00     0.000 A 
ENDROOT
TORSDOF 0
ENDMDL
