MODEL 1
REMARK minimizedAffinity 1.19536543
REMARK minimizedRMSD -1
REMARK  0 active torsions:
REMARK  status: ('A' for Active; 'I' for Inactive)
ROOT
ATOM      1  C1  BNZ d   1      -3.332  -4.754  -5.330  0.00  0.00     0.000 A 
ATOM      2  C2  BNZ d   1      -4.031  -3.598  -5.554  0.00  0.00     0.000 A 
ATOM      3  C3  BNZ d   1      -5.363  -3.633  -5.858  0.00  0.00     0.000 A 
ATOM      4  C4  BNZ d   1      -5.985  -4.824  -5.976  0.00  0.00     0.000 A 
ATOM      5  C5  BNZ d   1      -5.292  -5.999  -5.763  0.00  0.00     0.000 A 
ATOM      6  C6  BNZ d   1      -3.960  -5.958  -5.419  0.00  0.00     0.000 A 
ENDROOT
TORSDOF 0
ENDMDL
