MODEL 1
REMARK minimizedAffinity 1.73522496
REMARK minimizedRMSD -1
REMARK  0 active torsions:
REMARK  status: ('A' for Active; 'I' for Inactive)
ROOT
ATOM      1  C1  BNZ d   1       1.114   2.028   0.989  0.00  0.00     0.000 A 
ATOM      2  C2  BNZ d   1       0.575   2.733  -0.053  0.00  0.00     0.000 A 
ATOM      3  C3  BNZ d   1      -0.707   3.202   0.009  0.00  0.00     0.000 A 
ATOM      4  C4  BNZ d   1      -1.461   2.932   1.094  0.00  0.00     0.000 A 
ATOM      5  C5  BNZ d   1      -0.934   2.214   2.149  0.00  0.00     0.000 A 
ATOM      6  C6  BNZ d   1       0.369   1.777   2.100  0.00  0.00     0.000 A 
ENDROOT
TORSDOF 0
ENDMDL
