MODEL 1
REMARK minimizedAffinity 0.805982769
REMARK minimizedRMSD -1
REMARK  0 active torsions:
REMARK  status: ('A' for Active; 'I' for Inactive)
ROOT
ATOM      1  C1  BNZ d   1      -0.542   2.640  -0.348  0.00  0.00     0.000 A 
ATOM      2  C2  BNZ d   1      -1.870   2.890  -0.127  0.00  0.00     0.000 A 
ATOM      3  C3  BNZ d   1      -2.361   2.989   1.145  0.00  0.00     0.000 A 
ATOM      4  C4  BNZ d   1      -1.532   2.800   2.192  0.00  0.00     0.000 A 
ATOM      5  C5  BNZ d   1      -0.193   2.538   1.985  0.00  0.00     0.000 A 
ATOM      6  C6  BNZ d   1       0.305   2.476   0.704  0.00  0.00     0.000 A 
ENDROOT
TORSDOF 0
ENDMDL
