MODEL 1
REMARK minimizedAffinity 2.75842905
REMARK minimizedRMSD -1
REMARK  0 active torsions:
REMARK  status: ('A' for Active; 'I' for Inactive)
ROOT
ATOM      1  C1  BNZ d   1      -4.508   5.660  -0.866  0.00  0.00     0.000 A 
ATOM      2  C2  BNZ d   1      -4.618   5.937   0.470  0.00  0.00     0.000 A 
ATOM      3  C3  BNZ d   1      -3.511   5.981   1.270  0.00  0.00     0.000 A 
ATOM      4  C4  BNZ d   1      -2.300   5.709   0.741  0.00  0.00     0.000 A 
ATOM      5  C5  BNZ d   1      -2.173   5.419  -0.603  0.00  0.00     0.000 A 
ATOM      6  C6  BNZ d   1      -3.286   5.414  -1.412  0.00  0.00     0.000 A 
ENDROOT
TORSDOF 0
ENDMDL
