MODEL 1
REMARK minimizedAffinity 8.4592247
REMARK minimizedRMSD -1
REMARK  0 active torsions:
REMARK  status: ('A' for Active; 'I' for Inactive)
ROOT
ATOM      1  C1  BNZ d   1       2.959  -4.392  -2.774  0.00  0.00     0.000 A 
ATOM      2  C2  BNZ d   1       2.702  -4.640  -1.452  0.00  0.00     0.000 A 
ATOM      3  C3  BNZ d   1       1.428  -4.882  -1.021  0.00  0.00     0.000 A 
ATOM      4  C4  BNZ d   1       0.409  -4.836  -1.904  0.00  0.00     0.000 A 
ATOM      5  C5  BNZ d   1       0.651  -4.578  -3.238  0.00  0.00     0.000 A 
ATOM      6  C6  BNZ d   1       1.940  -4.374  -3.675  0.00  0.00     0.000 A 
ENDROOT
TORSDOF 0
ENDMDL
