MODEL 1
REMARK minimizedAffinity 2.46774435
REMARK minimizedRMSD -1
REMARK  0 active torsions:
REMARK  status: ('A' for Active; 'I' for Inactive)
ROOT
ATOM      1  C1  BNZ d   1      -2.890  -3.610  -5.420  0.00  0.00     0.000 A 
ATOM      2  C2  BNZ d   1      -4.148  -3.692  -5.955  0.00  0.00     0.000 A 
ATOM      3  C3  BNZ d   1      -4.816  -4.884  -5.994  0.00  0.00     0.000 A 
ATOM      4  C4  BNZ d   1      -4.210  -5.999  -5.536  0.00  0.00     0.000 A 
ATOM      5  C5  BNZ d   1      -2.939  -5.934  -5.003  0.00  0.00     0.000 A 
ATOM      6  C6  BNZ d   1      -2.285  -4.726  -4.929  0.00  0.00     0.000 A 
ENDROOT
TORSDOF 0
ENDMDL
