MODEL 1
REMARK minimizedAffinity 3.75418854
REMARK minimizedRMSD -1
REMARK  0 active torsions:
REMARK  status: ('A' for Active; 'I' for Inactive)
ROOT
ATOM      1  C1  BNZ d   1      -1.092   3.861  -0.101  0.00  0.00     0.000 A 
ATOM      2  C2  BNZ d   1      -1.115   2.493  -0.051  0.00  0.00     0.000 A 
ATOM      3  C3  BNZ d   1       0.044   1.770  -0.111  0.00  0.00     0.000 A 
ATOM      4  C4  BNZ d   1       1.220   2.414  -0.261  0.00  0.00     0.000 A 
ATOM      5  C5  BNZ d   1       1.259   3.793  -0.321  0.00  0.00     0.000 A 
ATOM      6  C6  BNZ d   1       0.094   4.518  -0.221  0.00  0.00     0.000 A 
ENDROOT
TORSDOF 0
ENDMDL
