MODEL 1
REMARK minimizedAffinity -3.02724767
REMARK minimizedRMSD -1
REMARK  2 active torsions:
REMARK  status: ('A' for Active; 'I' for Inactive)
REMARK    1  A    between atoms: C1_2  and  C2_3 
REMARK    2  A    between atoms: C2_3  and  C3_4 
ROOT
ATOM      1  C3  UNL d   1       0.975  -0.251   0.566  0.00  0.00    -0.075 A 
ATOM      2  C4  UNL d   1       0.882  -1.622   0.286  0.00  0.00     0.002 A 
ATOM      3  C5  UNL d   1      -0.327  -2.299   0.452  0.00  0.00     0.002 A 
ATOM      4  C6  UNL d   1      -1.453  -1.618   0.909  0.00  0.00    -0.004 A 
ATOM      5  C7  UNL d   1      -1.368  -0.260   1.206  0.00  0.00     0.002 A 
ATOM      6  C8  UNL d   1      -0.161   0.421   1.037  0.00  0.00     0.002 A 
ENDROOT
BRANCH   1   7
ATOM      7  C2  UNL d   1       2.272   0.493   0.360  0.00  0.00     0.056 C 
BRANCH   7   8
ATOM      8  C1  UNL d   1       2.764   0.500  -1.091  0.00  0.00     0.007 C 
ATOM      9  C   UNL d   1       3.572   1.741  -1.445  0.00  0.00     0.009 C 
ENDBRANCH   7   8
ENDBRANCH   1   7
TORSDOF 2
ENDMDL
