MODEL 1
REMARK minimizedAffinity -1.5451839
REMARK minimizedRMSD -1
REMARK  2 active torsions:
REMARK  status: ('A' for Active; 'I' for Inactive)
REMARK    1  A    between atoms: C1_2  and  C2_3 
REMARK    2  A    between atoms: C2_3  and  C3_4 
ROOT
ATOM      1  C3  UNL d   1       1.603  -3.200   0.054  0.00  0.00    -0.075 A 
ATOM      2  C4  UNL d   1       0.216  -3.009   0.145  0.00  0.00     0.002 A 
ATOM      3  C5  UNL d   1      -0.305  -1.768   0.512  0.00  0.00     0.002 A 
ATOM      4  C6  UNL d   1       0.550  -0.708   0.803  0.00  0.00    -0.004 A 
ATOM      5  C7  UNL d   1       1.930  -0.891   0.732  0.00  0.00     0.002 A 
ATOM      6  C8  UNL d   1       2.454  -2.130   0.360  0.00  0.00     0.002 A 
ENDROOT
BRANCH   1   7
ATOM      7  C2  UNL d   1       2.173  -4.532  -0.371  0.00  0.00     0.056 C 
BRANCH   7   8
ATOM      8  C1  UNL d   1       3.699  -4.620  -0.264  0.00  0.00     0.007 C 
ATOM      9  C   UNL d   1       4.192  -6.000   0.151  0.00  0.00     0.009 C 
ENDBRANCH   7   8
ENDBRANCH   1   7
TORSDOF 2
ENDMDL
