MODEL 1
REMARK minimizedAffinity 9.98796272
REMARK minimizedRMSD -1
REMARK  2 active torsions:
REMARK  status: ('A' for Active; 'I' for Inactive)
REMARK    1  A    between atoms: C1_2  and  C2_3 
REMARK    2  A    between atoms: C2_3  and  C3_4 
ROOT
ATOM      1  C3  UNL d   1       2.821  -3.690  -0.419  0.00  0.00    -0.075 A 
ATOM      2  C4  UNL d   1       2.848  -2.332  -0.070  0.00  0.00     0.002 A 
ATOM      3  C5  UNL d   1       1.671  -1.664   0.268  0.00  0.00     0.002 A 
ATOM      4  C6  UNL d   1       0.453  -2.340   0.252  0.00  0.00    -0.004 A 
ATOM      5  C7  UNL d   1       0.412  -3.685  -0.109  0.00  0.00     0.002 A 
ATOM      6  C8  UNL d   1       1.589  -4.357  -0.443  0.00  0.00     0.002 A 
ENDROOT
BRANCH   1   7
ATOM      7  C2  UNL d   1       4.095  -4.427  -0.757  0.00  0.00     0.056 C 
BRANCH   7   8
ATOM      8  C1  UNL d   1       4.288  -5.730   0.026  0.00  0.00     0.007 C 
ATOM      9  C   UNL d   1       5.740  -5.993   0.404  0.00  0.00     0.009 C 
ENDBRANCH   7   8
ENDBRANCH   1   7
TORSDOF 2
ENDMDL
