MODEL 1
REMARK minimizedAffinity 2.76215959
REMARK minimizedRMSD -1
REMARK  2 active torsions:
REMARK  status: ('A' for Active; 'I' for Inactive)
REMARK    1  A    between atoms: C1_2  and  C2_3 
REMARK    2  A    between atoms: C2_3  and  C3_4 
ROOT
ATOM      1  C3  UNL d   1       1.224  -2.615  -0.174  0.00  0.00    -0.075 A 
ATOM      2  C4  UNL d   1       2.011  -1.468   0.001  0.00  0.00     0.002 A 
ATOM      3  C5  UNL d   1       1.476  -0.327   0.601  0.00  0.00     0.002 A 
ATOM      4  C6  UNL d   1       0.149  -0.316   1.022  0.00  0.00    -0.004 A 
ATOM      5  C7  UNL d   1      -0.647  -1.444   0.838  0.00  0.00     0.002 A 
ATOM      6  C8  UNL d   1      -0.113  -2.589   0.242  0.00  0.00     0.002 A 
ENDROOT
BRANCH   1   7
ATOM      7  C2  UNL d   1       1.806  -3.863  -0.796  0.00  0.00     0.056 C 
BRANCH   7   8
ATOM      8  C1  UNL d   1       3.329  -3.969  -0.674  0.00  0.00     0.007 C 
ATOM      9  C   UNL d   1       3.819  -5.399  -0.493  0.00  0.00     0.009 C 
ENDBRANCH   7   8
ENDBRANCH   1   7
TORSDOF 2
ENDMDL
