MODEL 1
REMARK minimizedAffinity 0.902622521
REMARK minimizedRMSD -1
REMARK  2 active torsions:
REMARK  status: ('A' for Active; 'I' for Inactive)
REMARK    1  A    between atoms: C1_2  and  C2_3 
REMARK    2  A    between atoms: C2_3  and  C3_4 
ROOT
ATOM      1  C3  UNL d   1      -0.516  -0.785   1.006  0.00  0.00    -0.075 A 
ATOM      2  C4  UNL d   1      -0.233  -1.594  -0.104  0.00  0.00     0.002 A 
ATOM      3  C5  UNL d   1       1.061  -1.658  -0.622  0.00  0.00     0.002 A 
ATOM      4  C6  UNL d   1       2.084  -0.909  -0.045  0.00  0.00    -0.004 A 
ATOM      5  C7  UNL d   1       1.810  -0.089   1.048  0.00  0.00     0.002 A 
ATOM      6  C8  UNL d   1       0.518  -0.026   1.571  0.00  0.00     0.002 A 
ENDROOT
BRANCH   1   7
ATOM      7  C2  UNL d   1      -1.908  -0.734   1.589  0.00  0.00     0.056 C 
BRANCH   7   8
ATOM      8  C1  UNL d   1      -2.425   0.686   1.845  0.00  0.00     0.007 C 
ATOM      9  C   UNL d   1      -3.565   1.086   0.918  0.00  0.00     0.009 C 
ENDBRANCH   7   8
ENDBRANCH   1   7
TORSDOF 2
ENDMDL
