MODEL 1
REMARK minimizedAffinity -2.00262284
REMARK minimizedRMSD -1
REMARK  2 active torsions:
REMARK  status: ('A' for Active; 'I' for Inactive)
REMARK    1  A    between atoms: C1_2  and  C2_3 
REMARK    2  A    between atoms: C2_3  and  C3_4 
ROOT
ATOM      1  C3  UNL d   1       2.246  -3.273  -0.254  0.00  0.00    -0.075 A 
ATOM      2  C4  UNL d   1       0.864  -3.467  -0.115  0.00  0.00     0.002 A 
ATOM      3  C5  UNL d   1       0.021  -2.389   0.155  0.00  0.00     0.002 A 
ATOM      4  C6  UNL d   1       0.548  -1.108   0.300  0.00  0.00    -0.004 A 
ATOM      5  C7  UNL d   1       1.922  -0.906   0.181  0.00  0.00     0.002 A 
ATOM      6  C8  UNL d   1       2.767  -1.982  -0.095  0.00  0.00     0.002 A 
ENDROOT
BRANCH   1   7
ATOM      7  C2  UNL d   1       3.161  -4.431  -0.576  0.00  0.00     0.056 C 
BRANCH   7   8
ATOM      8  C1  UNL d   1       4.644  -4.143  -0.323  0.00  0.00     0.007 C 
ATOM      9  C   UNL d   1       5.387  -5.320   0.294  0.00  0.00     0.009 C 
ENDBRANCH   7   8
ENDBRANCH   1   7
TORSDOF 2
ENDMDL
