MODEL 1
REMARK minimizedAffinity -1.25231099
REMARK minimizedRMSD -1
REMARK  2 active torsions:
REMARK  status: ('A' for Active; 'I' for Inactive)
REMARK    1  A    between atoms: C1_2  and  C2_3 
REMARK    2  A    between atoms: C2_3  and  C3_4 
ROOT
ATOM      1  C3  UNL d   1       4.492   2.396  -3.198  0.00  0.00    -0.075 A 
ATOM      2  C4  UNL d   1       3.527   3.134  -3.899  0.00  0.00     0.002 A 
ATOM      3  C5  UNL d   1       2.400   2.505  -4.429  0.00  0.00     0.002 A 
ATOM      4  C6  UNL d   1       2.229   1.131  -4.275  0.00  0.00    -0.004 A 
ATOM      5  C7  UNL d   1       3.189   0.385  -3.595  0.00  0.00     0.002 A 
ATOM      6  C8  UNL d   1       4.315   1.013  -3.059  0.00  0.00     0.002 A 
ENDROOT
BRANCH   1   7
ATOM      7  C2  UNL d   1       5.698   3.076  -2.596  0.00  0.00     0.056 C 
BRANCH   7   8
ATOM      8  C1  UNL d   1       5.356   4.237  -1.657  0.00  0.00     0.007 C 
ATOM      9  C   UNL d   1       4.100   3.991  -0.831  0.00  0.00     0.009 C 
ENDBRANCH   7   8
ENDBRANCH   1   7
TORSDOF 2
ENDMDL
