MODEL 1
REMARK minimizedAffinity -2.36809397
REMARK minimizedRMSD -1
REMARK  2 active torsions:
REMARK  status: ('A' for Active; 'I' for Inactive)
REMARK    1  A    between atoms: C1_2  and  C2_3 
REMARK    2  A    between atoms: C2_3  and  C3_4 
ROOT
ATOM      1  C3  UNL d   1       0.241  -1.525   0.319  0.00  0.00    -0.075 A 
ATOM      2  C4  UNL d   1       1.231  -0.550   0.507  0.00  0.00     0.002 A 
ATOM      3  C5  UNL d   1       2.575  -0.854   0.291  0.00  0.00     0.002 A 
ATOM      4  C6  UNL d   1       2.947  -2.137  -0.105  0.00  0.00    -0.004 A 
ATOM      5  C7  UNL d   1       1.974  -3.118  -0.279  0.00  0.00     0.002 A 
ATOM      6  C8  UNL d   1       0.627  -2.816  -0.068  0.00  0.00     0.002 A 
ENDROOT
BRANCH   1   7
ATOM      7  C2  UNL d   1      -1.219  -1.195   0.522  0.00  0.00     0.056 C 
BRANCH   7   8
ATOM      8  C1  UNL d   1      -1.463   0.170   1.175  0.00  0.00     0.007 C 
ATOM      9  C   UNL d   1      -2.895   0.664   1.014  0.00  0.00     0.009 C 
ENDBRANCH   7   8
ENDBRANCH   1   7
TORSDOF 2
ENDMDL
