MODEL 1
REMARK minimizedAffinity 0.501710892
REMARK minimizedRMSD -1
REMARK  2 active torsions:
REMARK  status: ('A' for Active; 'I' for Inactive)
REMARK    1  A    between atoms: C1_2  and  C2_3 
REMARK    2  A    between atoms: C2_3  and  C3_4 
ROOT
ATOM      1  C3  UNL d   1      -1.886  -0.609   1.016  0.00  0.00    -0.075 A 
ATOM      2  C4  UNL d   1      -3.034  -0.492   0.220  0.00  0.00     0.002 A 
ATOM      3  C5  UNL d   1      -3.763   0.698   0.199  0.00  0.00     0.002 A 
ATOM      4  C6  UNL d   1      -3.360   1.779   0.979  0.00  0.00    -0.004 A 
ATOM      5  C7  UNL d   1      -2.229   1.668   1.786  0.00  0.00     0.002 A 
ATOM      6  C8  UNL d   1      -1.496   0.481   1.805  0.00  0.00     0.002 A 
ENDROOT
BRANCH   1   7
ATOM      7  C2  UNL d   1      -1.076  -1.883   1.020  0.00  0.00     0.056 C 
BRANCH   7   8
ATOM      8  C1  UNL d   1       0.273  -1.768   0.302  0.00  0.00     0.007 C 
ATOM      9  C   UNL d   1       0.785  -3.099  -0.232  0.00  0.00     0.009 C 
ENDBRANCH   7   8
ENDBRANCH   1   7
TORSDOF 2
ENDMDL
