MODEL 1
REMARK minimizedAffinity 3.45510101
REMARK minimizedRMSD -1
REMARK  2 active torsions:
REMARK  status: ('A' for Active; 'I' for Inactive)
REMARK    1  A    between atoms: C1_2  and  C2_3 
REMARK    2  A    between atoms: C2_3  and  C3_4 
ROOT
ATOM      1  C3  UNL d   1       1.659   4.134  -4.305  0.00  0.00    -0.075 A 
ATOM      2  C4  UNL d   1       1.426   5.050  -5.341  0.00  0.00     0.002 A 
ATOM      3  C5  UNL d   1       0.390   5.981  -5.243  0.00  0.00     0.002 A 
ATOM      4  C6  UNL d   1      -0.429   6.000  -4.117  0.00  0.00    -0.004 A 
ATOM      5  C7  UNL d   1      -0.217   5.083  -3.090  0.00  0.00     0.002 A 
ATOM      6  C8  UNL d   1       0.821   4.154  -3.182  0.00  0.00     0.002 A 
ENDROOT
BRANCH   1   7
ATOM      7  C2  UNL d   1       2.796   3.144  -4.391  0.00  0.00     0.056 C 
BRANCH   7   8
ATOM      8  C1  UNL d   1       3.359   2.721  -3.030  0.00  0.00     0.007 C 
ATOM      9  C   UNL d   1       4.467   3.637  -2.528  0.00  0.00     0.009 C 
ENDBRANCH   7   8
ENDBRANCH   1   7
TORSDOF 2
ENDMDL
