MODEL 1
REMARK minimizedAffinity -0.38323313
REMARK minimizedRMSD -1
REMARK  2 active torsions:
REMARK  status: ('A' for Active; 'I' for Inactive)
REMARK    1  A    between atoms: C1_2  and  C2_3 
REMARK    2  A    between atoms: C2_3  and  C3_4 
ROOT
ATOM      1  C3  UNL d   1       1.049   4.540  -4.590  0.00  0.00    -0.075 A 
ATOM      2  C4  UNL d   1       0.445   4.542  -3.324  0.00  0.00     0.002 A 
ATOM      3  C5  UNL d   1      -0.734   5.255  -3.102  0.00  0.00     0.002 A 
ATOM      4  C6  UNL d   1      -1.317   5.981  -4.138  0.00  0.00    -0.004 A 
ATOM      5  C7  UNL d   1      -0.717   6.000  -5.395  0.00  0.00     0.002 A 
ATOM      6  C8  UNL d   1       0.460   5.284  -5.621  0.00  0.00     0.002 A 
ENDROOT
BRANCH   1   7
ATOM      7  C2  UNL d   1       2.309   3.747  -4.843  0.00  0.00     0.056 C 
BRANCH   7   8
ATOM      8  C1  UNL d   1       2.931   3.144  -3.580  0.00  0.00     0.007 C 
ATOM      9  C   UNL d   1       3.010   1.624  -3.616  0.00  0.00     0.009 C 
ENDBRANCH   7   8
ENDBRANCH   1   7
TORSDOF 2
ENDMDL
