MODEL 1
REMARK minimizedAffinity -1.38120675
REMARK minimizedRMSD -1
REMARK  2 active torsions:
REMARK  status: ('A' for Active; 'I' for Inactive)
REMARK    1  A    between atoms: C1_2  and  C2_3 
REMARK    2  A    between atoms: C2_3  and  C3_4 
ROOT
ATOM      1  C3  UNL d   1      -0.709  -0.502   1.676  0.00  0.00    -0.075 A 
ATOM      2  C4  UNL d   1      -0.879   0.579   2.553  0.00  0.00     0.002 A 
ATOM      3  C5  UNL d   1      -2.027   1.369   2.490  0.00  0.00     0.002 A 
ATOM      4  C6  UNL d   1      -3.014   1.095   1.545  0.00  0.00    -0.004 A 
ATOM      5  C7  UNL d   1      -2.848   0.034   0.658  0.00  0.00     0.002 A 
ATOM      6  C8  UNL d   1      -1.702  -0.761   0.721  0.00  0.00     0.002 A 
ENDROOT
BRANCH   1   7
ATOM      7  C2  UNL d   1       0.517  -1.379   1.758  0.00  0.00     0.056 C 
BRANCH   7   8
ATOM      8  C1  UNL d   1       0.601  -2.440   0.656  0.00  0.00     0.007 C 
ATOM      9  C   UNL d   1       1.927  -2.425  -0.093  0.00  0.00     0.009 C 
ENDBRANCH   7   8
ENDBRANCH   1   7
TORSDOF 2
ENDMDL
