MODEL 1
REMARK minimizedAffinity 9.93524075
REMARK minimizedRMSD -1
REMARK  0 active torsions:
REMARK  status: ('A' for Active; 'I' for Inactive)
ROOT
ATOM      1  C   UNL d   1       4.810  -4.703  -2.913  0.00  0.00     0.077 C 
ATOM      2  C1  UNL d   1       5.226  -4.324  -1.522  0.00  0.00    -0.074 A 
ATOM      3  C2  UNL d   1       5.623  -3.017  -1.221  0.00  0.00    -0.005 A 
ATOM      4  C3  UNL d   1       5.998  -2.678   0.078  0.00  0.00     0.006 A 
ATOM      5  C4  UNL d   1       5.981  -3.640   1.089  0.00  0.00    -0.005 A 
ATOM      6  C5  UNL d   1       5.586  -4.952   0.807  0.00  0.00    -0.074 A 
ATOM      7  C6  UNL d   1       5.552  -5.996   1.883  0.00  0.00     0.077 C 
ATOM      8  C7  UNL d   1       5.203  -5.283  -0.500  0.00  0.00    -0.001 A 
ENDROOT
TORSDOF 0
ENDMDL
