MODEL 1
REMARK minimizedAffinity -1.79934418
REMARK minimizedRMSD -1
REMARK  0 active torsions:
REMARK  status: ('A' for Active; 'I' for Inactive)
ROOT
ATOM      1  C   UNL d   1      -2.743   2.356   1.176  0.00  0.00     0.077 C 
ATOM      2  C1  UNL d   1      -1.587   1.401   1.117  0.00  0.00    -0.074 A 
ATOM      3  C2  UNL d   1      -1.382   0.458   2.130  0.00  0.00    -0.005 A 
ATOM      4  C3  UNL d   1      -0.309  -0.430   2.057  0.00  0.00     0.006 A 
ATOM      5  C4  UNL d   1       0.569  -0.384   0.973  0.00  0.00    -0.005 A 
ATOM      6  C5  UNL d   1       0.379   0.552  -0.049  0.00  0.00    -0.074 A 
ATOM      7  C6  UNL d   1       1.307   0.608  -1.226  0.00  0.00     0.077 C 
ATOM      8  C7  UNL d   1      -0.706   1.436   0.028  0.00  0.00    -0.001 A 
ENDROOT
TORSDOF 0
ENDMDL
