MODEL 1
REMARK minimizedAffinity -3.64401412
REMARK minimizedRMSD -1
REMARK  0 active torsions:
REMARK  status: ('A' for Active; 'I' for Inactive)
ROOT
ATOM      1  C   UNL d   1       0.946   1.760  -2.008  0.00  0.00     0.077 C 
ATOM      2  C1  UNL d   1       0.308   1.170  -0.786  0.00  0.00    -0.074 A 
ATOM      3  C2  UNL d   1       0.735  -0.060  -0.275  0.00  0.00    -0.005 A 
ATOM      4  C3  UNL d   1       0.139  -0.592   0.868  0.00  0.00     0.006 A 
ATOM      5  C4  UNL d   1      -0.889   0.099   1.511  0.00  0.00    -0.005 A 
ATOM      6  C5  UNL d   1      -1.329   1.330   1.015  0.00  0.00    -0.074 A 
ATOM      7  C6  UNL d   1      -2.426   2.090   1.699  0.00  0.00     0.077 C 
ATOM      8  C7  UNL d   1      -0.720   1.861  -0.130  0.00  0.00    -0.001 A 
ENDROOT
TORSDOF 0
ENDMDL
