MODEL 1
REMARK minimizedAffinity -2.88926816
REMARK minimizedRMSD -1
REMARK  0 active torsions:
REMARK  status: ('A' for Active; 'I' for Inactive)
ROOT
ATOM      1  C   UNL d   1       1.277   1.559  -2.223  0.00  0.00     0.077 C 
ATOM      2  C1  UNL d   1       0.494   1.180  -1.001  0.00  0.00    -0.074 A 
ATOM      3  C2  UNL d   1       0.758  -0.013  -0.320  0.00  0.00    -0.005 A 
ATOM      4  C3  UNL d   1       0.028  -0.347   0.821  0.00  0.00     0.006 A 
ATOM      5  C4  UNL d   1      -0.970   0.507   1.292  0.00  0.00    -0.005 A 
ATOM      6  C5  UNL d   1      -1.247   1.704   0.625  0.00  0.00    -0.074 A 
ATOM      7  C6  UNL d   1      -2.310   2.637   1.123  0.00  0.00     0.077 C 
ATOM      8  C7  UNL d   1      -0.505   2.036  -0.517  0.00  0.00    -0.001 A 
ENDROOT
TORSDOF 0
ENDMDL
