MODEL 1
REMARK minimizedAffinity -3.34429646
REMARK minimizedRMSD -1
REMARK  0 active torsions:
REMARK  status: ('A' for Active; 'I' for Inactive)
ROOT
ATOM      1  C   UNL d   1       0.671   2.366  -1.491  0.00  0.00     0.077 C 
ATOM      2  C1  UNL d   1       0.343   1.141  -0.690  0.00  0.00    -0.074 A 
ATOM      3  C2  UNL d   1      -0.171   1.246   0.606  0.00  0.00    -0.005 A 
ATOM      4  C3  UNL d   1      -0.480   0.099   1.336  0.00  0.00     0.006 A 
ATOM      5  C4  UNL d   1      -0.278  -1.164   0.778  0.00  0.00    -0.005 A 
ATOM      6  C5  UNL d   1       0.235  -1.289  -0.517  0.00  0.00    -0.074 A 
ATOM      7  C6  UNL d   1       0.449  -2.639  -1.135  0.00  0.00     0.077 C 
ATOM      8  C7  UNL d   1       0.536  -0.131  -1.246  0.00  0.00    -0.001 A 
ENDROOT
TORSDOF 0
ENDMDL
