MODEL 1
REMARK minimizedAffinity -4.86273909
REMARK minimizedRMSD -1
REMARK  0 active torsions:
REMARK  status: ('A' for Active; 'I' for Inactive)
ROOT
ATOM      1  C   UNL d   1      -2.044   2.556   0.548  0.00  0.00     0.077 C 
ATOM      2  C1  UNL d   1      -1.036   1.455   0.398  0.00  0.00    -0.074 A 
ATOM      3  C2  UNL d   1      -0.682   0.651   1.487  0.00  0.00    -0.005 A 
ATOM      4  C3  UNL d   1       0.249  -0.375   1.330  0.00  0.00     0.006 A 
ATOM      5  C4  UNL d   1       0.835  -0.607   0.085  0.00  0.00    -0.005 A 
ATOM      6  C5  UNL d   1       0.493   0.185  -1.015  0.00  0.00    -0.074 A 
ATOM      7  C6  UNL d   1       1.107  -0.057  -2.362  0.00  0.00     0.077 C 
ATOM      8  C7  UNL d   1      -0.449   1.210  -0.851  0.00  0.00    -0.001 A 
ENDROOT
TORSDOF 0
ENDMDL
