MODEL 1
REMARK minimizedAffinity -2.97753382
REMARK minimizedRMSD -1
REMARK  0 active torsions:
REMARK  status: ('A' for Active; 'I' for Inactive)
ROOT
ATOM      1  C   UNL d   1      -0.732  -3.393  -2.546  0.00  0.00     0.077 C 
ATOM      2  C1  UNL d   1      -0.102  -2.351  -1.670  0.00  0.00    -0.074 A 
ATOM      3  C2  UNL d   1       1.223  -1.950  -1.869  0.00  0.00    -0.005 A 
ATOM      4  C3  UNL d   1       1.792  -0.973  -1.051  0.00  0.00     0.006 A 
ATOM      5  C4  UNL d   1       1.043  -0.389  -0.029  0.00  0.00    -0.005 A 
ATOM      6  C5  UNL d   1      -0.283  -0.777   0.184  0.00  0.00    -0.074 A 
ATOM      7  C6  UNL d   1      -1.105  -0.152   1.272  0.00  0.00     0.077 C 
ATOM      8  C7  UNL d   1      -0.850  -1.754  -0.646  0.00  0.00    -0.001 A 
ENDROOT
TORSDOF 0
ENDMDL
