MODEL 1
REMARK minimizedAffinity 5.15271044
REMARK minimizedRMSD -1
REMARK  0 active torsions:
REMARK  status: ('A' for Active; 'I' for Inactive)
ROOT
ATOM      1  C   UNL d   1       0.322   4.539   1.624  0.00  0.00     0.077 C 
ATOM      2  C1  UNL d   1      -0.059   3.088   1.643  0.00  0.00    -0.074 A 
ATOM      3  C2  UNL d   1      -0.798   2.554   2.703  0.00  0.00    -0.005 A 
ATOM      4  C3  UNL d   1      -1.152   1.205   2.703  0.00  0.00     0.006 A 
ATOM      5  C4  UNL d   1      -0.772   0.378   1.645  0.00  0.00    -0.005 A 
ATOM      6  C5  UNL d   1      -0.034   0.896   0.576  0.00  0.00    -0.074 A 
ATOM      7  C6  UNL d   1       0.374   0.024  -0.574  0.00  0.00     0.077 C 
ATOM      8  C7  UNL d   1       0.313   2.254   0.580  0.00  0.00    -0.001 A 
ENDROOT
TORSDOF 0
ENDMDL
