MODEL 1
REMARK minimizedAffinity 2.01700401
REMARK minimizedRMSD -1
REMARK  0 active torsions:
REMARK  status: ('A' for Active; 'I' for Inactive)
ROOT
ATOM      1  C   UNL d   1      -1.108  -0.653   3.385  0.00  0.00     0.077 C 
ATOM      2  C1  UNL d   1      -0.829   0.172   2.164  0.00  0.00    -0.074 A 
ATOM      3  C2  UNL d   1      -0.921  -0.385   0.884  0.00  0.00    -0.005 A 
ATOM      4  C3  UNL d   1      -0.667   0.397  -0.243  0.00  0.00     0.006 A 
ATOM      5  C4  UNL d   1      -0.320   1.741  -0.102  0.00  0.00    -0.005 A 
ATOM      6  C5  UNL d   1      -0.224   2.315   1.170  0.00  0.00    -0.074 A 
ATOM      7  C6  UNL d   1       0.139   3.761   1.339  0.00  0.00     0.077 C 
ATOM      8  C7  UNL d   1      -0.487   1.525   2.297  0.00  0.00    -0.001 A 
ENDROOT
TORSDOF 0
ENDMDL
