MODEL 1
REMARK minimizedAffinity -5.13619947
REMARK minimizedRMSD -1
REMARK  0 active torsions:
REMARK  status: ('A' for Active; 'I' for Inactive)
ROOT
ATOM      1  C   UNL d   1       1.113   1.106  -1.785  0.00  0.00     0.077 C 
ATOM      2  C1  UNL d   1       0.247   1.013  -0.564  0.00  0.00    -0.074 A 
ATOM      3  C2  UNL d   1       0.247  -0.137   0.232  0.00  0.00    -0.005 A 
ATOM      4  C3  UNL d   1      -0.556  -0.205   1.370  0.00  0.00     0.006 A 
ATOM      5  C4  UNL d   1      -1.366   0.874   1.724  0.00  0.00    -0.005 A 
ATOM      6  C5  UNL d   1      -1.379   2.033   0.941  0.00  0.00    -0.074 A 
ATOM      7  C6  UNL d   1      -2.236   3.207   1.313  0.00  0.00     0.077 C 
ATOM      8  C7  UNL d   1      -0.563   2.097  -0.197  0.00  0.00    -0.001 A 
ENDROOT
TORSDOF 0
ENDMDL
