MODEL 1
REMARK minimizedAffinity -2.41910052
REMARK minimizedRMSD -1
REMARK  0 active torsions:
REMARK  status: ('A' for Active; 'I' for Inactive)
ROOT
ATOM      1  C   UNL d   1      -2.452   2.406   0.399  0.00  0.00     0.077 C 
ATOM      2  C1  UNL d   1      -1.393   1.357   0.564  0.00  0.00    -0.074 A 
ATOM      3  C2  UNL d   1      -0.741   1.180   1.788  0.00  0.00    -0.005 A 
ATOM      4  C3  UNL d   1       0.235   0.193   1.930  0.00  0.00     0.006 A 
ATOM      5  C4  UNL d   1       0.567  -0.625   0.850  0.00  0.00    -0.005 A 
ATOM      6  C5  UNL d   1      -0.075  -0.464  -0.382  0.00  0.00    -0.074 A 
ATOM      7  C6  UNL d   1       0.264  -1.342  -1.550  0.00  0.00     0.077 C 
ATOM      8  C7  UNL d   1      -1.059   0.525  -0.514  0.00  0.00    -0.001 A 
ENDROOT
TORSDOF 0
ENDMDL
