MODEL 1
REMARK minimizedAffinity -4.48015356
REMARK minimizedRMSD -1
REMARK  0 active torsions:
REMARK  status: ('A' for Active; 'I' for Inactive)
ROOT
ATOM      1  C   UNL d   1      -2.418   3.416   0.996  0.00  0.00     0.077 C 
ATOM      2  C1  UNL d   1      -1.489   2.278   0.698  0.00  0.00    -0.074 A 
ATOM      3  C2  UNL d   1      -0.932   2.119  -0.575  0.00  0.00    -0.005 A 
ATOM      4  C3  UNL d   1      -0.061   1.060  -0.834  0.00  0.00     0.006 A 
ATOM      5  C4  UNL d   1       0.261   0.152   0.175  0.00  0.00    -0.005 A 
ATOM      6  C5  UNL d   1      -0.286   0.295   1.454  0.00  0.00    -0.074 A 
ATOM      7  C6  UNL d   1       0.057  -0.667   2.552  0.00  0.00     0.077 C 
ATOM      8  C7  UNL d   1      -1.154   1.365   1.709  0.00  0.00    -0.001 A 
ENDROOT
TORSDOF 0
ENDMDL
