MODEL 1
REMARK minimizedAffinity -3.24294043
REMARK minimizedRMSD -1
REMARK  0 active torsions:
REMARK  status: ('A' for Active; 'I' for Inactive)
ROOT
ATOM      1  C   UNL d   1      -0.483   1.105   3.565  0.00  0.00     0.077 C 
ATOM      2  C1  UNL d   1      -0.648   0.976   2.080  0.00  0.00    -0.074 A 
ATOM      3  C2  UNL d   1      -1.515   1.818   1.377  0.00  0.00    -0.005 A 
ATOM      4  C3  UNL d   1      -1.651   1.692  -0.006  0.00  0.00     0.006 A 
ATOM      5  C4  UNL d   1      -0.922   0.724  -0.698  0.00  0.00    -0.005 A 
ATOM      6  C5  UNL d   1      -0.049  -0.127  -0.012  0.00  0.00    -0.074 A 
ATOM      7  C6  UNL d   1       0.749  -1.166  -0.742  0.00  0.00     0.077 C 
ATOM      8  C7  UNL d   1       0.087   0.011   1.376  0.00  0.00    -0.001 A 
ENDROOT
TORSDOF 0
ENDMDL
