MODEL 1
REMARK minimizedAffinity -4.79424
REMARK minimizedRMSD -1
REMARK  0 active torsions:
REMARK  status: ('A' for Active; 'I' for Inactive)
ROOT
ATOM      1  C   UNL d   1      -1.993   2.765   1.809  0.00  0.00     0.077 C 
ATOM      2  C1  UNL d   1      -1.145   1.606   1.377  0.00  0.00    -0.074 A 
ATOM      3  C2  UNL d   1      -1.167   0.398   2.081  0.00  0.00    -0.005 A 
ATOM      4  C3  UNL d   1      -0.379  -0.674   1.663  0.00  0.00     0.006 A 
ATOM      5  C4  UNL d   1       0.437  -0.549   0.538  0.00  0.00    -0.005 A 
ATOM      6  C5  UNL d   1       0.472   0.651  -0.179  0.00  0.00    -0.074 A 
ATOM      7  C6  UNL d   1       1.336   0.799  -1.396  0.00  0.00     0.077 C 
ATOM      8  C7  UNL d   1      -0.328   1.721   0.244  0.00  0.00    -0.001 A 
ENDROOT
TORSDOF 0
ENDMDL
