MODEL 1
REMARK minimizedAffinity -3.98516273
REMARK minimizedRMSD -1
REMARK  0 active torsions:
REMARK  status: ('A' for Active; 'I' for Inactive)
ROOT
ATOM      1  C   UNL d   1       1.068   1.355  -1.282  0.00  0.00     0.077 C 
ATOM      2  C1  UNL d   1       0.073   1.056  -0.200  0.00  0.00    -0.074 A 
ATOM      3  C2  UNL d   1       0.007   1.845   0.954  0.00  0.00    -0.005 A 
ATOM      4  C3  UNL d   1      -0.930   1.560   1.947  0.00  0.00     0.006 A 
ATOM      5  C4  UNL d   1      -1.808   0.485   1.798  0.00  0.00    -0.005 A 
ATOM      6  C5  UNL d   1      -1.756  -0.314   0.652  0.00  0.00    -0.074 A 
ATOM      7  C6  UNL d   1      -2.699  -1.467   0.471  0.00  0.00     0.077 C 
ATOM      8  C7  UNL d   1      -0.817  -0.017  -0.345  0.00  0.00    -0.001 A 
ENDROOT
TORSDOF 0
ENDMDL
