MODEL 1
REMARK minimizedAffinity 5.28403568
REMARK minimizedRMSD -1
REMARK  1 active torsions:
REMARK  status: ('A' for Active; 'I' for Inactive)
REMARK    1  A    between atoms: C1_2  and  C2_3 
ROOT
ATOM      1  C2  UNL d   1      -0.411  -2.016   2.642  0.00  0.00    -0.077 A 
ATOM      2  C3  UNL d   1       0.977  -2.087   2.825  0.00  0.00     0.002 A 
ATOM      3  C4  UNL d   1       1.509  -2.739   3.939  0.00  0.00     0.002 A 
ATOM      4  C5  UNL d   1       0.662  -3.327   4.876  0.00  0.00    -0.004 A 
ATOM      5  C6  UNL d   1      -0.720  -3.260   4.703  0.00  0.00     0.002 A 
ATOM      6  C7  UNL d   1      -1.254  -2.607   3.591  0.00  0.00     0.002 A 
ENDROOT
BRANCH   1   7
ATOM      7  C1  UNL d   1      -0.986  -1.356   1.416  0.00  0.00     0.055 C 
ATOM      8  C   UNL d   1       0.082  -0.593   0.645  0.00  0.00     0.019 C 
ENDBRANCH   1   7
TORSDOF 1
ENDMDL
