MODEL 1
REMARK minimizedAffinity 6.88861895
REMARK minimizedRMSD -1
REMARK  1 active torsions:
REMARK  status: ('A' for Active; 'I' for Inactive)
REMARK    1  A    between atoms: C1_2  and  C2_3 
ROOT
ATOM      1  C2  UNL d   1      -2.861  -0.334  -1.226  0.00  0.00    -0.077 A 
ATOM      2  C3  UNL d   1      -2.354   0.951  -0.984  0.00  0.00     0.002 A 
ATOM      3  C4  UNL d   1      -1.227   1.125  -0.178  0.00  0.00     0.002 A 
ATOM      4  C5  UNL d   1      -0.597   0.020   0.389  0.00  0.00    -0.004 A 
ATOM      5  C6  UNL d   1      -1.094  -1.262   0.157  0.00  0.00     0.002 A 
ATOM      6  C7  UNL d   1      -2.221  -1.438  -0.648  0.00  0.00     0.002 A 
ENDROOT
BRANCH   1   7
ATOM      7  C1  UNL d   1      -4.046  -0.528  -2.135  0.00  0.00     0.055 C 
ATOM      8  C   UNL d   1      -5.356  -0.344  -1.383  0.00  0.00     0.019 C 
ENDBRANCH   1   7
TORSDOF 1
ENDMDL
