MODEL 1
REMARK minimizedAffinity -1.07529032
REMARK minimizedRMSD -1
REMARK  1 active torsions:
REMARK  status: ('A' for Active; 'I' for Inactive)
REMARK    1  A    between atoms: C1_2  and  C2_3 
ROOT
ATOM      1  C2  UNL d   1      -0.201  -1.639   1.978  0.00  0.00    -0.077 A 
ATOM      2  C3  UNL d   1       1.074  -2.162   2.236  0.00  0.00     0.002 A 
ATOM      3  C4  UNL d   1       1.274  -3.047   3.296  0.00  0.00     0.002 A 
ATOM      4  C5  UNL d   1       0.203  -3.421   4.105  0.00  0.00    -0.004 A 
ATOM      5  C6  UNL d   1      -1.069  -2.905   3.859  0.00  0.00     0.002 A 
ATOM      6  C7  UNL d   1      -1.270  -2.019   2.799  0.00  0.00     0.002 A 
ENDROOT
BRANCH   1   7
ATOM      7  C1  UNL d   1      -0.428  -0.722   0.805  0.00  0.00     0.055 C 
ATOM      8  C   UNL d   1       0.754  -0.747  -0.154  0.00  0.00     0.019 C 
ENDBRANCH   1   7
TORSDOF 1
ENDMDL
