MODEL 1
REMARK minimizedAffinity -1.27184296
REMARK minimizedRMSD -1
REMARK  1 active torsions:
REMARK  status: ('A' for Active; 'I' for Inactive)
REMARK    1  A    between atoms: C1_2  and  C2_3 
ROOT
ATOM      1  C2  UNL d   1      -2.013  -5.192  -5.414  0.00  0.00    -0.077 A 
ATOM      2  C3  UNL d   1      -2.141  -3.823  -5.690  0.00  0.00     0.002 A 
ATOM      3  C4  UNL d   1      -3.391  -3.276  -5.983  0.00  0.00     0.002 A 
ATOM      4  C5  UNL d   1      -4.523  -4.088  -6.000  0.00  0.00    -0.004 A 
ATOM      5  C6  UNL d   1      -4.406  -5.451  -5.729  0.00  0.00     0.002 A 
ATOM      6  C7  UNL d   1      -3.157  -6.000  -5.437  0.00  0.00     0.002 A 
ENDROOT
BRANCH   1   7
ATOM      7  C1  UNL d   1      -0.673  -5.775  -5.050  0.00  0.00     0.055 C 
ATOM      8  C   UNL d   1      -0.412  -5.669  -3.554  0.00  0.00     0.019 C 
ENDBRANCH   1   7
TORSDOF 1
ENDMDL
