MODEL 1
REMARK minimizedAffinity 6.806108
REMARK minimizedRMSD -1
REMARK  1 active torsions:
REMARK  status: ('A' for Active; 'I' for Inactive)
REMARK    1  A    between atoms: C1_2  and  C2_3 
ROOT
ATOM      1  C2  UNL d   1      -2.012  -4.999  -5.114  0.00  0.00    -0.077 A 
ATOM      2  C3  UNL d   1      -2.298  -3.699  -5.553  0.00  0.00     0.002 A 
ATOM      3  C4  UNL d   1      -3.585  -3.362  -5.976  0.00  0.00     0.002 A 
ATOM      4  C5  UNL d   1      -4.598  -4.319  -5.959  0.00  0.00    -0.004 A 
ATOM      5  C6  UNL d   1      -4.324  -5.616  -5.526  0.00  0.00     0.002 A 
ATOM      6  C7  UNL d   1      -3.037  -5.954  -5.105  0.00  0.00     0.002 A 
ENDROOT
BRANCH   1   7
ATOM      7  C1  UNL d   1      -0.637  -5.350  -4.611  0.00  0.00     0.055 C 
ATOM      8  C   UNL d   1      -0.668  -5.744  -3.141  0.00  0.00     0.019 C 
ENDBRANCH   1   7
TORSDOF 1
ENDMDL
