MODEL 1
REMARK minimizedAffinity -1.10521626
REMARK minimizedRMSD -1
REMARK  1 active torsions:
REMARK  status: ('A' for Active; 'I' for Inactive)
REMARK    1  A    between atoms: C1_2  and  C2_3 
ROOT
ATOM      1  C2  UNL d   1      -3.948  -2.512  -4.387  0.00  0.00    -0.077 A 
ATOM      2  C3  UNL d   1      -3.722  -2.968  -5.694  0.00  0.00     0.002 A 
ATOM      3  C4  UNL d   1      -2.813  -4.000  -5.934  0.00  0.00     0.002 A 
ATOM      4  C5  UNL d   1      -2.127  -4.588  -4.873  0.00  0.00    -0.004 A 
ATOM      5  C6  UNL d   1      -2.344  -4.140  -3.570  0.00  0.00     0.002 A 
ATOM      6  C7  UNL d   1      -3.251  -3.108  -3.328  0.00  0.00     0.002 A 
ENDROOT
BRANCH   1   7
ATOM      7  C1  UNL d   1      -4.965  -1.433  -4.121  0.00  0.00     0.055 C 
ATOM      8  C   UNL d   1      -5.447  -1.471  -2.678  0.00  0.00     0.019 C 
ENDBRANCH   1   7
TORSDOF 1
ENDMDL
