MODEL 1
REMARK minimizedAffinity 12.9914207
REMARK minimizedRMSD -1
REMARK  1 active torsions:
REMARK  status: ('A' for Active; 'I' for Inactive)
REMARK    1  A    between atoms: C1_2  and  C2_3 
ROOT
ATOM      1  C2  UNL d   1      -0.038  -2.498   2.186  0.00  0.00    -0.077 A 
ATOM      2  C3  UNL d   1       1.281  -2.962   2.082  0.00  0.00     0.002 A 
ATOM      3  C4  UNL d   1       1.906  -3.566   3.174  0.00  0.00     0.002 A 
ATOM      4  C5  UNL d   1       1.218  -3.716   4.377  0.00  0.00    -0.004 A 
ATOM      5  C6  UNL d   1      -0.093  -3.255   4.492  0.00  0.00     0.002 A 
ATOM      6  C7  UNL d   1      -0.718  -2.650   3.401  0.00  0.00     0.002 A 
ENDROOT
BRANCH   1   7
ATOM      7  C1  UNL d   1      -0.730  -1.890   0.994  0.00  0.00     0.055 C 
ATOM      8  C   UNL d   1       0.118  -0.796   0.360  0.00  0.00     0.019 C 
ENDBRANCH   1   7
TORSDOF 1
ENDMDL
