MODEL 1
REMARK minimizedAffinity 0.932683468
REMARK minimizedRMSD -1
REMARK  1 active torsions:
REMARK  status: ('A' for Active; 'I' for Inactive)
REMARK    1  A    between atoms: C1_2  and  C2_3 
ROOT
ATOM      1  C2  UNL d   1      -1.072  -1.887   2.938  0.00  0.00    -0.077 A 
ATOM      2  C3  UNL d   1      -0.310  -2.982   2.507  0.00  0.00     0.002 A 
ATOM      3  C4  UNL d   1       0.401  -2.920   1.308  0.00  0.00     0.002 A 
ATOM      4  C5  UNL d   1       0.361  -1.763   0.532  0.00  0.00    -0.004 A 
ATOM      5  C6  UNL d   1      -0.395  -0.669   0.950  0.00  0.00     0.002 A 
ATOM      6  C7  UNL d   1      -1.108  -0.730   2.149  0.00  0.00     0.002 A 
ENDROOT
BRANCH   1   7
ATOM      7  C1  UNL d   1      -1.800  -1.934   4.256  0.00  0.00     0.055 C 
ATOM      8  C   UNL d   1      -2.937  -0.924   4.297  0.00  0.00     0.019 C 
ENDBRANCH   1   7
TORSDOF 1
ENDMDL
