MODEL 1
REMARK minimizedAffinity 6.56752586
REMARK minimizedRMSD -1
REMARK  1 active torsions:
REMARK  status: ('A' for Active; 'I' for Inactive)
REMARK    1  A    between atoms: C1_2  and  C2_3 
ROOT
ATOM      1  C2  UNL d   1       0.488  -2.089   2.367  0.00  0.00    -0.077 A 
ATOM      2  C3  UNL d   1      -0.730  -2.052   3.060  0.00  0.00     0.002 A 
ATOM      3  C4  UNL d   1      -0.862  -2.696   4.292  0.00  0.00     0.002 A 
ATOM      4  C5  UNL d   1       0.221  -3.377   4.843  0.00  0.00    -0.004 A 
ATOM      5  C6  UNL d   1       1.436  -3.422   4.161  0.00  0.00     0.002 A 
ATOM      6  C7  UNL d   1       1.569  -2.780   2.929  0.00  0.00     0.002 A 
ENDROOT
BRANCH   1   7
ATOM      7  C1  UNL d   1       0.647  -1.353   1.062  0.00  0.00     0.055 C 
ATOM      8  C   UNL d   1      -0.558  -0.469   0.775  0.00  0.00     0.019 C 
ENDBRANCH   1   7
TORSDOF 1
ENDMDL
