MODEL 1
REMARK minimizedAffinity -1.44236577
REMARK minimizedRMSD -1
REMARK  1 active torsions:
REMARK  status: ('A' for Active; 'I' for Inactive)
REMARK    1  A    between atoms: C1_2  and  C2_3 
ROOT
ATOM      1  C2  UNL d   1      -4.861  -2.069  -4.012  0.00  0.00    -0.077 A 
ATOM      2  C3  UNL d   1      -5.433  -0.907  -4.548  0.00  0.00     0.002 A 
ATOM      3  C4  UNL d   1      -6.000   0.054  -3.707  0.00  0.00     0.002 A 
ATOM      4  C5  UNL d   1      -5.996  -0.136  -2.327  0.00  0.00    -0.004 A 
ATOM      5  C6  UNL d   1      -5.432  -1.290  -1.785  0.00  0.00     0.002 A 
ATOM      6  C7  UNL d   1      -4.866  -2.252  -2.623  0.00  0.00     0.002 A 
ENDROOT
BRANCH   1   7
ATOM      7  C1  UNL d   1      -4.206  -3.083  -4.913  0.00  0.00     0.055 C 
ATOM      8  C   UNL d   1      -3.001  -3.725  -4.240  0.00  0.00     0.019 C 
ENDBRANCH   1   7
TORSDOF 1
ENDMDL
