MODEL 1
REMARK minimizedAffinity 6.90239716
REMARK minimizedRMSD -1
REMARK  1 active torsions:
REMARK  status: ('A' for Active; 'I' for Inactive)
REMARK    1  A    between atoms: C1_2  and  C2_3 
ROOT
ATOM      1  C2  UNL d   1      -2.936  -0.176  -1.085  0.00  0.00    -0.077 A 
ATOM      2  C3  UNL d   1      -2.619   1.171  -0.861  0.00  0.00     0.002 A 
ATOM      3  C4  UNL d   1      -1.483   1.516  -0.127  0.00  0.00     0.002 A 
ATOM      4  C5  UNL d   1      -0.653   0.521   0.386  0.00  0.00    -0.004 A 
ATOM      5  C6  UNL d   1      -0.961  -0.822   0.170  0.00  0.00     0.002 A 
ATOM      6  C7  UNL d   1      -2.097  -1.169  -0.563  0.00  0.00     0.002 A 
ENDROOT
BRANCH   1   7
ATOM      7  C1  UNL d   1      -4.134  -0.550  -1.919  0.00  0.00     0.055 C 
ATOM      8  C   UNL d   1      -5.418  -0.486  -1.104  0.00  0.00     0.019 C 
ENDBRANCH   1   7
TORSDOF 1
ENDMDL
