MODEL 1
REMARK minimizedAffinity -1.6348573
REMARK minimizedRMSD -1
REMARK  1 active torsions:
REMARK  status: ('A' for Active; 'I' for Inactive)
REMARK    1  A    between atoms: C1_2  and  C2_3 
ROOT
ATOM      1  C2  UNL d   1      -3.215  -4.788  -5.805  0.00  0.00    -0.077 A 
ATOM      2  C3  UNL d   1      -4.034  -5.923  -5.876  0.00  0.00     0.002 A 
ATOM      3  C4  UNL d   1      -5.421  -5.789  -5.971  0.00  0.00     0.002 A 
ATOM      4  C5  UNL d   1      -6.000  -4.522  -6.000  0.00  0.00    -0.004 A 
ATOM      5  C6  UNL d   1      -5.194  -3.387  -5.928  0.00  0.00     0.002 A 
ATOM      6  C7  UNL d   1      -3.808  -3.519  -5.832  0.00  0.00     0.002 A 
ENDROOT
BRANCH   1   7
ATOM      7  C1  UNL d   1      -1.717  -4.930  -5.752  0.00  0.00     0.055 C 
ATOM      8  C   UNL d   1      -1.216  -4.983  -4.316  0.00  0.00     0.019 C 
ENDBRANCH   1   7
TORSDOF 1
ENDMDL
