MODEL 1
REMARK minimizedAffinity -0.282914609
REMARK minimizedRMSD -1
REMARK  1 active torsions:
REMARK  status: ('A' for Active; 'I' for Inactive)
REMARK    1  A    between atoms: C1_2  and  C2_3 
ROOT
ATOM      1  C2  UNL d   1      -5.978  -0.168  -3.369  0.00  0.00    -0.077 A 
ATOM      2  C3  UNL d   1      -5.906  -1.546  -3.620  0.00  0.00     0.002 A 
ATOM      3  C4  UNL d   1      -5.840  -2.021  -4.931  0.00  0.00     0.002 A 
ATOM      4  C5  UNL d   1      -5.840  -1.127  -6.000  0.00  0.00    -0.004 A 
ATOM      5  C6  UNL d   1      -5.913   0.244  -5.760  0.00  0.00     0.002 A 
ATOM      6  C7  UNL d   1      -5.981   0.722  -4.450  0.00  0.00     0.002 A 
ENDROOT
BRANCH   1   7
ATOM      7  C1  UNL d   1      -6.000   0.349  -1.954  0.00  0.00     0.055 C 
ATOM      8  C   UNL d   1      -5.961  -0.791  -0.947  0.00  0.00     0.019 C 
ENDBRANCH   1   7
TORSDOF 1
ENDMDL
