MODEL 1
REMARK minimizedAffinity -3.74336982
REMARK minimizedRMSD -1
REMARK  0 active torsions:
REMARK  status: ('A' for Active; 'I' for Inactive)
ROOT
ATOM      1  C1  BNZ d   1      -0.666   0.051   0.362  0.00  0.00     0.000 A 
ATOM      2  C2  BNZ d   1       0.271   0.594  -0.476  0.00  0.00     0.000 A 
ATOM      3  C3  BNZ d   1       1.240   1.429   0.004  0.00  0.00     0.000 A 
ATOM      4  C4  BNZ d   1       1.248   1.753   1.313  0.00  0.00     0.000 A 
ATOM      5  C5  BNZ d   1       0.304   1.221   2.170  0.00  0.00     0.000 A 
ATOM      6  C6  BNZ d   1      -0.647   0.350   1.690  0.00  0.00     0.000 A 
ENDROOT
TORSDOF 0
ENDMDL
