MODEL 1
REMARK minimizedAffinity -5.06690788
REMARK minimizedRMSD -1
REMARK  0 active torsions:
REMARK  status: ('A' for Active; 'I' for Inactive)
ROOT
ATOM      1  C1  BNZ d   1       2.614   2.388   1.133  0.00  0.00     0.000 A 
ATOM      2  C2  BNZ d   1       3.146   1.480   0.257  0.00  0.00     0.000 A 
ATOM      3  C3  BNZ d   1       2.350   0.561  -0.369  0.00  0.00     0.000 A 
ATOM      4  C4  BNZ d   1       1.031   0.526  -0.087  0.00  0.00     0.000 A 
ATOM      5  C5  BNZ d   1       0.481   1.429   0.800  0.00  0.00     0.000 A 
ATOM      6  C6  BNZ d   1       1.279   2.378   1.398  0.00  0.00     0.000 A 
ENDROOT
TORSDOF 0
ENDMDL
