MODEL 1
REMARK minimizedAffinity -1.54580045
REMARK minimizedRMSD -1
REMARK  0 active torsions:
REMARK  status: ('A' for Active; 'I' for Inactive)
ROOT
ATOM      1  C1  BNZ d   1      -1.148  -0.797  -2.329  0.00  0.00     0.000 A 
ATOM      2  C2  BNZ d   1      -1.658  -1.445  -1.235  0.00  0.00     0.000 A 
ATOM      3  C3  BNZ d   1      -2.842  -2.123  -1.312  0.00  0.00     0.000 A 
ATOM      4  C4  BNZ d   1      -3.534  -2.119  -2.470  0.00  0.00     0.000 A 
ATOM      5  C5  BNZ d   1      -3.038  -1.463  -3.579  0.00  0.00     0.000 A 
ATOM      6  C6  BNZ d   1      -1.827  -0.814  -3.508  0.00  0.00     0.000 A 
ENDROOT
TORSDOF 0
ENDMDL
