MODEL 1
REMARK minimizedAffinity -2.42930961
REMARK minimizedRMSD -1
REMARK  0 active torsions:
REMARK  status: ('A' for Active; 'I' for Inactive)
ROOT
ATOM      1  C1  BNZ d   1      -3.490  -1.828  -2.223  0.00  0.00     0.000 A 
ATOM      2  C2  BNZ d   1      -2.452  -2.188  -1.404  0.00  0.00     0.000 A 
ATOM      3  C3  BNZ d   1      -1.165  -1.851  -1.716  0.00  0.00     0.000 A 
ATOM      4  C4  BNZ d   1      -0.913  -1.190  -2.865  0.00  0.00     0.000 A 
ATOM      5  C5  BNZ d   1      -1.947  -0.828  -3.705  0.00  0.00     0.000 A 
ATOM      6  C6  BNZ d   1      -3.245  -1.135  -3.368  0.00  0.00     0.000 A 
ENDROOT
TORSDOF 0
ENDMDL
