MODEL 1
REMARK minimizedAffinity -2.70557904
REMARK minimizedRMSD -1
REMARK  0 active torsions:
REMARK  status: ('A' for Active; 'I' for Inactive)
ROOT
ATOM      1  C1  BNZ d   1       0.179   1.570   2.261  0.00  0.00     0.000 A 
ATOM      2  C2  BNZ d   1       0.077   0.468   1.455  0.00  0.00     0.000 A 
ATOM      3  C3  BNZ d   1       0.497   0.510   0.155  0.00  0.00     0.000 A 
ATOM      4  C4  BNZ d   1       0.980   1.664  -0.349  0.00  0.00     0.000 A 
ATOM      5  C5  BNZ d   1       1.081   2.787   0.449  0.00  0.00     0.000 A 
ATOM      6  C6  BNZ d   1       0.694   2.730   1.768  0.00  0.00     0.000 A 
ENDROOT
TORSDOF 0
ENDMDL
