MODEL 1
REMARK minimizedAffinity -3.46516252
REMARK minimizedRMSD -1
REMARK  0 active torsions:
REMARK  status: ('A' for Active; 'I' for Inactive)
ROOT
ATOM      1  C1  BNZ d   1      -0.355  -0.541  -0.795  0.00  0.00     0.000 A 
ATOM      2  C2  BNZ d   1       0.208   0.707  -0.784  0.00  0.00     0.000 A 
ATOM      3  C3  BNZ d   1       0.329   1.410   0.382  0.00  0.00     0.000 A 
ATOM      4  C4  BNZ d   1      -0.148   0.881   1.527  0.00  0.00     0.000 A 
ATOM      5  C5  BNZ d   1      -0.726  -0.372   1.531  0.00  0.00     0.000 A 
ATOM      6  C6  BNZ d   1      -0.811  -1.093   0.362  0.00  0.00     0.000 A 
ENDROOT
TORSDOF 0
ENDMDL
