MODEL 1
REMARK minimizedAffinity -2.65634274
REMARK minimizedRMSD -1
REMARK  0 active torsions:
REMARK  status: ('A' for Active; 'I' for Inactive)
ROOT
ATOM      1  C1  BNZ d   1       0.079   0.154  -0.161  0.00  0.00     0.000 A 
ATOM      2  C2  BNZ d   1       1.017   1.004   0.362  0.00  0.00     0.000 A 
ATOM      3  C3  BNZ d   1       0.807   1.626   1.561  0.00  0.00     0.000 A 
ATOM      4  C4  BNZ d   1      -0.356   1.429   2.215  0.00  0.00     0.000 A 
ATOM      5  C5  BNZ d   1      -1.315   0.582   1.696  0.00  0.00     0.000 A 
ATOM      6  C6  BNZ d   1      -1.084  -0.073   0.508  0.00  0.00     0.000 A 
ENDROOT
TORSDOF 0
ENDMDL
