MODEL 1
REMARK minimizedAffinity -3.98035622
REMARK minimizedRMSD -1
REMARK  0 active torsions:
REMARK  status: ('A' for Active; 'I' for Inactive)
ROOT
ATOM      1  C1  BNZ d   1      -0.012   1.464  -0.617  0.00  0.00     0.000 A 
ATOM      2  C2  BNZ d   1       0.628   2.333   0.226  0.00  0.00     0.000 A 
ATOM      3  C3  BNZ d   1       0.629   2.124   1.576  0.00  0.00     0.000 A 
ATOM      4  C4  BNZ d   1      -0.042   1.071   2.086  0.00  0.00     0.000 A 
ATOM      5  C5  BNZ d   1      -0.700   0.191   1.250  0.00  0.00     0.000 A 
ATOM      6  C6  BNZ d   1      -0.667   0.382  -0.113  0.00  0.00     0.000 A 
ENDROOT
TORSDOF 0
ENDMDL
