MODEL 1
REMARK minimizedAffinity -3.43109393
REMARK minimizedRMSD -1
REMARK  0 active torsions:
REMARK  status: ('A' for Active; 'I' for Inactive)
ROOT
ATOM      1  C1  BNZ d   1      -3.238  -2.889  -2.747  0.00  0.00     0.000 A 
ATOM      2  C2  BNZ d   1      -2.520  -3.195  -1.622  0.00  0.00     0.000 A 
ATOM      3  C3  BNZ d   1      -1.229  -2.769  -1.478  0.00  0.00     0.000 A 
ATOM      4  C4  BNZ d   1      -0.646  -2.072  -2.475  0.00  0.00     0.000 A 
ATOM      5  C5  BNZ d   1      -1.354  -1.764  -3.619  0.00  0.00     0.000 A 
ATOM      6  C6  BNZ d   1      -2.666  -2.161  -3.744  0.00  0.00     0.000 A 
ENDROOT
TORSDOF 0
ENDMDL
