MODEL 1
REMARK minimizedAffinity -3.92698407
REMARK minimizedRMSD -1
REMARK  0 active torsions:
REMARK  status: ('A' for Active; 'I' for Inactive)
ROOT
ATOM      1  C1  BNZ d   1      -0.119   0.585   1.898  0.00  0.00     0.000 A 
ATOM      2  C2  BNZ d   1      -0.024   0.313   0.559  0.00  0.00     0.000 A 
ATOM      3  C3  BNZ d   1       0.693   1.128  -0.271  0.00  0.00     0.000 A 
ATOM      4  C4  BNZ d   1       1.281   2.234   0.230  0.00  0.00     0.000 A 
ATOM      5  C5  BNZ d   1       1.186   2.527   1.576  0.00  0.00     0.000 A 
ATOM      6  C6  BNZ d   1       0.496   1.683   2.416  0.00  0.00     0.000 A 
ENDROOT
TORSDOF 0
ENDMDL
