MODEL 1
REMARK minimizedAffinity -2.64284277
REMARK minimizedRMSD -1
REMARK  0 active torsions:
REMARK  status: ('A' for Active; 'I' for Inactive)
ROOT
ATOM      1  C1  BNZ d   1      -0.919  -0.167   0.783  0.00  0.00     0.000 A 
ATOM      2  C2  BNZ d   1      -0.117   0.731   1.435  0.00  0.00     0.000 A 
ATOM      3  C3  BNZ d   1       1.143   1.004   0.980  0.00  0.00     0.000 A 
ATOM      4  C4  BNZ d   1       1.613   0.350  -0.102  0.00  0.00     0.000 A 
ATOM      5  C5  BNZ d   1       0.820  -0.565  -0.765  0.00  0.00     0.000 A 
ATOM      6  C6  BNZ d   1      -0.462  -0.809  -0.327  0.00  0.00     0.000 A 
ENDROOT
TORSDOF 0
ENDMDL
