MODEL 1
REMARK minimizedAffinity -2.48296332
REMARK minimizedRMSD -1
REMARK  0 active torsions:
REMARK  status: ('A' for Active; 'I' for Inactive)
ROOT
ATOM      1  C1  BNZ d   1      -2.419  -1.723  -2.694  0.00  0.00     0.000 A 
ATOM      2  C2  BNZ d   1      -1.532  -0.815  -3.209  0.00  0.00     0.000 A 
ATOM      3  C3  BNZ d   1      -0.531  -0.298  -2.434  0.00  0.00     0.000 A 
ATOM      4  C4  BNZ d   1      -0.443  -0.658  -1.138  0.00  0.00     0.000 A 
ATOM      5  C5  BNZ d   1      -1.335  -1.565  -0.602  0.00  0.00     0.000 A 
ATOM      6  C6  BNZ d   1      -2.317  -2.113  -1.394  0.00  0.00     0.000 A 
ENDROOT
TORSDOF 0
ENDMDL
