MODEL 1
REMARK minimizedAffinity 2.0846312
REMARK minimizedRMSD -1
REMARK  0 active torsions:
REMARK  status: ('A' for Active; 'I' for Inactive)
ROOT
ATOM      1  C1  BNZ d   1      -0.370  -1.073  -0.044  0.00  0.00     0.000 A 
ATOM      2  C2  BNZ d   1      -0.203  -0.854   1.297  0.00  0.00     0.000 A 
ATOM      3  C3  BNZ d   1      -1.207  -0.309   2.048  0.00  0.00     0.000 A 
ATOM      4  C4  BNZ d   1      -2.360   0.053   1.450  0.00  0.00     0.000 A 
ATOM      5  C5  BNZ d   1      -2.540  -0.152   0.097  0.00  0.00     0.000 A 
ATOM      6  C6  BNZ d   1      -1.542  -0.736  -0.649  0.00  0.00     0.000 A 
ENDROOT
TORSDOF 0
ENDMDL
