MODEL 1
REMARK minimizedAffinity -3.63687086
REMARK minimizedRMSD -1
REMARK  0 active torsions:
REMARK  status: ('A' for Active; 'I' for Inactive)
ROOT
ATOM      1  C1  BNZ d   1       1.324   0.732  -0.365  0.00  0.00     0.000 A 
ATOM      2  C2  BNZ d   1       0.571  -0.397  -0.545  0.00  0.00     0.000 A 
ATOM      3  C3  BNZ d   1      -0.457  -0.696   0.305  0.00  0.00     0.000 A 
ATOM      4  C4  BNZ d   1      -0.705   0.112   1.356  0.00  0.00     0.000 A 
ATOM      5  C5  BNZ d   1       0.052   1.250   1.556  0.00  0.00     0.000 A 
ATOM      6  C6  BNZ d   1       1.060   1.568   0.676  0.00  0.00     0.000 A 
ENDROOT
TORSDOF 0
ENDMDL
