MODEL 1
REMARK minimizedAffinity -1.73117876
REMARK minimizedRMSD -1
REMARK  0 active torsions:
REMARK  status: ('A' for Active; 'I' for Inactive)
ROOT
ATOM      1  C1  BNZ d   1       1.536  -0.956  -0.866  0.00  0.00     0.000 A 
ATOM      2  C2  BNZ d   1       0.210  -1.263  -0.713  0.00  0.00     0.000 A 
ATOM      3  C3  BNZ d   1      -0.628  -0.424  -0.033  0.00  0.00     0.000 A 
ATOM      4  C4  BNZ d   1      -0.132   0.698   0.527  0.00  0.00     0.000 A 
ATOM      5  C5  BNZ d   1       1.204   1.016   0.389  0.00  0.00     0.000 A 
ATOM      6  C6  BNZ d   1       2.037   0.189  -0.329  0.00  0.00     0.000 A 
ENDROOT
TORSDOF 0
ENDMDL
