MODEL 1
REMARK minimizedAffinity -4.34590006
REMARK minimizedRMSD -1
REMARK  0 active torsions:
REMARK  status: ('A' for Active; 'I' for Inactive)
ROOT
ATOM      1  C1  BNZ d   1       0.266  -0.581  -0.107  0.00  0.00     0.000 A 
ATOM      2  C2  BNZ d   1       1.194   0.371   0.220  0.00  0.00     0.000 A 
ATOM      3  C3  BNZ d   1       0.857   1.435   1.009  0.00  0.00     0.000 A 
ATOM      4  C4  BNZ d   1      -0.416   1.566   1.437  0.00  0.00     0.000 A 
ATOM      5  C5  BNZ d   1      -1.365   0.619   1.108  0.00  0.00     0.000 A 
ATOM      6  C6  BNZ d   1      -1.012  -0.471   0.346  0.00  0.00     0.000 A 
ENDROOT
TORSDOF 0
ENDMDL
