MODEL 1
REMARK minimizedAffinity -3.09052157
REMARK minimizedRMSD -1
REMARK  0 active torsions:
REMARK  status: ('A' for Active; 'I' for Inactive)
ROOT
ATOM      1  C1  BNZ d   1      -0.400  -0.088   0.034  0.00  0.00     0.000 A 
ATOM      2  C2  BNZ d   1       0.356   1.015   0.328  0.00  0.00     0.000 A 
ATOM      3  C3  BNZ d   1       1.664   1.092  -0.062  0.00  0.00     0.000 A 
ATOM      4  C4  BNZ d   1       2.224   0.050  -0.710  0.00  0.00     0.000 A 
ATOM      5  C5  BNZ d   1       1.478  -1.073  -1.006  0.00  0.00     0.000 A 
ATOM      6  C6  BNZ d   1       0.151  -1.130  -0.646  0.00  0.00     0.000 A 
ENDROOT
TORSDOF 0
ENDMDL
