MODEL 1
REMARK minimizedAffinity -5.06507158
REMARK minimizedRMSD -1
REMARK  0 active torsions:
REMARK  status: ('A' for Active; 'I' for Inactive)
ROOT
ATOM      1  C1  BNZ d   1      -0.983   0.715   1.467  0.00  0.00     0.000 A 
ATOM      2  C2  BNZ d   1      -0.389   1.855   1.939  0.00  0.00     0.000 A 
ATOM      3  C3  BNZ d   1       0.849   2.233   1.499  0.00  0.00     0.000 A 
ATOM      4  C4  BNZ d   1       1.508   1.451   0.621  0.00  0.00     0.000 A 
ATOM      5  C5  BNZ d   1       0.927   0.293   0.143  0.00  0.00     0.000 A 
ATOM      6  C6  BNZ d   1      -0.336  -0.064   0.558  0.00  0.00     0.000 A 
ENDROOT
TORSDOF 0
ENDMDL
