MODEL 1
REMARK minimizedAffinity -3.98175478
REMARK minimizedRMSD -1
REMARK  0 active torsions:
REMARK  status: ('A' for Active; 'I' for Inactive)
ROOT
ATOM      1  C1  BNZ d   1       0.221   1.518   1.538  0.00  0.00     0.000 A 
ATOM      2  C2  BNZ d   1      -0.807   0.740   1.078  0.00  0.00     0.000 A 
ATOM      3  C3  BNZ d   1      -0.563  -0.343   0.280  0.00  0.00     0.000 A 
ATOM      4  C4  BNZ d   1       0.704  -0.623  -0.089  0.00  0.00     0.000 A 
ATOM      5  C5  BNZ d   1       1.751   0.158   0.360  0.00  0.00     0.000 A 
ATOM      6  C6  BNZ d   1       1.505   1.224   1.194  0.00  0.00     0.000 A 
ENDROOT
TORSDOF 0
ENDMDL
