MODEL 1
REMARK minimizedAffinity 11.9326773
REMARK minimizedRMSD -1
REMARK  3 active torsions:
REMARK  status: ('A' for Active; 'I' for Inactive)
REMARK    1  A    between atoms: C3'_2  and  C2'_3 
REMARK    2  A    between atoms: C2'_3  and  C1'_4 
REMARK    3  A    between atoms: C1'_4  and  C1_5 
ROOT
ATOM      1  C1  N4B d   1       3.161  -2.731   2.806  0.00  0.00    -0.075 A 
ATOM      2  C2  N4B d   1       2.750  -1.858   1.775  0.00  0.00     0.002 A 
ATOM      3  C3  N4B d   1       1.544  -1.207   1.866  0.00  0.00     0.002 A 
ATOM      4  C4  N4B d   1       0.728  -1.427   2.966  0.00  0.00    -0.004 A 
ATOM      5  C5  N4B d   1       1.144  -2.252   3.969  0.00  0.00     0.002 A 
ATOM      6  C6  N4B d   1       2.355  -2.910   3.892  0.00  0.00     0.002 A 
ENDROOT
BRANCH   1   7
ATOM      7  C1' N4B d   1       4.431  -3.531   2.709  0.00  0.00     0.057 C 
BRANCH   7   8
ATOM      8  C2' N4B d   1       5.582  -2.601   2.336  0.00  0.00     0.009 C 
BRANCH   8   9
ATOM      9  C3' N4B d   1       5.993  -1.712   3.496  0.00  0.00     0.004 C 
ATOM     10  C4' N4B d   1       5.998  -2.436   4.810  0.00  0.00     0.003 C 
ENDBRANCH   8   9
ENDBRANCH   7   8
ENDBRANCH   1   7
TORSDOF 3
ENDMDL
