MODEL 1
REMARK minimizedAffinity 12.9696865
REMARK minimizedRMSD -1
REMARK  3 active torsions:
REMARK  status: ('A' for Active; 'I' for Inactive)
REMARK    1  A    between atoms: C3'_2  and  C2'_3 
REMARK    2  A    between atoms: C2'_3  and  C1'_4 
REMARK    3  A    between atoms: C1'_4  and  C1_5 
ROOT
ATOM      1  C1  N4B d   1      -4.697  -3.236  -4.111  0.00  0.00    -0.075 A 
ATOM      2  C2  N4B d   1      -3.873  -3.431  -5.241  0.00  0.00     0.002 A 
ATOM      3  C3  N4B d   1      -4.007  -4.569  -5.999  0.00  0.00     0.002 A 
ATOM      4  C4  N4B d   1      -4.940  -5.529  -5.637  0.00  0.00    -0.004 A 
ATOM      5  C5  N4B d   1      -5.749  -5.320  -4.559  0.00  0.00     0.002 A 
ATOM      6  C6  N4B d   1      -5.628  -4.180  -3.790  0.00  0.00     0.002 A 
ENDROOT
BRANCH   1   7
ATOM      7  C1' N4B d   1      -4.529  -2.049  -3.202  0.00  0.00     0.057 C 
BRANCH   7   8
ATOM      8  C2' N4B d   1      -4.846  -0.774  -3.979  0.00  0.00     0.009 C 
BRANCH   8   9
ATOM      9  C3' N4B d   1      -4.917   0.442  -3.072  0.00  0.00     0.004 C 
ATOM     10  C4' N4B d   1      -5.609   1.607  -3.715  0.00  0.00     0.003 C 
ENDBRANCH   8   9
ENDBRANCH   7   8
ENDBRANCH   1   7
TORSDOF 3
ENDMDL
