MODEL 1
REMARK minimizedAffinity 13.6718969
REMARK minimizedRMSD -1
REMARK  3 active torsions:
REMARK  status: ('A' for Active; 'I' for Inactive)
REMARK    1  A    between atoms: C3'_2  and  C2'_3 
REMARK    2  A    between atoms: C2'_3  and  C1'_4 
REMARK    3  A    between atoms: C1'_4  and  C1_5 
ROOT
ATOM      1  C1  N4B d   1       0.548   1.656   1.424  0.00  0.00    -0.075 A 
ATOM      2  C2  N4B d   1       0.063   2.982   1.460  0.00  0.00     0.002 A 
ATOM      3  C3  N4B d   1      -1.226   3.253   1.069  0.00  0.00     0.002 A 
ATOM      4  C4  N4B d   1      -2.038   2.222   0.622  0.00  0.00    -0.004 A 
ATOM      5  C5  N4B d   1      -1.570   0.940   0.614  0.00  0.00     0.002 A 
ATOM      6  C6  N4B d   1      -0.279   0.653   1.009  0.00  0.00     0.002 A 
ENDROOT
BRANCH   1   7
ATOM      7  C1' N4B d   1       1.975   1.324   1.761  0.00  0.00     0.057 C 
BRANCH   7   8
ATOM      8  C2' N4B d   1       2.634   2.539   2.406  0.00  0.00     0.009 C 
BRANCH   8   9
ATOM      9  C3' N4B d   1       2.486   2.530   3.918  0.00  0.00     0.004 C 
ATOM     10  C4' N4B d   1       3.725   2.992   4.625  0.00  0.00     0.003 C 
ENDBRANCH   8   9
ENDBRANCH   7   8
ENDBRANCH   1   7
TORSDOF 3
ENDMDL
