MODEL 1
REMARK minimizedAffinity 7.21676826
REMARK minimizedRMSD -1
REMARK  3 active torsions:
REMARK  status: ('A' for Active; 'I' for Inactive)
REMARK    1  A    between atoms: C3'_2  and  C2'_3 
REMARK    2  A    between atoms: C2'_3  and  C1'_4 
REMARK    3  A    between atoms: C1'_4  and  C1_5 
ROOT
ATOM      1  C1  N4B d   1       0.845  -0.080   2.240  0.00  0.00    -0.075 A 
ATOM      2  C2  N4B d   1       0.277  -0.810   3.307  0.00  0.00     0.002 A 
ATOM      3  C3  N4B d   1       0.689  -2.095   3.557  0.00  0.00     0.002 A 
ATOM      4  C4  N4B d   1       1.651  -2.677   2.744  0.00  0.00    -0.004 A 
ATOM      5  C5  N4B d   1       2.213  -1.957   1.731  0.00  0.00     0.002 A 
ATOM      6  C6  N4B d   1       1.811  -0.663   1.471  0.00  0.00     0.002 A 
ENDROOT
BRANCH   1   7
ATOM      7  C1' N4B d   1       0.365   1.298   1.875  0.00  0.00     0.057 C 
BRANCH   7   8
ATOM      8  C2' N4B d   1      -0.951   1.184   1.111  0.00  0.00     0.009 C 
BRANCH   8   9
ATOM      9  C3' N4B d   1      -1.701   2.504   1.072  0.00  0.00     0.004 C 
ATOM     10  C4' N4B d   1      -2.548   2.655  -0.156  0.00  0.00     0.003 C 
ENDBRANCH   8   9
ENDBRANCH   7   8
ENDBRANCH   1   7
TORSDOF 3
ENDMDL
