MODEL 1
REMARK minimizedAffinity 1.7597698
REMARK minimizedRMSD -1
REMARK  3 active torsions:
REMARK  status: ('A' for Active; 'I' for Inactive)
REMARK    1  A    between atoms: C3'_2  and  C2'_3 
REMARK    2  A    between atoms: C2'_3  and  C1'_4 
REMARK    3  A    between atoms: C1'_4  and  C1_5 
ROOT
ATOM      1  C1  N4B d   1       3.387  -2.307   1.159  0.00  0.00    -0.075 A 
ATOM      2  C2  N4B d   1       4.453  -2.009   2.036  0.00  0.00     0.002 A 
ATOM      3  C3  N4B d   1       5.747  -2.271   1.657  0.00  0.00     0.002 A 
ATOM      4  C4  N4B d   1       5.997  -2.845   0.420  0.00  0.00    -0.004 A 
ATOM      5  C5  N4B d   1       4.963  -3.106  -0.432  0.00  0.00     0.002 A 
ATOM      6  C6  N4B d   1       3.658  -2.844  -0.066  0.00  0.00     0.002 A 
ENDROOT
BRANCH   1   7
ATOM      7  C1' N4B d   1       1.950  -2.118   1.563  0.00  0.00     0.057 C 
BRANCH   7   8
ATOM      8  C2' N4B d   1       1.810  -0.795   2.310  0.00  0.00     0.009 C 
BRANCH   8   9
ATOM      9  C3' N4B d   1       1.483  -1.004   3.779  0.00  0.00     0.004 C 
ATOM     10  C4' N4B d   1       1.661   0.241   4.596  0.00  0.00     0.003 C 
ENDBRANCH   8   9
ENDBRANCH   7   8
ENDBRANCH   1   7
TORSDOF 3
ENDMDL
