MODEL 1
REMARK minimizedAffinity 6.79003239
REMARK minimizedRMSD -1
REMARK  0 active torsions:
REMARK  status: ('A' for Active; 'I' for Inactive)
ROOT
ATOM      1  C   UNL d   1       0.529  -0.838   3.091  0.00  0.00     0.020 A 
ATOM      2  C1  UNL d   1       0.721  -1.494   1.876  0.00  0.00     0.020 A 
ATOM      3  C2  UNL d   1      -0.282  -1.472   0.904  0.00  0.00     0.034 A 
ATOM      4  C3  UNL d   1      -1.482  -0.792   1.147  0.00  0.00     0.017 A 
ATOM      5  C4  UNL d   1      -1.673  -0.134   2.367  0.00  0.00     0.017 A 
ATOM      6  C5  UNL d   1      -0.665  -0.160   3.336  0.00  0.00     0.034 A 
ATOM      7 Cl   UNL d   1      -3.126   0.725   2.738  0.00  0.00    -0.070 Cl
ATOM      8 Cl1  UNL d   1      -2.678  -0.806  -0.100  0.00  0.00    -0.070 Cl
ENDROOT
TORSDOF 0
ENDMDL
