MODEL 1
REMARK minimizedAffinity 5.2218318
REMARK minimizedRMSD -1
REMARK  0 active torsions:
REMARK  status: ('A' for Active; 'I' for Inactive)
ROOT
ATOM      1  C   UNL d   1       0.515  -0.078   3.087  0.00  0.00     0.020 A 
ATOM      2  C1  UNL d   1       0.621  -0.957   2.009  0.00  0.00     0.020 A 
ATOM      3  C2  UNL d   1      -0.405  -1.030   1.065  0.00  0.00     0.034 A 
ATOM      4  C3  UNL d   1      -1.542  -0.223   1.196  0.00  0.00     0.017 A 
ATOM      5  C4  UNL d   1      -1.647   0.658   2.278  0.00  0.00     0.017 A 
ATOM      6  C5  UNL d   1      -0.616   0.728   3.221  0.00  0.00     0.034 A 
ATOM      7 Cl   UNL d   1      -3.018   1.685   2.508  0.00  0.00    -0.070 Cl
ATOM      8 Cl1  UNL d   1      -2.772  -0.366  -0.009  0.00  0.00    -0.070 Cl
ENDROOT
TORSDOF 0
ENDMDL
