MODEL 1
REMARK minimizedAffinity 8.87107849
REMARK minimizedRMSD -1
REMARK  0 active torsions:
REMARK  status: ('A' for Active; 'I' for Inactive)
ROOT
ATOM      1  C   UNL d   1      -1.611   4.874  -5.975  0.00  0.00     0.020 A 
ATOM      2  C1  UNL d   1      -1.738   5.901  -5.040  0.00  0.00     0.020 A 
ATOM      3  C2  UNL d   1      -2.797   5.890  -4.130  0.00  0.00     0.034 A 
ATOM      4  C3  UNL d   1      -3.733   4.849  -4.152  0.00  0.00     0.017 A 
ATOM      5  C4  UNL d   1      -3.605   3.819  -5.091  0.00  0.00     0.017 A 
ATOM      6  C5  UNL d   1      -2.542   3.836  -6.000  0.00  0.00     0.034 A 
ATOM      7 Cl   UNL d   1      -4.720   2.502  -5.180  0.00  0.00    -0.070 Cl
ATOM      8 Cl1  UNL d   1      -5.017   4.899  -2.997  0.00  0.00    -0.070 Cl
ENDROOT
TORSDOF 0
ENDMDL
