MODEL 1
REMARK minimizedAffinity 4.03008127
REMARK minimizedRMSD -1
REMARK  0 active torsions:
REMARK  status: ('A' for Active; 'I' for Inactive)
ROOT
ATOM      1  C   UNL d   1       5.193   5.799   5.287  0.00  0.00     0.020 A 
ATOM      2  C1  UNL d   1       5.293   5.201   4.031  0.00  0.00     0.020 A 
ATOM      3  C2  UNL d   1       4.140   4.792   3.359  0.00  0.00     0.034 A 
ATOM      4  C3  UNL d   1       2.881   4.979   3.941  0.00  0.00     0.017 A 
ATOM      5  C4  UNL d   1       2.781   5.579   5.202  0.00  0.00     0.017 A 
ATOM      6  C5  UNL d   1       3.939   5.987   5.871  0.00  0.00     0.034 A 
ATOM      7 Cl   UNL d   1       1.263   5.844   5.984  0.00  0.00    -0.070 Cl
ATOM      8 Cl1  UNL d   1       1.498   4.449   3.052  0.00  0.00    -0.070 Cl
ENDROOT
TORSDOF 0
ENDMDL
