MODEL 1
REMARK minimizedAffinity 3.10402513
REMARK minimizedRMSD -1
REMARK  0 active torsions:
REMARK  status: ('A' for Active; 'I' for Inactive)
ROOT
ATOM      1  C   UNL d   1       5.882   5.027   3.710  0.00  0.00     0.020 A 
ATOM      2  C1  UNL d   1       5.890   5.773   4.888  0.00  0.00     0.020 A 
ATOM      3  C2  UNL d   1       4.698   6.000   5.579  0.00  0.00     0.034 A 
ATOM      4  C3  UNL d   1       3.493   5.479   5.093  0.00  0.00     0.017 A 
ATOM      5  C4  UNL d   1       3.486   4.730   3.911  0.00  0.00     0.017 A 
ATOM      6  C5  UNL d   1       4.682   4.506   3.223  0.00  0.00     0.034 A 
ATOM      7 Cl   UNL d   1       2.038   4.056   3.250  0.00  0.00    -0.070 Cl
ATOM      8 Cl1  UNL d   1       2.057   5.798   6.000  0.00  0.00    -0.070 Cl
ENDROOT
TORSDOF 0
ENDMDL
