MODEL 1
REMARK minimizedAffinity 9.59540367
REMARK minimizedRMSD -1
REMARK  0 active torsions:
REMARK  status: ('A' for Active; 'I' for Inactive)
ROOT
ATOM      1  C   UNL d   1       5.901   5.984   3.947  0.00  0.00     0.020 A 
ATOM      2  C1  UNL d   1       5.906   5.728   5.317  0.00  0.00     0.020 A 
ATOM      3  C2  UNL d   1       4.796   5.134   5.921  0.00  0.00     0.034 A 
ATOM      4  C3  UNL d   1       3.676   4.793   5.154  0.00  0.00     0.017 A 
ATOM      5  C4  UNL d   1       3.671   5.050   3.778  0.00  0.00     0.017 A 
ATOM      6  C5  UNL d   1       4.786   5.646   3.179  0.00  0.00     0.034 A 
ATOM      7 Cl   UNL d   1       2.326   4.658   2.766  0.00  0.00    -0.070 Cl
ATOM      8 Cl1  UNL d   1       2.338   4.060   5.966  0.00  0.00    -0.070 Cl
ENDROOT
TORSDOF 0
ENDMDL
