MODEL 1
REMARK minimizedAffinity 12.4620371
REMARK minimizedRMSD -1
REMARK  0 active torsions:
REMARK  status: ('A' for Active; 'I' for Inactive)
ROOT
ATOM      1  C   UNL d   1      -5.997   3.312  -5.722  0.00  0.00     0.020 A 
ATOM      2  C1  UNL d   1      -5.323   2.091  -5.719  0.00  0.00     0.020 A 
ATOM      3  C2  UNL d   1      -3.929   2.064  -5.800  0.00  0.00     0.034 A 
ATOM      4  C3  UNL d   1      -3.205   3.259  -5.885  0.00  0.00     0.017 A 
ATOM      5  C4  UNL d   1      -3.883   4.483  -5.888  0.00  0.00     0.017 A 
ATOM      6  C5  UNL d   1      -5.279   4.505  -5.806  0.00  0.00     0.034 A 
ATOM      7 Cl   UNL d   1      -3.059   5.999  -5.989  0.00  0.00    -0.070 Cl
ATOM      8 Cl1  UNL d   1      -1.484   3.150  -5.982  0.00  0.00    -0.070 Cl
ENDROOT
TORSDOF 0
ENDMDL
