MODEL 1
REMARK minimizedAffinity 9.67053795
REMARK minimizedRMSD -1
REMARK  1 active torsions:
REMARK  status: ('A' for Active; 'I' for Inactive)
REMARK    1  A    between atoms: C1_2  and  C2_3 
ROOT
ATOM      1  C2  UNL d   1       2.697   0.273   1.241  0.00  0.00    -0.076 A 
ATOM      2  C3  UNL d   1       2.236  -0.328   2.425  0.00  0.00     0.004 A 
ATOM      3  C4  UNL d   1       1.246   0.275   3.198  0.00  0.00    -0.003 A 
ATOM      4  C5  UNL d   1       0.699   1.490   2.799  0.00  0.00     0.000 A 
ATOM      5  C6  UNL d   1       1.132   2.092   1.618  0.00  0.00     0.000 A 
ATOM      6  C7  UNL d   1       2.119   1.489   0.819  0.00  0.00    -0.073 A 
ATOM      7  C8  UNL d   1       2.552   2.186  -0.442  0.00  0.00     0.078 C 
ENDROOT
BRANCH   1   8
ATOM      8  C1  UNL d   1       3.793  -0.415   0.459  0.00  0.00     0.053 C 
ATOM      9  C   UNL d   1       5.068  -0.588   1.270  0.00  0.00     0.018 C 
ENDBRANCH   1   8
TORSDOF 1
ENDMDL
