MODEL 1
REMARK minimizedAffinity 14.8572512
REMARK minimizedRMSD -1
REMARK  1 active torsions:
REMARK  status: ('A' for Active; 'I' for Inactive)
REMARK    1  A    between atoms: C1_2  and  C2_3 
ROOT
ATOM      1  C2  UNL d   1      -4.188  -5.075  -1.311  0.00  0.00    -0.076 A 
ATOM      2  C3  UNL d   1      -5.232  -5.855  -1.839  0.00  0.00     0.004 A 
ATOM      3  C4  UNL d   1      -5.996  -5.400  -2.912  0.00  0.00    -0.003 A 
ATOM      4  C5  UNL d   1      -5.728  -4.157  -3.475  0.00  0.00     0.000 A 
ATOM      5  C6  UNL d   1      -4.685  -3.377  -2.976  0.00  0.00     0.000 A 
ATOM      6  C7  UNL d   1      -3.895  -3.829  -1.905  0.00  0.00    -0.073 A 
ATOM      7  C8  UNL d   1      -2.787  -2.945  -1.402  0.00  0.00     0.078 C 
ENDROOT
BRANCH   1   8
ATOM      8  C1  UNL d   1      -3.411  -5.609  -0.129  0.00  0.00     0.053 C 
ATOM      9  C   UNL d   1      -4.312  -5.999   1.033  0.00  0.00     0.018 C 
ENDBRANCH   1   8
TORSDOF 1
ENDMDL
