MODEL 1
REMARK minimizedAffinity 4.05834913
REMARK minimizedRMSD -1
REMARK  1 active torsions:
REMARK  status: ('A' for Active; 'I' for Inactive)
REMARK    1  A    between atoms: C1_2  and  C2_3 
ROOT
ATOM      1  C2  UNL d   1       3.585   1.135  -1.510  0.00  0.00    -0.076 A 
ATOM      2  C3  UNL d   1       2.266   1.301  -1.053  0.00  0.00     0.004 A 
ATOM      3  C4  UNL d   1       1.867   0.799   0.185  0.00  0.00    -0.003 A 
ATOM      4  C5  UNL d   1       2.781   0.125   0.986  0.00  0.00     0.000 A 
ATOM      5  C6  UNL d   1       4.099  -0.033   0.556  0.00  0.00     0.000 A 
ATOM      6  C7  UNL d   1       4.521   0.480  -0.682  0.00  0.00    -0.073 A 
ATOM      7  C8  UNL d   1       5.952   0.276  -1.098  0.00  0.00     0.078 C 
ENDROOT
BRANCH   1   8
ATOM      8  C1  UNL d   1       3.952   1.676  -2.873  0.00  0.00     0.053 C 
ATOM      9  C   UNL d   1       2.733   1.943  -3.742  0.00  0.00     0.018 C 
ENDBRANCH   1   8
TORSDOF 1
ENDMDL
