MODEL 1
REMARK minimizedAffinity 20.4317722
REMARK minimizedRMSD -1
REMARK  1 active torsions:
REMARK  status: ('A' for Active; 'I' for Inactive)
REMARK    1  A    between atoms: C1_2  and  C2_3 
ROOT
ATOM      1  C2  UNL d   1       3.527   4.792  -3.965  0.00  0.00    -0.076 A 
ATOM      2  C3  UNL d   1       4.716   4.561  -3.251  0.00  0.00     0.004 A 
ATOM      3  C4  UNL d   1       5.940   5.033  -3.723  0.00  0.00    -0.003 A 
ATOM      4  C5  UNL d   1       5.994   5.744  -4.917  0.00  0.00     0.000 A 
ATOM      5  C6  UNL d   1       4.822   5.998  -5.629  0.00  0.00     0.000 A 
ATOM      6  C7  UNL d   1       3.579   5.543  -5.158  0.00  0.00    -0.073 A 
ATOM      7  C8  UNL d   1       2.347   5.840  -5.970  0.00  0.00     0.078 C 
ENDROOT
BRANCH   1   8
ATOM      8  C1  UNL d   1       2.234   4.232  -3.418  0.00  0.00     0.053 C 
ATOM      9  C   UNL d   1       2.231   2.712  -3.369  0.00  0.00     0.018 C 
ENDBRANCH   1   8
TORSDOF 1
ENDMDL
