MODEL 1
REMARK minimizedAffinity 19.3749886
REMARK minimizedRMSD -1
REMARK  1 active torsions:
REMARK  status: ('A' for Active; 'I' for Inactive)
REMARK    1  A    between atoms: C1_2  and  C2_3 
ROOT
ATOM      1  C2  UNL d   1       3.219   0.276   0.127  0.00  0.00    -0.076 A 
ATOM      2  C3  UNL d   1       2.703  -0.066   1.389  0.00  0.00     0.004 A 
ATOM      3  C4  UNL d   1       1.776   0.753   2.031  0.00  0.00    -0.003 A 
ATOM      4  C5  UNL d   1       1.350   1.928   1.422  0.00  0.00     0.000 A 
ATOM      5  C6  UNL d   1       1.838   2.274   0.162  0.00  0.00     0.000 A 
ATOM      6  C7  UNL d   1       2.760   1.451  -0.507  0.00  0.00    -0.073 A 
ATOM      7  C8  UNL d   1       3.258   1.876  -1.861  0.00  0.00     0.078 C 
ENDROOT
BRANCH   1   8
ATOM      8  C1  UNL d   1       4.242  -0.637  -0.510  0.00  0.00     0.053 C 
ATOM      9  C   UNL d   1       5.670  -0.240  -0.169  0.00  0.00     0.018 C 
ENDBRANCH   1   8
TORSDOF 1
ENDMDL
