MODEL 1
REMARK minimizedAffinity 20.5759544
REMARK minimizedRMSD -1
REMARK  1 active torsions:
REMARK  status: ('A' for Active; 'I' for Inactive)
REMARK    1  A    between atoms: C1_2  and  C2_3 
ROOT
ATOM      1  C2  UNL d   1      -3.956  -5.721  -2.179  0.00  0.00    -0.076 A 
ATOM      2  C3  UNL d   1      -3.103  -5.720  -3.297  0.00  0.00     0.004 A 
ATOM      3  C4  UNL d   1      -1.722  -5.830  -3.146  0.00  0.00    -0.003 A 
ATOM      4  C5  UNL d   1      -1.171  -5.944  -1.874  0.00  0.00     0.000 A 
ATOM      5  C6  UNL d   1      -2.003  -5.964  -0.755  0.00  0.00     0.000 A 
ATOM      6  C7  UNL d   1      -3.399  -5.871  -0.891  0.00  0.00    -0.073 A 
ATOM      7  C8  UNL d   1      -4.248  -5.892   0.350  0.00  0.00     0.078 C 
ENDROOT
BRANCH   1   8
ATOM      8  C1  UNL d   1      -5.444  -5.571  -2.403  0.00  0.00     0.053 C 
ATOM      9  C   UNL d   1      -5.797  -4.280  -3.124  0.00  0.00     0.018 C 
ENDBRANCH   1   8
TORSDOF 1
ENDMDL
