MODEL 1
REMARK minimizedAffinity 5.5352726
REMARK minimizedRMSD -1
REMARK  1 active torsions:
REMARK  status: ('A' for Active; 'I' for Inactive)
REMARK    1  A    between atoms: C1_2  and  C2_3 
ROOT
ATOM      1  C2  UNL d   1      -2.198  -3.191   0.216  0.00  0.00    -0.076 A 
ATOM      2  C3  UNL d   1      -3.074  -4.266   0.446  0.00  0.00     0.004 A 
ATOM      3  C4  UNL d   1      -2.779  -5.241   1.397  0.00  0.00    -0.003 A 
ATOM      4  C5  UNL d   1      -1.603  -5.156   2.135  0.00  0.00     0.000 A 
ATOM      5  C6  UNL d   1      -0.731  -4.087   1.932  0.00  0.00     0.000 A 
ATOM      6  C7  UNL d   1      -1.022  -3.087   0.989  0.00  0.00    -0.073 A 
ATOM      7  C8  UNL d   1      -0.043  -1.959   0.807  0.00  0.00     0.078 C 
ENDROOT
BRANCH   1   8
ATOM      8  C1  UNL d   1      -2.558  -2.178  -0.848  0.00  0.00     0.053 C 
ATOM      9  C   UNL d   1      -2.822  -2.822  -2.200  0.00  0.00     0.018 C 
ENDBRANCH   1   8
TORSDOF 1
ENDMDL
