MODEL 1
REMARK minimizedAffinity 8.27138805
REMARK minimizedRMSD -1
REMARK  1 active torsions:
REMARK  status: ('A' for Active; 'I' for Inactive)
REMARK    1  A    between atoms: C1_2  and  C2_3 
ROOT
ATOM      1  C2  UNL d   1      -1.833  -2.875   0.322  0.00  0.00    -0.076 A 
ATOM      2  C3  UNL d   1      -3.065  -2.992  -0.346  0.00  0.00     0.004 A 
ATOM      3  C4  UNL d   1      -3.158  -2.787  -1.721  0.00  0.00    -0.003 A 
ATOM      4  C5  UNL d   1      -2.021  -2.460  -2.452  0.00  0.00     0.000 A 
ATOM      5  C6  UNL d   1      -0.788  -2.357  -1.809  0.00  0.00     0.000 A 
ATOM      6  C7  UNL d   1      -0.673  -2.577  -0.426  0.00  0.00    -0.073 A 
ATOM      7  C8  UNL d   1       0.680  -2.447   0.217  0.00  0.00     0.078 C 
ENDROOT
BRANCH   1   8
ATOM      8  C1  UNL d   1      -1.798  -3.083   1.819  0.00  0.00     0.053 C 
ATOM      9  C   UNL d   1      -1.925  -4.548   2.207  0.00  0.00     0.018 C 
ENDBRANCH   1   8
TORSDOF 1
ENDMDL
