MODEL 1
REMARK minimizedAffinity 20.9768143
REMARK minimizedRMSD -1
REMARK  1 active torsions:
REMARK  status: ('A' for Active; 'I' for Inactive)
REMARK    1  A    between atoms: C1_2  and  C2_3 
ROOT
ATOM      1  C2  UNL d   1      -1.965  -3.538  -3.702  0.00  0.00    -0.076 A 
ATOM      2  C3  UNL d   1      -1.963  -2.167  -3.391  0.00  0.00     0.004 A 
ATOM      3  C4  UNL d   1      -2.332  -1.719  -2.124  0.00  0.00    -0.003 A 
ATOM      4  C5  UNL d   1      -2.707  -2.634  -1.147  0.00  0.00     0.000 A 
ATOM      5  C6  UNL d   1      -2.697  -3.999  -1.432  0.00  0.00     0.000 A 
ATOM      6  C7  UNL d   1      -2.313  -4.469  -2.700  0.00  0.00    -0.073 A 
ATOM      7  C8  UNL d   1      -2.326  -5.951  -2.955  0.00  0.00     0.078 C 
ENDROOT
BRANCH   1   8
ATOM      8  C1  UNL d   1      -1.582  -3.964  -5.102  0.00  0.00     0.053 C 
ATOM      9  C   UNL d   1      -1.184  -2.788  -5.980  0.00  0.00     0.018 C 
ENDBRANCH   1   8
TORSDOF 1
ENDMDL
