MODEL 1
REMARK minimizedAffinity 3.40026164
REMARK minimizedRMSD -1
REMARK  1 active torsions:
REMARK  status: ('A' for Active; 'I' for Inactive)
REMARK    1  A    between atoms: C1_2  and  C2_3 
ROOT
ATOM      1  C2  UNL d   1      -2.862  -4.640   0.358  0.00  0.00    -0.076 A 
ATOM      2  C3  UNL d   1      -2.263  -3.446   0.795  0.00  0.00     0.004 A 
ATOM      3  C4  UNL d   1      -2.037  -2.391  -0.087  0.00  0.00    -0.003 A 
ATOM      4  C5  UNL d   1      -2.409  -2.513  -1.422  0.00  0.00     0.000 A 
ATOM      5  C6  UNL d   1      -3.021  -3.683  -1.869  0.00  0.00     0.000 A 
ATOM      6  C7  UNL d   1      -3.270  -4.750  -0.988  0.00  0.00    -0.073 A 
ATOM      7  C8  UNL d   1      -3.927  -5.991  -1.526  0.00  0.00     0.078 C 
ENDROOT
BRANCH   1   8
ATOM      8  C1  UNL d   1      -3.057  -5.760   1.355  0.00  0.00     0.053 C 
ATOM      9  C   UNL d   1      -1.824  -5.996   2.214  0.00  0.00     0.018 C 
ENDBRANCH   1   8
TORSDOF 1
ENDMDL
