MODEL 1
REMARK minimizedAffinity 11.3872252
REMARK minimizedRMSD -1
REMARK  1 active torsions:
REMARK  status: ('A' for Active; 'I' for Inactive)
REMARK    1  A    between atoms: C1_2  and  C2_3 
ROOT
ATOM      1  C2  UNL d   1      -3.123  -3.753   0.617  0.00  0.00    -0.076 A 
ATOM      2  C3  UNL d   1      -3.991  -4.851   0.753  0.00  0.00     0.004 A 
ATOM      3  C4  UNL d   1      -3.625  -5.965   1.506  0.00  0.00    -0.003 A 
ATOM      4  C5  UNL d   1      -2.387  -6.000   2.136  0.00  0.00     0.000 A 
ATOM      5  C6  UNL d   1      -1.520  -4.913   2.027  0.00  0.00     0.000 A 
ATOM      6  C7  UNL d   1      -1.880  -3.775   1.285  0.00  0.00    -0.073 A 
ATOM      7  C8  UNL d   1      -0.904  -2.633   1.195  0.00  0.00     0.078 C 
ENDROOT
BRANCH   1   8
ATOM      8  C1  UNL d   1      -3.562  -2.584  -0.235  0.00  0.00     0.053 C 
ATOM      9  C   UNL d   1      -2.965  -2.625  -1.633  0.00  0.00     0.018 C 
ENDBRANCH   1   8
TORSDOF 1
ENDMDL
