MODEL 1
REMARK minimizedAffinity 1.59204316
REMARK minimizedRMSD -1
REMARK  1 active torsions:
REMARK  status: ('A' for Active; 'I' for Inactive)
REMARK    1  A    between atoms: C1_2  and  C2_3 
ROOT
ATOM      1  C2  UNL d   1       3.739   0.456  -0.576  0.00  0.00    -0.076 A 
ATOM      2  C3  UNL d   1       2.644   1.112   0.011  0.00  0.00     0.004 A 
ATOM      3  C4  UNL d   1       2.394   1.010   1.379  0.00  0.00    -0.003 A 
ATOM      4  C5  UNL d   1       3.237   0.249   2.182  0.00  0.00     0.000 A 
ATOM      5  C6  UNL d   1       4.339  -0.394   1.619  0.00  0.00     0.000 A 
ATOM      6  C7  UNL d   1       4.614  -0.288   0.245  0.00  0.00    -0.073 A 
ATOM      7  C8  UNL d   1       5.812  -1.008  -0.309  0.00  0.00     0.078 C 
ENDROOT
BRANCH   1   8
ATOM      8  C1  UNL d   1       3.944   0.581  -2.069  0.00  0.00     0.053 C 
ATOM      9  C   UNL d   1       3.369   1.873  -2.629  0.00  0.00     0.018 C 
ENDBRANCH   1   8
TORSDOF 1
ENDMDL
