MODEL 1
REMARK minimizedAffinity 1.38188493
REMARK minimizedRMSD -1
REMARK  1 active torsions:
REMARK  status: ('A' for Active; 'I' for Inactive)
REMARK    1  A    between atoms: C1_2  and  C2_3 
ROOT
ATOM      1  C2  UNL d   1      -3.501   1.696   3.775  0.00  0.00    -0.076 A 
ATOM      2  C3  UNL d   1      -2.947   2.947   3.452  0.00  0.00     0.004 A 
ATOM      3  C4  UNL d   1      -1.759   3.040   2.727  0.00  0.00    -0.003 A 
ATOM      4  C5  UNL d   1      -1.108   1.883   2.314  0.00  0.00     0.000 A 
ATOM      5  C6  UNL d   1      -1.653   0.634   2.610  0.00  0.00     0.000 A 
ATOM      6  C7  UNL d   1      -2.857   0.524   3.325  0.00  0.00    -0.073 A 
ATOM      7  C8  UNL d   1      -3.397  -0.849   3.622  0.00  0.00     0.078 C 
ENDROOT
BRANCH   1   8
ATOM      8  C1  UNL d   1      -4.777   1.657   4.586  0.00  0.00     0.053 C 
ATOM      9  C   UNL d   1      -4.736   2.596   5.781  0.00  0.00     0.018 C 
ENDBRANCH   1   8
TORSDOF 1
ENDMDL
