MODEL 1
REMARK minimizedAffinity 8.02183723
REMARK minimizedRMSD -1
REMARK  1 active torsions:
REMARK  status: ('A' for Active; 'I' for Inactive)
REMARK    1  A    between atoms: C1_2  and  C2_3 
ROOT
ATOM      1  C2  UNL d   1       0.952   1.642   1.549  0.00  0.00    -0.076 A 
ATOM      2  C3  UNL d   1       0.292   2.692   0.889  0.00  0.00     0.004 A 
ATOM      3  C4  UNL d   1      -1.065   2.934   1.102  0.00  0.00    -0.003 A 
ATOM      4  C5  UNL d   1      -1.782   2.129   1.980  0.00  0.00     0.000 A 
ATOM      5  C6  UNL d   1      -1.139   1.093   2.657  0.00  0.00     0.000 A 
ATOM      6  C7  UNL d   1       0.231   0.847   2.466  0.00  0.00    -0.073 A 
ATOM      7  C8  UNL d   1       0.873  -0.287   3.217  0.00  0.00     0.078 C 
ENDROOT
BRANCH   1   8
ATOM      8  C1  UNL d   1       2.418   1.411   1.257  0.00  0.00     0.053 C 
ATOM      9  C   UNL d   1       2.644   0.729  -0.083  0.00  0.00     0.018 C 
ENDBRANCH   1   8
TORSDOF 1
ENDMDL
