MODEL 1
REMARK minimizedAffinity 14.6326599
REMARK minimizedRMSD -1
REMARK  1 active torsions:
REMARK  status: ('A' for Active; 'I' for Inactive)
REMARK    1  A    between atoms: C1_2  and  C2_3 
ROOT
ATOM      1  C2  UNL d   1       0.936  -3.610  -0.375  0.00  0.00    -0.076 A 
ATOM      2  C3  UNL d   1       1.338  -3.556  -1.721  0.00  0.00     0.004 A 
ATOM      3  C4  UNL d   1       0.720  -2.689  -2.620  0.00  0.00    -0.003 A 
ATOM      4  C5  UNL d   1      -0.311  -1.861  -2.188  0.00  0.00     0.000 A 
ATOM      5  C6  UNL d   1      -0.710  -1.889  -0.852  0.00  0.00     0.000 A 
ATOM      6  C7  UNL d   1      -0.086  -2.745   0.071  0.00  0.00    -0.073 A 
ATOM      7  C8  UNL d   1      -0.562  -2.738   1.498  0.00  0.00     0.078 C 
ENDROOT
BRANCH   1   8
ATOM      8  C1  UNL d   1       1.625  -4.589   0.548  0.00  0.00     0.053 C 
ATOM      9  C   UNL d   1       2.517  -5.567  -0.201  0.00  0.00     0.018 C 
ENDBRANCH   1   8
TORSDOF 1
ENDMDL
