MODEL 1
REMARK minimizedAffinity 10.2489824
REMARK minimizedRMSD -1
REMARK  1 active torsions:
REMARK  status: ('A' for Active; 'I' for Inactive)
REMARK    1  A    between atoms: C1_2  and  C2_3 
ROOT
ATOM      1  C2  UNL d   1       0.473  -1.426  -0.041  0.00  0.00    -0.076 A 
ATOM      2  C3  UNL d   1      -0.276  -1.657  -1.208  0.00  0.00     0.004 A 
ATOM      3  C4  UNL d   1       0.349  -1.789  -2.447  0.00  0.00    -0.003 A 
ATOM      4  C5  UNL d   1       1.733  -1.693  -2.539  0.00  0.00     0.000 A 
ATOM      5  C6  UNL d   1       2.493  -1.482  -1.389  0.00  0.00     0.000 A 
ATOM      6  C7  UNL d   1       1.880  -1.363  -0.130  0.00  0.00    -0.073 A 
ATOM      7  C8  UNL d   1       2.747  -1.130   1.076  0.00  0.00     0.078 C 
ENDROOT
BRANCH   1   8
ATOM      8  C1  UNL d   1      -0.262  -1.265   1.270  0.00  0.00     0.053 C 
ATOM      9  C   UNL d   1      -1.078  -2.495   1.637  0.00  0.00     0.018 C 
ENDBRANCH   1   8
TORSDOF 1
ENDMDL
