MODEL 1
REMARK minimizedAffinity 16.2911911
REMARK minimizedRMSD -1
REMARK  1 active torsions:
REMARK  status: ('A' for Active; 'I' for Inactive)
REMARK    1  A    between atoms: C1_2  and  C2_3 
ROOT
ATOM      1  C2  UNL d   1       2.955  -0.974  -0.454  0.00  0.00    -0.076 A 
ATOM      2  C3  UNL d   1       3.617  -0.657  -1.653  0.00  0.00     0.004 A 
ATOM      3  C4  UNL d   1       3.096  -1.049  -2.885  0.00  0.00    -0.003 A 
ATOM      4  C5  UNL d   1       1.904  -1.762  -2.939  0.00  0.00     0.000 A 
ATOM      5  C6  UNL d   1       1.224  -2.070  -1.760  0.00  0.00     0.000 A 
ATOM      6  C7  UNL d   1       1.727  -1.669  -0.511  0.00  0.00    -0.073 A 
ATOM      7  C8  UNL d   1       0.957  -2.033   0.729  0.00  0.00     0.078 C 
ENDROOT
BRANCH   1   8
ATOM      8  C1  UNL d   1       3.581  -0.547   0.854  0.00  0.00     0.053 C 
ATOM      9  C   UNL d   1       3.013   0.766   1.371  0.00  0.00     0.018 C 
ENDBRANCH   1   8
TORSDOF 1
ENDMDL
