MODEL 1
REMARK minimizedAffinity 19.1515999
REMARK minimizedRMSD -1
REMARK  1 active torsions:
REMARK  status: ('A' for Active; 'I' for Inactive)
REMARK    1  A    between atoms: C1_2  and  C2_3 
ROOT
ATOM      1  C2  UNL d   1      -5.855  -0.005   4.318  0.00  0.00    -0.076 A 
ATOM      2  C3  UNL d   1      -5.744   1.009   5.285  0.00  0.00     0.004 A 
ATOM      3  C4  UNL d   1      -5.619   2.346   4.911  0.00  0.00    -0.003 A 
ATOM      4  C5  UNL d   1      -5.604   2.691   3.564  0.00  0.00     0.000 A 
ATOM      5  C6  UNL d   1      -5.730   1.700   2.592  0.00  0.00     0.000 A 
ATOM      6  C7  UNL d   1      -5.873   0.349   2.952  0.00  0.00    -0.073 A 
ATOM      7  C8  UNL d   1      -6.000  -0.680   1.861  0.00  0.00     0.078 C 
ENDROOT
BRANCH   1   8
ATOM      8  C1  UNL d   1      -5.960  -1.440   4.783  0.00  0.00     0.053 C 
ATOM      9  C   UNL d   1      -5.093  -1.724   6.000  0.00  0.00     0.018 C 
ENDBRANCH   1   8
TORSDOF 1
ENDMDL
