MODEL 1
REMARK minimizedAffinity 11.2068233
REMARK minimizedRMSD -1
REMARK  1 active torsions:
REMARK  status: ('A' for Active; 'I' for Inactive)
REMARK    1  A    between atoms: C1_2  and  C2_3 
ROOT
ATOM      1  C2  UNL d   1      -1.001  -5.969   1.091  0.00  0.00    -0.076 A 
ATOM      2  C3  UNL d   1       0.021  -5.987   2.057  0.00  0.00     0.004 A 
ATOM      3  C4  UNL d   1      -0.279  -6.000   3.418  0.00  0.00    -0.003 A 
ATOM      4  C5  UNL d   1      -1.605  -5.997   3.836  0.00  0.00     0.000 A 
ATOM      5  C6  UNL d   1      -2.631  -5.997   2.891  0.00  0.00     0.000 A 
ATOM      6  C7  UNL d   1      -2.346  -6.000   1.515  0.00  0.00    -0.073 A 
ATOM      7  C8  UNL d   1      -3.492  -5.994   0.541  0.00  0.00     0.078 C 
ENDROOT
BRANCH   1   8
ATOM      8  C1  UNL d   1      -0.615  -5.927  -0.370  0.00  0.00     0.053 C 
ATOM      9  C   UNL d   1       0.010  -4.600  -0.770  0.00  0.00     0.018 C 
ENDBRANCH   1   8
TORSDOF 1
ENDMDL
