MODEL 1
REMARK minimizedAffinity 7.26882744
REMARK minimizedRMSD -1
REMARK  1 active torsions:
REMARK  status: ('A' for Active; 'I' for Inactive)
REMARK    1  A    between atoms: C1_2  and  C2_3 
ROOT
ATOM      1  C2  UNL d   1      -0.887  -4.002   1.904  0.00  0.00    -0.076 A 
ATOM      2  C3  UNL d   1      -1.940  -4.361   1.044  0.00  0.00     0.004 A 
ATOM      3  C4  UNL d   1      -3.107  -3.600   0.983  0.00  0.00    -0.003 A 
ATOM      4  C5  UNL d   1      -3.239  -2.468   1.780  0.00  0.00     0.000 A 
ATOM      5  C6  UNL d   1      -2.197  -2.088   2.625  0.00  0.00     0.000 A 
ATOM      6  C7  UNL d   1      -1.008  -2.835   2.687  0.00  0.00    -0.073 A 
ATOM      7  C8  UNL d   1       0.080  -2.382   3.622  0.00  0.00     0.078 C 
ENDROOT
BRANCH   1   8
ATOM      8  C1  UNL d   1       0.343  -4.881   1.948  0.00  0.00     0.053 C 
ATOM      9  C   UNL d   1       0.223  -5.999   2.971  0.00  0.00     0.018 C 
ENDBRANCH   1   8
TORSDOF 1
ENDMDL
