MODEL 1
REMARK minimizedAffinity 2.19220543
REMARK minimizedRMSD -1
REMARK  1 active torsions:
REMARK  status: ('A' for Active; 'I' for Inactive)
REMARK    1  A    between atoms: C1_2  and  C2_3 
ROOT
ATOM      1  C2  UNL d   1      -1.076  -0.582  -1.355  0.00  0.00    -0.076 A 
ATOM      2  C3  UNL d   1      -0.651  -1.560  -0.439  0.00  0.00     0.004 A 
ATOM      3  C4  UNL d   1      -1.161  -2.857  -0.486  0.00  0.00    -0.003 A 
ATOM      4  C5  UNL d   1      -2.103  -3.196  -1.451  0.00  0.00     0.000 A 
ATOM      5  C6  UNL d   1      -2.522  -2.244  -2.378  0.00  0.00     0.000 A 
ATOM      6  C7  UNL d   1      -2.006  -0.936  -2.355  0.00  0.00    -0.073 A 
ATOM      7  C8  UNL d   1      -2.499   0.052  -3.376  0.00  0.00     0.078 C 
ENDROOT
BRANCH   1   8
ATOM      8  C1  UNL d   1      -0.508   0.815  -1.238  0.00  0.00     0.053 C 
ATOM      9  C   UNL d   1       0.333   0.999   0.016  0.00  0.00     0.018 C 
ENDBRANCH   1   8
TORSDOF 1
ENDMDL
