MODEL 1
REMARK minimizedAffinity 9.27519703
REMARK minimizedRMSD -1
REMARK  1 active torsions:
REMARK  status: ('A' for Active; 'I' for Inactive)
REMARK    1  A    between atoms: C1_2  and  C2_3 
ROOT
ATOM      1  C2  UNL d   1      -5.049  -0.731   3.816  0.00  0.00    -0.076 A 
ATOM      2  C3  UNL d   1      -5.004   0.569   3.282  0.00  0.00     0.004 A 
ATOM      3  C4  UNL d   1      -5.208   1.684   4.092  0.00  0.00    -0.003 A 
ATOM      4  C5  UNL d   1      -5.459   1.519   5.450  0.00  0.00     0.000 A 
ATOM      5  C6  UNL d   1      -5.489   0.238   6.000  0.00  0.00     0.000 A 
ATOM      6  C7  UNL d   1      -5.270  -0.897   5.200  0.00  0.00    -0.073 A 
ATOM      7  C8  UNL d   1      -5.320  -2.255   5.845  0.00  0.00     0.078 C 
ENDROOT
BRANCH   1   8
ATOM      8  C1  UNL d   1      -4.847  -1.904   2.884  0.00  0.00     0.053 C 
ATOM      9  C   UNL d   1      -3.452  -1.936   2.280  0.00  0.00     0.018 C 
ENDBRANCH   1   8
TORSDOF 1
ENDMDL
