MODEL 1
REMARK minimizedAffinity 7.62997723
REMARK minimizedRMSD -1
REMARK  1 active torsions:
REMARK  status: ('A' for Active; 'I' for Inactive)
REMARK    1  A    between atoms: C1_2  and  C2_3 
ROOT
ATOM      1  C2  UNL d   1      -2.237  -3.646   0.809  0.00  0.00    -0.076 A 
ATOM      2  C3  UNL d   1      -2.515  -5.000   1.065  0.00  0.00     0.004 A 
ATOM      3  C4  UNL d   1      -2.086  -5.998   0.192  0.00  0.00    -0.003 A 
ATOM      4  C5  UNL d   1      -1.370  -5.659  -0.951  0.00  0.00     0.000 A 
ATOM      5  C6  UNL d   1      -1.070  -4.323  -1.212  0.00  0.00     0.000 A 
ATOM      6  C7  UNL d   1      -1.481  -3.305  -0.333  0.00  0.00    -0.073 A 
ATOM      7  C8  UNL d   1      -1.135  -1.880  -0.667  0.00  0.00     0.078 C 
ENDROOT
BRANCH   1   8
ATOM      8  C1  UNL d   1      -2.751  -2.605   1.777  0.00  0.00     0.053 C 
ATOM      9  C   UNL d   1      -4.212  -2.258   1.537  0.00  0.00     0.018 C 
ENDBRANCH   1   8
TORSDOF 1
ENDMDL
