MODEL 1
REMARK minimizedAffinity 5.51861143
REMARK minimizedRMSD -1
REMARK  1 active torsions:
REMARK  status: ('A' for Active; 'I' for Inactive)
REMARK    1  A    between atoms: C1_2  and  C2_3 
ROOT
ATOM      1  C2  UNL d   1       5.915  -2.305   4.056  0.00  0.00    -0.076 A 
ATOM      2  C3  UNL d   1       5.933  -2.492   5.449  0.00  0.00     0.004 A 
ATOM      3  C4  UNL d   1       5.974  -3.772   6.000  0.00  0.00    -0.003 A 
ATOM      4  C5  UNL d   1       5.999  -4.885   5.167  0.00  0.00     0.000 A 
ATOM      5  C6  UNL d   1       6.000  -4.717   3.783  0.00  0.00     0.000 A 
ATOM      6  C7  UNL d   1       5.975  -3.434   3.210  0.00  0.00    -0.073 A 
ATOM      7  C8  UNL d   1       5.970  -3.312   1.711  0.00  0.00     0.078 C 
ENDROOT
BRANCH   1   8
ATOM      8  C1  UNL d   1       5.843  -0.895   3.515  0.00  0.00     0.053 C 
ATOM      9  C   UNL d   1       4.652  -0.122   4.061  0.00  0.00     0.018 C 
ENDBRANCH   1   8
TORSDOF 1
ENDMDL
