MODEL 1
REMARK minimizedAffinity 2.23795485
REMARK minimizedRMSD -1
REMARK  1 active torsions:
REMARK  status: ('A' for Active; 'I' for Inactive)
REMARK    1  A    between atoms: C1_2  and  C2_3 
ROOT
ATOM      1  C2  UNL d   1      -0.362  -1.396   0.805  0.00  0.00    -0.076 A 
ATOM      2  C3  UNL d   1       0.503  -0.888  -0.180  0.00  0.00     0.004 A 
ATOM      3  C4  UNL d   1       1.054   0.387  -0.062  0.00  0.00    -0.003 A 
ATOM      4  C5  UNL d   1       0.750   1.174   1.043  0.00  0.00     0.000 A 
ATOM      5  C6  UNL d   1      -0.092   0.679   2.039  0.00  0.00     0.000 A 
ATOM      6  C7  UNL d   1      -0.643  -0.610   1.943  0.00  0.00    -0.073 A 
ATOM      7  C8  UNL d   1      -1.550  -1.091   3.043  0.00  0.00     0.078 C 
ENDROOT
BRANCH   1   8
ATOM      8  C1  UNL d   1      -0.951  -2.775   0.610  0.00  0.00     0.053 C 
ATOM      9  C   UNL d   1      -2.150  -2.769  -0.325  0.00  0.00     0.018 C 
ENDBRANCH   1   8
TORSDOF 1
ENDMDL
