MODEL 1
REMARK minimizedAffinity 4.29246473
REMARK minimizedRMSD -1
REMARK  1 active torsions:
REMARK  status: ('A' for Active; 'I' for Inactive)
REMARK    1  A    between atoms: C1_2  and  C2_3 
ROOT
ATOM      1  C2  UNL d   1      -0.128  -1.099  -0.035  0.00  0.00    -0.076 A 
ATOM      2  C3  UNL d   1      -1.084  -2.087  -0.330  0.00  0.00     0.004 A 
ATOM      3  C4  UNL d   1      -2.212  -2.254   0.471  0.00  0.00    -0.003 A 
ATOM      4  C5  UNL d   1      -2.405  -1.435   1.578  0.00  0.00     0.000 A 
ATOM      5  C6  UNL d   1      -1.476  -0.439   1.875  0.00  0.00     0.000 A 
ATOM      6  C7  UNL d   1      -0.341  -0.246   1.069  0.00  0.00    -0.073 A 
ATOM      7  C8  UNL d   1       0.632   0.841   1.440  0.00  0.00     0.078 C 
ENDROOT
BRANCH   1   8
ATOM      8  C1  UNL d   1       1.090  -0.982  -0.923  0.00  0.00     0.053 C 
ATOM      9  C   UNL d   1       2.008  -2.190  -0.815  0.00  0.00     0.018 C 
ENDBRANCH   1   8
TORSDOF 1
ENDMDL
