MODEL 1
REMARK minimizedAffinity 7.16680288
REMARK minimizedRMSD -1
REMARK  1 active torsions:
REMARK  status: ('A' for Active; 'I' for Inactive)
REMARK    1  A    between atoms: C1_2  and  C2_3 
ROOT
ATOM      1  C2  UNL d   1      -0.397  -0.921  -1.192  0.00  0.00    -0.076 A 
ATOM      2  C3  UNL d   1      -1.422  -1.475  -0.406  0.00  0.00     0.004 A 
ATOM      3  C4  UNL d   1      -2.314  -2.403  -0.940  0.00  0.00    -0.003 A 
ATOM      4  C5  UNL d   1      -2.195  -2.793  -2.269  0.00  0.00     0.000 A 
ATOM      5  C6  UNL d   1      -1.174  -2.267  -3.059  0.00  0.00     0.000 A 
ATOM      6  C7  UNL d   1      -0.256  -1.342  -2.532  0.00  0.00    -0.073 A 
ATOM      7  C8  UNL d   1       0.823  -0.803  -3.430  0.00  0.00     0.078 C 
ENDROOT
BRANCH   1   8
ATOM      8  C1  UNL d   1       0.524   0.101  -0.566  0.00  0.00     0.053 C 
ATOM      9  C   UNL d   1      -0.158   0.907   0.529  0.00  0.00     0.018 C 
ENDBRANCH   1   8
TORSDOF 1
ENDMDL
