MODEL 1
REMARK minimizedAffinity 14.8294735
REMARK minimizedRMSD -1
REMARK  1 active torsions:
REMARK  status: ('A' for Active; 'I' for Inactive)
REMARK    1  A    between atoms: C1_2  and  C2_3 
ROOT
ATOM      1  C2  UNL d   1      -2.716  -2.869  -1.336  0.00  0.00    -0.076 A 
ATOM      2  C3  UNL d   1      -3.138  -1.577  -1.696  0.00  0.00     0.004 A 
ATOM      3  C4  UNL d   1      -3.288  -1.218  -3.034  0.00  0.00    -0.003 A 
ATOM      4  C5  UNL d   1      -3.018  -2.146  -4.035  0.00  0.00     0.000 A 
ATOM      5  C6  UNL d   1      -2.615  -3.437  -3.696  0.00  0.00     0.000 A 
ATOM      6  C7  UNL d   1      -2.476  -3.820  -2.351  0.00  0.00    -0.073 A 
ATOM      7  C8  UNL d   1      -2.032  -5.224  -2.042  0.00  0.00     0.078 C 
ENDROOT
BRANCH   1   8
ATOM      8  C1  UNL d   1      -2.546  -3.193   0.131  0.00  0.00     0.053 C 
ATOM      9  C   UNL d   1      -1.767  -2.121   0.878  0.00  0.00     0.018 C 
ENDBRANCH   1   8
TORSDOF 1
ENDMDL
