MODEL 1
REMARK minimizedAffinity 5.3988781
REMARK minimizedRMSD -1
REMARK  1 active torsions:
REMARK  status: ('A' for Active; 'I' for Inactive)
REMARK    1  A    between atoms: C1_2  and  C2_3 
ROOT
ATOM      1  C2  UNL d   1      -1.589  -1.898  -0.867  0.00  0.00    -0.076 A 
ATOM      2  C3  UNL d   1      -0.459  -1.453  -0.157  0.00  0.00     0.004 A 
ATOM      3  C4  UNL d   1       0.135  -0.227  -0.450  0.00  0.00    -0.003 A 
ATOM      4  C5  UNL d   1      -0.392   0.576  -1.456  0.00  0.00     0.000 A 
ATOM      5  C6  UNL d   1      -1.522   0.159  -2.158  0.00  0.00     0.000 A 
ATOM      6  C7  UNL d   1      -2.143  -1.068  -1.865  0.00  0.00    -0.073 A 
ATOM      7  C8  UNL d   1      -3.356  -1.471  -2.657  0.00  0.00     0.078 C 
ENDROOT
BRANCH   1   8
ATOM      8  C1  UNL d   1      -2.173  -3.249  -0.524  0.00  0.00     0.053 C 
ATOM      9  C   UNL d   1      -1.699  -4.345  -1.466  0.00  0.00     0.018 C 
ENDBRANCH   1   8
TORSDOF 1
ENDMDL
