MODEL 1
REMARK minimizedAffinity 11.4834833
REMARK minimizedRMSD -1
REMARK  1 active torsions:
REMARK  status: ('A' for Active; 'I' for Inactive)
REMARK    1  A    between atoms: C1_2  and  C2_3 
ROOT
ATOM      1  C2  UNL d   1       3.676   0.963  -2.795  0.00  0.00    -0.076 A 
ATOM      2  C3  UNL d   1       3.050   1.887  -3.649  0.00  0.00     0.004 A 
ATOM      3  C4  UNL d   1       3.136   1.756  -5.034  0.00  0.00    -0.003 A 
ATOM      4  C5  UNL d   1       3.848   0.697  -5.587  0.00  0.00     0.000 A 
ATOM      5  C6  UNL d   1       4.460  -0.239  -4.754  0.00  0.00     0.000 A 
ATOM      6  C7  UNL d   1       4.370  -0.130  -3.356  0.00  0.00    -0.073 A 
ATOM      7  C8  UNL d   1       5.055  -1.164  -2.506  0.00  0.00     0.078 C 
ENDROOT
BRANCH   1   8
ATOM      8  C1  UNL d   1       3.572   1.172  -1.301  0.00  0.00     0.053 C 
ATOM      9  C   UNL d   1       2.238   1.776  -0.889  0.00  0.00     0.018 C 
ENDBRANCH   1   8
TORSDOF 1
ENDMDL
