MODEL 1
REMARK minimizedAffinity -5.19698715
REMARK minimizedRMSD -1
REMARK  0 active torsions:
REMARK  status: ('A' for Active; 'I' for Inactive)
ROOT
ATOM      1  O1  BZF d   1       1.095  -0.687   0.475  0.00  0.00    -0.204 OA
ATOM      2  C2  BZF d   1       1.018   0.597  -0.028  0.00  0.00     0.174 A 
ATOM      3  C3  BZF d   1      -0.246   1.063   0.042  0.00  0.00    -0.012 A 
ATOM      4  C3A BZF d   1      -0.988   0.039   0.711  0.00  0.00    -0.107 A 
ATOM      5  C4  BZF d   1      -2.295  -0.078   1.090  0.00  0.00     0.055 A 
ATOM      6  C5  BZF d   1      -2.716  -1.238   1.658  0.00  0.00    -0.016 A 
ATOM      7  C6  BZF d   1      -1.861  -2.302   1.858  0.00  0.00     0.022 A 
ATOM      8  C7  BZF d   1      -0.555  -2.231   1.503  0.00  0.00     0.029 A 
ATOM      9  C7A BZF d   1      -0.118  -1.048   0.958  0.00  0.00     0.058 A 
ENDROOT
TORSDOF 0
ENDMDL
