MODEL 1
REMARK minimizedAffinity -6.30411482
REMARK minimizedRMSD -1
REMARK  0 active torsions:
REMARK  status: ('A' for Active; 'I' for Inactive)
ROOT
ATOM      1  O1  BZF d   1      -0.466   1.297  -0.161  0.00  0.00    -0.204 OA
ATOM      2  C2  BZF d   1       0.837   0.895  -0.385  0.00  0.00     0.174 A 
ATOM      3  C3  BZF d   1       1.004  -0.398  -0.041  0.00  0.00    -0.012 A 
ATOM      4  C3A BZF d   1      -0.296  -0.857   0.341  0.00  0.00    -0.107 A 
ATOM      5  C4  BZF d   1      -0.779  -2.061   0.768  0.00  0.00     0.055 A 
ATOM      6  C5  BZF d   1      -2.085  -2.158   1.130  0.00  0.00    -0.016 A 
ATOM      7  C6  BZF d   1      -2.934  -1.072   1.083  0.00  0.00     0.022 A 
ATOM      8  C7  BZF d   1      -2.502   0.141   0.661  0.00  0.00     0.029 A 
ATOM      9  C7A BZF d   1      -1.191   0.235   0.263  0.00  0.00     0.058 A 
ENDROOT
TORSDOF 0
ENDMDL
