MODEL 1
REMARK minimizedAffinity -5.87170601
REMARK minimizedRMSD -1
REMARK  0 active torsions:
REMARK  status: ('A' for Active; 'I' for Inactive)
ROOT
ATOM      1  O1  BZF d   1      -0.865   1.168   0.642  0.00  0.00    -0.204 OA
ATOM      2  C2  BZF d   1       0.415   0.904   0.194  0.00  0.00     0.174 A 
ATOM      3  C3  BZF d   1       0.689  -0.414   0.276  0.00  0.00    -0.012 A 
ATOM      4  C3A BZF d   1      -0.527  -1.024   0.722  0.00  0.00    -0.107 A 
ATOM      5  C4  BZF d   1      -0.890  -2.315   0.979  0.00  0.00     0.055 A 
ATOM      6  C5  BZF d   1      -2.132  -2.566   1.471  0.00  0.00    -0.016 A 
ATOM      7  C6  BZF d   1      -3.032  -1.551   1.723  0.00  0.00     0.022 A 
ATOM      8  C7  BZF d   1      -2.718  -0.255   1.479  0.00  0.00     0.029 A 
ATOM      9  C7A BZF d   1      -1.476  -0.001   0.950  0.00  0.00     0.058 A 
ENDROOT
TORSDOF 0
ENDMDL
