MODEL 1
REMARK minimizedAffinity -0.778095543
REMARK minimizedRMSD -1
REMARK  0 active torsions:
REMARK  status: ('A' for Active; 'I' for Inactive)
ROOT
ATOM      1  O1  BZF d   1      -0.711   1.166   0.300  0.00  0.00    -0.204 OA
ATOM      2  C2  BZF d   1       0.428   1.601  -0.351  0.00  0.00     0.174 A 
ATOM      3  C3  BZF d   1       1.282   0.577  -0.557  0.00  0.00    -0.012 A 
ATOM      4  C3A BZF d   1       0.596  -0.586  -0.082  0.00  0.00    -0.107 A 
ATOM      5  C4  BZF d   1       0.920  -1.911  -0.031  0.00  0.00     0.055 A 
ATOM      6  C5  BZF d   1       0.059  -2.780   0.561  0.00  0.00    -0.016 A 
ATOM      7  C6  BZF d   1      -1.132  -2.357   1.114  0.00  0.00     0.022 A 
ATOM      8  C7  BZF d   1      -1.500  -1.053   1.083  0.00  0.00     0.029 A 
ATOM      9  C7A BZF d   1      -0.646  -0.178   0.457  0.00  0.00     0.058 A 
ENDROOT
TORSDOF 0
ENDMDL
