MODEL 1
REMARK minimizedAffinity -3.66569829
REMARK minimizedRMSD -1
REMARK  0 active torsions:
REMARK  status: ('A' for Active; 'I' for Inactive)
ROOT
ATOM      1  O1  BZF d   1      -1.570   1.254   1.139  0.00  0.00    -0.204 OA
ATOM      2  C2  BZF d   1      -2.502   0.778   2.040  0.00  0.00     0.174 A 
ATOM      3  C3  BZF d   1      -2.316  -0.538   2.271  0.00  0.00    -0.012 A 
ATOM      4  C3A BZF d   1      -1.139  -0.886   1.535  0.00  0.00    -0.107 A 
ATOM      5  C4  BZF d   1      -0.439  -2.048   1.379  0.00  0.00     0.055 A 
ATOM      6  C5  BZF d   1       0.624  -2.070   0.533  0.00  0.00    -0.016 A 
ATOM      7  C6  BZF d   1       1.011  -0.951  -0.176  0.00  0.00     0.022 A 
ATOM      8  C7  BZF d   1       0.351   0.225  -0.050  0.00  0.00     0.029 A 
ATOM      9  C7A BZF d   1      -0.704   0.259   0.829  0.00  0.00     0.058 A 
ENDROOT
TORSDOF 0
ENDMDL
