MODEL 1
REMARK minimizedAffinity -2.18106627
REMARK minimizedRMSD -1
REMARK  0 active torsions:
REMARK  status: ('A' for Active; 'I' for Inactive)
ROOT
ATOM      1  O1  BZF d   1      -0.328   1.399  -0.203  0.00  0.00    -0.204 OA
ATOM      2  C2  BZF d   1       0.408   1.514  -1.367  0.00  0.00     0.174 A 
ATOM      3  C3  BZF d   1       1.115   0.390  -1.599  0.00  0.00    -0.012 A 
ATOM      4  C3A BZF d   1       0.730  -0.518  -0.562  0.00  0.00    -0.107 A 
ATOM      5  C4  BZF d   1       1.079  -1.804  -0.264  0.00  0.00     0.055 A 
ATOM      6  C5  BZF d   1       0.578  -2.380   0.861  0.00  0.00    -0.016 A 
ATOM      7  C6  BZF d   1      -0.268  -1.698   1.710  0.00  0.00     0.022 A 
ATOM      8  C7  BZF d   1      -0.646  -0.422   1.453  0.00  0.00     0.029 A 
ATOM      9  C7A BZF d   1      -0.168   0.151   0.300  0.00  0.00     0.058 A 
ENDROOT
TORSDOF 0
ENDMDL
