MODEL 1
REMARK minimizedAffinity -3.68726659
REMARK minimizedRMSD -1
REMARK  0 active torsions:
REMARK  status: ('A' for Active; 'I' for Inactive)
ROOT
ATOM      1  O1  BZF d   1      -0.711  -2.833   1.241  0.00  0.00    -0.204 OA
ATOM      2  C2  BZF d   1      -1.935  -2.697   1.866  0.00  0.00     0.174 A 
ATOM      3  C3  BZF d   1      -2.337  -1.410   1.856  0.00  0.00    -0.012 A 
ATOM      4  C3A BZF d   1      -1.342  -0.710   1.103  0.00  0.00    -0.107 A 
ATOM      5  C4  BZF d   1      -1.191   0.595   0.731  0.00  0.00     0.055 A 
ATOM      6  C5  BZF d   1      -0.069   0.965   0.059  0.00  0.00    -0.016 A 
ATOM      7  C6  BZF d   1       0.923   0.058  -0.252  0.00  0.00     0.022 A 
ATOM      8  C7  BZF d   1       0.816  -1.249   0.091  0.00  0.00     0.029 A 
ATOM      9  C7A BZF d   1      -0.332  -1.632   0.741  0.00  0.00     0.058 A 
ENDROOT
TORSDOF 0
ENDMDL
