MODEL 1
REMARK minimizedAffinity -3.55321598
REMARK minimizedRMSD -1
REMARK  0 active torsions:
REMARK  status: ('A' for Active; 'I' for Inactive)
ROOT
ATOM      1  O1  BZF d   1      -2.001  -0.838   1.810  0.00  0.00    -0.204 OA
ATOM      2  C2  BZF d   1      -1.578  -2.151   1.881  0.00  0.00     0.174 A 
ATOM      3  C3  BZF d   1      -0.479  -2.341   1.122  0.00  0.00    -0.012 A 
ATOM      4  C3A BZF d   1      -0.145  -1.047   0.613  0.00  0.00    -0.107 A 
ATOM      5  C4  BZF d   1       0.857  -0.584  -0.192  0.00  0.00     0.055 A 
ATOM      6  C5  BZF d   1       0.858   0.724  -0.560  0.00  0.00    -0.016 A 
ATOM      7  C6  BZF d   1      -0.129   1.595  -0.148  0.00  0.00     0.022 A 
ATOM      8  C7  BZF d   1      -1.141   1.184   0.655  0.00  0.00     0.029 A 
ATOM      9  C7A BZF d   1      -1.126  -0.130   1.056  0.00  0.00     0.058 A 
ENDROOT
TORSDOF 0
ENDMDL
