MODEL 1
REMARK minimizedAffinity 0.361269414
REMARK minimizedRMSD -1
REMARK  0 active torsions:
REMARK  status: ('A' for Active; 'I' for Inactive)
ROOT
ATOM      1  O1  BZF d   1      -1.672   1.305   0.929  0.00  0.00    -0.204 OA
ATOM      2  C2  BZF d   1      -2.641   1.085   1.889  0.00  0.00     0.174 A 
ATOM      3  C3  BZF d   1      -2.666  -0.212   2.255  0.00  0.00    -0.012 A 
ATOM      4  C3A BZF d   1      -1.587  -0.825   1.543  0.00  0.00    -0.107 A 
ATOM      5  C4  BZF d   1      -1.093  -2.098   1.501  0.00  0.00     0.055 A 
ATOM      6  C5  BZF d   1      -0.075  -2.383   0.646  0.00  0.00    -0.016 A 
ATOM      7  C6  BZF d   1       0.468  -1.423  -0.182  0.00  0.00     0.022 A 
ATOM      8  C7  BZF d   1       0.014  -0.146  -0.172  0.00  0.00     0.029 A 
ATOM      9  C7A BZF d   1      -0.992   0.153   0.714  0.00  0.00     0.058 A 
ENDROOT
TORSDOF 0
ENDMDL
