MODEL 1
REMARK minimizedAffinity 0.412804931
REMARK minimizedRMSD -1
REMARK  0 active torsions:
REMARK  status: ('A' for Active; 'I' for Inactive)
ROOT
ATOM      1  O1  BZF d   1      -0.879   0.973  -0.591  0.00  0.00    -0.204 OA
ATOM      2  C2  BZF d   1      -0.090   0.396   0.386  0.00  0.00     0.174 A 
ATOM      3  C3  BZF d   1       1.217   0.504   0.072  0.00  0.00    -0.012 A 
ATOM      4  C3A BZF d   1       1.251   1.273  -1.134  0.00  0.00    -0.107 A 
ATOM      5  C4  BZF d   1       2.265   1.727  -1.929  0.00  0.00     0.055 A 
ATOM      6  C5  BZF d   1       1.959   2.388  -3.076  0.00  0.00    -0.016 A 
ATOM      7  C6  BZF d   1       0.652   2.608  -3.461  0.00  0.00     0.022 A 
ATOM      8  C7  BZF d   1      -0.387   2.181  -2.703  0.00  0.00     0.029 A 
ATOM      9  C7A BZF d   1      -0.080   1.541  -1.526  0.00  0.00     0.058 A 
ENDROOT
TORSDOF 0
ENDMDL
