MODEL 1
REMARK minimizedAffinity -5.72754288
REMARK minimizedRMSD -1
REMARK  0 active torsions:
REMARK  status: ('A' for Active; 'I' for Inactive)
ROOT
ATOM      1  O1  BZF d   1       1.059   0.166   0.506  0.00  0.00    -0.204 OA
ATOM      2  C2  BZF d   1       1.917  -0.916   0.479  0.00  0.00     0.174 A 
ATOM      3  C3  BZF d   1       1.241  -2.068   0.661  0.00  0.00    -0.012 A 
ATOM      4  C3A BZF d   1      -0.138  -1.690   0.720  0.00  0.00    -0.107 A 
ATOM      5  C4  BZF d   1      -1.298  -2.393   0.872  0.00  0.00     0.055 A 
ATOM      6  C5  BZF d   1      -2.474  -1.717   0.961  0.00  0.00    -0.016 A 
ATOM      7  C6  BZF d   1      -2.524  -0.339   0.908  0.00  0.00     0.022 A 
ATOM      8  C7  BZF d   1      -1.400   0.401   0.753  0.00  0.00     0.029 A 
ATOM      9  C7A BZF d   1      -0.214  -0.281   0.629  0.00  0.00     0.058 A 
ENDROOT
TORSDOF 0
ENDMDL
