MODEL 1
REMARK minimizedAffinity -5.36878443
REMARK minimizedRMSD -1
REMARK  0 active torsions:
REMARK  status: ('A' for Active; 'I' for Inactive)
ROOT
ATOM      1  O1  BZF d   1      -0.415   0.530   0.423  0.00  0.00    -0.204 OA
ATOM      2  C2  BZF d   1       0.741  -0.178   0.158  0.00  0.00     0.174 A 
ATOM      3  C3  BZF d   1       0.617  -1.462   0.553  0.00  0.00    -0.012 A 
ATOM      4  C3A BZF d   1      -0.732  -1.585   1.015  0.00  0.00    -0.107 A 
ATOM      5  C4  BZF d   1      -1.460  -2.624   1.519  0.00  0.00     0.055 A 
ATOM      6  C5  BZF d   1      -2.730  -2.395   1.944  0.00  0.00    -0.016 A 
ATOM      7  C6  BZF d   1      -3.301  -1.141   1.886  0.00  0.00     0.022 A 
ATOM      8  C7  BZF d   1      -2.619  -0.080   1.390  0.00  0.00     0.029 A 
ATOM      9  C7A BZF d   1      -1.347  -0.315   0.929  0.00  0.00     0.058 A 
ENDROOT
TORSDOF 0
ENDMDL
