MODEL 1
REMARK minimizedAffinity -2.04853368
REMARK minimizedRMSD -1
REMARK  0 active torsions:
REMARK  status: ('A' for Active; 'I' for Inactive)
ROOT
ATOM      1  O1  BZF d   1       1.315   0.612  -1.262  0.00  0.00    -0.204 OA
ATOM      2  C2  BZF d   1       0.659   1.827  -1.297  0.00  0.00     0.174 A 
ATOM      3  C3  BZF d   1      -0.390   1.829  -0.449  0.00  0.00    -0.012 A 
ATOM      4  C3A BZF d   1      -0.334   0.567   0.222  0.00  0.00    -0.107 A 
ATOM      5  C4  BZF d   1      -1.098  -0.016   1.192  0.00  0.00     0.055 A 
ATOM      6  C5  BZF d   1      -0.820  -1.289   1.577  0.00  0.00    -0.016 A 
ATOM      7  C6  BZF d   1       0.211  -2.010   1.010  0.00  0.00     0.022 A 
ATOM      8  C7  BZF d   1       0.999  -1.473   0.047  0.00  0.00     0.029 A 
ATOM      9  C7A BZF d   1       0.741  -0.175  -0.320  0.00  0.00     0.058 A 
ENDROOT
TORSDOF 0
ENDMDL
