MODEL 1
REMARK minimizedAffinity -4.83141756
REMARK minimizedRMSD -1
REMARK  0 active torsions:
REMARK  status: ('A' for Active; 'I' for Inactive)
ROOT
ATOM      1  O1  BZF d   1      -1.573   1.295   1.034  0.00  0.00    -0.204 OA
ATOM      2  C2  BZF d   1      -2.718   0.736   1.567  0.00  0.00     0.174 A 
ATOM      3  C3  BZF d   1      -2.612  -0.607   1.625  0.00  0.00    -0.012 A 
ATOM      4  C3A BZF d   1      -1.284  -0.899   1.181  0.00  0.00    -0.107 A 
ATOM      5  C4  BZF d   1      -0.578  -2.059   1.032  0.00  0.00     0.055 A 
ATOM      6  C5  BZF d   1       0.674  -2.006   0.506  0.00  0.00    -0.016 A 
ATOM      7  C6  BZF d   1       1.248  -0.815   0.114  0.00  0.00     0.022 A 
ATOM      8  C7  BZF d   1       0.588   0.362   0.248  0.00  0.00     0.029 A 
ATOM      9  C7A BZF d   1      -0.664   0.316   0.810  0.00  0.00     0.058 A 
ENDROOT
TORSDOF 0
ENDMDL
