MODEL 1
REMARK minimizedAffinity -5.11429548
REMARK minimizedRMSD -1
REMARK  0 active torsions:
REMARK  status: ('A' for Active; 'I' for Inactive)
ROOT
ATOM      1  O1  BZF d   1       0.021  -0.277   0.517  0.00  0.00    -0.204 OA
ATOM      2  C2  BZF d   1       0.853  -1.363   0.325  0.00  0.00     0.174 A 
ATOM      3  C3  BZF d   1       0.255  -2.501   0.732  0.00  0.00    -0.012 A 
ATOM      4  C3A BZF d   1      -1.065  -2.114   1.124  0.00  0.00    -0.107 A 
ATOM      5  C4  BZF d   1      -2.142  -2.803   1.603  0.00  0.00     0.055 A 
ATOM      6  C5  BZF d   1      -3.261  -2.117   1.958  0.00  0.00    -0.016 A 
ATOM      7  C6  BZF d   1      -3.335  -0.744   1.851  0.00  0.00     0.022 A 
ATOM      8  C7  BZF d   1      -2.294  -0.017   1.375  0.00  0.00     0.029 A 
ATOM      9  C7A BZF d   1      -1.174  -0.711   0.986  0.00  0.00     0.058 A 
ENDROOT
TORSDOF 0
ENDMDL
