MODEL 1
REMARK minimizedAffinity -3.30686092
REMARK minimizedRMSD -1
REMARK  0 active torsions:
REMARK  status: ('A' for Active; 'I' for Inactive)
ROOT
ATOM      1  O1  BZF d   1      -1.891   0.895   1.768  0.00  0.00    -0.204 OA
ATOM      2  C2  BZF d   1      -2.525  -0.046   2.555  0.00  0.00     0.174 A 
ATOM      3  C3  BZF d   1      -1.961  -1.261   2.395  0.00  0.00    -0.012 A 
ATOM      4  C3A BZF d   1      -0.850  -1.048   1.519  0.00  0.00    -0.107 A 
ATOM      5  C4  BZF d   1       0.107  -1.872   0.999  0.00  0.00     0.055 A 
ATOM      6  C5  BZF d   1       1.006  -1.365   0.116  0.00  0.00    -0.016 A 
ATOM      7  C6  BZF d   1       0.975  -0.042  -0.273  0.00  0.00     0.022 A 
ATOM      8  C7  BZF d   1       0.047   0.815   0.219  0.00  0.00     0.029 A 
ATOM      9  C7A BZF d   1      -0.843   0.313   1.137  0.00  0.00     0.058 A 
ENDROOT
TORSDOF 0
ENDMDL
