MODEL 1
REMARK minimizedAffinity -5.61789131
REMARK minimizedRMSD -1
REMARK  0 active torsions:
REMARK  status: ('A' for Active; 'I' for Inactive)
ROOT
ATOM      1  O1  BZF d   1      -0.283   1.259   0.295  0.00  0.00    -0.204 OA
ATOM      2  C2  BZF d   1       1.020   0.853   0.086  0.00  0.00     0.174 A 
ATOM      3  C3  BZF d   1       1.189  -0.430   0.464  0.00  0.00    -0.012 A 
ATOM      4  C3A BZF d   1      -0.112  -0.881   0.854  0.00  0.00    -0.107 A 
ATOM      5  C4  BZF d   1      -0.594  -2.074   1.311  0.00  0.00     0.055 A 
ATOM      6  C5  BZF d   1      -1.901  -2.164   1.671  0.00  0.00    -0.016 A 
ATOM      7  C6  BZF d   1      -2.752  -1.081   1.593  0.00  0.00     0.022 A 
ATOM      8  C7  BZF d   1      -2.321   0.122   1.141  0.00  0.00     0.029 A 
ATOM      9  C7A BZF d   1      -1.009   0.207   0.745  0.00  0.00     0.058 A 
ENDROOT
TORSDOF 0
ENDMDL
