MODEL 1
REMARK minimizedAffinity -5.14362717
REMARK minimizedRMSD -1
REMARK  0 active torsions:
REMARK  status: ('A' for Active; 'I' for Inactive)
ROOT
ATOM      1  O1  BZF d   1      -0.676   0.713   0.796  0.00  0.00    -0.204 OA
ATOM      2  C2  BZF d   1       0.581   0.248   0.459  0.00  0.00     0.174 A 
ATOM      3  C3  BZF d   1       0.638  -1.095   0.567  0.00  0.00    -0.012 A 
ATOM      4  C3A BZF d   1      -0.690  -1.502   0.908  0.00  0.00    -0.107 A 
ATOM      5  C4  BZF d   1      -1.270  -2.718   1.135  0.00  0.00     0.055 A 
ATOM      6  C5  BZF d   1      -2.572  -2.766   1.521  0.00  0.00    -0.016 A 
ATOM      7  C6  BZF d   1      -3.322  -1.621   1.694  0.00  0.00     0.022 A 
ATOM      8  C7  BZF d   1      -2.791  -0.393   1.476  0.00  0.00     0.029 A 
ATOM      9  C7A BZF d   1      -1.485  -0.342   1.054  0.00  0.00     0.058 A 
ENDROOT
TORSDOF 0
ENDMDL
