MODEL 1
REMARK minimizedAffinity -5.407794
REMARK minimizedRMSD -1
REMARK  0 active torsions:
REMARK  status: ('A' for Active; 'I' for Inactive)
ROOT
ATOM      1  O1  BZF d   1      -0.492   0.639  -0.148  0.00  0.00    -0.204 OA
ATOM      2  C2  BZF d   1       0.532  -0.192  -0.561  0.00  0.00     0.174 A 
ATOM      3  C3  BZF d   1       0.407  -1.416  -0.007  0.00  0.00    -0.012 A 
ATOM      4  C3A BZF d   1      -0.818  -1.372   0.730  0.00  0.00    -0.107 A 
ATOM      5  C4  BZF d   1      -1.493  -2.288   1.485  0.00  0.00     0.055 A 
ATOM      6  C5  BZF d   1      -2.626  -1.906   2.131  0.00  0.00    -0.016 A 
ATOM      7  C6  BZF d   1      -3.109  -0.617   2.049  0.00  0.00     0.022 A 
ATOM      8  C7  BZF d   1      -2.477   0.326   1.308  0.00  0.00     0.029 A 
ATOM      9  C7A BZF d   1      -1.350  -0.066   0.627  0.00  0.00     0.058 A 
ENDROOT
TORSDOF 0
ENDMDL
