MODEL 1
REMARK minimizedAffinity -0.379884869
REMARK minimizedRMSD -1
REMARK  3 active torsions:
REMARK  status: ('A' for Active; 'I' for Inactive)
REMARK    1  A    between atoms: C3'_2  and  C2'_3 
REMARK    2  A    between atoms: C2'_3  and  C1'_4 
REMARK    3  A    between atoms: C1'_4  and  C1_5 
ROOT
ATOM      1  C1  N4B d   1      -0.498  -0.438  -0.856  0.00  0.00    -0.075 A 
ATOM      2  C2  N4B d   1      -0.493  -0.377  -2.267  0.00  0.00     0.002 A 
ATOM      3  C3  N4B d   1       0.698  -0.387  -2.950  0.00  0.00     0.002 A 
ATOM      4  C4  N4B d   1       1.892  -0.439  -2.247  0.00  0.00    -0.004 A 
ATOM      5  C5  N4B d   1       1.878  -0.524  -0.886  0.00  0.00     0.002 A 
ATOM      6  C6  N4B d   1       0.688  -0.518  -0.185  0.00  0.00     0.002 A 
ENDROOT
BRANCH   1   7
ATOM      7  C1' N4B d   1      -1.771  -0.343  -0.061  0.00  0.00     0.057 C 
BRANCH   7   8
ATOM      8  C2' N4B d   1      -1.665  -1.245   1.166  0.00  0.00     0.009 C 
BRANCH   8   9
ATOM      9  C3' N4B d   1      -2.026  -0.509   2.445  0.00  0.00     0.004 C 
ATOM     10  C4' N4B d   1      -2.831  -1.350   3.391  0.00  0.00     0.003 C 
ENDBRANCH   8   9
ENDBRANCH   7   8
ENDBRANCH   1   7
TORSDOF 3
ENDMDL
