MODEL 1
REMARK minimizedAffinity -2.26409507
REMARK minimizedRMSD -1
REMARK  3 active torsions:
REMARK  status: ('A' for Active; 'I' for Inactive)
REMARK    1  A    between atoms: C3'_2  and  C2'_3 
REMARK    2  A    between atoms: C2'_3  and  C1'_4 
REMARK    3  A    between atoms: C1'_4  and  C1_5 
ROOT
ATOM      1  C1  N4B d   1      -0.125   0.085  -0.285  0.00  0.00    -0.075 A 
ATOM      2  C2  N4B d   1       0.845   0.547   0.632  0.00  0.00     0.002 A 
ATOM      3  C3  N4B d   1       0.454   1.073   1.838  0.00  0.00     0.002 A 
ATOM      4  C4  N4B d   1      -0.896   1.165   2.141  0.00  0.00    -0.004 A 
ATOM      5  C5  N4B d   1      -1.826   0.693   1.261  0.00  0.00     0.002 A 
ATOM      6  C6  N4B d   1      -1.447   0.158   0.046  0.00  0.00     0.002 A 
ENDROOT
BRANCH   1   7
ATOM      7  C1' N4B d   1       0.250  -0.419  -1.652  0.00  0.00     0.057 C 
BRANCH   7   8
ATOM      8  C2' N4B d   1       1.477   0.342  -2.147  0.00  0.00     0.009 C 
BRANCH   8   9
ATOM      9  C3' N4B d   1       1.367   0.700  -3.619  0.00  0.00     0.004 C 
ATOM     10  C4' N4B d   1      -0.047   0.678  -4.119  0.00  0.00     0.003 C 
ENDBRANCH   8   9
ENDBRANCH   7   8
ENDBRANCH   1   7
TORSDOF 3
ENDMDL
