MODEL 1
REMARK minimizedAffinity -4.20518494
REMARK minimizedRMSD -1
REMARK  3 active torsions:
REMARK  status: ('A' for Active; 'I' for Inactive)
REMARK    1  A    between atoms: C3'_2  and  C2'_3 
REMARK    2  A    between atoms: C2'_3  and  C1'_4 
REMARK    3  A    between atoms: C1'_4  and  C1_5 
ROOT
ATOM      1  C1  N4B d   1       0.767  -0.260  -0.193  0.00  0.00    -0.075 A 
ATOM      2  C2  N4B d   1       1.736  -0.024   0.806  0.00  0.00     0.002 A 
ATOM      3  C3  N4B d   1       1.417   0.733   1.907  0.00  0.00     0.002 A 
ATOM      4  C4  N4B d   1       0.146   1.278   2.020  0.00  0.00    -0.004 A 
ATOM      5  C5  N4B d   1      -0.792   1.024   1.062  0.00  0.00     0.002 A 
ATOM      6  C6  N4B d   1      -0.486   0.261  -0.047  0.00  0.00     0.002 A 
ENDROOT
BRANCH   1   7
ATOM      7  C1' N4B d   1       1.094  -1.010  -1.456  0.00  0.00     0.057 C 
BRANCH   7   8
ATOM      8  C2' N4B d   1       0.193  -0.512  -2.582  0.00  0.00     0.009 C 
BRANCH   8   9
ATOM      9  C3' N4B d   1       0.886  -0.572  -3.932  0.00  0.00     0.004 C 
ATOM     10  C4' N4B d   1       2.014   0.410  -4.051  0.00  0.00     0.003 C 
ENDBRANCH   8   9
ENDBRANCH   7   8
ENDBRANCH   1   7
TORSDOF 3
ENDMDL
