MODEL 1
REMARK minimizedAffinity -6.21811199
REMARK minimizedRMSD -1
REMARK  3 active torsions:
REMARK  status: ('A' for Active; 'I' for Inactive)
REMARK    1  A    between atoms: C3'_2  and  C2'_3 
REMARK    2  A    between atoms: C2'_3  and  C1'_4 
REMARK    3  A    between atoms: C1'_4  and  C1_5 
ROOT
ATOM      1  C1  N4B d   1      -0.255  -0.114   0.356  0.00  0.00    -0.075 A 
ATOM      2  C2  N4B d   1       0.067   0.242   1.684  0.00  0.00     0.002 A 
ATOM      3  C3  N4B d   1      -0.935   0.489   2.591  0.00  0.00     0.002 A 
ATOM      4  C4  N4B d   1      -2.259   0.404   2.190  0.00  0.00    -0.004 A 
ATOM      5  C5  N4B d   1      -2.562   0.035   0.912  0.00  0.00     0.002 A 
ATOM      6  C6  N4B d   1      -1.566  -0.220  -0.009  0.00  0.00     0.002 A 
ENDROOT
BRANCH   1   7
ATOM      7  C1' N4B d   1       0.805  -0.309  -0.693  0.00  0.00     0.057 C 
BRANCH   7   8
ATOM      8  C2' N4B d   1       0.135  -0.553  -2.042  0.00  0.00     0.009 C 
BRANCH   8   9
ATOM      9  C3' N4B d   1       1.151  -0.746  -3.155  0.00  0.00     0.004 C 
ATOM     10  C4' N4B d   1       1.053   0.306  -4.219  0.00  0.00     0.003 C 
ENDBRANCH   8   9
ENDBRANCH   7   8
ENDBRANCH   1   7
TORSDOF 3
ENDMDL
