MODEL 1
REMARK minimizedAffinity -2.59641576
REMARK minimizedRMSD -1
REMARK  3 active torsions:
REMARK  status: ('A' for Active; 'I' for Inactive)
REMARK    1  A    between atoms: C3'_2  and  C2'_3 
REMARK    2  A    between atoms: C2'_3  and  C1'_4 
REMARK    3  A    between atoms: C1'_4  and  C1_5 
ROOT
ATOM      1  C1  N4B d   1      -0.309  -0.426   0.133  0.00  0.00    -0.075 A 
ATOM      2  C2  N4B d   1      -1.672  -0.069   0.230  0.00  0.00     0.002 A 
ATOM      3  C3  N4B d   1      -2.165   0.447   1.403  0.00  0.00     0.002 A 
ATOM      4  C4  N4B d   1      -1.321   0.598   2.494  0.00  0.00    -0.004 A 
ATOM      5  C5  N4B d   1      -0.000   0.275   2.384  0.00  0.00     0.002 A 
ATOM      6  C6  N4B d   1       0.509  -0.242   1.209  0.00  0.00     0.002 A 
ENDROOT
BRANCH   1   7
ATOM      7  C1' N4B d   1       0.256  -1.074  -1.101  0.00  0.00     0.057 C 
BRANCH   7   8
ATOM      8  C2' N4B d   1       1.079  -0.048  -1.874  0.00  0.00     0.009 C 
BRANCH   8   9
ATOM      9  C3' N4B d   1       0.815  -0.117  -3.369  0.00  0.00     0.004 C 
ATOM     10  C4' N4B d   1       1.725   0.774  -4.161  0.00  0.00     0.003 C 
ENDBRANCH   8   9
ENDBRANCH   7   8
ENDBRANCH   1   7
TORSDOF 3
ENDMDL
