MODEL 1
REMARK minimizedAffinity -3.04720187
REMARK minimizedRMSD -1
REMARK  3 active torsions:
REMARK  status: ('A' for Active; 'I' for Inactive)
REMARK    1  A    between atoms: C3'_2  and  C2'_3 
REMARK    2  A    between atoms: C2'_3  and  C1'_4 
REMARK    3  A    between atoms: C1'_4  and  C1_5 
ROOT
ATOM      1  C1  N4B d   1       0.971  -0.714  -2.713  0.00  0.00    -0.075 A 
ATOM      2  C2  N4B d   1      -0.220  -0.856  -3.458  0.00  0.00     0.002 A 
ATOM      3  C3  N4B d   1      -0.313  -0.308  -4.714  0.00  0.00     0.002 A 
ATOM      4  C4  N4B d   1       0.760   0.399  -5.236  0.00  0.00    -0.004 A 
ATOM      5  C5  N4B d   1       1.916   0.510  -4.520  0.00  0.00     0.002 A 
ATOM      6  C6  N4B d   1       2.025  -0.039  -3.258  0.00  0.00     0.002 A 
ENDROOT
BRANCH   1   7
ATOM      7  C1' N4B d   1       1.091  -1.222  -1.302  0.00  0.00     0.057 C 
BRANCH   7   8
ATOM      8  C2' N4B d   1       0.136  -0.439  -0.406  0.00  0.00     0.009 C 
BRANCH   8   9
ATOM      9  C3' N4B d   1       0.859   0.217   0.758  0.00  0.00     0.004 C 
ATOM     10  C4' N4B d   1      -0.056   1.027   1.628  0.00  0.00     0.003 C 
ENDBRANCH   8   9
ENDBRANCH   7   8
ENDBRANCH   1   7
TORSDOF 3
ENDMDL
