MODEL 1
REMARK minimizedAffinity 3.0654726
REMARK minimizedRMSD -1
REMARK  0 active torsions:
REMARK  status: ('A' for Active; 'I' for Inactive)
ROOT
ATOM      1  C   UNL d   1       0.155   5.296  -5.839  0.00  0.00     0.077 C 
ATOM      2  C1  UNL d   1      -1.138   5.530  -5.116  0.00  0.00    -0.074 A 
ATOM      3  C2  UNL d   1      -1.164   5.709  -3.729  0.00  0.00    -0.005 A 
ATOM      4  C3  UNL d   1      -2.374   5.935  -3.072  0.00  0.00     0.006 A 
ATOM      5  C4  UNL d   1      -3.567   5.984  -3.794  0.00  0.00    -0.005 A 
ATOM      6  C5  UNL d   1      -3.560   5.808  -5.181  0.00  0.00    -0.074 A 
ATOM      7  C6  UNL d   1      -4.832   5.867  -5.973  0.00  0.00     0.077 C 
ATOM      8  C7  UNL d   1      -2.340   5.588  -5.835  0.00  0.00    -0.001 A 
ENDROOT
TORSDOF 0
ENDMDL
