MODEL 1
REMARK minimizedAffinity 2.98356271
REMARK minimizedRMSD -1
REMARK  0 active torsions:
REMARK  status: ('A' for Active; 'I' for Inactive)
ROOT
ATOM      1  C   UNL d   1       1.447   2.788  -2.418  0.00  0.00     0.077 C 
ATOM      2  C1  UNL d   1       2.819   3.261  -2.795  0.00  0.00    -0.074 A 
ATOM      3  C2  UNL d   1       3.381   2.924  -4.031  0.00  0.00    -0.005 A 
ATOM      4  C3  UNL d   1       4.654   3.379  -4.372  0.00  0.00     0.006 A 
ATOM      5  C4  UNL d   1       5.378   4.175  -3.483  0.00  0.00    -0.005 A 
ATOM      6  C5  UNL d   1       4.832   4.523  -2.244  0.00  0.00    -0.074 A 
ATOM      7  C6  UNL d   1       5.592   5.385  -1.280  0.00  0.00     0.077 C 
ATOM      8  C7  UNL d   1       3.549   4.068  -1.911  0.00  0.00    -0.001 A 
ENDROOT
TORSDOF 0
ENDMDL
