MODEL 1
REMARK minimizedAffinity 3.23663092
REMARK minimizedRMSD -1
REMARK  0 active torsions:
REMARK  status: ('A' for Active; 'I' for Inactive)
ROOT
ATOM      1  C   UNL d   1      -5.795   1.727  -1.876  0.00  0.00     0.077 C 
ATOM      2  C1  UNL d   1      -5.632   3.218  -1.891  0.00  0.00    -0.074 A 
ATOM      3  C2  UNL d   1      -6.000   3.992  -0.787  0.00  0.00    -0.005 A 
ATOM      4  C3  UNL d   1      -5.834   5.377  -0.812  0.00  0.00     0.006 A 
ATOM      5  C4  UNL d   1      -5.299   6.000  -1.940  0.00  0.00    -0.005 A 
ATOM      6  C5  UNL d   1      -4.924   5.241  -3.054  0.00  0.00    -0.074 A 
ATOM      7  C6  UNL d   1      -4.339   5.894  -4.271  0.00  0.00     0.077 C 
ATOM      8  C7  UNL d   1      -5.088   3.850  -3.018  0.00  0.00    -0.001 A 
ENDROOT
TORSDOF 0
ENDMDL
