MODEL 1
REMARK minimizedAffinity 2.75043988
REMARK minimizedRMSD -1
REMARK  0 active torsions:
REMARK  status: ('A' for Active; 'I' for Inactive)
ROOT
ATOM      1  C   UNL d   1      -2.329  -1.493   1.224  0.00  0.00     0.077 C 
ATOM      2  C1  UNL d   1      -3.175  -0.852   2.284  0.00  0.00    -0.074 A 
ATOM      3  C2  UNL d   1      -4.569  -0.956   2.251  0.00  0.00    -0.005 A 
ATOM      4  C3  UNL d   1      -5.343  -0.363   3.248  0.00  0.00     0.006 A 
ATOM      5  C4  UNL d   1      -4.731   0.339   4.288  0.00  0.00    -0.005 A 
ATOM      6  C5  UNL d   1      -3.338   0.452   4.339  0.00  0.00    -0.074 A 
ATOM      7  C6  UNL d   1      -2.664   1.194   5.455  0.00  0.00     0.077 C 
ATOM      8  C7  UNL d   1      -2.567  -0.153   3.336  0.00  0.00    -0.001 A 
ENDROOT
TORSDOF 0
ENDMDL
