MODEL 1
REMARK minimizedAffinity 14.9865913
REMARK minimizedRMSD -1
REMARK  0 active torsions:
REMARK  status: ('A' for Active; 'I' for Inactive)
ROOT
ATOM      1  C   UNL d   1      -5.997   0.332  -3.698  0.00  0.00     0.077 C 
ATOM      2  C1  UNL d   1      -5.641   0.493  -2.250  0.00  0.00    -0.074 A 
ATOM      3  C2  UNL d   1      -5.999   1.647  -1.546  0.00  0.00    -0.005 A 
ATOM      4  C3  UNL d   1      -5.670   1.778  -0.197  0.00  0.00     0.006 A 
ATOM      5  C4  UNL d   1      -4.981   0.759   0.460  0.00  0.00    -0.005 A 
ATOM      6  C5  UNL d   1      -4.615  -0.403  -0.227  0.00  0.00    -0.074 A 
ATOM      7  C6  UNL d   1      -3.883  -1.512   0.467  0.00  0.00     0.077 C 
ATOM      8  C7  UNL d   1      -4.956  -0.531  -1.581  0.00  0.00    -0.001 A 
ENDROOT
TORSDOF 0
ENDMDL
