MODEL 1
REMARK minimizedAffinity 19.1757317
REMARK minimizedRMSD -1
REMARK  0 active torsions:
REMARK  status: ('A' for Active; 'I' for Inactive)
ROOT
ATOM      1  C   UNL d   1       5.150  -3.567  -0.773  0.00  0.00     0.077 C 
ATOM      2  C1  UNL d   1       3.844  -3.786  -0.069  0.00  0.00    -0.074 A 
ATOM      3  C2  UNL d   1       3.057  -4.908  -0.346  0.00  0.00    -0.005 A 
ATOM      4  C3  UNL d   1       1.849  -5.104   0.324  0.00  0.00     0.006 A 
ATOM      5  C4  UNL d   1       1.417  -4.180   1.277  0.00  0.00    -0.005 A 
ATOM      6  C5  UNL d   1       2.191  -3.053   1.568  0.00  0.00    -0.074 A 
ATOM      7  C6  UNL d   1       1.746  -2.055   2.597  0.00  0.00     0.077 C 
ATOM      8  C7  UNL d   1       3.407  -2.867   0.896  0.00  0.00    -0.001 A 
ENDROOT
TORSDOF 0
ENDMDL
