MODEL 1
REMARK minimizedAffinity 14.6608324
REMARK minimizedRMSD -1
REMARK  0 active torsions:
REMARK  status: ('A' for Active; 'I' for Inactive)
ROOT
ATOM      1  C   UNL d   1      -3.826  -4.578   1.399  0.00  0.00     0.077 C 
ATOM      2  C1  UNL d   1      -3.396  -3.173   1.098  0.00  0.00    -0.074 A 
ATOM      3  C2  UNL d   1      -4.217  -2.311   0.363  0.00  0.00    -0.005 A 
ATOM      4  C3  UNL d   1      -3.807  -1.004   0.100  0.00  0.00     0.006 A 
ATOM      5  C4  UNL d   1      -2.574  -0.546   0.567  0.00  0.00    -0.005 A 
ATOM      6  C5  UNL d   1      -1.741  -1.393   1.304  0.00  0.00    -0.074 A 
ATOM      7  C6  UNL d   1      -0.417  -0.914   1.823  0.00  0.00     0.077 C 
ATOM      8  C7  UNL d   1      -2.162  -2.703   1.571  0.00  0.00    -0.001 A 
ENDROOT
TORSDOF 0
ENDMDL
