MODEL 1
REMARK minimizedAffinity 12.5045967
REMARK minimizedRMSD -1
REMARK  0 active torsions:
REMARK  status: ('A' for Active; 'I' for Inactive)
ROOT
ATOM      1  C   UNL d   1       1.479  -5.998  -4.148  0.00  0.00     0.077 C 
ATOM      2  C1  UNL d   1       0.093  -5.459  -3.951  0.00  0.00    -0.074 A 
ATOM      3  C2  UNL d   1      -0.161  -4.457  -3.008  0.00  0.00    -0.005 A 
ATOM      4  C3  UNL d   1      -1.454  -3.959  -2.843  0.00  0.00     0.006 A 
ATOM      5  C4  UNL d   1      -2.503  -4.457  -3.617  0.00  0.00    -0.005 A 
ATOM      6  C5  UNL d   1      -2.267  -5.458  -4.564  0.00  0.00    -0.074 A 
ATOM      7  C6  UNL d   1      -3.382  -5.998  -5.411  0.00  0.00     0.077 C 
ATOM      8  C7  UNL d   1      -0.965  -5.948  -4.729  0.00  0.00    -0.001 A 
ENDROOT
TORSDOF 0
ENDMDL
