MODEL 1
REMARK minimizedAffinity 23.6012383
REMARK minimizedRMSD -1
REMARK  0 active torsions:
REMARK  status: ('A' for Active; 'I' for Inactive)
ROOT
ATOM      1  C   UNL d   1      -1.906  -1.361   1.014  0.00  0.00     0.077 C 
ATOM      2  C1  UNL d   1      -1.051  -1.117   2.222  0.00  0.00    -0.074 A 
ATOM      3  C2  UNL d   1      -1.522  -0.351   3.293  0.00  0.00    -0.005 A 
ATOM      4  C3  UNL d   1      -0.719  -0.140   4.414  0.00  0.00     0.006 A 
ATOM      5  C4  UNL d   1       0.562  -0.692   4.474  0.00  0.00    -0.005 A 
ATOM      6  C5  UNL d   1       1.050  -1.460   3.413  0.00  0.00    -0.074 A 
ATOM      7  C6  UNL d   1       2.420  -2.068   3.466  0.00  0.00     0.077 C 
ATOM      8  C7  UNL d   1       0.234  -1.674   2.293  0.00  0.00    -0.001 A 
ENDROOT
TORSDOF 0
ENDMDL
