MODEL 1
REMARK minimizedAffinity 15.7380953
REMARK minimizedRMSD -1
REMARK  0 active torsions:
REMARK  status: ('A' for Active; 'I' for Inactive)
ROOT
ATOM      1  C   UNL d   1       1.852   2.876  -3.121  0.00  0.00     0.077 C 
ATOM      2  C1  UNL d   1       3.259   3.334  -3.367  0.00  0.00    -0.074 A 
ATOM      3  C2  UNL d   1       3.885   3.103  -4.596  0.00  0.00    -0.005 A 
ATOM      4  C3  UNL d   1       5.191   3.543  -4.814  0.00  0.00     0.006 A 
ATOM      5  C4  UNL d   1       5.882   4.219  -3.807  0.00  0.00    -0.005 A 
ATOM      6  C5  UNL d   1       5.271   4.460  -2.572  0.00  0.00    -0.074 A 
ATOM      7  C6  UNL d   1       5.996   5.192  -1.482  0.00  0.00     0.077 C 
ATOM      8  C7  UNL d   1       3.957   4.020  -2.363  0.00  0.00    -0.001 A 
ENDROOT
TORSDOF 0
ENDMDL
