MODEL 1
REMARK minimizedAffinity 14.6261082
REMARK minimizedRMSD -1
REMARK  0 active torsions:
REMARK  status: ('A' for Active; 'I' for Inactive)
ROOT
ATOM      1  C   UNL d   1       2.296  -2.552   4.187  0.00  0.00     0.077 C 
ATOM      2  C1  UNL d   1       1.761  -1.697   3.077  0.00  0.00    -0.074 A 
ATOM      3  C2  UNL d   1       0.404  -1.721   2.740  0.00  0.00    -0.005 A 
ATOM      4  C3  UNL d   1      -0.081  -0.913   1.712  0.00  0.00     0.006 A 
ATOM      5  C4  UNL d   1       0.786  -0.074   1.011  0.00  0.00    -0.005 A 
ATOM      6  C5  UNL d   1       2.146  -0.035   1.334  0.00  0.00    -0.074 A 
ATOM      7  C6  UNL d   1       3.089   0.869   0.596  0.00  0.00     0.077 C 
ATOM      8  C7  UNL d   1       2.624  -0.845   2.373  0.00  0.00    -0.001 A 
ENDROOT
TORSDOF 0
ENDMDL
