MODEL 1
REMARK minimizedAffinity 14.8249416
REMARK minimizedRMSD -1
REMARK  0 active torsions:
REMARK  status: ('A' for Active; 'I' for Inactive)
ROOT
ATOM      1  C   UNL d   1       1.953  -2.843   3.862  0.00  0.00     0.077 C 
ATOM      2  C1  UNL d   1       0.831  -1.947   3.428  0.00  0.00    -0.074 A 
ATOM      3  C2  UNL d   1       0.441  -0.854   4.209  0.00  0.00    -0.005 A 
ATOM      4  C3  UNL d   1      -0.598  -0.025   3.788  0.00  0.00     0.006 A 
ATOM      5  C4  UNL d   1      -1.256  -0.278   2.584  0.00  0.00    -0.005 A 
ATOM      6  C5  UNL d   1      -0.879  -1.365   1.790  0.00  0.00    -0.074 A 
ATOM      7  C6  UNL d   1      -1.569  -1.646   0.488  0.00  0.00     0.077 C 
ATOM      8  C7  UNL d   1       0.171  -2.191   2.216  0.00  0.00    -0.001 A 
ENDROOT
TORSDOF 0
ENDMDL
