MODEL 1
REMARK minimizedAffinity 13.6476822
REMARK minimizedRMSD -1
REMARK  0 active torsions:
REMARK  status: ('A' for Active; 'I' for Inactive)
ROOT
ATOM      1  C   UNL d   1       1.553  -0.826   1.813  0.00  0.00     0.077 C 
ATOM      2  C1  UNL d   1       0.085  -0.597   2.020  0.00  0.00    -0.074 A 
ATOM      3  C2  UNL d   1      -0.864  -1.267   1.242  0.00  0.00    -0.005 A 
ATOM      4  C3  UNL d   1      -2.226  -1.051   1.452  0.00  0.00     0.006 A 
ATOM      5  C4  UNL d   1      -2.652  -0.164   2.442  0.00  0.00    -0.005 A 
ATOM      6  C5  UNL d   1      -1.717   0.515   3.231  0.00  0.00    -0.074 A 
ATOM      7  C6  UNL d   1      -2.158   1.464   4.305  0.00  0.00     0.077 C 
ATOM      8  C7  UNL d   1      -0.351   0.287   3.018  0.00  0.00    -0.001 A 
ENDROOT
TORSDOF 0
ENDMDL
