MODEL 1
REMARK minimizedAffinity 11.204155
REMARK minimizedRMSD -1
REMARK  0 active torsions:
REMARK  status: ('A' for Active; 'I' for Inactive)
ROOT
ATOM      1  C   UNL d   1       3.402   1.179   0.078  0.00  0.00     0.077 C 
ATOM      2  C1  UNL d   1       3.432   1.837  -1.269  0.00  0.00    -0.074 A 
ATOM      3  C2  UNL d   1       2.427   1.592  -2.211  0.00  0.00    -0.005 A 
ATOM      4  C3  UNL d   1       2.463   2.219  -3.456  0.00  0.00     0.006 A 
ATOM      5  C4  UNL d   1       3.502   3.096  -3.772  0.00  0.00    -0.005 A 
ATOM      6  C5  UNL d   1       4.514   3.354  -2.842  0.00  0.00    -0.074 A 
ATOM      7  C6  UNL d   1       5.632   4.302  -3.161  0.00  0.00     0.077 C 
ATOM      8  C7  UNL d   1       4.467   2.726  -1.590  0.00  0.00    -0.001 A 
ENDROOT
TORSDOF 0
ENDMDL
