MODEL 1
REMARK minimizedAffinity 16.2943001
REMARK minimizedRMSD -1
REMARK  0 active torsions:
REMARK  status: ('A' for Active; 'I' for Inactive)
ROOT
ATOM      1  C   UNL d   1      -2.982  -1.059   1.147  0.00  0.00     0.077 C 
ATOM      2  C1  UNL d   1      -4.040  -0.327   0.376  0.00  0.00    -0.074 A 
ATOM      3  C2  UNL d   1      -4.671   0.800   0.914  0.00  0.00    -0.005 A 
ATOM      4  C3  UNL d   1      -5.646   1.476   0.181  0.00  0.00     0.006 A 
ATOM      5  C4  UNL d   1      -6.000   1.034  -1.094  0.00  0.00    -0.005 A 
ATOM      6  C5  UNL d   1      -5.379  -0.090  -1.649  0.00  0.00    -0.074 A 
ATOM      7  C6  UNL d   1      -5.741  -0.572  -3.022  0.00  0.00     0.077 C 
ATOM      8  C7  UNL d   1      -4.395  -0.760  -0.909  0.00  0.00    -0.001 A 
ENDROOT
TORSDOF 0
ENDMDL
