MODEL 1
REMARK minimizedAffinity 13.8244581
REMARK minimizedRMSD -1
REMARK  0 active torsions:
REMARK  status: ('A' for Active; 'I' for Inactive)
ROOT
ATOM      1  C   UNL d   1      -2.738   0.976   4.414  0.00  0.00     0.077 C 
ATOM      2  C1  UNL d   1      -1.714   0.046   3.833  0.00  0.00    -0.074 A 
ATOM      3  C2  UNL d   1      -0.611  -0.369   4.585  0.00  0.00    -0.005 A 
ATOM      4  C3  UNL d   1       0.328  -1.241   4.033  0.00  0.00     0.006 A 
ATOM      5  C4  UNL d   1       0.173  -1.706   2.727  0.00  0.00    -0.005 A 
ATOM      6  C5  UNL d   1      -0.925  -1.303   1.960  0.00  0.00    -0.074 A 
ATOM      7  C6  UNL d   1      -1.112  -1.801   0.558  0.00  0.00     0.077 C 
ATOM      8  C7  UNL d   1      -1.867  -0.432   2.523  0.00  0.00    -0.001 A 
ENDROOT
TORSDOF 0
ENDMDL
