MODEL 1
REMARK minimizedAffinity 8.7071104
REMARK minimizedRMSD -1
REMARK  0 active torsions:
REMARK  status: ('A' for Active; 'I' for Inactive)
ROOT
ATOM      1  C   UNL d   1       1.240  -1.043   1.624  0.00  0.00     0.077 C 
ATOM      2  C1  UNL d   1      -0.259  -1.050   1.582  0.00  0.00    -0.074 A 
ATOM      3  C2  UNL d   1      -0.960  -2.160   1.099  0.00  0.00    -0.005 A 
ATOM      4  C3  UNL d   1      -2.355  -2.155   1.076  0.00  0.00     0.006 A 
ATOM      5  C4  UNL d   1      -3.062  -1.043   1.535  0.00  0.00    -0.005 A 
ATOM      6  C5  UNL d   1      -2.378   0.075   2.022  0.00  0.00    -0.074 A 
ATOM      7  C6  UNL d   1      -3.123   1.275   2.529  0.00  0.00     0.077 C 
ATOM      8  C7  UNL d   1      -0.977   0.060   2.049  0.00  0.00    -0.001 A 
ENDROOT
TORSDOF 0
ENDMDL
