MODEL 1
REMARK minimizedAffinity 11.1861715
REMARK minimizedRMSD -1
REMARK  0 active torsions:
REMARK  status: ('A' for Active; 'I' for Inactive)
ROOT
ATOM      1  C   UNL d   1       5.722   6.000  -1.370  0.00  0.00     0.077 C 
ATOM      2  C1  UNL d   1       5.273   5.198  -2.555  0.00  0.00    -0.074 A 
ATOM      3  C2  UNL d   1       5.967   5.257  -3.768  0.00  0.00    -0.005 A 
ATOM      4  C3  UNL d   1       5.543   4.498  -4.859  0.00  0.00     0.006 A 
ATOM      5  C4  UNL d   1       4.423   3.673  -4.748  0.00  0.00    -0.005 A 
ATOM      6  C5  UNL d   1       3.716   3.601  -3.543  0.00  0.00    -0.074 A 
ATOM      7  C6  UNL d   1       2.516   2.712  -3.404  0.00  0.00     0.077 C 
ATOM      8  C7  UNL d   1       4.153   4.361  -2.450  0.00  0.00    -0.001 A 
ENDROOT
TORSDOF 0
ENDMDL
