MODEL 1
REMARK minimizedAffinity 10.7219992
REMARK minimizedRMSD -1
REMARK  0 active torsions:
REMARK  status: ('A' for Active; 'I' for Inactive)
ROOT
ATOM      1  C   UNL d   1       0.746   6.000  -2.158  0.00  0.00     0.077 C 
ATOM      2  C1  UNL d   1       1.768   5.023  -2.660  0.00  0.00    -0.074 A 
ATOM      3  C2  UNL d   1       1.381   3.864  -3.340  0.00  0.00    -0.005 A 
ATOM      4  C3  UNL d   1       2.343   2.970  -3.810  0.00  0.00     0.006 A 
ATOM      5  C4  UNL d   1       3.699   3.225  -3.604  0.00  0.00    -0.005 A 
ATOM      6  C5  UNL d   1       4.105   4.379  -2.927  0.00  0.00    -0.074 A 
ATOM      7  C6  UNL d   1       5.559   4.673  -2.706  0.00  0.00     0.077 C 
ATOM      8  C7  UNL d   1       3.133   5.276  -2.464  0.00  0.00    -0.001 A 
ENDROOT
TORSDOF 0
ENDMDL
