MODEL 1
REMARK minimizedAffinity 10.4454212
REMARK minimizedRMSD -1
REMARK  0 active torsions:
REMARK  status: ('A' for Active; 'I' for Inactive)
ROOT
ATOM      1  C   UNL d   1      -2.400   0.190   0.276  0.00  0.00     0.020 A 
ATOM      2  C1  UNL d   1      -1.075   0.366   0.675  0.00  0.00     0.020 A 
ATOM      3  C2  UNL d   1      -0.694   0.062   1.983  0.00  0.00     0.034 A 
ATOM      4  C3  UNL d   1      -1.638  -0.419   2.898  0.00  0.00     0.017 A 
ATOM      5  C4  UNL d   1      -2.967  -0.595   2.497  0.00  0.00     0.017 A 
ATOM      6  C5  UNL d   1      -3.344  -0.289   1.185  0.00  0.00     0.034 A 
ATOM      7 Cl   UNL d   1      -4.189  -1.184   3.569  0.00  0.00    -0.070 Cl
ATOM      8 Cl1  UNL d   1      -1.096  -0.775   4.500  0.00  0.00    -0.070 Cl
ENDROOT
TORSDOF 0
ENDMDL
