MODEL 1
REMARK minimizedAffinity -0.462752014
REMARK minimizedRMSD -1
REMARK  0 active torsions:
REMARK  status: ('A' for Active; 'I' for Inactive)
ROOT
ATOM      1  C   UNL d   1      -2.078  -0.561   3.315  0.00  0.00     0.020 A 
ATOM      2  C1  UNL d   1      -1.706  -1.152   4.522  0.00  0.00     0.020 A 
ATOM      3  C2  UNL d   1      -0.363  -1.441   4.772  0.00  0.00     0.034 A 
ATOM      4  C3  UNL d   1       0.613  -1.139   3.815  0.00  0.00     0.017 A 
ATOM      5  C4  UNL d   1       0.237  -0.546   2.604  0.00  0.00     0.017 A 
ATOM      6  C5  UNL d   1      -1.109  -0.259   2.358  0.00  0.00     0.034 A 
ATOM      7 Cl   UNL d   1       1.384  -0.145   1.374  0.00  0.00    -0.070 Cl
ATOM      8 Cl1  UNL d   1       2.254  -1.524   4.191  0.00  0.00    -0.070 Cl
ENDROOT
TORSDOF 0
ENDMDL
