MODEL 1
REMARK minimizedAffinity 6.51848602
REMARK minimizedRMSD -1
REMARK  0 active torsions:
REMARK  status: ('A' for Active; 'I' for Inactive)
ROOT
ATOM      1  C   UNL d   1      -2.489   0.376   2.297  0.00  0.00     0.020 A 
ATOM      2  C1  UNL d   1      -2.106   0.713   0.999  0.00  0.00     0.020 A 
ATOM      3  C2  UNL d   1      -0.796   0.481   0.575  0.00  0.00     0.034 A 
ATOM      4  C3  UNL d   1       0.137  -0.088   1.450  0.00  0.00     0.017 A 
ATOM      5  C4  UNL d   1      -0.248  -0.425   2.753  0.00  0.00     0.017 A 
ATOM      6  C5  UNL d   1      -1.562  -0.192   3.172  0.00  0.00     0.034 A 
ATOM      7 Cl   UNL d   1       0.846  -1.131   3.889  0.00  0.00    -0.070 Cl
ATOM      8 Cl1  UNL d   1       1.740  -0.346   0.859  0.00  0.00    -0.070 Cl
ENDROOT
TORSDOF 0
ENDMDL
