MODEL 1
REMARK minimizedAffinity 11.9407282
REMARK minimizedRMSD -1
REMARK  0 active torsions:
REMARK  status: ('A' for Active; 'I' for Inactive)
ROOT
ATOM      1  C   UNL d   1       3.250   0.121   0.026  0.00  0.00     0.020 A 
ATOM      2  C1  UNL d   1       3.516   1.343   0.640  0.00  0.00     0.020 A 
ATOM      3  C2  UNL d   1       2.462   2.167   1.042  0.00  0.00     0.034 A 
ATOM      4  C3  UNL d   1       1.137   1.769   0.829  0.00  0.00     0.017 A 
ATOM      5  C4  UNL d   1       0.871   0.541   0.212  0.00  0.00     0.017 A 
ATOM      6  C5  UNL d   1       1.930  -0.280  -0.188  0.00  0.00     0.034 A 
ATOM      7 Cl   UNL d   1      -0.737  -0.018  -0.085  0.00  0.00    -0.070 Cl
ATOM      8 Cl1  UNL d   1      -0.117   2.837   1.351  0.00  0.00    -0.070 Cl
ENDROOT
TORSDOF 0
ENDMDL
