MODEL 1
REMARK minimizedAffinity 8.7086134
REMARK minimizedRMSD -1
REMARK  0 active torsions:
REMARK  status: ('A' for Active; 'I' for Inactive)
ROOT
ATOM      1  C   UNL d   1      -2.249   0.361   2.043  0.00  0.00     0.020 A 
ATOM      2  C1  UNL d   1      -0.935   0.214   1.600  0.00  0.00     0.020 A 
ATOM      3  C2  UNL d   1      -0.670   0.058   0.238  0.00  0.00     0.034 A 
ATOM      4  C3  UNL d   1      -1.721   0.048  -0.687  0.00  0.00     0.017 A 
ATOM      5  C4  UNL d   1      -3.039   0.196  -0.242  0.00  0.00     0.017 A 
ATOM      6  C5  UNL d   1      -3.299   0.352   1.123  0.00  0.00     0.034 A 
ATOM      7 Cl   UNL d   1      -4.388   0.193  -1.323  0.00  0.00    -0.070 Cl
ATOM      8 Cl1  UNL d   1      -1.320  -0.149  -2.356  0.00  0.00    -0.070 Cl
ENDROOT
TORSDOF 0
ENDMDL
