MODEL 1
REMARK minimizedAffinity -1.5204047
REMARK minimizedRMSD -1
REMARK  0 active torsions:
REMARK  status: ('A' for Active; 'I' for Inactive)
ROOT
ATOM      1  C   UNL d   1      -2.012  -0.274   3.724  0.00  0.00     0.020 A 
ATOM      2  C1  UNL d   1      -2.118   0.236   2.431  0.00  0.00     0.020 A 
ATOM      3  C2  UNL d   1      -1.002   0.250   1.592  0.00  0.00     0.034 A 
ATOM      4  C3  UNL d   1       0.225  -0.247   2.045  0.00  0.00     0.017 A 
ATOM      5  C4  UNL d   1       0.331  -0.759   3.343  0.00  0.00     0.017 A 
ATOM      6  C5  UNL d   1      -0.790  -0.771   4.179  0.00  0.00     0.034 A 
ATOM      7 Cl   UNL d   1       1.812  -1.390   3.972  0.00  0.00    -0.070 Cl
ATOM      8 Cl1  UNL d   1       1.563  -0.198   0.953  0.00  0.00    -0.070 Cl
ENDROOT
TORSDOF 0
ENDMDL
