MODEL 1
REMARK minimizedAffinity 2.13111353
REMARK minimizedRMSD -1
REMARK  0 active torsions:
REMARK  status: ('A' for Active; 'I' for Inactive)
ROOT
ATOM      1  C   UNL d   1       0.784  -0.135  -0.544  0.00  0.00     0.020 A 
ATOM      2  C1  UNL d   1      -0.490   0.383  -0.772  0.00  0.00     0.020 A 
ATOM      3  C2  UNL d   1      -1.415   0.447   0.272  0.00  0.00     0.034 A 
ATOM      4  C3  UNL d   1      -1.068  -0.007   1.549  0.00  0.00     0.017 A 
ATOM      5  C4  UNL d   1       0.212  -0.527   1.778  0.00  0.00     0.017 A 
ATOM      6  C5  UNL d   1       1.134  -0.589   0.729  0.00  0.00     0.034 A 
ATOM      7 Cl   UNL d   1       0.713  -1.107   3.327  0.00  0.00    -0.070 Cl
ATOM      8 Cl1  UNL d   1      -2.262   0.102   2.793  0.00  0.00    -0.070 Cl
ENDROOT
TORSDOF 0
ENDMDL
