MODEL 1
REMARK minimizedAffinity 3.50494409
REMARK minimizedRMSD -1
REMARK  0 active torsions:
REMARK  status: ('A' for Active; 'I' for Inactive)
ROOT
ATOM      1  N1  IND d   1      -4.548   1.113   2.084  0.00  0.00    -0.196 N 
ATOM      2  C2  IND d   1      -3.417   1.877   2.167  0.00  0.00     0.054 A 
ATOM      3  C3  IND d   1      -3.009   1.975   3.452  0.00  0.00    -0.031 A 
ATOM      4  C4  IND d   1      -3.986   0.879   5.567  0.00  0.00     0.051 A 
ATOM      5  C5  IND d   1      -5.039   0.123   6.000  0.00  0.00    -0.031 A 
ATOM      6  C6  IND d   1      -5.999  -0.355   5.132  0.00  0.00     0.015 A 
ATOM      7  C7  IND d   1      -5.936  -0.101   3.790  0.00  0.00    -0.016 A 
ATOM      8  C8  IND d   1      -4.873   0.673   3.348  0.00  0.00    -0.047 A 
ATOM      9  C9  IND d   1      -3.918   1.195   4.230  0.00  0.00    -0.096 A 
ATOM     10  HN1 IND d   1      -4.982   0.937   1.363  0.00  0.00     0.298 HD
ENDROOT
TORSDOF 0
ENDMDL
