MODEL 1
REMARK minimizedAffinity 4.50908422
REMARK minimizedRMSD -1
REMARK  0 active torsions:
REMARK  status: ('A' for Active; 'I' for Inactive)
ROOT
ATOM      1  N1  IND d   1       1.878   0.426   2.303  0.00  0.00    -0.196 N 
ATOM      2  C2  IND d   1       1.463  -0.654   1.575  0.00  0.00     0.054 A 
ATOM      3  C3  IND d   1       0.120  -0.627   1.420  0.00  0.00    -0.031 A 
ATOM      4  C4  IND d   1      -1.581   1.146   2.188  0.00  0.00     0.051 A 
ATOM      5  C5  IND d   1      -1.682   2.296   2.920  0.00  0.00    -0.031 A 
ATOM      6  C6  IND d   1      -0.578   2.896   3.492  0.00  0.00     0.015 A 
ATOM      7  C7  IND d   1       0.674   2.371   3.344  0.00  0.00    -0.016 A 
ATOM      8  C8  IND d   1       0.779   1.199   2.608  0.00  0.00    -0.047 A 
ATOM      9  C9  IND d   1      -0.342   0.563   2.060  0.00  0.00    -0.096 A 
ATOM     10  HN1 IND d   1       2.690   0.595   2.531  0.00  0.00     0.298 HD
ENDROOT
TORSDOF 0
ENDMDL
