MODEL 1
REMARK minimizedAffinity 1.05264962
REMARK minimizedRMSD -1
REMARK  0 active torsions:
REMARK  status: ('A' for Active; 'I' for Inactive)
ROOT
ATOM      1  N1  IND d   1      -3.440  -0.080   5.364  0.00  0.00    -0.196 N 
ATOM      2  C2  IND d   1      -4.310   0.761   6.000  0.00  0.00     0.054 A 
ATOM      3  C3  IND d   1      -3.999   2.049   5.732  0.00  0.00    -0.031 A 
ATOM      4  C4  IND d   1      -2.168   3.005   4.196  0.00  0.00     0.051 A 
ATOM      5  C5  IND d   1      -1.102   2.629   3.428  0.00  0.00    -0.031 A 
ATOM      6  C6  IND d   1      -0.756   1.304   3.260  0.00  0.00     0.015 A 
ATOM      7  C7  IND d   1      -1.473   0.300   3.848  0.00  0.00    -0.016 A 
ATOM      8  C8  IND d   1      -2.551   0.679   4.634  0.00  0.00    -0.047 A 
ATOM      9  C9  IND d   1      -2.882   2.024   4.843  0.00  0.00    -0.096 A 
ATOM     10  HN1 IND d   1      -3.447  -0.939   5.411  0.00  0.00     0.298 HD
ENDROOT
TORSDOF 0
ENDMDL
