MODEL 1
REMARK minimizedAffinity 4.70414114
REMARK minimizedRMSD -1
REMARK  0 active torsions:
REMARK  status: ('A' for Active; 'I' for Inactive)
ROOT
ATOM      1  N1  IND d   1      -2.824   1.206   1.156  0.00  0.00    -0.196 N 
ATOM      2  C2  IND d   1      -2.305   0.115   0.517  0.00  0.00     0.054 A 
ATOM      3  C3  IND d   1      -1.036  -0.110   0.924  0.00  0.00    -0.031 A 
ATOM      4  C4  IND d   1       0.354   1.127   2.704  0.00  0.00     0.051 A 
ATOM      5  C5  IND d   1       0.321   2.212   3.533  0.00  0.00    -0.031 A 
ATOM      6  C6  IND d   1      -0.785   3.033   3.617  0.00  0.00     0.015 A 
ATOM      7  C7  IND d   1      -1.909   2.791   2.878  0.00  0.00    -0.016 A 
ATOM      8  C8  IND d   1      -1.877   1.694   2.030  0.00  0.00    -0.047 A 
ATOM      9  C9  IND d   1      -0.742   0.882   1.910  0.00  0.00    -0.096 A 
ATOM     10  HN1 IND d   1      -3.610   1.534   1.033  0.00  0.00     0.298 HD
ENDROOT
TORSDOF 0
ENDMDL
