MODEL 1
REMARK minimizedAffinity 14.4253397
REMARK minimizedRMSD -1
REMARK  0 active torsions:
REMARK  status: ('A' for Active; 'I' for Inactive)
ROOT
ATOM      1  N1  IND d   1      -1.137  -2.610   1.356  0.00  0.00    -0.196 N 
ATOM      2  C2  IND d   1      -2.211  -2.796   0.531  0.00  0.00     0.054 A 
ATOM      3  C3  IND d   1      -2.699  -1.605   0.118  0.00  0.00    -0.031 A 
ATOM      4  C4  IND d   1      -1.830   0.772   0.591  0.00  0.00     0.051 A 
ATOM      5  C5  IND d   1      -0.896   1.452   1.321  0.00  0.00    -0.031 A 
ATOM      6  C6  IND d   1       0.025   0.799   2.115  0.00  0.00     0.015 A 
ATOM      7  C7  IND d   1       0.055  -0.564   2.199  0.00  0.00    -0.016 A 
ATOM      8  C8  IND d   1      -0.897  -1.258   1.464  0.00  0.00    -0.047 A 
ATOM      9  C9  IND d   1      -1.861  -0.599   0.690  0.00  0.00    -0.096 A 
ATOM     10  HN1 IND d   1      -0.688  -3.232   1.744  0.00  0.00     0.298 HD
ENDROOT
TORSDOF 0
ENDMDL
