MODEL 1
REMARK minimizedAffinity 5.6380229
REMARK minimizedRMSD -1
REMARK  0 active torsions:
REMARK  status: ('A' for Active; 'I' for Inactive)
ROOT
ATOM      1  N1  IND d   1      -2.093   5.211   5.795  0.00  0.00    -0.196 N 
ATOM      2  C2  IND d   1      -1.478   3.992   5.858  0.00  0.00     0.054 A 
ATOM      3  C3  IND d   1      -2.396   3.007   5.977  0.00  0.00    -0.031 A 
ATOM      4  C4  IND d   1      -4.966   3.160   5.988  0.00  0.00     0.051 A 
ATOM      5  C5  IND d   1      -5.992   4.063   5.992  0.00  0.00    -0.031 A 
ATOM      6  C6  IND d   1      -5.765   5.423   5.926  0.00  0.00     0.015 A 
ATOM      7  C7  IND d   1      -4.500   5.931   5.842  0.00  0.00    -0.016 A 
ATOM      8  C8  IND d   1      -3.456   5.017   5.845  0.00  0.00    -0.047 A 
ATOM      9  C9  IND d   1      -3.678   3.638   5.955  0.00  0.00    -0.096 A 
ATOM     10  HN1 IND d   1      -1.696   5.971   5.735  0.00  0.00     0.298 HD
ENDROOT
TORSDOF 0
ENDMDL
