MODEL 1
REMARK minimizedAffinity 14.0098047
REMARK minimizedRMSD -1
REMARK  0 active torsions:
REMARK  status: ('A' for Active; 'I' for Inactive)
ROOT
ATOM      1  N1  IND d   1       4.319  -2.250  -2.918  0.00  0.00    -0.196 N 
ATOM      2  C2  IND d   1       5.339  -1.484  -2.427  0.00  0.00     0.054 A 
ATOM      3  C3  IND d   1       5.165  -0.189  -2.777  0.00  0.00    -0.031 A 
ATOM      4  C4  IND d   1       3.226   0.910  -4.065  0.00  0.00     0.051 A 
ATOM      5  C5  IND d   1       2.081   0.612  -4.749  0.00  0.00    -0.031 A 
ATOM      6  C6  IND d   1       1.612  -0.681  -4.857  0.00  0.00     0.015 A 
ATOM      7  C7  IND d   1       2.268  -1.728  -4.273  0.00  0.00    -0.016 A 
ATOM      8  C8  IND d   1       3.435  -1.430  -3.584  0.00  0.00    -0.047 A 
ATOM      9  C9  IND d   1       3.939  -0.125  -3.507  0.00  0.00    -0.096 A 
ATOM     10  HN1 IND d   1       4.242  -3.102  -2.826  0.00  0.00     0.298 HD
ENDROOT
TORSDOF 0
ENDMDL
