MODEL 1
REMARK minimizedAffinity 10.3670845
REMARK minimizedRMSD -1
REMARK  0 active torsions:
REMARK  status: ('A' for Active; 'I' for Inactive)
ROOT
ATOM      1  N1  IND d   1       1.416  -1.993  -4.127  0.00  0.00    -0.196 N 
ATOM      2  C2  IND d   1       0.638  -1.876  -5.245  0.00  0.00     0.054 A 
ATOM      3  C3  IND d   1       1.053  -0.834  -5.999  0.00  0.00    -0.031 A 
ATOM      4  C4  IND d   1       3.050   0.751  -5.643  0.00  0.00     0.051 A 
ATOM      5  C5  IND d   1       4.033   1.060  -4.745  0.00  0.00    -0.031 A 
ATOM      6  C6  IND d   1       4.199   0.351  -3.573  0.00  0.00     0.015 A 
ATOM      7  C7  IND d   1       3.392  -0.705  -3.259  0.00  0.00    -0.016 A 
ATOM      8  C8  IND d   1       2.388  -1.017  -4.165  0.00  0.00    -0.047 A 
ATOM      9  C9  IND d   1       2.188  -0.275  -5.336  0.00  0.00    -0.096 A 
ATOM     10  HN1 IND d   1       1.315  -2.577  -3.504  0.00  0.00     0.298 HD
ENDROOT
TORSDOF 0
ENDMDL
