MODEL 1
REMARK minimizedAffinity 13.5352192
REMARK minimizedRMSD -1
REMARK  0 active torsions:
REMARK  status: ('A' for Active; 'I' for Inactive)
ROOT
ATOM      1  N1  IND d   1       2.487  -1.378   2.928  0.00  0.00    -0.196 N 
ATOM      2  C2  IND d   1       1.218  -1.232   2.440  0.00  0.00     0.054 A 
ATOM      3  C3  IND d   1       1.188  -0.276   1.485  0.00  0.00    -0.031 A 
ATOM      4  C4  IND d   1       3.121   1.104   0.492  0.00  0.00     0.051 A 
ATOM      5  C5  IND d   1       4.457   1.350   0.641  0.00  0.00    -0.031 A 
ATOM      6  C6  IND d   1       5.221   0.683   1.578  0.00  0.00     0.015 A 
ATOM      7  C7  IND d   1       4.676  -0.266   2.396  0.00  0.00    -0.016 A 
ATOM      8  C8  IND d   1       3.319  -0.513   2.251  0.00  0.00    -0.047 A 
ATOM      9  C9  IND d   1       2.530   0.191   1.332  0.00  0.00    -0.096 A 
ATOM     10  HN1 IND d   1       2.725  -1.918   3.553  0.00  0.00     0.298 HD
ENDROOT
TORSDOF 0
ENDMDL
