MODEL 1
REMARK minimizedAffinity 2.16597867
REMARK minimizedRMSD -1
REMARK  0 active torsions:
REMARK  status: ('A' for Active; 'I' for Inactive)
ROOT
ATOM      1  N1  IND d   1       4.534  -0.665   3.214  0.00  0.00    -0.196 N 
ATOM      2  C2  IND d   1       5.758  -0.199   2.822  0.00  0.00     0.054 A 
ATOM      3  C3  IND d   1       5.658   0.446   1.638  0.00  0.00    -0.031 A 
ATOM      4  C4  IND d   1       3.570   0.945   0.218  0.00  0.00     0.051 A 
ATOM      5  C5  IND d   1       2.229   0.690   0.147  0.00  0.00    -0.031 A 
ATOM      6  C6  IND d   1       1.574  -0.042   1.116  0.00  0.00     0.015 A 
ATOM      7  C7  IND d   1       2.237  -0.539   2.203  0.00  0.00    -0.016 A 
ATOM      8  C8  IND d   1       3.600  -0.288   2.274  0.00  0.00    -0.047 A 
ATOM      9  C9  IND d   1       4.278   0.418   1.272  0.00  0.00    -0.096 A 
ATOM     10  HN1 IND d   1       4.374  -1.117   3.928  0.00  0.00     0.298 HD
ENDROOT
TORSDOF 0
ENDMDL
