MODEL 1
REMARK minimizedAffinity 5.58881378
REMARK minimizedRMSD -1
REMARK  0 active torsions:
REMARK  status: ('A' for Active; 'I' for Inactive)
ROOT
ATOM      1  N1  IND d   1      -3.811   1.897   5.965  0.00  0.00    -0.196 N 
ATOM      2  C2  IND d   1      -5.102   1.447   5.969  0.00  0.00     0.054 A 
ATOM      3  C3  IND d   1      -5.964   2.488   5.999  0.00  0.00    -0.031 A 
ATOM      4  C4  IND d   1      -5.477   5.015   5.942  0.00  0.00     0.051 A 
ATOM      5  C5  IND d   1      -4.449   5.915   5.972  0.00  0.00    -0.031 A 
ATOM      6  C6  IND d   1      -3.129   5.514   5.999  0.00  0.00     0.015 A 
ATOM      7  C7  IND d   1      -2.787   4.192   5.985  0.00  0.00    -0.016 A 
ATOM      8  C8  IND d   1      -3.828   3.275   5.962  0.00  0.00    -0.047 A 
ATOM      9  C9  IND d   1      -5.170   3.676   5.978  0.00  0.00    -0.096 A 
ATOM     10  HN1 IND d   1      -3.107   1.403   5.964  0.00  0.00     0.298 HD
ENDROOT
TORSDOF 0
ENDMDL
