MODEL 1
REMARK minimizedAffinity 4.5339427
REMARK minimizedRMSD -1
REMARK  0 active torsions:
REMARK  status: ('A' for Active; 'I' for Inactive)
ROOT
ATOM      1  N1  IND d   1      -2.327   3.428   5.977  0.00  0.00    -0.196 N 
ATOM      2  C2  IND d   1      -1.518   4.529   5.944  0.00  0.00     0.054 A 
ATOM      3  C3  IND d   1      -2.261   5.658   5.906  0.00  0.00    -0.031 A 
ATOM      4  C4  IND d   1      -4.819   5.936   5.992  0.00  0.00     0.051 A 
ATOM      5  C5  IND d   1      -5.981   5.217   5.989  0.00  0.00    -0.031 A 
ATOM      6  C6  IND d   1      -5.985   3.837   5.985  0.00  0.00     0.015 A 
ATOM      7  C7  IND d   1      -4.821   3.122   5.995  0.00  0.00    -0.016 A 
ATOM      8  C8  IND d   1      -3.639   3.848   5.990  0.00  0.00    -0.047 A 
ATOM      9  C9  IND d   1      -3.629   5.249   5.952  0.00  0.00    -0.096 A 
ATOM     10  HN1 IND d   1      -2.062   2.610   5.987  0.00  0.00     0.298 HD
ENDROOT
TORSDOF 0
ENDMDL
