MODEL 1
REMARK minimizedAffinity 13.2190256
REMARK minimizedRMSD -1
REMARK  0 active torsions:
REMARK  status: ('A' for Active; 'I' for Inactive)
ROOT
ATOM      1  N1  IND d   1      -5.369   2.474   5.968  0.00  0.00    -0.196 N 
ATOM      2  C2  IND d   1      -4.513   1.409   5.932  0.00  0.00     0.054 A 
ATOM      3  C3  IND d   1      -3.231   1.836   5.898  0.00  0.00    -0.031 A 
ATOM      4  C4  IND d   1      -2.304   4.236   5.995  0.00  0.00     0.051 A 
ATOM      5  C5  IND d   1      -2.699   5.544   5.997  0.00  0.00    -0.031 A 
ATOM      6  C6  IND d   1      -4.032   5.903   5.993  0.00  0.00     0.015 A 
ATOM      7  C7  IND d   1      -5.023   4.963   5.997  0.00  0.00    -0.016 A 
ATOM      8  C8  IND d   1      -4.625   3.633   5.988  0.00  0.00    -0.047 A 
ATOM      9  C9  IND d   1      -3.275   3.263   5.949  0.00  0.00    -0.096 A 
ATOM     10  HN1 IND d   1      -6.228   2.428   5.977  0.00  0.00     0.298 HD
ENDROOT
TORSDOF 0
ENDMDL
