MODEL 1
REMARK minimizedAffinity 3.67354727
REMARK minimizedRMSD -1
REMARK  0 active torsions:
REMARK  status: ('A' for Active; 'I' for Inactive)
ROOT
ATOM      1  N1  IND d   1      -4.151   2.075   5.957  0.00  0.00    -0.196 N 
ATOM      2  C2  IND d   1      -5.493   2.339   5.959  0.00  0.00     0.054 A 
ATOM      3  C3  IND d   1      -5.711   3.673   5.991  0.00  0.00    -0.031 A 
ATOM      4  C4  IND d   1      -4.014   5.608   5.940  0.00  0.00     0.051 A 
ATOM      5  C5  IND d   1      -2.672   5.865   5.972  0.00  0.00    -0.031 A 
ATOM      6  C6  IND d   1      -1.736   4.852   5.999  0.00  0.00     0.015 A 
ATOM      7  C7  IND d   1      -2.108   3.538   5.982  0.00  0.00    -0.016 A 
ATOM      8  C8  IND d   1      -3.470   3.273   5.957  0.00  0.00    -0.047 A 
ATOM      9  C9  IND d   1      -4.426   4.297   5.973  0.00  0.00    -0.096 A 
ATOM     10  HN1 IND d   1      -3.794   1.294   5.955  0.00  0.00     0.298 HD
ENDROOT
TORSDOF 0
ENDMDL
