MODEL 1
REMARK minimizedAffinity 0.827095032
REMARK minimizedRMSD -1
REMARK  0 active torsions:
REMARK  status: ('A' for Active; 'I' for Inactive)
ROOT
ATOM      1  N1  IND d   1       3.083  -2.613   2.916  0.00  0.00    -0.196 N 
ATOM      2  C2  IND d   1       1.757  -2.784   2.630  0.00  0.00     0.054 A 
ATOM      3  C3  IND d   1       1.283  -1.720   1.944  0.00  0.00    -0.031 A 
ATOM      4  C4  IND d   1       2.529   0.367   1.096  0.00  0.00     0.051 A 
ATOM      5  C5  IND d   1       3.746   0.988   1.143  0.00  0.00    -0.031 A 
ATOM      6  C6  IND d   1       4.826   0.428   1.794  0.00  0.00     0.015 A 
ATOM      7  C7  IND d   1       4.732  -0.785   2.416  0.00  0.00    -0.016 A 
ATOM      8  C8  IND d   1       3.497  -1.415   2.376  0.00  0.00    -0.047 A 
ATOM      9  C9  IND d   1       2.386  -0.832   1.753  0.00  0.00    -0.096 A 
ATOM     10  HN1 IND d   1       3.575  -3.162   3.359  0.00  0.00     0.298 HD
ENDROOT
TORSDOF 0
ENDMDL
