MODEL 1
REMARK minimizedAffinity 2.18034101
REMARK minimizedRMSD -1
REMARK  0 active torsions:
REMARK  status: ('A' for Active; 'I' for Inactive)
ROOT
ATOM      1  N1  IND d   1      -3.700   1.914   5.939  0.00  0.00    -0.196 N 
ATOM      2  C2  IND d   1      -4.960   1.386   5.952  0.00  0.00     0.054 A 
ATOM      3  C3  IND d   1      -5.884   2.372   6.000  0.00  0.00    -0.031 A 
ATOM      4  C4  IND d   1      -5.554   4.925   5.962  0.00  0.00     0.051 A 
ATOM      5  C5  IND d   1      -4.582   5.886   5.990  0.00  0.00    -0.031 A 
ATOM      6  C6  IND d   1      -3.240   5.566   6.000  0.00  0.00     0.015 A 
ATOM      7  C7  IND d   1      -2.817   4.267   5.970  0.00  0.00    -0.016 A 
ATOM      8  C8  IND d   1      -3.801   3.288   5.949  0.00  0.00    -0.047 A 
ATOM      9  C9  IND d   1      -5.165   3.606   5.982  0.00  0.00    -0.096 A 
ATOM     10  HN1 IND d   1      -2.967   1.465   5.926  0.00  0.00     0.298 HD
ENDROOT
TORSDOF 0
ENDMDL
