MODEL 1
REMARK minimizedAffinity 16.9459
REMARK minimizedRMSD -1
REMARK  0 active torsions:
REMARK  status: ('A' for Active; 'I' for Inactive)
ROOT
ATOM      1  N1  IND d   1       3.503   2.106   0.016  0.00  0.00    -0.196 N 
ATOM      2  C2  IND d   1       2.147   1.944  -0.043  0.00  0.00     0.054 A 
ATOM      3  C3  IND d   1       1.742   1.034   0.871  0.00  0.00    -0.031 A 
ATOM      4  C4  IND d   1       3.120  -0.239   2.634  0.00  0.00     0.051 A 
ATOM      5  C5  IND d   1       4.404  -0.450   3.050  0.00  0.00    -0.031 A 
ATOM      6  C6  IND d   1       5.475   0.194   2.466  0.00  0.00     0.015 A 
ATOM      7  C7  IND d   1       5.300   1.087   1.447  0.00  0.00    -0.016 A 
ATOM      8  C8  IND d   1       3.998   1.299   1.017  0.00  0.00    -0.047 A 
ATOM      9  C9  IND d   1       2.911   0.616   1.578  0.00  0.00    -0.096 A 
ATOM     10  HN1 IND d   1       3.969   2.623  -0.489  0.00  0.00     0.298 HD
ENDROOT
TORSDOF 0
ENDMDL
