MODEL 1
REMARK minimizedAffinity 0.517528176
REMARK minimizedRMSD -1
REMARK  1 active torsions:
REMARK  status: ('A' for Active; 'I' for Inactive)
REMARK    1  A    between atoms: C3_4  and  O_7 
ROOT
ATOM      1  C   UNL d   1       1.063  -1.033   1.096  0.00  0.00    -0.033 A 
ATOM      2  C1  UNL d   1       0.232   0.042   1.418  0.00  0.00     0.039 A 
ATOM      3  C2  UNL d   1      -0.343   0.810   0.403  0.00  0.00    -0.080 A 
ATOM      4  C3  UNL d   1      -0.081   0.492  -0.927  0.00  0.00     0.150 A 
ATOM      5  C4  UNL d   1       0.742  -0.580  -1.254  0.00  0.00    -0.007 A 
ATOM      6  C5  UNL d   1       1.317  -1.345  -0.240  0.00  0.00     0.039 A 
ENDROOT
BRANCH   4   7
ATOM      7  O   UNL d   1      -0.616   1.216  -1.951  0.00  0.00    -0.526 OA
ATOM      8  H5  UNL d   1      -1.140   1.942  -1.574  0.00  0.00     0.418 HD
ENDBRANCH   4   7
TORSDOF 1
ENDMDL
