MODEL 1
REMARK minimizedAffinity -3.10126162
REMARK minimizedRMSD -1
REMARK  1 active torsions:
REMARK  status: ('A' for Active; 'I' for Inactive)
REMARK    1  A    between atoms: C3_4  and  O_7 
ROOT
ATOM      1  C   UNL d   1       5.405  -4.263  -0.988  0.00  0.00    -0.033 A 
ATOM      2  C1  UNL d   1       5.105  -5.334  -1.832  0.00  0.00     0.039 A 
ATOM      3  C2  UNL d   1       4.245  -5.151  -2.917  0.00  0.00    -0.080 A 
ATOM      4  C3  UNL d   1       3.694  -3.894  -3.147  0.00  0.00     0.150 A 
ATOM      5  C4  UNL d   1       3.991  -2.822  -2.312  0.00  0.00    -0.007 A 
ATOM      6  C5  UNL d   1       4.849  -3.006  -1.229  0.00  0.00     0.039 A 
ENDROOT
BRANCH   4   7
ATOM      7  O   UNL d   1       2.845  -3.668  -4.190  0.00  0.00    -0.526 OA
ATOM      8  H5  UNL d   1       2.709  -4.506  -4.663  0.00  0.00     0.418 HD
ENDBRANCH   4   7
TORSDOF 1
ENDMDL
