MODEL 1
REMARK minimizedAffinity -1.57559407
REMARK minimizedRMSD -1
REMARK  1 active torsions:
REMARK  status: ('A' for Active; 'I' for Inactive)
REMARK    1  A    between atoms: C3_4  and  O_7 
ROOT
ATOM      1  C   UNL d   1       4.364  -4.583  -2.728  0.00  0.00    -0.033 A 
ATOM      2  C1  UNL d   1       3.870  -3.322  -3.069  0.00  0.00     0.039 A 
ATOM      3  C2  UNL d   1       3.940  -2.272  -2.151  0.00  0.00    -0.080 A 
ATOM      4  C3  UNL d   1       4.507  -2.494  -0.900  0.00  0.00     0.150 A 
ATOM      5  C4  UNL d   1       5.005  -3.746  -0.555  0.00  0.00    -0.007 A 
ATOM      6  C5  UNL d   1       4.933  -4.794  -1.472  0.00  0.00     0.039 A 
ENDROOT
BRANCH   4   7
ATOM      7  O   UNL d   1       4.593  -1.501   0.030  0.00  0.00    -0.526 OA
ATOM      8  H5  UNL d   1       4.183  -0.700  -0.336  0.00  0.00     0.418 HD
ENDBRANCH   4   7
TORSDOF 1
ENDMDL
