MODEL 1
REMARK minimizedAffinity 0.938729107
REMARK minimizedRMSD -1
REMARK  1 active torsions:
REMARK  status: ('A' for Active; 'I' for Inactive)
REMARK    1  A    between atoms: C3_4  and  O_7 
ROOT
ATOM      1  C   UNL d   1       4.890  -2.518  -0.888  0.00  0.00    -0.033 A 
ATOM      2  C1  UNL d   1       4.056  -2.420  -2.003  0.00  0.00     0.039 A 
ATOM      3  C2  UNL d   1       3.002  -3.320  -2.171  0.00  0.00    -0.080 A 
ATOM      4  C3  UNL d   1       2.793  -4.313  -1.217  0.00  0.00     0.150 A 
ATOM      5  C4  UNL d   1       3.618  -4.414  -0.102  0.00  0.00    -0.007 A 
ATOM      6  C5  UNL d   1       4.670  -3.515   0.063  0.00  0.00     0.039 A 
ENDROOT
BRANCH   4   7
ATOM      7  O   UNL d   1       1.781  -5.217  -1.340  0.00  0.00    -0.526 OA
ATOM      8  H5  UNL d   1       1.312  -5.043  -2.173  0.00  0.00     0.418 HD
ENDBRANCH   4   7
TORSDOF 1
ENDMDL
