MODEL 1
REMARK minimizedAffinity -2.22010684
REMARK minimizedRMSD -1
REMARK  1 active torsions:
REMARK  status: ('A' for Active; 'I' for Inactive)
REMARK    1  A    between atoms: C3_4  and  O_7 
ROOT
ATOM      1  C   UNL d   1       2.358  -4.849  -1.496  0.00  0.00    -0.033 A 
ATOM      2  C1  UNL d   1       2.844  -4.649  -0.202  0.00  0.00     0.039 A 
ATOM      3  C2  UNL d   1       4.046  -3.965  -0.004  0.00  0.00    -0.080 A 
ATOM      4  C3  UNL d   1       4.748  -3.486  -1.106  0.00  0.00     0.150 A 
ATOM      5  C4  UNL d   1       4.267  -3.678  -2.397  0.00  0.00    -0.007 A 
ATOM      6  C5  UNL d   1       3.068  -4.362  -2.593  0.00  0.00     0.039 A 
ENDROOT
BRANCH   4   7
ATOM      7  O   UNL d   1       5.928  -2.817  -0.963  0.00  0.00    -0.526 OA
ATOM      8  H5  UNL d   1       6.150  -2.785  -0.018  0.00  0.00     0.418 HD
ENDBRANCH   4   7
TORSDOF 1
ENDMDL
