MODEL 1
REMARK minimizedAffinity -4.98414755
REMARK minimizedRMSD -1
REMARK  1 active torsions:
REMARK  status: ('A' for Active; 'I' for Inactive)
REMARK    1  A    between atoms: C1_2  and  C2_3 
ROOT
ATOM      1  C2  UNL d   1       0.977   3.624   0.396  0.00  0.00    -0.073 A 
ATOM      2  C3  UNL d   1       0.828   4.204  -0.868  0.00  0.00    -0.002 A 
ATOM      3  C4  UNL d   1       0.873   3.413  -2.017  0.00  0.00     0.004 A 
ATOM      4  C5  UNL d   1       1.060   2.035  -1.913  0.00  0.00    -0.004 A 
ATOM      5  C6  UNL d   1       1.199   1.434  -0.657  0.00  0.00    -0.075 A 
ATOM      6  C7  UNL d   1       1.402  -0.047  -0.529  0.00  0.00     0.076 C 
ATOM      7  C8  UNL d   1       1.155   2.236   0.491  0.00  0.00     0.001 A 
ENDROOT
BRANCH   1   8
ATOM      8  C1  UNL d   1       0.922   4.473   1.640  0.00  0.00     0.053 C 
ATOM      9  C   UNL d   1       2.220   4.411   2.430  0.00  0.00     0.018 C 
ENDBRANCH   1   8
TORSDOF 1
ENDMDL
