MODEL 1
REMARK minimizedAffinity -3.67294335
REMARK minimizedRMSD -1
REMARK  1 active torsions:
REMARK  status: ('A' for Active; 'I' for Inactive)
REMARK    1  A    between atoms: C1_2  and  C2_3 
ROOT
ATOM      1  C2  UNL d   1       1.232  -0.093  -0.589  0.00  0.00    -0.073 A 
ATOM      2  C3  UNL d   1       1.231   0.194   0.781  0.00  0.00    -0.002 A 
ATOM      3  C4  UNL d   1       1.222   1.517   1.224  0.00  0.00     0.004 A 
ATOM      4  C5  UNL d   1       1.207   2.566   0.305  0.00  0.00    -0.004 A 
ATOM      5  C6  UNL d   1       1.196   2.299  -1.068  0.00  0.00    -0.075 A 
ATOM      6  C7  UNL d   1       1.181   3.416  -2.071  0.00  0.00     0.076 C 
ATOM      7  C8  UNL d   1       1.207   0.968  -1.506  0.00  0.00     0.001 A 
ENDROOT
BRANCH   1   8
ATOM      8  C1  UNL d   1       1.235  -1.520  -1.072  0.00  0.00     0.053 C 
ATOM      9  C   UNL d   1       0.072  -1.807  -2.008  0.00  0.00     0.018 C 
ENDBRANCH   1   8
TORSDOF 1
ENDMDL
