MODEL 1
REMARK minimizedAffinity -2.21162415
REMARK minimizedRMSD -1
REMARK  1 active torsions:
REMARK  status: ('A' for Active; 'I' for Inactive)
REMARK    1  A    between atoms: C1_2  and  C2_3 
ROOT
ATOM      1  C2  UNL d   1       1.301   0.106  -0.833  0.00  0.00    -0.073 A 
ATOM      2  C3  UNL d   1       1.575   0.373   0.514  0.00  0.00    -0.002 A 
ATOM      3  C4  UNL d   1       1.453   1.670   1.014  0.00  0.00     0.004 A 
ATOM      4  C5  UNL d   1       1.049   2.710   0.177  0.00  0.00    -0.004 A 
ATOM      5  C6  UNL d   1       0.759   2.461  -1.168  0.00  0.00    -0.075 A 
ATOM      6  C7  UNL d   1       0.325   3.569  -2.082  0.00  0.00     0.076 C 
ATOM      7  C8  UNL d   1       0.887   1.157  -1.664  0.00  0.00     0.001 A 
ENDROOT
BRANCH   1   8
ATOM      8  C1  UNL d   1       1.426  -1.294  -1.376  0.00  0.00     0.053 C 
ATOM      9  C   UNL d   1       0.613  -2.293  -0.569  0.00  0.00     0.018 C 
ENDBRANCH   1   8
TORSDOF 1
ENDMDL
