MODEL 1
REMARK minimizedAffinity 0.460822105
REMARK minimizedRMSD -1
REMARK  1 active torsions:
REMARK  status: ('A' for Active; 'I' for Inactive)
REMARK    1  A    between atoms: C1_2  and  C2_3 
ROOT
ATOM      1  C2  UNL d   1       0.970  -0.065  -1.158  0.00  0.00    -0.073 A 
ATOM      2  C3  UNL d   1       0.679   0.954  -2.072  0.00  0.00    -0.002 A 
ATOM      3  C4  UNL d   1       0.728   2.291  -1.676  0.00  0.00     0.004 A 
ATOM      4  C5  UNL d   1       1.074   2.623  -0.366  0.00  0.00    -0.004 A 
ATOM      5  C6  UNL d   1       1.379   1.620   0.559  0.00  0.00    -0.075 A 
ATOM      6  C7  UNL d   1       1.752   1.960   1.972  0.00  0.00     0.076 C 
ATOM      7  C8  UNL d   1       1.326   0.279   0.154  0.00  0.00     0.001 A 
ENDROOT
BRANCH   1   8
ATOM      8  C1  UNL d   1       0.925  -1.510  -1.583  0.00  0.00     0.053 C 
ATOM      9  C   UNL d   1       1.159  -2.455  -0.415  0.00  0.00     0.018 C 
ENDBRANCH   1   8
TORSDOF 1
ENDMDL
