MODEL 1
REMARK minimizedAffinity 3.11413884
REMARK minimizedRMSD -1
REMARK  1 active torsions:
REMARK  status: ('A' for Active; 'I' for Inactive)
REMARK    1  A    between atoms: C1_2  and  C2_3 
ROOT
ATOM      1  C2  UNL d   1       0.881   0.853  -0.841  0.00  0.00    -0.073 A 
ATOM      2  C3  UNL d   1       0.850   1.598   0.344  0.00  0.00    -0.002 A 
ATOM      3  C4  UNL d   1       1.017   0.967   1.578  0.00  0.00     0.004 A 
ATOM      4  C5  UNL d   1       1.223  -0.411   1.639  0.00  0.00    -0.004 A 
ATOM      5  C6  UNL d   1       1.268  -1.171   0.465  0.00  0.00    -0.075 A 
ATOM      6  C7  UNL d   1       1.487  -2.655   0.515  0.00  0.00     0.076 C 
ATOM      7  C8  UNL d   1       1.097  -0.530  -0.769  0.00  0.00     0.001 A 
ENDROOT
BRANCH   1   8
ATOM      8  C1  UNL d   1       0.708   1.531  -2.175  0.00  0.00     0.053 C 
ATOM      9  C   UNL d   1       0.997   3.022  -2.099  0.00  0.00     0.018 C 
ENDBRANCH   1   8
TORSDOF 1
ENDMDL
