MODEL 1
REMARK minimizedAffinity 0.178909302
REMARK minimizedRMSD -1
REMARK  1 active torsions:
REMARK  status: ('A' for Active; 'I' for Inactive)
REMARK    1  A    between atoms: C1_2  and  C2_3 
ROOT
ATOM      1  C2  UNL d   1       1.300  -0.018  -1.589  0.00  0.00    -0.073 A 
ATOM      2  C3  UNL d   1       2.319  -0.257  -0.659  0.00  0.00    -0.002 A 
ATOM      3  C4  UNL d   1       2.477  -1.524  -0.096  0.00  0.00     0.004 A 
ATOM      4  C5  UNL d   1       1.624  -2.566  -0.462  0.00  0.00    -0.004 A 
ATOM      5  C6  UNL d   1       0.608  -2.350  -1.398  0.00  0.00    -0.075 A 
ATOM      6  C7  UNL d   1      -0.319  -3.459  -1.801  0.00  0.00     0.076 C 
ATOM      7  C8  UNL d   1       0.454  -1.074  -1.957  0.00  0.00     0.001 A 
ENDROOT
BRANCH   1   8
ATOM      8  C1  UNL d   1       1.130   1.347  -2.204  0.00  0.00     0.053 C 
ATOM      9  C   UNL d   1       0.659   2.375  -1.188  0.00  0.00     0.018 C 
ENDBRANCH   1   8
TORSDOF 1
ENDMDL
