MODEL 1
REMARK minimizedAffinity 3.29188323
REMARK minimizedRMSD -1
REMARK  1 active torsions:
REMARK  status: ('A' for Active; 'I' for Inactive)
REMARK    1  A    between atoms: C1_2  and  C2_3 
ROOT
ATOM      1  C2  UNL d   1      -0.584  -3.909   1.422  0.00  0.00    -0.073 A 
ATOM      2  C3  UNL d   1      -1.493  -4.149   0.385  0.00  0.00    -0.002 A 
ATOM      3  C4  UNL d   1      -1.195  -3.754  -0.920  0.00  0.00     0.004 A 
ATOM      4  C5  UNL d   1       0.016  -3.123  -1.203  0.00  0.00    -0.004 A 
ATOM      5  C6  UNL d   1       0.943  -2.885  -0.182  0.00  0.00    -0.075 A 
ATOM      6  C7  UNL d   1       2.249  -2.205  -0.470  0.00  0.00     0.076 C 
ATOM      7  C8  UNL d   1       0.635  -3.282   1.126  0.00  0.00     0.001 A 
ENDROOT
BRANCH   1   8
ATOM      8  C1  UNL d   1      -0.899  -4.339   2.831  0.00  0.00     0.053 C 
ATOM      9  C   UNL d   1      -2.364  -4.708   3.000  0.00  0.00     0.018 C 
ENDBRANCH   1   8
TORSDOF 1
ENDMDL
