MODEL 1
REMARK minimizedAffinity 2.99155498
REMARK minimizedRMSD -1
REMARK  1 active torsions:
REMARK  status: ('A' for Active; 'I' for Inactive)
REMARK    1  A    between atoms: C1_2  and  C2_3 
ROOT
ATOM      1  C2  UNL d   1       1.716   1.001   1.087  0.00  0.00    -0.073 A 
ATOM      2  C3  UNL d   1       1.527  -0.320   0.665  0.00  0.00    -0.002 A 
ATOM      3  C4  UNL d   1       1.123  -0.591  -0.643  0.00  0.00     0.004 A 
ATOM      4  C5  UNL d   1       0.912   0.454  -1.543  0.00  0.00    -0.004 A 
ATOM      5  C6  UNL d   1       1.107   1.780  -1.143  0.00  0.00    -0.075 A 
ATOM      6  C7  UNL d   1       0.882   2.915  -2.099  0.00  0.00     0.076 C 
ATOM      7  C8  UNL d   1       1.510   2.044   0.173  0.00  0.00     0.001 A 
ENDROOT
BRANCH   1   8
ATOM      8  C1  UNL d   1       2.157   1.298   2.497  0.00  0.00     0.053 C 
ATOM      9  C   UNL d   1       2.890   2.627   2.597  0.00  0.00     0.018 C 
ENDBRANCH   1   8
TORSDOF 1
ENDMDL
