MODEL 1
REMARK minimizedAffinity -3.53033829
REMARK minimizedRMSD -1
REMARK  1 active torsions:
REMARK  status: ('A' for Active; 'I' for Inactive)
REMARK    1  A    between atoms: C1_2  and  C2_3 
ROOT
ATOM      1  C2  UNL d   1       1.178   2.507  -0.896  0.00  0.00    -0.073 A 
ATOM      2  C3  UNL d   1       0.866   1.490  -1.806  0.00  0.00    -0.002 A 
ATOM      3  C4  UNL d   1       0.519   0.218  -1.349  0.00  0.00     0.004 A 
ATOM      4  C5  UNL d   1       0.473  -0.048   0.020  0.00  0.00    -0.004 A 
ATOM      5  C6  UNL d   1       0.770   0.958   0.944  0.00  0.00    -0.075 A 
ATOM      6  C7  UNL d   1       0.728   0.687   2.420  0.00  0.00     0.076 C 
ATOM      7  C8  UNL d   1       1.121   2.232   0.478  0.00  0.00     0.001 A 
ENDROOT
BRANCH   1   8
ATOM      8  C1  UNL d   1       1.548   3.884  -1.384  0.00  0.00     0.053 C 
ATOM      9  C   UNL d   1       1.562   4.904  -0.256  0.00  0.00     0.018 C 
ENDBRANCH   1   8
TORSDOF 1
ENDMDL
