MODEL 1
REMARK minimizedAffinity 9.88163376
REMARK minimizedRMSD -1
REMARK  1 active torsions:
REMARK  status: ('A' for Active; 'I' for Inactive)
REMARK    1  A    between atoms: C1_2  and  C2_3 
ROOT
ATOM      1  C2  UNL d   1       1.066   3.610   0.214  0.00  0.00    -0.073 A 
ATOM      2  C3  UNL d   1       1.368   4.964   0.029  0.00  0.00    -0.002 A 
ATOM      3  C4  UNL d   1       1.564   5.473  -1.256  0.00  0.00     0.004 A 
ATOM      4  C5  UNL d   1       1.454   4.637  -2.367  0.00  0.00    -0.004 A 
ATOM      5  C6  UNL d   1       1.141   3.284  -2.203  0.00  0.00    -0.075 A 
ATOM      6  C7  UNL d   1       1.021   2.370  -3.387  0.00  0.00     0.076 C 
ATOM      7  C8  UNL d   1       0.948   2.779  -0.910  0.00  0.00     0.001 A 
ENDROOT
BRANCH   1   8
ATOM      8  C1  UNL d   1       0.847   3.057   1.598  0.00  0.00     0.053 C 
ATOM      9  C   UNL d   1       2.153   2.655   2.265  0.00  0.00     0.018 C 
ENDBRANCH   1   8
TORSDOF 1
ENDMDL
