MODEL 1
REMARK minimizedAffinity 7.51333761
REMARK minimizedRMSD -1
REMARK  0 active torsions:
REMARK  status: ('A' for Active; 'I' for Inactive)
ROOT
ATOM      1  C   UNL d   1      -1.692  -3.197  -3.355  0.00  0.00     0.078 C 
ATOM      2  C1  UNL d   1      -0.704  -3.328  -2.235  0.00  0.00    -0.077 A 
ATOM      3  C2  UNL d   1      -0.508  -2.287  -1.320  0.00  0.00    -0.001 A 
ATOM      4  C3  UNL d   1       0.423  -2.419  -0.288  0.00  0.00     0.003 A 
ATOM      5  C4  UNL d   1       1.166  -3.591  -0.162  0.00  0.00    -0.005 A 
ATOM      6  C5  UNL d   1       0.979  -4.632  -1.069  0.00  0.00     0.003 A 
ATOM      7  C6  UNL d   1       0.049  -4.502  -2.101  0.00  0.00    -0.001 A 
ENDROOT
TORSDOF 0
ENDMDL
