MODEL 1
REMARK minimizedAffinity 1.68811679
REMARK minimizedRMSD -1
REMARK  0 active torsions:
REMARK  status: ('A' for Active; 'I' for Inactive)
ROOT
ATOM      1  C   UNL d   1      -5.997  -0.294  -5.250  0.00  0.00     0.078 C 
ATOM      2  C1  UNL d   1      -6.000   1.007  -4.505  0.00  0.00    -0.077 A 
ATOM      3  C2  UNL d   1      -6.000   2.229  -5.189  0.00  0.00    -0.001 A 
ATOM      4  C3  UNL d   1      -5.993   3.433  -4.482  0.00  0.00     0.003 A 
ATOM      5  C4  UNL d   1      -5.985   3.427  -3.089  0.00  0.00    -0.005 A 
ATOM      6  C5  UNL d   1      -5.983   2.216  -2.400  0.00  0.00     0.003 A 
ATOM      7  C6  UNL d   1      -5.990   1.011  -3.104  0.00  0.00    -0.001 A 
ENDROOT
TORSDOF 0
ENDMDL
