MODEL 1
REMARK minimizedAffinity -1.53043067
REMARK minimizedRMSD -1
REMARK  0 active torsions:
REMARK  status: ('A' for Active; 'I' for Inactive)
ROOT
ATOM      1  C   UNL d   1      -5.998   0.449  -5.276  0.00  0.00     0.078 C 
ATOM      2  C1  UNL d   1      -5.991   1.729  -4.495  0.00  0.00    -0.077 A 
ATOM      3  C2  UNL d   1      -5.996   1.720  -3.095  0.00  0.00    -0.001 A 
ATOM      4  C3  UNL d   1      -6.000   2.919  -2.381  0.00  0.00     0.003 A 
ATOM      5  C4  UNL d   1      -6.000   4.137  -3.059  0.00  0.00    -0.005 A 
ATOM      6  C5  UNL d   1      -5.997   4.156  -4.452  0.00  0.00     0.003 A 
ATOM      7  C6  UNL d   1      -5.993   2.958  -5.167  0.00  0.00    -0.001 A 
ENDROOT
TORSDOF 0
ENDMDL
