MODEL 1
REMARK minimizedAffinity 1.33159006
REMARK minimizedRMSD -1
REMARK  0 active torsions:
REMARK  status: ('A' for Active; 'I' for Inactive)
ROOT
ATOM      1  C   UNL d   1      -5.599   2.287   0.082  0.00  0.00     0.078 C 
ATOM      2  C1  UNL d   1      -5.625   2.578  -1.389  0.00  0.00    -0.077 A 
ATOM      3  C2  UNL d   1      -5.988   1.591  -2.313  0.00  0.00    -0.001 A 
ATOM      4  C3  UNL d   1      -5.999   1.874  -3.680  0.00  0.00     0.003 A 
ATOM      5  C4  UNL d   1      -5.648   3.143  -4.135  0.00  0.00    -0.005 A 
ATOM      6  C5  UNL d   1      -5.283   4.131  -3.223  0.00  0.00     0.003 A 
ATOM      7  C6  UNL d   1      -5.271   3.850  -1.856  0.00  0.00    -0.001 A 
ENDROOT
TORSDOF 0
ENDMDL
