MODEL 1
REMARK minimizedAffinity 4.89852476
REMARK minimizedRMSD -1
REMARK  0 active torsions:
REMARK  status: ('A' for Active; 'I' for Inactive)
ROOT
ATOM      1  C   UNL d   1      -5.981   0.457  -5.250  0.00  0.00     0.078 C 
ATOM      2  C1  UNL d   1      -5.991   1.747  -4.486  0.00  0.00    -0.077 A 
ATOM      3  C2  UNL d   1      -5.978   2.979  -5.151  0.00  0.00    -0.001 A 
ATOM      4  C3  UNL d   1      -5.977   4.172  -4.427  0.00  0.00     0.003 A 
ATOM      5  C4  UNL d   1      -5.988   4.145  -3.034  0.00  0.00    -0.005 A 
ATOM      6  C5  UNL d   1      -5.998   2.924  -2.363  0.00  0.00     0.003 A 
ATOM      7  C6  UNL d   1      -5.999   1.730  -3.085  0.00  0.00    -0.001 A 
ENDROOT
TORSDOF 0
ENDMDL
