MODEL 1
REMARK minimizedAffinity -0.64113754
REMARK minimizedRMSD -1
REMARK  0 active torsions:
REMARK  status: ('A' for Active; 'I' for Inactive)
ROOT
ATOM      1  C   UNL d   1      -5.998   0.308  -5.194  0.00  0.00     0.078 C 
ATOM      2  C1  UNL d   1      -5.991   1.395  -4.160  0.00  0.00    -0.077 A 
ATOM      3  C2  UNL d   1      -5.997   1.089  -2.793  0.00  0.00    -0.001 A 
ATOM      4  C3  UNL d   1      -6.000   2.111  -1.842  0.00  0.00     0.003 A 
ATOM      5  C4  UNL d   1      -5.998   3.444  -2.247  0.00  0.00    -0.005 A 
ATOM      6  C5  UNL d   1      -5.994   3.757  -3.605  0.00  0.00     0.003 A 
ATOM      7  C6  UNL d   1      -5.991   2.738  -4.557  0.00  0.00    -0.001 A 
ENDROOT
TORSDOF 0
ENDMDL
