MODEL 1
REMARK minimizedAffinity -1.97043955
REMARK minimizedRMSD -1
REMARK  0 active torsions:
REMARK  status: ('A' for Active; 'I' for Inactive)
ROOT
ATOM      1  C   UNL d   1      -5.999   0.439  -4.908  0.00  0.00     0.078 C 
ATOM      2  C1  UNL d   1      -5.839   1.741  -4.182  0.00  0.00    -0.077 A 
ATOM      3  C2  UNL d   1      -5.516   2.916  -4.872  0.00  0.00    -0.001 A 
ATOM      4  C3  UNL d   1      -5.361   4.120  -4.183  0.00  0.00     0.003 A 
ATOM      5  C4  UNL d   1      -5.525   4.160  -2.800  0.00  0.00    -0.005 A 
ATOM      6  C5  UNL d   1      -5.844   2.996  -2.104  0.00  0.00     0.003 A 
ATOM      7  C6  UNL d   1      -6.000   1.791  -2.792  0.00  0.00    -0.001 A 
ENDROOT
TORSDOF 0
ENDMDL
