MODEL 1
REMARK minimizedAffinity 0.793467641
REMARK minimizedRMSD -1
REMARK  0 active torsions:
REMARK  status: ('A' for Active; 'I' for Inactive)
ROOT
ATOM      1  C   UNL d   1      -5.772   1.654  -0.287  0.00  0.00     0.078 C 
ATOM      2  C1  UNL d   1      -5.795   2.234  -1.670  0.00  0.00    -0.077 A 
ATOM      3  C2  UNL d   1      -5.989   1.417  -2.791  0.00  0.00    -0.001 A 
ATOM      4  C3  UNL d   1      -5.998   1.969  -4.073  0.00  0.00     0.003 A 
ATOM      5  C4  UNL d   1      -5.813   3.340  -4.246  0.00  0.00    -0.005 A 
ATOM      6  C5  UNL d   1      -5.618   4.160  -3.137  0.00  0.00     0.003 A 
ATOM      7  C6  UNL d   1      -5.608   3.610  -1.854  0.00  0.00    -0.001 A 
ENDROOT
TORSDOF 0
ENDMDL
