MODEL 1
REMARK minimizedAffinity -2.12744403
REMARK minimizedRMSD -1
REMARK  0 active torsions:
REMARK  status: ('A' for Active; 'I' for Inactive)
ROOT
ATOM      1  C   UNL d   1       1.289  -4.866  -0.226  0.00  0.00     0.078 C 
ATOM      2  C1  UNL d   1       2.653  -4.270  -0.411  0.00  0.00    -0.077 A 
ATOM      3  C2  UNL d   1       2.886  -2.912  -0.163  0.00  0.00    -0.001 A 
ATOM      4  C3  UNL d   1       4.158  -2.369  -0.348  0.00  0.00     0.003 A 
ATOM      5  C4  UNL d   1       5.207  -3.176  -0.783  0.00  0.00    -0.005 A 
ATOM      6  C5  UNL d   1       4.984  -4.528  -1.035  0.00  0.00     0.003 A 
ATOM      7  C6  UNL d   1       3.713  -5.074  -0.850  0.00  0.00    -0.001 A 
ENDROOT
TORSDOF 0
ENDMDL
