MODEL 1
REMARK minimizedAffinity 2.68627024
REMARK minimizedRMSD -1
REMARK  0 active torsions:
REMARK  status: ('A' for Active; 'I' for Inactive)
ROOT
ATOM      1  C   UNL d   1       0.005   2.236  -0.526  0.00  0.00     0.078 C 
ATOM      2  C1  UNL d   1      -0.412   3.545  -1.126  0.00  0.00    -0.077 A 
ATOM      3  C2  UNL d   1      -1.581   3.648  -1.891  0.00  0.00    -0.001 A 
ATOM      4  C3  UNL d   1      -1.952   4.871  -2.452  0.00  0.00     0.003 A 
ATOM      5  C4  UNL d   1      -1.159   6.000  -2.256  0.00  0.00    -0.005 A 
ATOM      6  C5  UNL d   1       0.007   5.907  -1.498  0.00  0.00     0.003 A 
ATOM      7  C6  UNL d   1       0.379   4.685  -0.936  0.00  0.00    -0.001 A 
ENDROOT
TORSDOF 0
ENDMDL
