MODEL 1
REMARK minimizedAffinity -1.42139387
REMARK minimizedRMSD -1
REMARK  0 active torsions:
REMARK  status: ('A' for Active; 'I' for Inactive)
ROOT
ATOM      1  C   UNL d   1      -0.324   2.562   1.162  0.00  0.00     0.023 A 
ATOM      2  C1  UNL d   1      -0.277   2.407  -0.223  0.00  0.00     0.003 A 
ATOM      3  C2  UNL d   1      -0.157   1.132  -0.781  0.00  0.00     0.048 A 
ATOM      4  C3  UNL d   1      -0.086   0.017   0.053  0.00  0.00     0.023 A 
ATOM      5  C4  UNL d   1      -0.133   0.167   1.440  0.00  0.00     0.048 A 
ATOM      6  C5  UNL d   1      -0.252   1.443   1.993  0.00  0.00     0.003 A 
ATOM      7  I   UNL d   1       0.093  -1.882  -0.775  0.00  0.00    -0.146 I 
ENDROOT
TORSDOF 0
ENDMDL
