MODEL 1
REMARK minimizedAffinity -4.26907492
REMARK minimizedRMSD -1
REMARK  0 active torsions:
REMARK  status: ('A' for Active; 'I' for Inactive)
ROOT
ATOM      1  C   UNL d   1      -0.302   0.685   2.530  0.00  0.00     0.023 A 
ATOM      2  C1  UNL d   1       0.242   0.014   1.434  0.00  0.00     0.003 A 
ATOM      3  C2  UNL d   1       0.143   0.568   0.156  0.00  0.00     0.048 A 
ATOM      4  C3  UNL d   1      -0.500   1.792  -0.019  0.00  0.00     0.023 A 
ATOM      5  C4  UNL d   1      -1.045   2.468   1.075  0.00  0.00     0.048 A 
ATOM      6  C5  UNL d   1      -0.944   1.910   2.351  0.00  0.00     0.003 A 
ATOM      7  I   UNL d   1      -0.648   2.618  -1.921  0.00  0.00    -0.146 I 
ENDROOT
TORSDOF 0
ENDMDL
