MODEL 1
REMARK minimizedAffinity -1.61543941
REMARK minimizedRMSD -1
REMARK  0 active torsions:
REMARK  status: ('A' for Active; 'I' for Inactive)
ROOT
ATOM      1  C   UNL d   1       0.323   0.982   1.496  0.00  0.00     0.023 A 
ATOM      2  C1  UNL d   1       0.527  -0.252   2.114  0.00  0.00     0.003 A 
ATOM      3  C2  UNL d   1       0.511  -1.425   1.357  0.00  0.00     0.048 A 
ATOM      4  C3  UNL d   1       0.292  -1.357  -0.018  0.00  0.00     0.023 A 
ATOM      5  C4  UNL d   1       0.089  -0.125  -0.641  0.00  0.00     0.048 A 
ATOM      6  C5  UNL d   1       0.104   1.045   0.120  0.00  0.00     0.003 A 
ATOM      7  I   UNL d   1       0.268  -3.101  -1.148  0.00  0.00    -0.146 I 
ENDROOT
TORSDOF 0
ENDMDL
