MODEL 1
REMARK minimizedAffinity -3.73656774
REMARK minimizedRMSD -1
REMARK  0 active torsions:
REMARK  status: ('A' for Active; 'I' for Inactive)
ROOT
ATOM      1  C   UNL d   1      -1.237   3.180   1.013  0.00  0.00     0.023 A 
ATOM      2  C1  UNL d   1      -0.632   2.255   1.864  0.00  0.00     0.003 A 
ATOM      3  C2  UNL d   1      -0.311   0.979   1.396  0.00  0.00     0.048 A 
ATOM      4  C3  UNL d   1      -0.596   0.635   0.075  0.00  0.00     0.023 A 
ATOM      5  C4  UNL d   1      -1.200   1.558  -0.780  0.00  0.00     0.048 A 
ATOM      6  C5  UNL d   1      -1.520   2.832  -0.308  0.00  0.00     0.003 A 
ATOM      7  I   UNL d   1      -0.118  -1.263  -0.624  0.00  0.00    -0.146 I 
ENDROOT
TORSDOF 0
ENDMDL
