MODEL 1
REMARK minimizedAffinity -4.15900612
REMARK minimizedRMSD -1
REMARK  0 active torsions:
REMARK  status: ('A' for Active; 'I' for Inactive)
ROOT
ATOM      1  C   UNL d   1       0.039  -0.040   2.342  0.00  0.00     0.023 A 
ATOM      2  C1  UNL d   1       0.254  -0.312   0.991  0.00  0.00     0.003 A 
ATOM      3  C2  UNL d   1      -0.071   0.643   0.025  0.00  0.00     0.048 A 
ATOM      4  C3  UNL d   1      -0.610   1.868   0.417  0.00  0.00     0.023 A 
ATOM      5  C4  UNL d   1      -0.825   2.145   1.768  0.00  0.00     0.048 A 
ATOM      6  C5  UNL d   1      -0.500   1.187   2.730  0.00  0.00     0.003 A 
ATOM      7  I   UNL d   1      -1.094   3.291  -1.018  0.00  0.00    -0.146 I 
ENDROOT
TORSDOF 0
ENDMDL
