MODEL 1
REMARK minimizedAffinity -3.60699081
REMARK minimizedRMSD -1
REMARK  0 active torsions:
REMARK  status: ('A' for Active; 'I' for Inactive)
ROOT
ATOM      1  C   UNL d   1      -0.226   3.634   0.640  0.00  0.00     0.023 A 
ATOM      2  C1  UNL d   1      -0.171   2.704   1.678  0.00  0.00     0.003 A 
ATOM      3  C2  UNL d   1      -0.051   1.343   1.392  0.00  0.00     0.048 A 
ATOM      4  C3  UNL d   1       0.014   0.918   0.066  0.00  0.00     0.023 A 
ATOM      5  C4  UNL d   1      -0.041   1.845  -0.976  0.00  0.00     0.048 A 
ATOM      6  C5  UNL d   1      -0.162   3.205  -0.686  0.00  0.00     0.003 A 
ATOM      7  I   UNL d   1       0.192  -1.108  -0.362  0.00  0.00    -0.146 I 
ENDROOT
TORSDOF 0
ENDMDL
