MODEL 1
REMARK minimizedAffinity -1.66781735
REMARK minimizedRMSD -1
REMARK  0 active torsions:
REMARK  status: ('A' for Active; 'I' for Inactive)
ROOT
ATOM      1  C   UNL d   1       0.373   0.807   0.725  0.00  0.00     0.023 A 
ATOM      2  C1  UNL d   1       0.808   0.240  -0.472  0.00  0.00     0.003 A 
ATOM      3  C2  UNL d   1       0.267  -0.970  -0.911  0.00  0.00     0.048 A 
ATOM      4  C3  UNL d   1      -0.710  -1.608  -0.147  0.00  0.00     0.023 A 
ATOM      5  C4  UNL d   1      -1.150  -1.043   1.052  0.00  0.00     0.048 A 
ATOM      6  C5  UNL d   1      -0.605   0.167   1.486  0.00  0.00     0.003 A 
ATOM      7  I   UNL d   1      -1.517  -3.409  -0.797  0.00  0.00    -0.146 I 
ENDROOT
TORSDOF 0
ENDMDL
