MODEL 1
REMARK minimizedAffinity -3.32305551
REMARK minimizedRMSD -1
REMARK  0 active torsions:
REMARK  status: ('A' for Active; 'I' for Inactive)
ROOT
ATOM      1  C   UNL d   1      -1.308   3.022   1.174  0.00  0.00     0.023 A 
ATOM      2  C1  UNL d   1      -1.445   2.878  -0.207  0.00  0.00     0.003 A 
ATOM      3  C2  UNL d   1      -0.945   1.742  -0.846  0.00  0.00     0.048 A 
ATOM      4  C3  UNL d   1      -0.309   0.752  -0.097  0.00  0.00     0.023 A 
ATOM      5  C4  UNL d   1      -0.170   0.891   1.285  0.00  0.00     0.048 A 
ATOM      6  C5  UNL d   1      -0.671   2.029   1.919  0.00  0.00     0.003 A 
ATOM      7  I   UNL d   1       0.437  -0.940  -1.045  0.00  0.00    -0.146 I 
ENDROOT
TORSDOF 0
ENDMDL
