MODEL 1
REMARK minimizedAffinity -2.10367346
REMARK minimizedRMSD -1
REMARK  0 active torsions:
REMARK  status: ('A' for Active; 'I' for Inactive)
ROOT
ATOM      1  C   UNL d   1       0.365   1.744   1.627  0.00  0.00     0.023 A 
ATOM      2  C1  UNL d   1       0.549   1.802   0.245  0.00  0.00     0.003 A 
ATOM      3  C2  UNL d   1       0.564   0.626  -0.508  0.00  0.00     0.048 A 
ATOM      4  C3  UNL d   1       0.393  -0.604   0.126  0.00  0.00     0.023 A 
ATOM      5  C4  UNL d   1       0.208  -0.666   1.508  0.00  0.00     0.048 A 
ATOM      6  C5  UNL d   1       0.194   0.512   2.257  0.00  0.00     0.003 A 
ATOM      7  I   UNL d   1       0.415  -2.355  -0.993  0.00  0.00    -0.146 I 
ENDROOT
TORSDOF 0
ENDMDL
