MODEL 1
REMARK minimizedAffinity -3.69482541
REMARK minimizedRMSD -1
REMARK  0 active torsions:
REMARK  status: ('A' for Active; 'I' for Inactive)
ROOT
ATOM      1  C   UNL d   1       0.083   1.750   0.435  0.00  0.00     0.023 A 
ATOM      2  C1  UNL d   1       0.184   0.678   1.322  0.00  0.00     0.003 A 
ATOM      3  C2  UNL d   1       0.390  -0.615   0.837  0.00  0.00     0.048 A 
ATOM      4  C3  UNL d   1       0.495  -0.829  -0.537  0.00  0.00     0.023 A 
ATOM      5  C4  UNL d   1       0.396   0.240  -1.429  0.00  0.00     0.048 A 
ATOM      6  C5  UNL d   1       0.189   1.531  -0.939  0.00  0.00     0.003 A 
ATOM      7  I   UNL d   1       0.802  -2.753  -1.261  0.00  0.00    -0.146 I 
ENDROOT
TORSDOF 0
ENDMDL
