MODEL 1
REMARK minimizedAffinity 3.72525954
REMARK minimizedRMSD -1
REMARK  0 active torsions:
REMARK  status: ('A' for Active; 'I' for Inactive)
ROOT
ATOM      1  C   UNL d   1      -2.051  -4.134  -2.696  0.00  0.00     0.023 A 
ATOM      2  C1  UNL d   1      -3.101  -3.225  -2.570  0.00  0.00     0.003 A 
ATOM      3  C2  UNL d   1      -3.086  -2.034  -3.300  0.00  0.00     0.048 A 
ATOM      4  C3  UNL d   1      -2.018  -1.759  -4.153  0.00  0.00     0.023 A 
ATOM      5  C4  UNL d   1      -0.966  -2.667  -4.283  0.00  0.00     0.048 A 
ATOM      6  C5  UNL d   1      -0.985  -3.856  -3.551  0.00  0.00     0.003 A 
ATOM      7  I   UNL d   1      -1.994   0.012  -5.240  0.00  0.00    -0.146 I 
ENDROOT
TORSDOF 0
ENDMDL
