MODEL 1
REMARK minimizedAffinity -1.24876094
REMARK minimizedRMSD -1
REMARK  0 active torsions:
REMARK  status: ('A' for Active; 'I' for Inactive)
ROOT
ATOM      1  N1  IND d   1       1.285  -0.797   0.065  0.00  0.00    -0.196 N 
ATOM      2  C2  IND d   1       2.014   0.360   0.056  0.00  0.00     0.054 A 
ATOM      3  C3  IND d   1       1.202   1.429   0.216  0.00  0.00    -0.031 A 
ATOM      4  C4  IND d   1      -1.340   1.507   0.613  0.00  0.00     0.051 A 
ATOM      5  C5  IND d   1      -2.447   0.708   0.665  0.00  0.00    -0.031 A 
ATOM      6  C6  IND d   1      -2.365  -0.662   0.520  0.00  0.00     0.015 A 
ATOM      7  C7  IND d   1      -1.166  -1.287   0.328  0.00  0.00    -0.016 A 
ATOM      8  C8  IND d   1      -0.040  -0.478   0.267  0.00  0.00    -0.047 A 
ATOM      9  C9  IND d   1      -0.122   0.917   0.371  0.00  0.00    -0.096 A 
ATOM     10  HN1 IND d   1       1.601  -1.590  -0.038  0.00  0.00     0.298 HD
ENDROOT
TORSDOF 0
ENDMDL
