MODEL 1
REMARK minimizedAffinity -4.46176434
REMARK minimizedRMSD -1
REMARK  0 active torsions:
REMARK  status: ('A' for Active; 'I' for Inactive)
ROOT
ATOM      1  N1  IND d   1      -1.533   1.157   1.096  0.00  0.00    -0.196 N 
ATOM      2  C2  IND d   1      -0.625   2.153   0.868  0.00  0.00     0.054 A 
ATOM      3  C3  IND d   1       0.583   1.628   0.562  0.00  0.00    -0.031 A 
ATOM      4  C4  IND d   1       1.269  -0.837   0.278  0.00  0.00     0.051 A 
ATOM      5  C5  IND d   1       0.794  -2.111   0.418  0.00  0.00    -0.031 A 
ATOM      6  C6  IND d   1      -0.508  -2.365   0.797  0.00  0.00     0.015 A 
ATOM      7  C7  IND d   1      -1.391  -1.351   1.039  0.00  0.00    -0.016 A 
ATOM      8  C8  IND d   1      -0.910  -0.056   0.904  0.00  0.00    -0.047 A 
ATOM      9  C9  IND d   1       0.422   0.208   0.562  0.00  0.00    -0.096 A 
ATOM     10  HN1 IND d   1      -2.355   1.270   1.321  0.00  0.00     0.298 HD
ENDROOT
TORSDOF 0
ENDMDL
