MODEL 1
REMARK minimizedAffinity -1.18894613
REMARK minimizedRMSD -1
REMARK  0 active torsions:
REMARK  status: ('A' for Active; 'I' for Inactive)
ROOT
ATOM      1  N1  IND d   1       0.220   2.091   0.282  0.00  0.00    -0.196 N 
ATOM      2  C2  IND d   1       1.253   1.287  -0.113  0.00  0.00     0.054 A 
ATOM      3  C3  IND d   1       0.840   0.003  -0.209  0.00  0.00    -0.031 A 
ATOM      4  C4  IND d   1      -1.510  -0.989   0.136  0.00  0.00     0.051 A 
ATOM      5  C5  IND d   1      -2.772  -0.653   0.539  0.00  0.00    -0.031 A 
ATOM      6  C6  IND d   1      -3.109   0.640   0.881  0.00  0.00     0.015 A 
ATOM      7  C7  IND d   1      -2.195   1.654   0.821  0.00  0.00    -0.016 A 
ATOM      8  C8  IND d   1      -0.910   1.316   0.420  0.00  0.00    -0.047 A 
ATOM      9  C9  IND d   1      -0.552  -0.003   0.112  0.00  0.00    -0.096 A 
ATOM     10  HN1 IND d   1       0.269   2.938   0.420  0.00  0.00     0.298 HD
ENDROOT
TORSDOF 0
ENDMDL
