MODEL 1
REMARK minimizedAffinity -4.31510448
REMARK minimizedRMSD -1
REMARK  0 active torsions:
REMARK  status: ('A' for Active; 'I' for Inactive)
ROOT
ATOM      1  N1  IND d   1      -1.122   1.132  -1.397  0.00  0.00    -0.196 N 
ATOM      2  C2  IND d   1      -0.704   0.457  -0.285  0.00  0.00     0.054 A 
ATOM      3  C3  IND d   1       0.647   0.443  -0.223  0.00  0.00    -0.031 A 
ATOM      4  C4  IND d   1       2.367   1.552  -1.784  0.00  0.00     0.051 A 
ATOM      5  C5  IND d   1       2.466   2.247  -2.956  0.00  0.00    -0.031 A 
ATOM      6  C6  IND d   1       1.352   2.616  -3.682  0.00  0.00     0.015 A 
ATOM      7  C7  IND d   1       0.091   2.312  -3.255  0.00  0.00    -0.016 A 
ATOM      8  C8  IND d   1      -0.014   1.600  -2.068  0.00  0.00    -0.047 A 
ATOM      9  C9  IND d   1       1.115   1.186  -1.349  0.00  0.00    -0.096 A 
ATOM     10  HN1 IND d   1      -1.940   1.245  -1.637  0.00  0.00     0.298 HD
ENDROOT
TORSDOF 0
ENDMDL
