MODEL 1
REMARK minimizedAffinity -4.75418806
REMARK minimizedRMSD -1
REMARK  0 active torsions:
REMARK  status: ('A' for Active; 'I' for Inactive)
ROOT
ATOM      1  N1  IND d   1      -0.082   1.198   0.017  0.00  0.00    -0.196 N 
ATOM      2  C2  IND d   1       1.260   1.002   0.189  0.00  0.00     0.054 A 
ATOM      3  C3  IND d   1       1.496  -0.244   0.657  0.00  0.00    -0.031 A 
ATOM      4  C4  IND d   1      -0.160  -2.161   1.115  0.00  0.00     0.051 A 
ATOM      5  C5  IND d   1      -1.496  -2.447   1.141  0.00  0.00    -0.031 A 
ATOM      6  C6  IND d   1      -2.448  -1.515   0.783  0.00  0.00     0.015 A 
ATOM      7  C7  IND d   1      -2.098  -0.260   0.374  0.00  0.00    -0.016 A 
ATOM      8  C8  IND d   1      -0.742   0.037   0.353  0.00  0.00    -0.047 A 
ATOM      9  C9  IND d   1       0.227  -0.892   0.756  0.00  0.00    -0.096 A 
ATOM     10  HN1 IND d   1      -0.452   1.925  -0.256  0.00  0.00     0.298 HD
ENDROOT
TORSDOF 0
ENDMDL
