MODEL 1
REMARK minimizedAffinity -3.71719766
REMARK minimizedRMSD -1
REMARK  0 active torsions:
REMARK  status: ('A' for Active; 'I' for Inactive)
ROOT
ATOM      1  N1  IND d   1      -0.246   1.263  -0.568  0.00  0.00    -0.196 N 
ATOM      2  C2  IND d   1       1.079   1.183  -0.894  0.00  0.00     0.054 A 
ATOM      3  C3  IND d   1       1.567  -0.039  -0.581  0.00  0.00    -0.031 A 
ATOM      4  C4  IND d   1       0.345  -2.092   0.379  0.00  0.00     0.051 A 
ATOM      5  C5  IND d   1      -0.865  -2.492   0.872  0.00  0.00    -0.031 A 
ATOM      6  C6  IND d   1      -1.953  -1.645   0.909  0.00  0.00     0.015 A 
ATOM      7  C7  IND d   1      -1.875  -0.363   0.441  0.00  0.00    -0.016 A 
ATOM      8  C8  IND d   1      -0.646   0.049  -0.054  0.00  0.00    -0.047 A 
ATOM      9  C9  IND d   1       0.474  -0.793  -0.055  0.00  0.00    -0.096 A 
ATOM     10  HN1 IND d   1      -0.746   1.955  -0.667  0.00  0.00     0.298 HD
ENDROOT
TORSDOF 0
ENDMDL
