MODEL 1
REMARK minimizedAffinity -4.07666779
REMARK minimizedRMSD -1
REMARK  0 active torsions:
REMARK  status: ('A' for Active; 'I' for Inactive)
ROOT
ATOM      1  N1  IND d   1      -0.565   0.838   0.281  0.00  0.00    -0.196 N 
ATOM      2  C2  IND d   1       0.748   0.572   0.009  0.00  0.00     0.054 A 
ATOM      3  C3  IND d   1       1.020  -0.733   0.234  0.00  0.00    -0.031 A 
ATOM      4  C4  IND d   1      -0.561  -2.634   0.952  0.00  0.00     0.051 A 
ATOM      5  C5  IND d   1      -1.845  -2.872   1.354  0.00  0.00    -0.031 A 
ATOM      6  C6  IND d   1      -2.788  -1.867   1.417  0.00  0.00     0.015 A 
ATOM      7  C7  IND d   1      -2.483  -0.582   1.068  0.00  0.00    -0.016 A 
ATOM      8  C8  IND d   1      -1.178  -0.334   0.667  0.00  0.00    -0.047 A 
ATOM      9  C9  IND d   1      -0.206  -1.342   0.642  0.00  0.00    -0.096 A 
ATOM     10  HN1 IND d   1      -0.944   1.607   0.221  0.00  0.00     0.298 HD
ENDROOT
TORSDOF 0
ENDMDL
