MODEL 1
REMARK minimizedAffinity 0.377555281
REMARK minimizedRMSD -1
REMARK  0 active torsions:
REMARK  status: ('A' for Active; 'I' for Inactive)
ROOT
ATOM      1  N1  IND d   1      -1.427  -0.796   1.549  0.00  0.00    -0.196 N 
ATOM      2  C2  IND d   1      -1.047  -2.085   1.798  0.00  0.00     0.054 A 
ATOM      3  C3  IND d   1       0.029  -2.412   1.047  0.00  0.00    -0.031 A 
ATOM      4  C4  IND d   1       1.389  -0.955  -0.582  0.00  0.00     0.051 A 
ATOM      5  C5  IND d   1       1.405   0.280  -1.167  0.00  0.00    -0.031 A 
ATOM      6  C6  IND d   1       0.460   1.240  -0.867  0.00  0.00     0.015 A 
ATOM      7  C7  IND d   1      -0.533   1.004   0.040  0.00  0.00    -0.016 A 
ATOM      8  C8  IND d   1      -0.557  -0.252   0.630  0.00  0.00    -0.047 A 
ATOM      9  C9  IND d   1       0.374  -1.245   0.299  0.00  0.00    -0.096 A 
ATOM     10  HN1 IND d   1      -2.096  -0.392   1.907  0.00  0.00     0.298 HD
ENDROOT
TORSDOF 0
ENDMDL
