MODEL 1
REMARK minimizedAffinity -4.60013103
REMARK minimizedRMSD -1
REMARK  0 active torsions:
REMARK  status: ('A' for Active; 'I' for Inactive)
ROOT
ATOM      1  N1  IND d   1       0.177   1.532  -0.215  0.00  0.00    -0.196 N 
ATOM      2  C2  IND d   1       1.449   1.266  -0.640  0.00  0.00     0.054 A 
ATOM      3  C3  IND d   1       1.722  -0.052  -0.511  0.00  0.00    -0.031 A 
ATOM      4  C4  IND d   1       0.196  -1.968   0.280  0.00  0.00     0.051 A 
ATOM      5  C5  IND d   1      -1.042  -2.212   0.806  0.00  0.00    -0.031 A 
ATOM      6  C6  IND d   1      -1.956  -1.201   1.020  0.00  0.00     0.015 A 
ATOM      7  C7  IND d   1      -1.669   0.097   0.704  0.00  0.00    -0.016 A 
ATOM      8  C8  IND d   1      -0.411   0.350   0.176  0.00  0.00    -0.047 A 
ATOM      9  C9  IND d   1       0.536  -0.666  -0.003  0.00  0.00    -0.096 A 
ATOM     10  HN1 IND d   1      -0.194   2.308  -0.196  0.00  0.00     0.298 HD
ENDROOT
TORSDOF 0
ENDMDL
