MODEL 1
REMARK minimizedAffinity -5.42143774
REMARK minimizedRMSD -1
REMARK  0 active torsions:
REMARK  status: ('A' for Active; 'I' for Inactive)
ROOT
ATOM      1  N1  IND d   1      -0.625   1.025   0.385  0.00  0.00    -0.196 N 
ATOM      2  C2  IND d   1       0.617   0.651  -0.045  0.00  0.00     0.054 A 
ATOM      3  C3  IND d   1       0.804  -0.673   0.149  0.00  0.00    -0.031 A 
ATOM      4  C4  IND d   1      -0.832  -2.439   1.062  0.00  0.00     0.051 A 
ATOM      5  C5  IND d   1      -2.073  -2.572   1.618  0.00  0.00    -0.031 A 
ATOM      6  C6  IND d   1      -2.913  -1.491   1.793  0.00  0.00     0.015 A 
ATOM      7  C7  IND d   1      -2.546  -0.234   1.406  0.00  0.00    -0.016 A 
ATOM      8  C8  IND d   1      -1.284  -0.094   0.847  0.00  0.00    -0.047 A 
ATOM      9  C9  IND d   1      -0.410  -1.180   0.706  0.00  0.00    -0.096 A 
ATOM     10  HN1 IND d   1      -0.943   1.824   0.370  0.00  0.00     0.298 HD
ENDROOT
TORSDOF 0
ENDMDL
