MODEL 1
REMARK minimizedAffinity -3.01849747
REMARK minimizedRMSD -1
REMARK  0 active torsions:
REMARK  status: ('A' for Active; 'I' for Inactive)
ROOT
ATOM      1  N1  IND d   1       1.163  -0.011  -0.314  0.00  0.00    -0.196 N 
ATOM      2  C2  IND d   1       0.509   1.099  -0.770  0.00  0.00     0.054 A 
ATOM      3  C3  IND d   1      -0.828   0.949  -0.632  0.00  0.00    -0.031 A 
ATOM      4  C4  IND d   1      -2.154  -0.994   0.413  0.00  0.00     0.051 A 
ATOM      5  C5  IND d   1      -1.998  -2.247   0.936  0.00  0.00    -0.031 A 
ATOM      6  C6  IND d   1      -0.754  -2.830   1.074  0.00  0.00     0.015 A 
ATOM      7  C7  IND d   1       0.385  -2.173   0.703  0.00  0.00    -0.016 A 
ATOM      8  C8  IND d   1       0.229  -0.903   0.166  0.00  0.00    -0.047 A 
ATOM      9  C9  IND d   1      -1.033  -0.324  -0.016  0.00  0.00    -0.096 A 
ATOM     10  HN1 IND d   1       2.014  -0.132  -0.324  0.00  0.00     0.298 HD
ENDROOT
TORSDOF 0
ENDMDL
