MODEL 1
REMARK minimizedAffinity -3.41444612
REMARK minimizedRMSD -1
REMARK  0 active torsions:
REMARK  status: ('A' for Active; 'I' for Inactive)
ROOT
ATOM      1  N1  IND d   1      -1.518  -2.271   1.437  0.00  0.00    -0.196 N 
ATOM      2  C2  IND d   1      -2.555  -1.746   0.716  0.00  0.00     0.054 A 
ATOM      3  C3  IND d   1      -2.126  -0.711  -0.040  0.00  0.00    -0.031 A 
ATOM      4  C4  IND d   1       0.254   0.228  -0.327  0.00  0.00     0.051 A 
ATOM      5  C5  IND d   1       1.527   0.101   0.152  0.00  0.00    -0.031 A 
ATOM      6  C6  IND d   1       1.858  -0.845   1.101  0.00  0.00     0.015 A 
ATOM      7  C7  IND d   1       0.925  -1.710   1.600  0.00  0.00    -0.016 A 
ATOM      8  C8  IND d   1      -0.370  -1.578   1.121  0.00  0.00    -0.047 A 
ATOM      9  C9  IND d   1      -0.721  -0.593   0.190  0.00  0.00    -0.096 A 
ATOM     10  HN1 IND d   1      -1.574  -2.924   1.993  0.00  0.00     0.298 HD
ENDROOT
TORSDOF 0
ENDMDL
