MODEL 1
REMARK minimizedAffinity -4.88810635
REMARK minimizedRMSD -1
REMARK  0 active torsions:
REMARK  status: ('A' for Active; 'I' for Inactive)
ROOT
ATOM      1  N1  IND d   1      -0.002  -2.811   1.126  0.00  0.00    -0.196 N 
ATOM      2  C2  IND d   1      -1.337  -2.969   1.379  0.00  0.00     0.054 A 
ATOM      3  C3  IND d   1      -2.001  -1.817   1.133  0.00  0.00    -0.031 A 
ATOM      4  C4  IND d   1      -1.115   0.418   0.214  0.00  0.00     0.051 A 
ATOM      5  C5  IND d   1       0.042   1.057  -0.134  0.00  0.00    -0.031 A 
ATOM      6  C6  IND d   1       1.268   0.425  -0.081  0.00  0.00     0.015 A 
ATOM      7  C7  IND d   1       1.381  -0.878   0.312  0.00  0.00    -0.016 A 
ATOM      8  C8  IND d   1       0.209  -1.528   0.673  0.00  0.00    -0.047 A 
ATOM      9  C9  IND d   1      -1.032  -0.879   0.662  0.00  0.00    -0.096 A 
ATOM     10  HN1 IND d   1       0.603  -3.413   1.232  0.00  0.00     0.298 HD
ENDROOT
TORSDOF 0
ENDMDL
