MODEL 1
REMARK minimizedAffinity -3.97707534
REMARK minimizedRMSD -1
REMARK  0 active torsions:
REMARK  status: ('A' for Active; 'I' for Inactive)
ROOT
ATOM      1  N1  IND d   1      -0.418   0.402  -1.570  0.00  0.00    -0.196 N 
ATOM      2  C2  IND d   1       0.711   1.138  -1.340  0.00  0.00     0.054 A 
ATOM      3  C3  IND d   1       1.370   0.662  -0.260  0.00  0.00    -0.031 A 
ATOM      4  C4  IND d   1       0.830  -1.374   1.220  0.00  0.00     0.051 A 
ATOM      5  C5  IND d   1      -0.119  -2.335   1.425  0.00  0.00    -0.031 A 
ATOM      6  C6  IND d   1      -1.238  -2.437   0.624  0.00  0.00     0.015 A 
ATOM      7  C7  IND d   1      -1.445  -1.584  -0.424  0.00  0.00    -0.016 A 
ATOM      8  C8  IND d   1      -0.486  -0.602  -0.630  0.00  0.00    -0.047 A 
ATOM      9  C9  IND d   1       0.630  -0.467   0.206  0.00  0.00    -0.096 A 
ATOM     10  HN1 IND d   1      -0.990   0.544  -2.196  0.00  0.00     0.298 HD
ENDROOT
TORSDOF 0
ENDMDL
