MODEL 1
REMARK minimizedAffinity 0.838245749
REMARK minimizedRMSD -1
REMARK  0 active torsions:
REMARK  status: ('A' for Active; 'I' for Inactive)
ROOT
ATOM      1  N1  IND d   1       1.145   0.988  -0.602  0.00  0.00    -0.196 N 
ATOM      2  C2  IND d   1       1.691  -0.259  -0.718  0.00  0.00     0.054 A 
ATOM      3  C3  IND d   1       0.823  -1.196  -0.275  0.00  0.00    -0.031 A 
ATOM      4  C4  IND d   1      -1.585  -0.916   0.590  0.00  0.00     0.051 A 
ATOM      5  C5  IND d   1      -2.510   0.038   0.913  0.00  0.00    -0.031 A 
ATOM      6  C6  IND d   1      -2.259   1.384   0.742  0.00  0.00     0.015 A 
ATOM      7  C7  IND d   1      -1.073   1.828   0.228  0.00  0.00    -0.016 A 
ATOM      8  C8  IND d   1      -0.130   0.863  -0.095  0.00  0.00    -0.047 A 
ATOM      9  C9  IND d   1      -0.362  -0.502   0.116  0.00  0.00    -0.096 A 
ATOM     10  HN1 IND d   1       1.532   1.727  -0.810  0.00  0.00     0.298 HD
ENDROOT
TORSDOF 0
ENDMDL
