MODEL 1
REMARK minimizedAffinity -6.43734217
REMARK minimizedRMSD -1
REMARK  0 active torsions:
REMARK  status: ('A' for Active; 'I' for Inactive)
ROOT
ATOM      1  N1  IND d   1      -0.492   1.349   0.819  0.00  0.00    -0.196 N 
ATOM      2  C2  IND d   1       0.721   1.085   0.245  0.00  0.00     0.054 A 
ATOM      3  C3  IND d   1       0.960  -0.246   0.242  0.00  0.00    -0.031 A 
ATOM      4  C4  IND d   1      -0.545  -2.179   1.034  0.00  0.00     0.051 A 
ATOM      5  C5  IND d   1      -1.731  -2.433   1.664  0.00  0.00    -0.031 A 
ATOM      6  C6  IND d   1      -2.583  -1.418   2.049  0.00  0.00     0.015 A 
ATOM      7  C7  IND d   1      -2.285  -0.107   1.808  0.00  0.00    -0.016 A 
ATOM      8  C8  IND d   1      -1.078   0.155   1.175  0.00  0.00    -0.047 A 
ATOM      9  C9  IND d   1      -0.189  -0.868   0.820  0.00  0.00    -0.096 A 
ATOM     10  HN1 IND d   1      -0.831   2.130   0.937  0.00  0.00     0.298 HD
ENDROOT
TORSDOF 0
ENDMDL
