MODEL 1
REMARK minimizedAffinity -3.46927667
REMARK minimizedRMSD -1
REMARK  0 active torsions:
REMARK  status: ('A' for Active; 'I' for Inactive)
ROOT
ATOM      1  N1  IND d   1      -0.038   0.094  -1.315  0.00  0.00    -0.196 N 
ATOM      2  C2  IND d   1       0.691   1.074  -0.702  0.00  0.00     0.054 A 
ATOM      3  C3  IND d   1       0.631   0.934   0.641  0.00  0.00    -0.031 A 
ATOM      4  C4  IND d   1      -0.523  -0.889   2.046  0.00  0.00     0.051 A 
ATOM      5  C5  IND d   1      -1.342  -1.977   1.935  0.00  0.00    -0.031 A 
ATOM      6  C6  IND d   1      -1.776  -2.441   0.709  0.00  0.00     0.015 A 
ATOM      7  C7  IND d   1      -1.395  -1.839  -0.456  0.00  0.00    -0.016 A 
ATOM      8  C8  IND d   1      -0.568  -0.730  -0.347  0.00  0.00    -0.047 A 
ATOM      9  C9  IND d   1      -0.159  -0.229   0.896  0.00  0.00    -0.096 A 
ATOM     10  HN1 IND d   1      -0.148   0.007  -2.164  0.00  0.00     0.298 HD
ENDROOT
TORSDOF 0
ENDMDL
