MODEL 1
REMARK minimizedAffinity -5.73629332
REMARK minimizedRMSD -1
REMARK  2 active torsions:
REMARK  status: ('A' for Active; 'I' for Inactive)
REMARK    1  A    between atoms: C2'_3  and  C1'_4 
REMARK    2  A    between atoms: C1'_4  and  C1_5 
ROOT
ATOM      1  C1  I4B d   1       0.191   0.162  -0.269  0.00  0.00    -0.075 A 
ATOM      2  C2  I4B d   1       0.387  -1.170  -0.001  0.00  0.00     0.003 A 
ATOM      3  C3  I4B d   1       1.577  -1.814  -0.421  0.00  0.00     0.002 A 
ATOM      4  C4  I4B d   1       2.515  -1.105  -1.143  0.00  0.00    -0.004 A 
ATOM      5  C5  I4B d   1       2.325   0.251  -1.393  0.00  0.00     0.002 A 
ATOM      6  C6  I4B d   1       1.161   0.892  -0.943  0.00  0.00     0.003 A 
ENDROOT
BRANCH   1   7
ATOM      7  C1' I4B d   1      -1.091   0.802   0.160  0.00  0.00     0.060 C 
BRANCH   7   8
ATOM      8  C2' I4B d   1      -1.258   0.564   1.647  0.00  0.00    -0.013 C 
ATOM      9  C4' I4B d   1      -0.315   1.425   2.445  0.00  0.00     0.013 C 
ATOM     10  C3' I4B d   1      -2.686   0.849   2.004  0.00  0.00     0.013 C 
ENDBRANCH   7   8
ENDBRANCH   1   7
TORSDOF 2
ENDMDL
