MODEL 1
REMARK minimizedAffinity -4.0871439
REMARK minimizedRMSD -1
REMARK  2 active torsions:
REMARK  status: ('A' for Active; 'I' for Inactive)
REMARK    1  A    between atoms: C2'_3  and  C1'_4 
REMARK    2  A    between atoms: C1'_4  and  C1_5 
ROOT
ATOM      1  C1  I4B d   1      -0.330   0.598   0.464  0.00  0.00    -0.075 A 
ATOM      2  C2  I4B d   1      -1.440  -0.178   0.246  0.00  0.00     0.003 A 
ATOM      3  C3  I4B d   1      -2.501  -0.186   1.184  0.00  0.00     0.002 A 
ATOM      4  C4  I4B d   1      -2.388   0.554   2.343  0.00  0.00    -0.004 A 
ATOM      5  C5  I4B d   1      -1.271   1.359   2.552  0.00  0.00     0.002 A 
ATOM      6  C6  I4B d   1      -0.241   1.391   1.601  0.00  0.00     0.003 A 
ENDROOT
BRANCH   1   7
ATOM      7  C1' I4B d   1       0.786   0.557  -0.532  0.00  0.00     0.060 C 
BRANCH   7   8
ATOM      8  C2' I4B d   1       1.559  -0.727  -0.313  0.00  0.00    -0.013 C 
ATOM      9  C4' I4B d   1       1.474  -1.627  -1.518  0.00  0.00     0.013 C 
ATOM     10  C3' I4B d   1       2.982  -0.365  -0.007  0.00  0.00     0.013 C 
ENDBRANCH   7   8
ENDBRANCH   1   7
TORSDOF 2
ENDMDL
