MODEL 1
REMARK minimizedAffinity -2.97400427
REMARK minimizedRMSD -1
REMARK  2 active torsions:
REMARK  status: ('A' for Active; 'I' for Inactive)
REMARK    1  A    between atoms: C2'_3  and  C1'_4 
REMARK    2  A    between atoms: C1'_4  and  C1_5 
ROOT
ATOM      1  C1  I4B d   1      -0.846   0.157   0.350  0.00  0.00    -0.075 A 
ATOM      2  C2  I4B d   1      -0.485  -1.104   0.753  0.00  0.00     0.003 A 
ATOM      3  C3  I4B d   1       0.552  -1.797   0.084  0.00  0.00     0.002 A 
ATOM      4  C4  I4B d   1       1.163  -1.216  -1.009  0.00  0.00    -0.004 A 
ATOM      5  C5  I4B d   1       0.811   0.072  -1.402  0.00  0.00     0.002 A 
ATOM      6  C6  I4B d   1      -0.191   0.768  -0.712  0.00  0.00     0.003 A 
ENDROOT
BRANCH   1   7
ATOM      7  C1' I4B d   1      -1.968   0.848   1.059  0.00  0.00     0.060 C 
BRANCH   7   8
ATOM      8  C2' I4B d   1      -1.791   0.619   2.546  0.00  0.00    -0.013 C 
ATOM      9  C4' I4B d   1      -1.428   1.898   3.255  0.00  0.00     0.013 C 
ATOM     10  C3' I4B d   1      -3.069   0.047   3.082  0.00  0.00     0.013 C 
ENDBRANCH   7   8
ENDBRANCH   1   7
TORSDOF 2
ENDMDL
