MODEL 1
REMARK minimizedAffinity -5.79169369
REMARK minimizedRMSD -1
REMARK  2 active torsions:
REMARK  status: ('A' for Active; 'I' for Inactive)
REMARK    1  A    between atoms: C2'_3  and  C1'_4 
REMARK    2  A    between atoms: C1'_4  and  C1_5 
ROOT
ATOM      1  C1  I4B d   1       1.610   0.431  -0.604  0.00  0.00    -0.075 A 
ATOM      2  C2  I4B d   1       1.410   1.576  -1.335  0.00  0.00     0.003 A 
ATOM      3  C3  I4B d   1       2.209   1.843  -2.473  0.00  0.00     0.002 A 
ATOM      4  C4  I4B d   1       3.223   0.971  -2.812  0.00  0.00    -0.004 A 
ATOM      5  C5  I4B d   1       3.410  -0.200  -2.083  0.00  0.00     0.002 A 
ATOM      6  C6  I4B d   1       2.591  -0.478  -0.979  0.00  0.00     0.003 A 
ENDROOT
BRANCH   1   7
ATOM      7  C1' I4B d   1       0.771   0.196   0.611  0.00  0.00     0.060 C 
BRANCH   7   8
ATOM      8  C2' I4B d   1      -0.684   0.259   0.193  0.00  0.00    -0.013 C 
ATOM      9  C4' I4B d   1      -1.134  -1.045  -0.412  0.00  0.00     0.013 C 
ATOM     10  C3' I4B d   1      -1.500   0.604   1.403  0.00  0.00     0.013 C 
ENDBRANCH   7   8
ENDBRANCH   1   7
TORSDOF 2
ENDMDL
