MODEL 1
REMARK minimizedAffinity -4.08608723
REMARK minimizedRMSD -1
REMARK  2 active torsions:
REMARK  status: ('A' for Active; 'I' for Inactive)
REMARK    1  A    between atoms: C2'_3  and  C1'_4 
REMARK    2  A    between atoms: C1'_4  and  C1_5 
ROOT
ATOM      1  C1  I4B d   1      -0.056   0.017  -0.005  0.00  0.00    -0.075 A 
ATOM      2  C2  I4B d   1       0.944   0.853  -0.437  0.00  0.00     0.003 A 
ATOM      3  C3  I4B d   1       2.149   0.316  -0.951  0.00  0.00     0.002 A 
ATOM      4  C4  I4B d   1       2.332  -1.052  -0.967  0.00  0.00    -0.004 A 
ATOM      5  C5  I4B d   1       1.308  -1.898  -0.550  0.00  0.00     0.002 A 
ATOM      6  C6  I4B d   1       0.102  -1.361  -0.077  0.00  0.00     0.003 A 
ENDROOT
BRANCH   1   7
ATOM      7  C1' I4B d   1      -1.303   0.618   0.562  0.00  0.00     0.060 C 
BRANCH   7   8
ATOM      8  C2' I4B d   1      -1.098   0.798   2.052  0.00  0.00    -0.013 C 
ATOM      9  C4' I4B d   1      -0.910   2.249   2.406  0.00  0.00     0.013 C 
ATOM     10  C3' I4B d   1      -2.289   0.218   2.756  0.00  0.00     0.013 C 
ENDBRANCH   7   8
ENDBRANCH   1   7
TORSDOF 2
ENDMDL
