MODEL 1
REMARK minimizedAffinity -4.3940444
REMARK minimizedRMSD -1
REMARK  2 active torsions:
REMARK  status: ('A' for Active; 'I' for Inactive)
REMARK    1  A    between atoms: C2'_3  and  C1'_4 
REMARK    2  A    between atoms: C1'_4  and  C1_5 
ROOT
ATOM      1  C1  I4B d   1      -0.203   0.212  -0.402  0.00  0.00    -0.075 A 
ATOM      2  C2  I4B d   1       0.220  -1.050  -0.065  0.00  0.00     0.003 A 
ATOM      3  C3  I4B d   1       1.394  -1.587  -0.646  0.00  0.00     0.002 A 
ATOM      4  C4  I4B d   1       2.081  -0.854  -1.592  0.00  0.00    -0.004 A 
ATOM      5  C5  I4B d   1       1.664   0.434  -1.916  0.00  0.00     0.002 A 
ATOM      6  C6  I4B d   1       0.522   0.975  -1.308  0.00  0.00     0.003 A 
ENDROOT
BRANCH   1   7
ATOM      7  C1' I4B d   1      -1.465   0.735   0.206  0.00  0.00     0.060 C 
BRANCH   7   8
ATOM      8  C2' I4B d   1      -1.427   0.436   1.691  0.00  0.00    -0.013 C 
ATOM      9  C4' I4B d   1      -1.307   1.701   2.499  0.00  0.00     0.013 C 
ATOM     10  C3' I4B d   1      -2.675  -0.316   2.044  0.00  0.00     0.013 C 
ENDBRANCH   7   8
ENDBRANCH   1   7
TORSDOF 2
ENDMDL
