MODEL 1
REMARK minimizedAffinity -2.40840673
REMARK minimizedRMSD -1
REMARK  2 active torsions:
REMARK  status: ('A' for Active; 'I' for Inactive)
REMARK    1  A    between atoms: C2'_3  and  C1'_4 
REMARK    2  A    between atoms: C1'_4  and  C1_5 
ROOT
ATOM      1  C1  I4B d   1       0.649  -0.536  -0.333  0.00  0.00    -0.075 A 
ATOM      2  C2  I4B d   1       1.541   0.443   0.025  0.00  0.00     0.003 A 
ATOM      3  C3  I4B d   1       2.779   0.561  -0.650  0.00  0.00     0.002 A 
ATOM      4  C4  I4B d   1       3.104  -0.347  -1.637  0.00  0.00    -0.004 A 
ATOM      5  C5  I4B d   1       2.189  -1.325  -2.015  0.00  0.00     0.002 A 
ATOM      6  C6  I4B d   1       0.948  -1.413  -1.367  0.00  0.00     0.003 A 
ENDROOT
BRANCH   1   7
ATOM      7  C1' I4B d   1      -0.636  -0.653   0.424  0.00  0.00     0.060 C 
BRANCH   7   8
ATOM      8  C2' I4B d   1      -1.128   0.748   0.728  0.00  0.00    -0.013 C 
ATOM      9  C4' I4B d   1      -1.694   1.407  -0.502  0.00  0.00     0.013 C 
ATOM     10  C3' I4B d   1      -2.158   0.651   1.814  0.00  0.00     0.013 C 
ENDBRANCH   7   8
ENDBRANCH   1   7
TORSDOF 2
ENDMDL
