MODEL 1
REMARK minimizedAffinity -4.38568258
REMARK minimizedRMSD -1
REMARK  2 active torsions:
REMARK  status: ('A' for Active; 'I' for Inactive)
REMARK    1  A    between atoms: C2'_3  and  C1'_4 
REMARK    2  A    between atoms: C1'_4  and  C1_5 
ROOT
ATOM      1  C1  I4B d   1       1.040  -0.163  -0.915  0.00  0.00    -0.075 A 
ATOM      2  C2  I4B d   1       2.283  -0.658  -0.610  0.00  0.00     0.003 A 
ATOM      3  C3  I4B d   1       3.400  -0.324  -1.413  0.00  0.00     0.002 A 
ATOM      4  C4  I4B d   1       3.221   0.462  -2.533  0.00  0.00    -0.004 A 
ATOM      5  C5  I4B d   1       1.964   0.982  -2.828  0.00  0.00     0.002 A 
ATOM      6  C6  I4B d   1       0.868   0.678  -2.007  0.00  0.00     0.003 A 
ENDROOT
BRANCH   1   7
ATOM      7  C1' I4B d   1      -0.124  -0.563  -0.065  0.00  0.00     0.060 C 
BRANCH   7   8
ATOM      8  C2' I4B d   1      -0.901   0.691   0.283  0.00  0.00    -0.013 C 
ATOM      9  C4' I4B d   1      -1.601   1.251  -0.927  0.00  0.00     0.013 C 
ATOM     10  C3' I4B d   1      -1.881   0.343   1.363  0.00  0.00     0.013 C 
ENDBRANCH   7   8
ENDBRANCH   1   7
TORSDOF 2
ENDMDL
