MODEL 1
REMARK minimizedAffinity -3.46127582
REMARK minimizedRMSD -1
REMARK  2 active torsions:
REMARK  status: ('A' for Active; 'I' for Inactive)
REMARK    1  A    between atoms: C2'_3  and  C1'_4 
REMARK    2  A    between atoms: C1'_4  and  C1_5 
ROOT
ATOM      1  C1  I4B d   1      -0.602   0.093   0.400  0.00  0.00    -0.075 A 
ATOM      2  C2  I4B d   1      -0.639  -1.233   0.754  0.00  0.00     0.003 A 
ATOM      3  C3  I4B d   1       0.387  -2.113   0.331  0.00  0.00     0.002 A 
ATOM      4  C4  I4B d   1       1.397  -1.639  -0.480  0.00  0.00    -0.004 A 
ATOM      5  C5  I4B d   1       1.446  -0.290  -0.819  0.00  0.00     0.002 A 
ATOM      6  C6  I4B d   1       0.447   0.585  -0.367  0.00  0.00     0.003 A 
ENDROOT
BRANCH   1   7
ATOM      7  C1' I4B d   1      -1.719   0.987   0.836  0.00  0.00     0.060 C 
BRANCH   7   8
ATOM      8  C2' I4B d   1      -1.787   0.945   2.349  0.00  0.00    -0.013 C 
ATOM      9  C4' I4B d   1      -1.277   2.227   2.953  0.00  0.00     0.013 C 
ATOM     10  C3' I4B d   1      -3.212   0.691   2.741  0.00  0.00     0.013 C 
ENDBRANCH   7   8
ENDBRANCH   1   7
TORSDOF 2
ENDMDL
