MODEL 1
REMARK minimizedAffinity -2.51580429
REMARK minimizedRMSD -1
REMARK  2 active torsions:
REMARK  status: ('A' for Active; 'I' for Inactive)
REMARK    1  A    between atoms: C2'_3  and  C1'_4 
REMARK    2  A    between atoms: C1'_4  and  C1_5 
ROOT
ATOM      1  C1  I4B d   1       1.647  -0.967  -0.232  0.00  0.00    -0.075 A 
ATOM      2  C2  I4B d   1       0.912   0.158   0.048  0.00  0.00     0.003 A 
ATOM      3  C3  I4B d   1      -0.459   0.048   0.384  0.00  0.00     0.002 A 
ATOM      4  C4  I4B d   1      -1.063  -1.193   0.379  0.00  0.00    -0.004 A 
ATOM      5  C5  I4B d   1      -0.310  -2.335   0.118  0.00  0.00     0.002 A 
ATOM      6  C6  I4B d   1       1.056  -2.223  -0.177  0.00  0.00     0.003 A 
ENDROOT
BRANCH   1   7
ATOM      7  C1' I4B d   1       3.085  -0.812  -0.615  0.00  0.00     0.060 C 
BRANCH   7   8
ATOM      8  C2' I4B d   1       3.135  -0.219  -2.008  0.00  0.00    -0.013 C 
ATOM      9  C4' I4B d   1       4.540  -0.221  -2.552  0.00  0.00     0.013 C 
ATOM     10  C3' I4B d   1       2.214  -1.016  -2.884  0.00  0.00     0.013 C 
ENDBRANCH   7   8
ENDBRANCH   1   7
TORSDOF 2
ENDMDL
