MODEL 1
REMARK minimizedAffinity -3.57110977
REMARK minimizedRMSD -1
REMARK  2 active torsions:
REMARK  status: ('A' for Active; 'I' for Inactive)
REMARK    1  A    between atoms: C1_2  and  C2_3 
REMARK    2  A    between atoms: C2_3  and  C3_4 
ROOT
ATOM      1  C3  UNL d   1      -2.186   1.916   0.624  0.00  0.00    -0.075 A 
ATOM      2  C4  UNL d   1      -0.955   2.523   0.335  0.00  0.00     0.002 A 
ATOM      3  C5  UNL d   1       0.236   1.809   0.468  0.00  0.00     0.002 A 
ATOM      4  C6  UNL d   1       0.213   0.485   0.900  0.00  0.00    -0.004 A 
ATOM      5  C7  UNL d   1      -1.002  -0.124   1.206  0.00  0.00     0.002 A 
ATOM      6  C8  UNL d   1      -2.196   0.587   1.070  0.00  0.00     0.002 A 
ENDROOT
BRANCH   1   7
ATOM      7  C2  UNL d   1      -3.481   2.674   0.455  0.00  0.00     0.056 C 
BRANCH   7   8
ATOM      8  C1  UNL d   1      -4.727   1.875   0.849  0.00  0.00     0.007 C 
ATOM      9  C   UNL d   1      -5.999   2.713   0.858  0.00  0.00     0.009 C 
ENDBRANCH   7   8
ENDBRANCH   1   7
TORSDOF 2
ENDMDL
