MODEL 1
REMARK minimizedAffinity -1.79188585
REMARK minimizedRMSD -1
REMARK  2 active torsions:
REMARK  status: ('A' for Active; 'I' for Inactive)
REMARK    1  A    between atoms: C1_2  and  C2_3 
REMARK    2  A    between atoms: C2_3  and  C3_4 
ROOT
ATOM      1  C3  UNL d   1      -0.777  -5.342  -2.696  0.00  0.00    -0.075 A 
ATOM      2  C4  UNL d   1      -1.033  -5.653  -1.353  0.00  0.00     0.002 A 
ATOM      3  C5  UNL d   1      -2.188  -5.187  -0.725  0.00  0.00     0.002 A 
ATOM      4  C6  UNL d   1      -3.097  -4.398  -1.427  0.00  0.00    -0.004 A 
ATOM      5  C7  UNL d   1      -2.845  -4.069  -2.758  0.00  0.00     0.002 A 
ATOM      6  C8  UNL d   1      -1.692  -4.537  -3.389  0.00  0.00     0.002 A 
ENDROOT
BRANCH   1   7
ATOM      7  C2  UNL d   1       0.457  -5.867  -3.390  0.00  0.00     0.056 C 
BRANCH   7   8
ATOM      8  C1  UNL d   1       1.772  -5.450  -2.723  0.00  0.00     0.007 C 
ATOM      9  C   UNL d   1       3.004  -5.991  -3.435  0.00  0.00     0.009 C 
ENDBRANCH   7   8
ENDBRANCH   1   7
TORSDOF 2
ENDMDL
