MODEL 1
REMARK minimizedAffinity -0.458160102
REMARK minimizedRMSD -1
REMARK  2 active torsions:
REMARK  status: ('A' for Active; 'I' for Inactive)
REMARK    1  A    between atoms: C1_2  and  C2_3 
REMARK    2  A    between atoms: C2_3  and  C3_4 
ROOT
ATOM      1  C3  UNL d   1      -3.457   1.260   0.834  0.00  0.00    -0.075 A 
ATOM      2  C4  UNL d   1      -3.021   2.301   0.001  0.00  0.00     0.002 A 
ATOM      3  C5  UNL d   1      -1.666   2.446  -0.300  0.00  0.00     0.002 A 
ATOM      4  C6  UNL d   1      -0.732   1.561   0.234  0.00  0.00    -0.004 A 
ATOM      5  C7  UNL d   1      -1.153   0.534   1.076  0.00  0.00     0.002 A 
ATOM      6  C8  UNL d   1      -2.508   0.384   1.376  0.00  0.00     0.002 A 
ENDROOT
BRANCH   1   7
ATOM      7  C2  UNL d   1      -4.925   1.080   1.140  0.00  0.00     0.056 C 
BRANCH   7   8
ATOM      8  C1  UNL d   1      -5.817   2.202   0.600  0.00  0.00     0.007 C 
ATOM      9  C   UNL d   1      -6.000   3.351   1.583  0.00  0.00     0.009 C 
ENDBRANCH   7   8
ENDBRANCH   1   7
TORSDOF 2
ENDMDL
