MODEL 1
REMARK minimizedAffinity -3.57950282
REMARK minimizedRMSD -1
REMARK  2 active torsions:
REMARK  status: ('A' for Active; 'I' for Inactive)
REMARK    1  A    between atoms: C1_2  and  C2_3 
REMARK    2  A    between atoms: C2_3  and  C3_4 
ROOT
ATOM      1  C3  UNL d   1      -2.506   1.778   0.255  0.00  0.00    -0.075 A 
ATOM      2  C4  UNL d   1      -2.621   0.472   0.752  0.00  0.00     0.002 A 
ATOM      3  C5  UNL d   1      -1.481  -0.292   1.005  0.00  0.00     0.002 A 
ATOM      4  C6  UNL d   1      -0.216   0.234   0.756  0.00  0.00    -0.004 A 
ATOM      5  C7  UNL d   1      -0.091   1.525   0.247  0.00  0.00     0.002 A 
ATOM      6  C8  UNL d   1      -1.229   2.294  -0.003  0.00  0.00     0.002 A 
ENDROOT
BRANCH   1   7
ATOM      7  C2  UNL d   1      -3.734   2.621   0.007  0.00  0.00     0.056 C 
BRANCH   7   8
ATOM      8  C1  UNL d   1      -5.043   1.964   0.456  0.00  0.00     0.007 C 
ATOM      9  C   UNL d   1      -6.000   2.934   1.136  0.00  0.00     0.009 C 
ENDBRANCH   7   8
ENDBRANCH   1   7
TORSDOF 2
ENDMDL
