MODEL 1
REMARK minimizedAffinity 2.97949171
REMARK minimizedRMSD -1
REMARK  2 active torsions:
REMARK  status: ('A' for Active; 'I' for Inactive)
REMARK    1  A    between atoms: C1_2  and  C2_3 
REMARK    2  A    between atoms: C2_3  and  C3_4 
ROOT
ATOM      1  C3  UNL d   1      -1.151   0.149   1.406  0.00  0.00    -0.075 A 
ATOM      2  C4  UNL d   1      -1.600   0.920   0.323  0.00  0.00     0.002 A 
ATOM      3  C5  UNL d   1      -0.689   1.588  -0.496  0.00  0.00     0.002 A 
ATOM      4  C6  UNL d   1       0.677   1.502  -0.239  0.00  0.00    -0.004 A 
ATOM      5  C7  UNL d   1       1.133   0.753   0.844  0.00  0.00     0.002 A 
ATOM      6  C8  UNL d   1       0.225   0.080   1.662  0.00  0.00     0.002 A 
ENDROOT
BRANCH   1   7
ATOM      7  C2  UNL d   1      -2.129  -0.600   2.278  0.00  0.00     0.056 C 
BRANCH   7   8
ATOM      8  C1  UNL d   1      -3.567  -0.599   1.747  0.00  0.00     0.007 C 
ATOM      9  C   UNL d   1      -4.598  -0.971   2.805  0.00  0.00     0.009 C 
ENDBRANCH   7   8
ENDBRANCH   1   7
TORSDOF 2
ENDMDL
