MODEL 1
REMARK minimizedAffinity 2.5259645
REMARK minimizedRMSD -1
REMARK  2 active torsions:
REMARK  status: ('A' for Active; 'I' for Inactive)
REMARK    1  A    between atoms: C1_2  and  C2_3 
REMARK    2  A    between atoms: C2_3  and  C3_4 
ROOT
ATOM      1  C3  UNL d   1      -2.196   1.322   0.528  0.00  0.00    -0.075 A 
ATOM      2  C4  UNL d   1      -1.383   2.460   0.631  0.00  0.00     0.002 A 
ATOM      3  C5  UNL d   1      -0.071   2.354   1.094  0.00  0.00     0.002 A 
ATOM      4  C6  UNL d   1       0.440   1.113   1.469  0.00  0.00    -0.004 A 
ATOM      5  C7  UNL d   1      -0.364  -0.022   1.387  0.00  0.00     0.002 A 
ATOM      6  C8  UNL d   1      -1.675   0.081   0.920  0.00  0.00     0.002 A 
ENDROOT
BRANCH   1   7
ATOM      7  C2  UNL d   1      -3.607   1.425  -0.001  0.00  0.00     0.056 C 
BRANCH   7   8
ATOM      8  C1  UNL d   1      -4.651   0.709   0.863  0.00  0.00     0.007 C 
ATOM      9  C   UNL d   1      -5.999   1.415   0.883  0.00  0.00     0.009 C 
ENDBRANCH   7   8
ENDBRANCH   1   7
TORSDOF 2
ENDMDL
