MODEL 1
REMARK minimizedAffinity -3.19246626
REMARK minimizedRMSD -1
REMARK  2 active torsions:
REMARK  status: ('A' for Active; 'I' for Inactive)
REMARK    1  A    between atoms: C1_2  and  C2_3 
REMARK    2  A    between atoms: C2_3  and  C3_4 
ROOT
ATOM      1  C3  UNL d   1      -2.178   1.635   0.614  0.00  0.00    -0.075 A 
ATOM      2  C4  UNL d   1      -2.184   0.317   1.093  0.00  0.00     0.002 A 
ATOM      3  C5  UNL d   1      -3.390  -0.333   1.360  0.00  0.00     0.002 A 
ATOM      4  C6  UNL d   1      -4.600   0.327   1.161  0.00  0.00    -0.004 A 
ATOM      5  C7  UNL d   1      -4.605   1.642   0.700  0.00  0.00     0.002 A 
ATOM      6  C8  UNL d   1      -3.401   2.294   0.429  0.00  0.00     0.002 A 
ENDROOT
BRANCH   1   7
ATOM      7  C2  UNL d   1      -0.878   2.335   0.295  0.00  0.00     0.056 C 
BRANCH   7   8
ATOM      8  C1  UNL d   1       0.313   1.847   1.127  0.00  0.00     0.007 C 
ATOM      9  C   UNL d   1       0.306   2.377   2.554  0.00  0.00     0.009 C 
ENDBRANCH   7   8
ENDBRANCH   1   7
TORSDOF 2
ENDMDL
