MODEL 1
REMARK minimizedAffinity 0.375420541
REMARK minimizedRMSD -1
REMARK  2 active torsions:
REMARK  status: ('A' for Active; 'I' for Inactive)
REMARK    1  A    between atoms: C1_2  and  C2_3 
REMARK    2  A    between atoms: C2_3  and  C3_4 
ROOT
ATOM      1  C3  UNL d   1      -2.232   2.340   0.416  0.00  0.00    -0.075 A 
ATOM      2  C4  UNL d   1      -0.978   2.941   0.236  0.00  0.00     0.002 A 
ATOM      3  C5  UNL d   1       0.192   2.195   0.381  0.00  0.00     0.002 A 
ATOM      4  C6  UNL d   1       0.124   0.845   0.718  0.00  0.00    -0.004 A 
ATOM      5  C7  UNL d   1      -1.116   0.242   0.916  0.00  0.00     0.002 A 
ATOM      6  C8  UNL d   1      -2.288   0.984   0.766  0.00  0.00     0.002 A 
ENDROOT
BRANCH   1   7
ATOM      7  C2  UNL d   1      -3.503   3.134   0.231  0.00  0.00     0.056 C 
BRANCH   7   8
ATOM      8  C1  UNL d   1      -4.784   2.321   0.448  0.00  0.00     0.007 C 
ATOM      9  C   UNL d   1      -5.999   3.186   0.755  0.00  0.00     0.009 C 
ENDBRANCH   7   8
ENDBRANCH   1   7
TORSDOF 2
ENDMDL
