MODEL 1
REMARK minimizedAffinity -2.42571402
REMARK minimizedRMSD -1
REMARK  2 active torsions:
REMARK  status: ('A' for Active; 'I' for Inactive)
REMARK    1  A    between atoms: C1_2  and  C2_3 
REMARK    2  A    between atoms: C2_3  and  C3_4 
ROOT
ATOM      1  C3  UNL d   1      -2.369   1.795   0.578  0.00  0.00    -0.075 A 
ATOM      2  C4  UNL d   1      -2.252   0.661   1.394  0.00  0.00     0.002 A 
ATOM      3  C5  UNL d   1      -1.038  -0.018   1.493  0.00  0.00     0.002 A 
ATOM      4  C6  UNL d   1       0.070   0.421   0.772  0.00  0.00    -0.004 A 
ATOM      5  C7  UNL d   1      -0.039   1.537  -0.055  0.00  0.00     0.002 A 
ATOM      6  C8  UNL d   1      -1.252   2.221  -0.153  0.00  0.00     0.002 A 
ENDROOT
BRANCH   1   7
ATOM      7  C2  UNL d   1      -3.673   2.552   0.489  0.00  0.00     0.056 C 
BRANCH   7   8
ATOM      8  C1  UNL d   1      -4.861   1.825   1.127  0.00  0.00     0.007 C 
ATOM      9  C   UNL d   1      -5.997   2.760   1.521  0.00  0.00     0.009 C 
ENDBRANCH   7   8
ENDBRANCH   1   7
TORSDOF 2
ENDMDL
