MODEL 1
REMARK minimizedAffinity -3.22472858
REMARK minimizedRMSD -1
REMARK  2 active torsions:
REMARK  status: ('A' for Active; 'I' for Inactive)
REMARK    1  A    between atoms: C1_2  and  C2_3 
REMARK    2  A    between atoms: C2_3  and  C3_4 
ROOT
ATOM      1  C3  UNL d   1      -2.308   1.207   0.311  0.00  0.00    -0.075 A 
ATOM      2  C4  UNL d   1      -1.967   2.161  -0.658  0.00  0.00     0.002 A 
ATOM      3  C5  UNL d   1      -0.631   2.379  -0.999  0.00  0.00     0.002 A 
ATOM      4  C6  UNL d   1       0.378   1.654  -0.369  0.00  0.00    -0.004 A 
ATOM      5  C7  UNL d   1       0.052   0.716   0.608  0.00  0.00     0.002 A 
ATOM      6  C8  UNL d   1      -1.284   0.493   0.947  0.00  0.00     0.002 A 
ENDROOT
BRANCH   1   7
ATOM      7  C2  UNL d   1      -3.753   0.946   0.663  0.00  0.00     0.056 C 
BRANCH   7   8
ATOM      8  C1  UNL d   1      -4.732   1.972   0.083  0.00  0.00     0.007 C 
ATOM      9  C   UNL d   1      -5.998   2.131   0.914  0.00  0.00     0.009 C 
ENDBRANCH   7   8
ENDBRANCH   1   7
TORSDOF 2
ENDMDL
