MODEL 1
REMARK minimizedAffinity -0.812809765
REMARK minimizedRMSD -1
REMARK  2 active torsions:
REMARK  status: ('A' for Active; 'I' for Inactive)
REMARK    1  A    between atoms: C1_2  and  C2_3 
REMARK    2  A    between atoms: C2_3  and  C3_4 
ROOT
ATOM      1  C3  UNL d   1      -2.281   1.722   0.242  0.00  0.00    -0.075 A 
ATOM      2  C4  UNL d   1      -2.118   0.673   1.159  0.00  0.00     0.002 A 
ATOM      3  C5  UNL d   1      -0.844   0.207   1.483  0.00  0.00     0.002 A 
ATOM      4  C6  UNL d   1       0.281   0.775   0.889  0.00  0.00    -0.004 A 
ATOM      5  C7  UNL d   1       0.130   1.807  -0.035  0.00  0.00     0.002 A 
ATOM      6  C8  UNL d   1      -1.143   2.278  -0.358  0.00  0.00     0.002 A 
ENDROOT
BRANCH   1   7
ATOM      7  C2  UNL d   1      -3.656   2.251  -0.090  0.00  0.00     0.056 C 
BRANCH   7   8
ATOM      8  C1  UNL d   1      -4.765   1.728   0.828  0.00  0.00     0.007 C 
ATOM      9  C   UNL d   1      -5.999   2.619   0.847  0.00  0.00     0.009 C 
ENDBRANCH   7   8
ENDBRANCH   1   7
TORSDOF 2
ENDMDL
