MODEL 1
REMARK minimizedAffinity 6.17844582
REMARK minimizedRMSD -1
REMARK  2 active torsions:
REMARK  status: ('A' for Active; 'I' for Inactive)
REMARK    1  A    between atoms: C1_2  and  C2_3 
REMARK    2  A    between atoms: C2_3  and  C3_4 
ROOT
ATOM      1  C3  UNL d   1       0.677   1.471   1.670  0.00  0.00    -0.075 A 
ATOM      2  C4  UNL d   1       0.330   1.394   3.026  0.00  0.00     0.002 A 
ATOM      3  C5  UNL d   1      -0.899   1.881   3.472  0.00  0.00     0.002 A 
ATOM      4  C6  UNL d   1      -1.790   2.460   2.571  0.00  0.00    -0.004 A 
ATOM      5  C7  UNL d   1      -1.449   2.556   1.224  0.00  0.00     0.002 A 
ATOM      6  C8  UNL d   1      -0.222   2.066   0.774  0.00  0.00     0.002 A 
ENDROOT
BRANCH   1   7
ATOM      7  C2  UNL d   1       1.994   0.919   1.176  0.00  0.00     0.056 C 
BRANCH   7   8
ATOM      8  C1  UNL d   1       3.223   1.636   1.744  0.00  0.00     0.007 C 
ATOM      9  C   UNL d   1       3.040   3.144   1.856  0.00  0.00     0.009 C 
ENDBRANCH   7   8
ENDBRANCH   1   7
TORSDOF 2
ENDMDL
