MODEL 1
REMARK minimizedAffinity 3.75606465
REMARK minimizedRMSD -1
REMARK  0 active torsions:
REMARK  status: ('A' for Active; 'I' for Inactive)
ROOT
ATOM      1  C   UNL d   1       2.215  -3.441   0.402  0.00  0.00     0.078 C 
ATOM      2  C1  UNL d   1       2.155  -2.235  -0.487  0.00  0.00    -0.077 A 
ATOM      3  C2  UNL d   1       3.255  -1.379  -0.617  0.00  0.00    -0.001 A 
ATOM      4  C3  UNL d   1       3.181  -0.255  -1.442  0.00  0.00     0.003 A 
ATOM      5  C4  UNL d   1       2.009   0.024  -2.141  0.00  0.00    -0.005 A 
ATOM      6  C5  UNL d   1       0.908  -0.821  -2.017  0.00  0.00     0.003 A 
ATOM      7  C6  UNL d   1       0.980  -1.946  -1.193  0.00  0.00    -0.001 A 
ENDROOT
TORSDOF 0
ENDMDL
