MODEL 1
REMARK minimizedAffinity 5.12891245
REMARK minimizedRMSD -1
REMARK  0 active torsions:
REMARK  status: ('A' for Active; 'I' for Inactive)
ROOT
ATOM      1  C   UNL d   1      -0.346   0.529  -0.308  0.00  0.00     0.078 C 
ATOM      2  C1  UNL d   1       0.601   0.889  -1.414  0.00  0.00    -0.077 A 
ATOM      3  C2  UNL d   1       0.574   2.160  -2.000  0.00  0.00    -0.001 A 
ATOM      4  C3  UNL d   1       1.454   2.478  -3.036  0.00  0.00     0.003 A 
ATOM      5  C4  UNL d   1       2.367   1.531  -3.494  0.00  0.00    -0.005 A 
ATOM      6  C5  UNL d   1       2.400   0.262  -2.918  0.00  0.00     0.003 A 
ATOM      7  C6  UNL d   1       1.520  -0.058  -1.882  0.00  0.00    -0.001 A 
ENDROOT
TORSDOF 0
ENDMDL
