MODEL 1
REMARK minimizedAffinity 4.55101681
REMARK minimizedRMSD -1
REMARK  0 active torsions:
REMARK  status: ('A' for Active; 'I' for Inactive)
ROOT
ATOM      1  C   UNL d   1       2.605  -1.554  -1.534  0.00  0.00     0.078 C 
ATOM      2  C1  UNL d   1       1.544  -0.552  -1.190  0.00  0.00    -0.077 A 
ATOM      3  C2  UNL d   1       1.824   0.820  -1.182  0.00  0.00    -0.001 A 
ATOM      4  C3  UNL d   1       0.830   1.742  -0.850  0.00  0.00     0.003 A 
ATOM      5  C4  UNL d   1      -0.451   1.301  -0.523  0.00  0.00    -0.005 A 
ATOM      6  C5  UNL d   1      -0.739  -0.062  -0.526  0.00  0.00     0.003 A 
ATOM      7  C6  UNL d   1       0.254  -0.985  -0.858  0.00  0.00    -0.001 A 
ENDROOT
TORSDOF 0
ENDMDL
