MODEL 1
REMARK minimizedAffinity -4.07034445
REMARK minimizedRMSD -1
REMARK  0 active torsions:
REMARK  status: ('A' for Active; 'I' for Inactive)
ROOT
ATOM      1  C   UNL d   1      -0.039   1.422  -1.014  0.00  0.00     0.078 C 
ATOM      2  C1  UNL d   1       0.917   0.281  -1.191  0.00  0.00    -0.077 A 
ATOM      3  C2  UNL d   1       0.795  -0.887  -0.427  0.00  0.00    -0.001 A 
ATOM      4  C3  UNL d   1       1.698  -1.938  -0.595  0.00  0.00     0.003 A 
ATOM      5  C4  UNL d   1       2.730  -1.832  -1.525  0.00  0.00    -0.005 A 
ATOM      6  C5  UNL d   1       2.861  -0.673  -2.288  0.00  0.00     0.003 A 
ATOM      7  C6  UNL d   1       1.959   0.379  -2.121  0.00  0.00    -0.001 A 
ENDROOT
TORSDOF 0
ENDMDL
