MODEL 1
REMARK minimizedAffinity 7.61998367
REMARK minimizedRMSD -1
REMARK  0 active torsions:
REMARK  status: ('A' for Active; 'I' for Inactive)
ROOT
ATOM      1  C   UNL d   1       1.847   1.295  -2.194  0.00  0.00     0.078 C 
ATOM      2  C1  UNL d   1       1.254   1.721  -0.884  0.00  0.00    -0.077 A 
ATOM      3  C2  UNL d   1      -0.109   2.021  -0.773  0.00  0.00    -0.001 A 
ATOM      4  C3  UNL d   1      -0.645   2.426   0.451  0.00  0.00     0.003 A 
ATOM      5  C4  UNL d   1       0.175   2.537   1.572  0.00  0.00    -0.005 A 
ATOM      6  C5  UNL d   1       1.533   2.243   1.470  0.00  0.00     0.003 A 
ATOM      7  C6  UNL d   1       2.071   1.838   0.247  0.00  0.00    -0.001 A 
ENDROOT
TORSDOF 0
ENDMDL
