MODEL 1
REMARK minimizedAffinity -3.06141615
REMARK minimizedRMSD -1
REMARK  0 active torsions:
REMARK  status: ('A' for Active; 'I' for Inactive)
ROOT
ATOM      1  C   UNL d   1       5.709  -2.432   5.990  0.00  0.00     0.078 C 
ATOM      2  C1  UNL d   1       5.189  -3.680   5.339  0.00  0.00    -0.077 A 
ATOM      3  C2  UNL d   1       6.000  -4.813   5.203  0.00  0.00    -0.001 A 
ATOM      4  C3  UNL d   1       5.506  -5.964   4.587  0.00  0.00     0.003 A 
ATOM      5  C4  UNL d   1       4.200  -5.992   4.100  0.00  0.00    -0.005 A 
ATOM      6  C5  UNL d   1       3.387  -4.868   4.229  0.00  0.00     0.003 A 
ATOM      7  C6  UNL d   1       3.879  -3.716   4.845  0.00  0.00    -0.001 A 
ENDROOT
TORSDOF 0
ENDMDL
