MODEL 1
REMARK minimizedAffinity 4.35775709
REMARK minimizedRMSD -1
REMARK  0 active torsions:
REMARK  status: ('A' for Active; 'I' for Inactive)
ROOT
ATOM      1  C   UNL d   1       2.518   1.364  -2.441  0.00  0.00     0.078 C 
ATOM      2  C1  UNL d   1       1.711   1.617  -1.202  0.00  0.00    -0.077 A 
ATOM      3  C2  UNL d   1       0.312   1.659  -1.249  0.00  0.00    -0.001 A 
ATOM      4  C3  UNL d   1      -0.426   1.905  -0.090  0.00  0.00     0.003 A 
ATOM      5  C4  UNL d   1       0.226   2.113   1.124  0.00  0.00    -0.005 A 
ATOM      6  C5  UNL d   1       1.618   2.075   1.180  0.00  0.00     0.003 A 
ATOM      7  C6  UNL d   1       2.358   1.829   0.022  0.00  0.00    -0.001 A 
ENDROOT
TORSDOF 0
ENDMDL
