MODEL 1
REMARK minimizedAffinity -0.00618931465
REMARK minimizedRMSD -1
REMARK  0 active torsions:
REMARK  status: ('A' for Active; 'I' for Inactive)
ROOT
ATOM      1  C   UNL d   1       1.877   0.713  -2.583  0.00  0.00     0.078 C 
ATOM      2  C1  UNL d   1       1.854  -0.578  -1.821  0.00  0.00    -0.077 A 
ATOM      3  C2  UNL d   1       0.686  -1.346  -1.738  0.00  0.00    -0.001 A 
ATOM      4  C3  UNL d   1       0.677  -2.541  -1.017  0.00  0.00     0.003 A 
ATOM      5  C4  UNL d   1       1.832  -2.978  -0.372  0.00  0.00    -0.005 A 
ATOM      6  C5  UNL d   1       2.998  -2.220  -0.447  0.00  0.00     0.003 A 
ATOM      7  C6  UNL d   1       3.010  -1.025  -1.168  0.00  0.00    -0.001 A 
ENDROOT
TORSDOF 0
ENDMDL
