MODEL 1
REMARK minimizedAffinity 0.791507721
REMARK minimizedRMSD -1
REMARK  0 active torsions:
REMARK  status: ('A' for Active; 'I' for Inactive)
ROOT
ATOM      1  C   UNL d   1       1.645   2.417  -2.679  0.00  0.00     0.078 C 
ATOM      2  C1  UNL d   1       1.958   0.969  -2.446  0.00  0.00    -0.077 A 
ATOM      3  C2  UNL d   1       1.646  -0.000  -3.408  0.00  0.00    -0.001 A 
ATOM      4  C3  UNL d   1       1.934  -1.346  -3.173  0.00  0.00     0.003 A 
ATOM      5  C4  UNL d   1       2.535  -1.735  -1.978  0.00  0.00    -0.005 A 
ATOM      6  C5  UNL d   1       2.847  -0.778  -1.014  0.00  0.00     0.003 A 
ATOM      7  C6  UNL d   1       2.560   0.568  -1.247  0.00  0.00    -0.001 A 
ENDROOT
TORSDOF 0
ENDMDL
