MODEL 1
REMARK minimizedAffinity 1.85480821
REMARK minimizedRMSD -1
REMARK  0 active torsions:
REMARK  status: ('A' for Active; 'I' for Inactive)
ROOT
ATOM      1  C   UNL d   1       2.237   1.506  -3.006  0.00  0.00     0.078 C 
ATOM      2  C1  UNL d   1       2.163   0.323  -2.089  0.00  0.00    -0.077 A 
ATOM      3  C2  UNL d   1       3.299  -0.132  -1.407  0.00  0.00    -0.001 A 
ATOM      4  C3  UNL d   1       3.218  -1.241  -0.563  0.00  0.00     0.003 A 
ATOM      5  C4  UNL d   1       2.004  -1.905  -0.394  0.00  0.00    -0.005 A 
ATOM      6  C5  UNL d   1       0.870  -1.461  -1.070  0.00  0.00     0.003 A 
ATOM      7  C6  UNL d   1       0.949  -0.352  -1.914  0.00  0.00    -0.001 A 
ENDROOT
TORSDOF 0
ENDMDL
