MODEL 1
REMARK minimizedAffinity 0.566644132
REMARK minimizedRMSD -1
REMARK  0 active torsions:
REMARK  status: ('A' for Active; 'I' for Inactive)
ROOT
ATOM      1  C   UNL d   1       2.323  -1.284  -1.368  0.00  0.00     0.078 C 
ATOM      2  C1  UNL d   1       1.929   0.051  -1.927  0.00  0.00    -0.077 A 
ATOM      3  C2  UNL d   1       2.581   0.585  -3.045  0.00  0.00    -0.001 A 
ATOM      4  C3  UNL d   1       2.211   1.833  -3.549  0.00  0.00     0.003 A 
ATOM      5  C4  UNL d   1       1.187   2.557  -2.941  0.00  0.00    -0.005 A 
ATOM      6  C5  UNL d   1       0.534   2.034  -1.827  0.00  0.00     0.003 A 
ATOM      7  C6  UNL d   1       0.903   0.787  -1.321  0.00  0.00    -0.001 A 
ENDROOT
TORSDOF 0
ENDMDL
