MODEL 1
REMARK minimizedAffinity -2.53048372
REMARK minimizedRMSD -1
REMARK  0 active torsions:
REMARK  status: ('A' for Active; 'I' for Inactive)
ROOT
ATOM      1  C   UNL d   1       2.273   1.219  -2.681  0.00  0.00     0.078 C 
ATOM      2  C1  UNL d   1       2.099   0.032  -1.781  0.00  0.00    -0.077 A 
ATOM      3  C2  UNL d   1       3.206  -0.688  -1.316  0.00  0.00    -0.001 A 
ATOM      4  C3  UNL d   1       3.030  -1.796  -0.486  0.00  0.00     0.003 A 
ATOM      5  C4  UNL d   1       1.747  -2.195  -0.115  0.00  0.00    -0.005 A 
ATOM      6  C5  UNL d   1       0.639  -1.486  -0.574  0.00  0.00     0.003 A 
ATOM      7  C6  UNL d   1       0.814  -0.377  -1.404  0.00  0.00    -0.001 A 
ENDROOT
TORSDOF 0
ENDMDL
