MODEL 1
REMARK minimizedAffinity -0.998052418
REMARK minimizedRMSD -1
REMARK  0 active torsions:
REMARK  status: ('A' for Active; 'I' for Inactive)
ROOT
ATOM      1  C   UNL d   1       1.566  -3.892   0.633  0.00  0.00     0.078 C 
ATOM      2  C1  UNL d   1       1.723  -2.632  -0.163  0.00  0.00    -0.077 A 
ATOM      3  C2  UNL d   1       2.870  -1.839  -0.041  0.00  0.00    -0.001 A 
ATOM      4  C3  UNL d   1       2.998  -0.663  -0.781  0.00  0.00     0.003 A 
ATOM      5  C4  UNL d   1       1.982  -0.268  -1.648  0.00  0.00    -0.005 A 
ATOM      6  C5  UNL d   1       0.835  -1.049  -1.776  0.00  0.00     0.003 A 
ATOM      7  C6  UNL d   1       0.705  -2.225  -1.036  0.00  0.00    -0.001 A 
ENDROOT
TORSDOF 0
ENDMDL
