MODEL 1
REMARK minimizedAffinity -0.35803172
REMARK minimizedRMSD -1
REMARK  0 active torsions:
REMARK  status: ('A' for Active; 'I' for Inactive)
ROOT
ATOM      1  N1  IND d   1       0.461   3.543  -1.813  0.00  0.00    -0.196 N 
ATOM      2  C2  IND d   1       0.433   4.817  -1.317  0.00  0.00     0.054 A 
ATOM      3  C3  IND d   1       0.486   4.796   0.034  0.00  0.00    -0.031 A 
ATOM      4  C4  IND d   1       0.724   2.792   1.632  0.00  0.00     0.051 A 
ATOM      5  C5  IND d   1       0.753   1.426   1.649  0.00  0.00    -0.031 A 
ATOM      6  C6  IND d   1       0.687   0.680   0.490  0.00  0.00     0.015 A 
ATOM      7  C7  IND d   1       0.601   1.277  -0.737  0.00  0.00    -0.016 A 
ATOM      8  C8  IND d   1       0.565   2.664  -0.757  0.00  0.00    -0.047 A 
ATOM      9  C9  IND d   1       0.588   3.424   0.419  0.00  0.00    -0.096 A 
ATOM     10  HN1 IND d   1       0.420   3.328  -2.644  0.00  0.00     0.298 HD
ENDROOT
TORSDOF 0
ENDMDL
