MODEL 1
REMARK minimizedAffinity 1.3378191
REMARK minimizedRMSD -1
REMARK  0 active torsions:
REMARK  status: ('A' for Active; 'I' for Inactive)
ROOT
ATOM      1  N1  IND d   1       0.181   2.518  -1.521  0.00  0.00    -0.196 N 
ATOM      2  C2  IND d   1       0.219   3.865  -1.292  0.00  0.00     0.054 A 
ATOM      3  C3  IND d   1       0.332   4.115   0.032  0.00  0.00    -0.031 A 
ATOM      4  C4  IND d   1       0.575   2.464   1.992  0.00  0.00     0.051 A 
ATOM      5  C5  IND d   1       0.558   1.129   2.285  0.00  0.00    -0.031 A 
ATOM      6  C6  IND d   1       0.414   0.169   1.304  0.00  0.00     0.015 A 
ATOM      7  C7  IND d   1       0.293   0.510  -0.014  0.00  0.00    -0.016 A 
ATOM      8  C8  IND d   1       0.303   1.865  -0.314  0.00  0.00    -0.047 A 
ATOM      9  C9  IND d   1       0.405   2.845   0.682  0.00  0.00    -0.096 A 
ATOM     10  HN1 IND d   1       0.095   2.142  -2.289  0.00  0.00     0.298 HD
ENDROOT
TORSDOF 0
ENDMDL
