MODEL 1
REMARK minimizedAffinity 2.42752409
REMARK minimizedRMSD -1
REMARK  0 active torsions:
REMARK  status: ('A' for Active; 'I' for Inactive)
ROOT
ATOM      1  N1  IND d   1       0.110   1.111  -1.236  0.00  0.00    -0.196 N 
ATOM      2  C2  IND d   1      -0.229   2.432  -1.339  0.00  0.00     0.054 A 
ATOM      3  C3  IND d   1      -0.229   3.013  -0.118  0.00  0.00    -0.031 A 
ATOM      4  C4  IND d   1       0.394   2.013   2.171  0.00  0.00     0.051 A 
ATOM      5  C5  IND d   1       0.733   0.836   2.775  0.00  0.00    -0.031 A 
ATOM      6  C6  IND d   1       0.888  -0.334   2.059  0.00  0.00     0.015 A 
ATOM      7  C7  IND d   1       0.719  -0.366   0.704  0.00  0.00    -0.016 A 
ATOM      8  C8  IND d   1       0.368   0.826   0.087  0.00  0.00    -0.047 A 
ATOM      9  C9  IND d   1       0.168   2.007   0.814  0.00  0.00    -0.096 A 
ATOM     10  HN1 IND d   1       0.154   0.552  -1.888  0.00  0.00     0.298 HD
ENDROOT
TORSDOF 0
ENDMDL
