MODEL 1
REMARK minimizedAffinity -1.59783912
REMARK minimizedRMSD -1
REMARK  0 active torsions:
REMARK  status: ('A' for Active; 'I' for Inactive)
ROOT
ATOM      1  N1  IND d   1      -0.356  -1.379   0.992  0.00  0.00    -0.196 N 
ATOM      2  C2  IND d   1       0.776  -0.802   1.495  0.00  0.00     0.054 A 
ATOM      3  C3  IND d   1       1.232   0.152   0.653  0.00  0.00    -0.031 A 
ATOM      4  C4  IND d   1       0.221   1.002  -1.557  0.00  0.00     0.051 A 
ATOM      5  C5  IND d   1      -0.790   0.757  -2.444  0.00  0.00    -0.031 A 
ATOM      6  C6  IND d   1      -1.728  -0.232  -2.225  0.00  0.00     0.015 A 
ATOM      7  C7  IND d   1      -1.697  -1.007  -1.101  0.00  0.00    -0.016 A 
ATOM      8  C8  IND d   1      -0.668  -0.765  -0.201  0.00  0.00    -0.047 A 
ATOM      9  C9  IND d   1       0.311   0.208  -0.438  0.00  0.00    -0.096 A 
ATOM     10  HN1 IND d   1      -0.799  -2.019   1.358  0.00  0.00     0.298 HD
ENDROOT
TORSDOF 0
ENDMDL
