MODEL 1
REMARK minimizedAffinity 2.95811296
REMARK minimizedRMSD -1
REMARK  0 active torsions:
REMARK  status: ('A' for Active; 'I' for Inactive)
ROOT
ATOM      1  N1  IND d   1       0.405   3.348  -1.553  0.00  0.00    -0.196 N 
ATOM      2  C2  IND d   1       0.468   4.627  -1.075  0.00  0.00     0.054 A 
ATOM      3  C3  IND d   1       0.452   4.625   0.277  0.00  0.00    -0.031 A 
ATOM      4  C4  IND d   1       0.431   2.635   1.909  0.00  0.00     0.051 A 
ATOM      5  C5  IND d   1       0.336   1.272   1.945  0.00  0.00    -0.031 A 
ATOM      6  C6  IND d   1       0.260   0.516   0.793  0.00  0.00     0.015 A 
ATOM      7  C7  IND d   1       0.288   1.097  -0.443  0.00  0.00    -0.016 A 
ATOM      8  C8  IND d   1       0.378   2.481  -0.483  0.00  0.00    -0.047 A 
ATOM      9  C9  IND d   1       0.412   3.256   0.683  0.00  0.00    -0.096 A 
ATOM     10  HN1 IND d   1       0.386   3.123  -2.383  0.00  0.00     0.298 HD
ENDROOT
TORSDOF 0
ENDMDL
