MODEL 1
REMARK minimizedAffinity 5.63759947
REMARK minimizedRMSD -1
REMARK  0 active torsions:
REMARK  status: ('A' for Active; 'I' for Inactive)
ROOT
ATOM      1  N1  IND d   1       2.209   4.961   1.289  0.00  0.00    -0.196 N 
ATOM      2  C2  IND d   1       1.494   5.205   0.149  0.00  0.00     0.054 A 
ATOM      3  C3  IND d   1       0.642   4.185  -0.098  0.00  0.00    -0.031 A 
ATOM      4  C4  IND d   1       0.181   2.066   1.288  0.00  0.00     0.051 A 
ATOM      5  C5  IND d   1       0.615   1.384   2.391  0.00  0.00    -0.031 A 
ATOM      6  C6  IND d   1       1.621   1.872   3.200  0.00  0.00     0.015 A 
ATOM      7  C7  IND d   1       2.225   3.069   2.942  0.00  0.00    -0.016 A 
ATOM      8  C8  IND d   1       1.792   3.761   1.820  0.00  0.00    -0.047 A 
ATOM      9  C9  IND d   1       0.802   3.251   0.970  0.00  0.00    -0.096 A 
ATOM     10  HN1 IND d   1       2.817   5.472   1.618  0.00  0.00     0.298 HD
ENDROOT
TORSDOF 0
ENDMDL
