MODEL 1
REMARK minimizedAffinity 2.31537175
REMARK minimizedRMSD -1
REMARK  0 active torsions:
REMARK  status: ('A' for Active; 'I' for Inactive)
ROOT
ATOM      1  N1  IND d   1       0.280   3.882  -2.508  0.00  0.00    -0.196 N 
ATOM      2  C2  IND d   1       0.686   5.159  -2.234  0.00  0.00     0.054 A 
ATOM      3  C3  IND d   1       0.907   5.308  -0.909  0.00  0.00    -0.031 A 
ATOM      4  C4  IND d   1       0.766   3.563   0.979  0.00  0.00     0.051 A 
ATOM      5  C5  IND d   1       0.402   2.269   1.225  0.00  0.00    -0.031 A 
ATOM      6  C6  IND d   1      -0.027   1.428   0.218  0.00  0.00     0.015 A 
ATOM      7  C7  IND d   1      -0.097   1.850  -1.080  0.00  0.00    -0.016 A 
ATOM      8  C8  IND d   1       0.264   3.165  -1.332  0.00  0.00    -0.047 A 
ATOM      9  C9  IND d   1       0.660   4.035  -0.308  0.00  0.00    -0.096 A 
ATOM     10  HN1 IND d   1       0.070   3.578  -3.284  0.00  0.00     0.298 HD
ENDROOT
TORSDOF 0
ENDMDL
