MODEL 1
REMARK minimizedAffinity 0.434487462
REMARK minimizedRMSD -1
REMARK  0 active torsions:
REMARK  status: ('A' for Active; 'I' for Inactive)
ROOT
ATOM      1  N1  IND d   1       0.456   3.708  -1.767  0.00  0.00    -0.196 N 
ATOM      2  C2  IND d   1       0.743   4.987  -1.380  0.00  0.00     0.054 A 
ATOM      3  C3  IND d   1       0.880   5.054  -0.037  0.00  0.00    -0.031 A 
ATOM      4  C4  IND d   1       0.776   3.168   1.713  0.00  0.00     0.051 A 
ATOM      5  C5  IND d   1       0.503   1.836   1.845  0.00  0.00    -0.031 A 
ATOM      6  C6  IND d   1       0.198   1.042   0.758  0.00  0.00     0.015 A 
ATOM      7  C7  IND d   1       0.164   1.552  -0.509  0.00  0.00    -0.016 A 
ATOM      8  C8  IND d   1       0.433   2.907  -0.646  0.00  0.00    -0.047 A 
ATOM      9  C9  IND d   1       0.702   3.726   0.458  0.00  0.00    -0.096 A 
ATOM     10  HN1 IND d   1       0.314   3.448  -2.574  0.00  0.00     0.298 HD
ENDROOT
TORSDOF 0
ENDMDL
