MODEL 1
REMARK minimizedAffinity 5.26070833
REMARK minimizedRMSD -1
REMARK  0 active torsions:
REMARK  status: ('A' for Active; 'I' for Inactive)
ROOT
ATOM      1  C   UNL d   1       1.420  -0.738   2.517  0.00  0.00     0.077 C 
ATOM      2  C1  UNL d   1       1.166   0.340   1.506  0.00  0.00    -0.074 A 
ATOM      3  C2  UNL d   1       2.179   1.231   1.135  0.00  0.00    -0.005 A 
ATOM      4  C3  UNL d   1       1.930   2.223   0.187  0.00  0.00     0.006 A 
ATOM      5  C4  UNL d   1       0.669   2.334  -0.399  0.00  0.00    -0.005 A 
ATOM      6  C5  UNL d   1      -0.356   1.452  -0.041  0.00  0.00    -0.074 A 
ATOM      7  C6  UNL d   1      -1.715   1.552  -0.669  0.00  0.00     0.077 C 
ATOM      8  C7  UNL d   1      -0.096   0.454   0.907  0.00  0.00    -0.001 A 
ENDROOT
TORSDOF 0
ENDMDL
