MODEL 1
REMARK minimizedAffinity -2.66302729
REMARK minimizedRMSD -1
REMARK  0 active torsions:
REMARK  status: ('A' for Active; 'I' for Inactive)
ROOT
ATOM      1  C   UNL d   1       2.113   1.417   0.270  0.00  0.00     0.077 C 
ATOM      2  C1  UNL d   1       0.863   0.588   0.258  0.00  0.00    -0.074 A 
ATOM      3  C2  UNL d   1       0.824  -0.663   0.883  0.00  0.00    -0.005 A 
ATOM      4  C3  UNL d   1      -0.348  -1.419   0.872  0.00  0.00     0.006 A 
ATOM      5  C4  UNL d   1      -1.491  -0.933   0.237  0.00  0.00    -0.005 A 
ATOM      6  C5  UNL d   1      -1.472   0.316  -0.393  0.00  0.00    -0.074 A 
ATOM      7  C6  UNL d   1      -2.694   0.858  -1.072  0.00  0.00     0.077 C 
ATOM      8  C7  UNL d   1      -0.292   1.073  -0.371  0.00  0.00    -0.001 A 
ENDROOT
TORSDOF 0
ENDMDL
