MODEL 1
REMARK minimizedAffinity 1.14450145
REMARK minimizedRMSD -1
REMARK  0 active torsions:
REMARK  status: ('A' for Active; 'I' for Inactive)
ROOT
ATOM      1  C   UNL d   1       0.743  -2.389   1.555  0.00  0.00     0.077 C 
ATOM      2  C1  UNL d   1       0.752  -1.041   0.898  0.00  0.00    -0.074 A 
ATOM      3  C2  UNL d   1       1.872  -0.207   0.984  0.00  0.00    -0.005 A 
ATOM      4  C3  UNL d   1       1.869   1.040   0.360  0.00  0.00     0.006 A 
ATOM      5  C4  UNL d   1       0.749   1.466  -0.356  0.00  0.00    -0.005 A 
ATOM      6  C5  UNL d   1      -0.379   0.645  -0.454  0.00  0.00    -0.074 A 
ATOM      7  C6  UNL d   1      -1.587   1.083  -1.227  0.00  0.00     0.077 C 
ATOM      8  C7  UNL d   1      -0.366  -0.610   0.171  0.00  0.00    -0.001 A 
ENDROOT
TORSDOF 0
ENDMDL
