MODEL 1
REMARK minimizedAffinity -4.3376441
REMARK minimizedRMSD -1
REMARK  0 active torsions:
REMARK  status: ('A' for Active; 'I' for Inactive)
ROOT
ATOM      1  C   UNL d   1       1.652  -1.948   2.760  0.00  0.00     0.077 C 
ATOM      2  C1  UNL d   1       1.362  -0.875   1.753  0.00  0.00    -0.074 A 
ATOM      3  C2  UNL d   1       2.294   0.134   1.489  0.00  0.00    -0.005 A 
ATOM      4  C3  UNL d   1       2.014   1.120   0.542  0.00  0.00     0.006 A 
ATOM      5  C4  UNL d   1       0.801   1.106  -0.149  0.00  0.00    -0.005 A 
ATOM      6  C5  UNL d   1      -0.142   0.105   0.101  0.00  0.00    -0.074 A 
ATOM      7  C6  UNL d   1      -1.446   0.070  -0.640  0.00  0.00     0.077 C 
ATOM      8  C7  UNL d   1       0.149  -0.886   1.049  0.00  0.00    -0.001 A 
ENDROOT
TORSDOF 0
ENDMDL
