MODEL 1
REMARK minimizedAffinity -5.64527464
REMARK minimizedRMSD -1
REMARK  0 active torsions:
REMARK  status: ('A' for Active; 'I' for Inactive)
ROOT
ATOM      1  C   UNL d   1       3.684  -1.211   1.648  0.00  0.00     0.077 C 
ATOM      2  C1  UNL d   1       2.256  -1.036   1.224  0.00  0.00    -0.074 A 
ATOM      3  C2  UNL d   1       1.331  -2.076   1.368  0.00  0.00    -0.005 A 
ATOM      4  C3  UNL d   1       0.004  -1.895   0.978  0.00  0.00     0.006 A 
ATOM      5  C4  UNL d   1      -0.411  -0.676   0.440  0.00  0.00    -0.005 A 
ATOM      6  C5  UNL d   1       0.500   0.375   0.290  0.00  0.00    -0.074 A 
ATOM      7  C6  UNL d   1       0.068   1.695  -0.277  0.00  0.00     0.077 C 
ATOM      8  C7  UNL d   1       1.830   0.188   0.691  0.00  0.00    -0.001 A 
ENDROOT
TORSDOF 0
ENDMDL
