MODEL 1
REMARK minimizedAffinity -2.77204609
REMARK minimizedRMSD -1
REMARK  0 active torsions:
REMARK  status: ('A' for Active; 'I' for Inactive)
ROOT
ATOM      1  C   UNL d   1       1.119  -2.021   2.470  0.00  0.00     0.077 C 
ATOM      2  C1  UNL d   1       0.970  -0.843   1.554  0.00  0.00    -0.074 A 
ATOM      3  C2  UNL d   1       1.944   0.159   1.506  0.00  0.00    -0.005 A 
ATOM      4  C3  UNL d   1       1.796   1.244   0.642  0.00  0.00     0.006 A 
ATOM      5  C4  UNL d   1       0.673   1.337  -0.182  0.00  0.00    -0.005 A 
ATOM      6  C5  UNL d   1      -0.311   0.345  -0.148  0.00  0.00    -0.074 A 
ATOM      7  C6  UNL d   1      -1.519   0.425  -1.034  0.00  0.00     0.077 C 
ATOM      8  C7  UNL d   1      -0.151  -0.746   0.718  0.00  0.00    -0.001 A 
ENDROOT
TORSDOF 0
ENDMDL
