MODEL 1
REMARK minimizedAffinity 1.33849049
REMARK minimizedRMSD -1
REMARK  0 active torsions:
REMARK  status: ('A' for Active; 'I' for Inactive)
ROOT
ATOM      1  C   UNL d   1      -0.939  -2.329   0.844  0.00  0.00     0.077 C 
ATOM      2  C1  UNL d   1      -0.528  -0.920   0.537  0.00  0.00    -0.074 A 
ATOM      3  C2  UNL d   1      -1.397  -0.045  -0.122  0.00  0.00    -0.005 A 
ATOM      4  C3  UNL d   1      -1.004   1.266  -0.392  0.00  0.00     0.006 A 
ATOM      5  C4  UNL d   1       0.260   1.714  -0.007  0.00  0.00    -0.005 A 
ATOM      6  C5  UNL d   1       1.142   0.854   0.654  0.00  0.00    -0.074 A 
ATOM      7  C6  UNL d   1       2.501   1.322   1.084  0.00  0.00     0.077 C 
ATOM      8  C7  UNL d   1       0.737  -0.460   0.928  0.00  0.00    -0.001 A 
ENDROOT
TORSDOF 0
ENDMDL
