MODEL 1
REMARK minimizedAffinity -3.44446421
REMARK minimizedRMSD -1
REMARK  0 active torsions:
REMARK  status: ('A' for Active; 'I' for Inactive)
ROOT
ATOM      1  C   UNL d   1      -2.357  -0.275  -2.498  0.00  0.00     0.077 C 
ATOM      2  C1  UNL d   1      -1.651  -0.391  -1.181  0.00  0.00    -0.074 A 
ATOM      3  C2  UNL d   1      -2.074  -1.312  -0.217  0.00  0.00    -0.005 A 
ATOM      4  C3  UNL d   1      -1.401  -1.416   1.000  0.00  0.00     0.006 A 
ATOM      5  C4  UNL d   1      -0.300  -0.601   1.266  0.00  0.00    -0.005 A 
ATOM      6  C5  UNL d   1       0.139   0.325   0.314  0.00  0.00    -0.074 A 
ATOM      7  C6  UNL d   1       1.327   1.201   0.580  0.00  0.00     0.077 C 
ATOM      8  C7  UNL d   1      -0.539   0.418  -0.909  0.00  0.00    -0.001 A 
ENDROOT
TORSDOF 0
ENDMDL
