MODEL 1
REMARK minimizedAffinity -5.88398504
REMARK minimizedRMSD -1
REMARK  0 active torsions:
REMARK  status: ('A' for Active; 'I' for Inactive)
ROOT
ATOM      1  C   UNL d   1       1.032  -3.219   2.644  0.00  0.00     0.077 C 
ATOM      2  C1  UNL d   1       1.624  -1.947   2.113  0.00  0.00    -0.074 A 
ATOM      3  C2  UNL d   1       2.959  -1.616   2.364  0.00  0.00    -0.005 A 
ATOM      4  C3  UNL d   1       3.498  -0.435   1.855  0.00  0.00     0.006 A 
ATOM      5  C4  UNL d   1       2.709   0.426   1.090  0.00  0.00    -0.005 A 
ATOM      6  C5  UNL d   1       1.372   0.111   0.828  0.00  0.00    -0.074 A 
ATOM      7  C6  UNL d   1       0.513   1.019  -0.000  0.00  0.00     0.077 C 
ATOM      8  C7  UNL d   1       0.840  -1.082   1.337  0.00  0.00    -0.001 A 
ENDROOT
TORSDOF 0
ENDMDL
