MODEL 1
REMARK minimizedAffinity 33.8600197
REMARK minimizedRMSD -1
REMARK  0 active torsions:
REMARK  status: ('A' for Active; 'I' for Inactive)
ROOT
ATOM      1  C   UNL d   1       4.652  -0.703   2.358  0.00  0.00     0.124 A 
ATOM      2  C1  UNL d   1       4.076  -0.916   3.603  0.00  0.00     0.062 A 
ATOM      3  C2  UNL d   1       2.743  -0.582   3.823  0.00  0.00     0.162 A 
ATOM      4  C3  UNL d   1       1.976  -0.032   2.796  0.00  0.00    -0.034 A 
ATOM      5  C4  UNL d   1       2.563   0.180   1.547  0.00  0.00     0.162 A 
ATOM      6  C5  UNL d   1       3.896  -0.155   1.332  0.00  0.00     0.062 A 
ATOM      7  F   UNL d   1       4.451   0.051   0.129  0.00  0.00    -0.097 F 
ATOM      8  F1  UNL d   1       1.855   0.707   0.537  0.00  0.00    -0.096 F 
ATOM      9  I   UNL d   1      -0.018   0.469   3.121  0.00  0.00    -0.060 I 
ATOM     10  F2  UNL d   1       2.212  -0.799   5.036  0.00  0.00    -0.096 F 
ATOM     11  F3  UNL d   1       4.805  -1.444   4.596  0.00  0.00    -0.097 F 
ATOM     12  F4  UNL d   1       5.935  -1.025   2.149  0.00  0.00    -0.092 F 
ENDROOT
TORSDOF 0
ENDMDL
