MODEL 1
REMARK minimizedAffinity 36.6422005
REMARK minimizedRMSD -1
REMARK  0 active torsions:
REMARK  status: ('A' for Active; 'I' for Inactive)
ROOT
ATOM      1  C   UNL d   1       0.332   0.411   4.599  0.00  0.00     0.124 A 
ATOM      2  C1  UNL d   1       1.249  -0.228   3.777  0.00  0.00     0.062 A 
ATOM      3  C2  UNL d   1       1.607   0.337   2.556  0.00  0.00     0.162 A 
ATOM      4  C3  UNL d   1       1.048   1.548   2.150  0.00  0.00    -0.034 A 
ATOM      5  C4  UNL d   1       0.126   2.185   2.982  0.00  0.00     0.162 A 
ATOM      6  C5  UNL d   1      -0.229   1.616   4.201  0.00  0.00     0.062 A 
ATOM      7  F   UNL d   1      -1.116   2.235   4.995  0.00  0.00    -0.097 F 
ATOM      8  F1  UNL d   1      -0.431   3.351   2.623  0.00  0.00    -0.096 F 
ATOM      9  I   UNL d   1       1.581   2.396   0.326  0.00  0.00    -0.060 I 
ATOM     10  F2  UNL d   1       2.496  -0.303   1.782  0.00  0.00    -0.096 F 
ATOM     11  F3  UNL d   1       1.792  -1.393   4.158  0.00  0.00    -0.097 F 
ATOM     12  F4  UNL d   1      -0.012  -0.135   5.773  0.00  0.00    -0.092 F 
ENDROOT
TORSDOF 0
ENDMDL
