MODEL 1
REMARK minimizedAffinity 26.4250259
REMARK minimizedRMSD -1
REMARK  0 active torsions:
REMARK  status: ('A' for Active; 'I' for Inactive)
ROOT
ATOM      1  C   UNL d   1      -2.612  -2.815  -0.006  0.00  0.00     0.124 A 
ATOM      2  C1  UNL d   1      -2.863  -2.518  -1.339  0.00  0.00     0.062 A 
ATOM      3  C2  UNL d   1      -3.605  -3.397  -2.123  0.00  0.00     0.162 A 
ATOM      4  C3  UNL d   1      -4.103  -4.580  -1.577  0.00  0.00    -0.034 A 
ATOM      5  C4  UNL d   1      -3.845  -4.871  -0.236  0.00  0.00     0.162 A 
ATOM      6  C5  UNL d   1      -3.103  -3.990   0.544  0.00  0.00     0.062 A 
ATOM      7  F   UNL d   1      -2.862  -4.278   1.831  0.00  0.00    -0.097 F 
ATOM      8  F1  UNL d   1      -4.309  -6.000   0.321  0.00  0.00    -0.096 F 
ATOM      9  I   UNL d   1      -5.213  -5.896  -2.747  0.00  0.00    -0.060 I 
ATOM     10  F2  UNL d   1      -3.832  -3.085  -3.408  0.00  0.00    -0.096 F 
ATOM     11  F3  UNL d   1      -2.389  -1.384  -1.873  0.00  0.00    -0.097 F 
ATOM     12  F4  UNL d   1      -1.897  -1.968   0.746  0.00  0.00    -0.092 F 
ENDROOT
TORSDOF 0
ENDMDL
