MODEL 1
REMARK minimizedAffinity 30.3552666
REMARK minimizedRMSD -1
REMARK  0 active torsions:
REMARK  status: ('A' for Active; 'I' for Inactive)
ROOT
ATOM      1  C   UNL d   1       1.430   3.562   1.145  0.00  0.00     0.124 A 
ATOM      2  C1  UNL d   1       2.002   2.322   0.897  0.00  0.00     0.062 A 
ATOM      3  C2  UNL d   1       1.640   1.218   1.664  0.00  0.00     0.162 A 
ATOM      4  C3  UNL d   1       0.701   1.349   2.687  0.00  0.00    -0.034 A 
ATOM      5  C4  UNL d   1       0.130   2.599   2.931  0.00  0.00     0.162 A 
ATOM      6  C5  UNL d   1       0.495   3.699   2.162  0.00  0.00     0.062 A 
ATOM      7  F   UNL d   1      -0.058   4.897   2.403  0.00  0.00    -0.097 F 
ATOM      8  F1  UNL d   1      -0.776   2.760   3.907  0.00  0.00    -0.096 F 
ATOM      9  I   UNL d   1       0.157  -0.299   3.836  0.00  0.00    -0.060 I 
ATOM     10  F2  UNL d   1       2.209   0.032   1.402  0.00  0.00    -0.096 F 
ATOM     11  F3  UNL d   1       2.906   2.186  -0.084  0.00  0.00    -0.097 F 
ATOM     12  F4  UNL d   1       1.780   4.622   0.407  0.00  0.00    -0.092 F 
ENDROOT
TORSDOF 0
ENDMDL
