MODEL 1
REMARK minimizedAffinity 29.1258354
REMARK minimizedRMSD -1
REMARK  0 active torsions:
REMARK  status: ('A' for Active; 'I' for Inactive)
ROOT
ATOM      1  C   UNL d   1      -3.103  -3.982  -1.991  0.00  0.00     0.124 A 
ATOM      2  C1  UNL d   1      -3.378  -2.700  -2.446  0.00  0.00     0.062 A 
ATOM      3  C2  UNL d   1      -2.714  -2.195  -3.560  0.00  0.00     0.162 A 
ATOM      4  C3  UNL d   1      -1.769  -2.973  -4.229  0.00  0.00    -0.034 A 
ATOM      5  C4  UNL d   1      -1.496  -4.261  -3.764  0.00  0.00     0.162 A 
ATOM      6  C5  UNL d   1      -2.162  -4.761  -2.650  0.00  0.00     0.062 A 
ATOM      7  F   UNL d   1      -1.895  -6.000  -2.212  0.00  0.00    -0.097 F 
ATOM      8  F1  UNL d   1      -0.593  -5.036  -4.383  0.00  0.00    -0.096 F 
ATOM      9  I   UNL d   1      -0.774  -2.222  -5.895  0.00  0.00    -0.060 I 
ATOM     10  F2  UNL d   1      -3.000  -0.953  -3.978  0.00  0.00    -0.096 F 
ATOM     11  F3  UNL d   1      -4.286  -1.945  -1.810  0.00  0.00    -0.097 F 
ATOM     12  F4  UNL d   1      -3.742  -4.465  -0.918  0.00  0.00    -0.092 F 
ENDROOT
TORSDOF 0
ENDMDL
