MODEL 1
REMARK minimizedAffinity 25.0354729
REMARK minimizedRMSD -1
REMARK  0 active torsions:
REMARK  status: ('A' for Active; 'I' for Inactive)
ROOT
ATOM      1  C   UNL d   1      -1.242  -3.824   1.703  0.00  0.00     0.124 A 
ATOM      2  C1  UNL d   1      -1.234  -2.720   0.862  0.00  0.00     0.062 A 
ATOM      3  C2  UNL d   1      -2.013  -2.712  -0.291  0.00  0.00     0.162 A 
ATOM      4  C3  UNL d   1      -2.808  -3.813  -0.611  0.00  0.00    -0.034 A 
ATOM      5  C4  UNL d   1      -2.810  -4.921   0.239  0.00  0.00     0.162 A 
ATOM      6  C5  UNL d   1      -2.030  -4.923   1.390  0.00  0.00     0.062 A 
ATOM      7  F   UNL d   1      -2.038  -5.991   2.201  0.00  0.00    -0.097 F 
ATOM      8  F1  UNL d   1      -3.562  -5.996  -0.038  0.00  0.00    -0.096 F 
ATOM      9  I   UNL d   1      -3.974  -3.806  -2.335  0.00  0.00    -0.060 I 
ATOM     10  F2  UNL d   1      -1.986  -1.631  -1.085  0.00  0.00    -0.096 F 
ATOM     11  F3  UNL d   1      -0.474  -1.657   1.162  0.00  0.00    -0.097 F 
ATOM     12  F4  UNL d   1      -0.491  -3.829   2.812  0.00  0.00    -0.092 F 
ENDROOT
TORSDOF 0
ENDMDL
