MODEL 1
REMARK minimizedAffinity 33.4850845
REMARK minimizedRMSD -1
REMARK  0 active torsions:
REMARK  status: ('A' for Active; 'I' for Inactive)
ROOT
ATOM      1  C   UNL d   1      -2.264  -3.768   1.081  0.00  0.00     0.124 A 
ATOM      2  C1  UNL d   1      -2.157  -2.578   0.374  0.00  0.00     0.062 A 
ATOM      3  C2  UNL d   1      -2.718  -2.465  -0.895  0.00  0.00     0.162 A 
ATOM      4  C3  UNL d   1      -3.392  -3.546  -1.465  0.00  0.00    -0.034 A 
ATOM      5  C4  UNL d   1      -3.493  -4.739  -0.749  0.00  0.00     0.162 A 
ATOM      6  C5  UNL d   1      -2.931  -4.847   0.519  0.00  0.00     0.062 A 
ATOM      7  F   UNL d   1      -3.035  -5.997   1.201  0.00  0.00    -0.097 F 
ATOM      8  F1  UNL d   1      -4.134  -5.798  -1.267  0.00  0.00    -0.096 F 
ATOM      9  I   UNL d   1      -4.232  -3.381  -3.362  0.00  0.00    -0.060 I 
ATOM     10  F2  UNL d   1      -2.601  -1.304  -1.555  0.00  0.00    -0.096 F 
ATOM     11  F3  UNL d   1      -1.512  -1.534   0.914  0.00  0.00    -0.097 F 
ATOM     12  F4  UNL d   1      -1.722  -3.874   2.301  0.00  0.00    -0.092 F 
ENDROOT
TORSDOF 0
ENDMDL
