MODEL 1
REMARK minimizedAffinity 24.7879925
REMARK minimizedRMSD -1
REMARK  0 active torsions:
REMARK  status: ('A' for Active; 'I' for Inactive)
ROOT
ATOM      1  C   UNL d   1       2.782  -0.214   2.547  0.00  0.00     0.124 A 
ATOM      2  C1  UNL d   1       4.010  -0.488   1.960  0.00  0.00     0.062 A 
ATOM      3  C2  UNL d   1       4.315   0.026   0.703  0.00  0.00     0.162 A 
ATOM      4  C3  UNL d   1       3.391   0.820   0.024  0.00  0.00    -0.034 A 
ATOM      5  C4  UNL d   1       2.158   1.090   0.620  0.00  0.00     0.162 A 
ATOM      6  C5  UNL d   1       1.857   0.574   1.876  0.00  0.00     0.062 A 
ATOM      7  F   UNL d   1       0.671   0.840   2.441  0.00  0.00    -0.097 F 
ATOM      8  F1  UNL d   1       1.246   1.850  -0.005  0.00  0.00    -0.096 F 
ATOM      9  I   UNL d   1       3.844   1.591  -1.856  0.00  0.00    -0.060 I 
ATOM     10  F2  UNL d   1       5.509  -0.255   0.160  0.00  0.00    -0.096 F 
ATOM     11  F3  UNL d   1       4.904  -1.250   2.605  0.00  0.00    -0.097 F 
ATOM     12  F4  UNL d   1       2.490  -0.711   3.756  0.00  0.00    -0.092 F 
ENDROOT
TORSDOF 0
ENDMDL
