MODEL 1
REMARK minimizedAffinity 7.7180047
REMARK minimizedRMSD -1
REMARK  0 active torsions:
REMARK  status: ('A' for Active; 'I' for Inactive)
ROOT
ATOM      1  C   UNL d   1       3.553  -0.112   1.812  0.00  0.00     0.124 A 
ATOM      2  C1  UNL d   1       4.598  -0.221   0.905  0.00  0.00     0.062 A 
ATOM      3  C2  UNL d   1       4.633   0.592  -0.224  0.00  0.00     0.162 A 
ATOM      4  C3  UNL d   1       3.618   1.522  -0.453  0.00  0.00    -0.034 A 
ATOM      5  C4  UNL d   1       2.570   1.624   0.463  0.00  0.00     0.162 A 
ATOM      6  C5  UNL d   1       2.540   0.810   1.590  0.00  0.00     0.062 A 
ATOM      7  F   UNL d   1       1.529   0.916   2.465  0.00  0.00    -0.097 F 
ATOM      8  F1  UNL d   1       1.578   2.507   0.274  0.00  0.00    -0.096 F 
ATOM      9  I   UNL d   1       3.666   2.739  -2.140  0.00  0.00    -0.060 I 
ATOM     10  F2  UNL d   1       5.655   0.466  -1.083  0.00  0.00    -0.096 F 
ATOM     11  F3  UNL d   1       5.578  -1.111   1.117  0.00  0.00    -0.097 F 
ATOM     12  F4  UNL d   1       3.522  -0.897   2.897  0.00  0.00    -0.092 F 
ENDROOT
TORSDOF 0
ENDMDL
