MODEL 1
REMARK minimizedAffinity 21.7978935
REMARK minimizedRMSD -1
REMARK  0 active torsions:
REMARK  status: ('A' for Active; 'I' for Inactive)
ROOT
ATOM      1  C   UNL d   1      -1.856  -3.059   1.722  0.00  0.00     0.124 A 
ATOM      2  C1  UNL d   1      -1.197  -2.756   2.905  0.00  0.00     0.062 A 
ATOM      3  C2  UNL d   1      -0.493  -1.561   3.027  0.00  0.00     0.162 A 
ATOM      4  C3  UNL d   1      -0.444  -0.661   1.963  0.00  0.00    -0.034 A 
ATOM      5  C4  UNL d   1      -1.109  -0.974   0.776  0.00  0.00     0.162 A 
ATOM      6  C5  UNL d   1      -1.811  -2.169   0.659  0.00  0.00     0.062 A 
ATOM      7  F   UNL d   1      -2.448  -2.461  -0.485  0.00  0.00    -0.097 F 
ATOM      8  F1  UNL d   1      -1.083  -0.131  -0.267  0.00  0.00    -0.096 F 
ATOM      9  I   UNL d   1       0.608   1.126   2.141  0.00  0.00    -0.060 I 
ATOM     10  F2  UNL d   1       0.135  -1.293   4.182  0.00  0.00    -0.096 F 
ATOM     11  F3  UNL d   1      -1.238  -3.615   3.933  0.00  0.00    -0.097 F 
ATOM     12  F4  UNL d   1      -2.532  -4.210   1.607  0.00  0.00    -0.092 F 
ENDROOT
TORSDOF 0
ENDMDL
