MODEL 1
REMARK minimizedAffinity 21.5866508
REMARK minimizedRMSD -1
REMARK  0 active torsions:
REMARK  status: ('A' for Active; 'I' for Inactive)
ROOT
ATOM      1  C   UNL d   1       2.301   2.704  -3.613  0.00  0.00     0.124 A 
ATOM      2  C1  UNL d   1       3.455   2.008  -3.283  0.00  0.00     0.062 A 
ATOM      3  C2  UNL d   1       3.582   1.418  -2.029  0.00  0.00     0.162 A 
ATOM      4  C3  UNL d   1       2.551   1.522  -1.095  0.00  0.00    -0.034 A 
ATOM      5  C4  UNL d   1       1.394   2.225  -1.434  0.00  0.00     0.162 A 
ATOM      6  C5  UNL d   1       1.271   2.812  -2.689  0.00  0.00     0.062 A 
ATOM      7  F   UNL d   1       0.156   3.485  -3.006  0.00  0.00    -0.097 F 
ATOM      8  F1  UNL d   1       0.383   2.344  -0.560  0.00  0.00    -0.096 F 
ATOM      9  I   UNL d   1       2.737   0.642   0.782  0.00  0.00    -0.060 I 
ATOM     10  F2  UNL d   1       4.708   0.751  -1.737  0.00  0.00    -0.096 F 
ATOM     11  F3  UNL d   1       4.451   1.903  -4.174  0.00  0.00    -0.097 F 
ATOM     12  F4  UNL d   1       2.181   3.271  -4.821  0.00  0.00    -0.092 F 
ENDROOT
TORSDOF 0
ENDMDL
