MODEL 1
REMARK minimizedAffinity 24.1499348
REMARK minimizedRMSD -1
REMARK  0 active torsions:
REMARK  status: ('A' for Active; 'I' for Inactive)
ROOT
ATOM      1  C   UNL d   1      -2.273   4.955  -0.002  0.00  0.00     0.124 A 
ATOM      2  C1  UNL d   1      -1.440   4.370   0.942  0.00  0.00     0.062 A 
ATOM      3  C2  UNL d   1      -1.979   3.617   1.981  0.00  0.00     0.162 A 
ATOM      4  C3  UNL d   1      -3.360   3.442   2.080  0.00  0.00    -0.034 A 
ATOM      5  C4  UNL d   1      -4.191   4.033   1.127  0.00  0.00     0.162 A 
ATOM      6  C5  UNL d   1      -3.647   4.786   0.091  0.00  0.00     0.062 A 
ATOM      7  F   UNL d   1      -4.453   5.349  -0.820  0.00  0.00    -0.097 F 
ATOM      8  F1  UNL d   1      -5.523   3.885   1.193  0.00  0.00    -0.096 F 
ATOM      9  I   UNL d   1      -4.170   2.316   3.631  0.00  0.00    -0.060 I 
ATOM     10  F2  UNL d   1      -1.151   3.064   2.879  0.00  0.00    -0.096 F 
ATOM     11  F3  UNL d   1      -0.112   4.533   0.855  0.00  0.00    -0.097 F 
ATOM     12  F4  UNL d   1      -1.751   5.680  -1.000  0.00  0.00    -0.092 F 
ENDROOT
TORSDOF 0
ENDMDL
