MODEL 1
REMARK minimizedAffinity 20.9014912
REMARK minimizedRMSD -1
REMARK  0 active torsions:
REMARK  status: ('A' for Active; 'I' for Inactive)
ROOT
ATOM      1  C   UNL d   1      -2.377  -4.797  -2.339  0.00  0.00     0.124 A 
ATOM      2  C1  UNL d   1      -3.697  -5.100  -2.039  0.00  0.00     0.062 A 
ATOM      3  C2  UNL d   1      -4.733  -4.473  -2.724  0.00  0.00     0.162 A 
ATOM      4  C3  UNL d   1      -4.453  -3.535  -3.718  0.00  0.00    -0.034 A 
ATOM      5  C4  UNL d   1      -3.123  -3.235  -4.015  0.00  0.00     0.162 A 
ATOM      6  C5  UNL d   1      -2.091  -3.865  -3.327  0.00  0.00     0.062 A 
ATOM      7  F   UNL d   1      -0.815  -3.570  -3.619  0.00  0.00    -0.097 F 
ATOM      8  F1  UNL d   1      -2.818  -2.338  -4.965  0.00  0.00    -0.096 F 
ATOM      9  I   UNL d   1      -6.000  -2.595  -4.746  0.00  0.00    -0.060 I 
ATOM     10  F2  UNL d   1      -6.000  -4.786  -2.413  0.00  0.00    -0.096 F 
ATOM     11  F3  UNL d   1      -3.976  -6.000  -1.084  0.00  0.00    -0.097 F 
ATOM     12  F4  UNL d   1      -1.382  -5.401  -1.678  0.00  0.00    -0.092 F 
ENDROOT
TORSDOF 0
ENDMDL
