MODEL 1
REMARK minimizedAffinity 29.1825066
REMARK minimizedRMSD -1
REMARK  0 active torsions:
REMARK  status: ('A' for Active; 'I' for Inactive)
ROOT
ATOM      1  C   UNL d   1      -0.499  -2.629   3.161  0.00  0.00     0.124 A 
ATOM      2  C1  UNL d   1      -0.757  -3.910   3.628  0.00  0.00     0.062 A 
ATOM      3  C2  UNL d   1      -1.579  -4.767   2.903  0.00  0.00     0.162 A 
ATOM      4  C3  UNL d   1      -2.149  -4.347   1.701  0.00  0.00    -0.034 A 
ATOM      5  C4  UNL d   1      -1.886  -3.056   1.238  0.00  0.00     0.162 A 
ATOM      6  C5  UNL d   1      -1.063  -2.203   1.967  0.00  0.00     0.062 A 
ATOM      7  F   UNL d   1      -0.816  -0.966   1.513  0.00  0.00    -0.097 F 
ATOM      8  F1  UNL d   1      -2.417  -2.620   0.086  0.00  0.00    -0.096 F 
ATOM      9  I   UNL d   1      -3.379  -5.626   0.613  0.00  0.00    -0.060 I 
ATOM     10  F2  UNL d   1      -1.811  -6.000   3.378  0.00  0.00    -0.096 F 
ATOM     11  F3  UNL d   1      -0.213  -4.323   4.782  0.00  0.00    -0.097 F 
ATOM     12  F4  UNL d   1       0.292  -1.805   3.861  0.00  0.00    -0.092 F 
ENDROOT
TORSDOF 0
ENDMDL
