MODEL 1
REMARK minimizedAffinity 13.164444
REMARK minimizedRMSD -1
REMARK  0 active torsions:
REMARK  status: ('A' for Active; 'I' for Inactive)
ROOT
ATOM      1  C   UNL d   1      -4.622   2.639   2.407  0.00  0.00     0.124 A 
ATOM      2  C1  UNL d   1      -5.167   3.868   2.061  0.00  0.00     0.062 A 
ATOM      3  C2  UNL d   1      -5.433   4.817   3.044  0.00  0.00     0.162 A 
ATOM      4  C3  UNL d   1      -5.153   4.541   4.383  0.00  0.00    -0.034 A 
ATOM      5  C4  UNL d   1      -4.606   3.302   4.722  0.00  0.00     0.162 A 
ATOM      6  C5  UNL d   1      -4.342   2.357   3.736  0.00  0.00     0.062 A 
ATOM      7  F   UNL d   1      -3.816   1.170   4.072  0.00  0.00    -0.097 F 
ATOM      8  F1  UNL d   1      -4.325   3.004   6.000  0.00  0.00    -0.096 F 
ATOM      9  I   UNL d   1      -5.549   5.957   5.856  0.00  0.00    -0.060 I 
ATOM     10  F2  UNL d   1      -5.959   5.996   2.682  0.00  0.00    -0.096 F 
ATOM     11  F3  UNL d   1      -5.439   4.142   0.777  0.00  0.00    -0.097 F 
ATOM     12  F4  UNL d   1      -4.368   1.727   1.459  0.00  0.00    -0.092 F 
ENDROOT
TORSDOF 0
ENDMDL
