MODEL 1
REMARK minimizedAffinity 16.8447647
REMARK minimizedRMSD -1
REMARK  0 active torsions:
REMARK  status: ('A' for Active; 'I' for Inactive)
ROOT
ATOM      1  C   UNL d   1       1.742   1.917   1.185  0.00  0.00     0.124 A 
ATOM      2  C1  UNL d   1       2.122   0.939   0.277  0.00  0.00     0.062 A 
ATOM      3  C2  UNL d   1       1.518  -0.314   0.304  0.00  0.00     0.162 A 
ATOM      4  C3  UNL d   1       0.525  -0.597   1.242  0.00  0.00    -0.034 A 
ATOM      5  C4  UNL d   1       0.148   0.392   2.153  0.00  0.00     0.162 A 
ATOM      6  C5  UNL d   1       0.756   1.643   2.122  0.00  0.00     0.062 A 
ATOM      7  F   UNL d   1       0.387   2.587   3.000  0.00  0.00    -0.097 F 
ATOM      8  F1  UNL d   1      -0.803   0.154   3.068  0.00  0.00    -0.096 F 
ATOM      9  I   UNL d   1      -0.382  -2.469   1.286  0.00  0.00    -0.060 I 
ATOM     10  F2  UNL d   1       1.905  -1.240  -0.586  0.00  0.00    -0.096 F 
ATOM     11  F3  UNL d   1       3.076   1.201  -0.629  0.00  0.00    -0.097 F 
ATOM     12  F4  UNL d   1       2.327   3.122   1.157  0.00  0.00    -0.092 F 
ENDROOT
TORSDOF 0
ENDMDL
