MODEL 1
REMARK minimizedAffinity 20.6600533
REMARK minimizedRMSD -1
REMARK  0 active torsions:
REMARK  status: ('A' for Active; 'I' for Inactive)
ROOT
ATOM      1  C   UNL d   1       2.389   2.772  -2.995  0.00  0.00     0.124 A 
ATOM      2  C1  UNL d   1       3.667   2.263  -2.810  0.00  0.00     0.062 A 
ATOM      3  C2  UNL d   1       4.699   2.634  -3.666  0.00  0.00     0.162 A 
ATOM      4  C3  UNL d   1       4.459   3.520  -4.716  0.00  0.00    -0.034 A 
ATOM      5  C4  UNL d   1       3.171   4.027  -4.897  0.00  0.00     0.162 A 
ATOM      6  C5  UNL d   1       2.142   3.653  -4.038  0.00  0.00     0.062 A 
ATOM      7  F   UNL d   1       0.908   4.146  -4.219  0.00  0.00    -0.097 F 
ATOM      8  F1  UNL d   1       2.905   4.881  -5.896  0.00  0.00    -0.096 F 
ATOM      9  I   UNL d   1       6.000   4.077  -5.999  0.00  0.00    -0.060 I 
ATOM     10  F2  UNL d   1       5.924   2.126  -3.463  0.00  0.00    -0.096 F 
ATOM     11  F3  UNL d   1       3.907   1.410  -1.803  0.00  0.00    -0.097 F 
ATOM     12  F4  UNL d   1       1.397   2.413  -2.170  0.00  0.00    -0.092 F 
ENDROOT
TORSDOF 0
ENDMDL
