MODEL 1
REMARK minimizedAffinity 17.2488346
REMARK minimizedRMSD -1
REMARK  0 active torsions:
REMARK  status: ('A' for Active; 'I' for Inactive)
ROOT
ATOM      1  C   UNL d   1       3.663   3.983  -4.955  0.00  0.00     0.124 A 
ATOM      2  C1  UNL d   1       4.821   3.389  -4.472  0.00  0.00     0.062 A 
ATOM      3  C2  UNL d   1       4.762   2.522  -3.385  0.00  0.00     0.162 A 
ATOM      4  C3  UNL d   1       3.540   2.242  -2.773  0.00  0.00    -0.034 A 
ATOM      5  C4  UNL d   1       2.379   2.844  -3.264  0.00  0.00     0.162 A 
ATOM      6  C5  UNL d   1       2.444   3.710  -4.350  0.00  0.00     0.062 A 
ATOM      7  F   UNL d   1       1.324   4.283  -4.815  0.00  0.00    -0.097 F 
ATOM      8  F1  UNL d   1       1.188   2.597  -2.700  0.00  0.00    -0.096 F 
ATOM      9  I   UNL d   1       3.447   0.946  -1.148  0.00  0.00    -0.060 I 
ATOM     10  F2  UNL d   1       5.896   1.963  -2.940  0.00  0.00    -0.096 F 
ATOM     11  F3  UNL d   1       6.000   3.653  -5.053  0.00  0.00    -0.097 F 
ATOM     12  F4  UNL d   1       3.722   4.818  -6.000  0.00  0.00    -0.092 F 
ENDROOT
TORSDOF 0
ENDMDL
