MODEL 1
REMARK minimizedAffinity 17.1705475
REMARK minimizedRMSD -1
REMARK  0 active torsions:
REMARK  status: ('A' for Active; 'I' for Inactive)
ROOT
ATOM      1  C   UNL d   1       2.407   2.338  -3.945  0.00  0.00     0.124 A 
ATOM      2  C1  UNL d   1       3.769   2.124  -3.782  0.00  0.00     0.062 A 
ATOM      3  C2  UNL d   1       4.688   2.990  -4.367  0.00  0.00     0.162 A 
ATOM      4  C3  UNL d   1       4.249   4.078  -5.121  0.00  0.00    -0.034 A 
ATOM      5  C4  UNL d   1       2.878   4.286  -5.281  0.00  0.00     0.162 A 
ATOM      6  C5  UNL d   1       1.963   3.419  -4.694  0.00  0.00     0.062 A 
ATOM      7  F   UNL d   1       0.648   3.627  -4.852  0.00  0.00    -0.097 F 
ATOM      8  F1  UNL d   1       2.421   5.323  -5.999  0.00  0.00    -0.096 F 
ATOM      9  I   UNL d   1       5.621   5.375  -5.998  0.00  0.00    -0.060 I 
ATOM     10  F2  UNL d   1       5.998   2.759  -4.194  0.00  0.00    -0.096 F 
ATOM     11  F3  UNL d   1       4.201   1.080  -3.060  0.00  0.00    -0.097 F 
ATOM     12  F4  UNL d   1       1.525   1.503  -3.381  0.00  0.00    -0.092 F 
ENDROOT
TORSDOF 0
ENDMDL
