MODEL 1
REMARK minimizedAffinity 6.98535061
REMARK minimizedRMSD -1
REMARK  0 active torsions:
REMARK  status: ('A' for Active; 'I' for Inactive)
ROOT
ATOM      1  C   UNL d   1       3.390   4.252   1.129  0.00  0.00     0.172 C 
ATOM      2  N   UNL d   1       4.411   3.258   1.363  0.00  0.00    -0.070 N 
ATOM      3  C1  UNL d   1       4.816   2.803   2.590  0.00  0.00    -0.004 A 
ATOM      4  C2  UNL d   1       5.804   1.864   2.386  0.00  0.00    -0.047 A 
ATOM      5  C3  UNL d   1       6.000   1.751   0.989  0.00  0.00    -0.047 A 
ATOM      6  C4  UNL d   1       5.125   2.625   0.380  0.00  0.00    -0.004 A 
ENDROOT
TORSDOF 0
ENDMDL
