MODEL 1
REMARK minimizedAffinity 4.55188179
REMARK minimizedRMSD -1
REMARK  0 active torsions:
REMARK  status: ('A' for Active; 'I' for Inactive)
ROOT
ATOM      1  C   UNL d   1      -1.481  -3.230  -5.305  0.00  0.00     0.172 C 
ATOM      2  N   UNL d   1      -0.955  -1.981  -4.806  0.00  0.00    -0.070 N 
ATOM      3  C1  UNL d   1      -0.888  -1.613  -3.489  0.00  0.00    -0.004 A 
ATOM      4  C2  UNL d   1      -0.325  -0.356  -3.431  0.00  0.00    -0.047 A 
ATOM      5  C3  UNL d   1      -0.045   0.045  -4.759  0.00  0.00    -0.047 A 
ATOM      6  C4  UNL d   1      -0.445  -0.980  -5.590  0.00  0.00    -0.004 A 
ENDROOT
TORSDOF 0
ENDMDL
