MODEL 1
REMARK minimizedAffinity 5.38789082
REMARK minimizedRMSD -1
REMARK  0 active torsions:
REMARK  status: ('A' for Active; 'I' for Inactive)
ROOT
ATOM      1  C   UNL d   1       2.605  -0.625  -4.476  0.00  0.00     0.172 C 
ATOM      2  N   UNL d   1       1.202  -0.886  -4.697  0.00  0.00    -0.070 N 
ATOM      3  C1  UNL d   1       0.690  -1.868  -5.503  0.00  0.00    -0.004 A 
ATOM      4  C2  UNL d   1      -0.685  -1.788  -5.445  0.00  0.00    -0.047 A 
ATOM      5  C3  UNL d   1      -1.010  -0.720  -4.576  0.00  0.00    -0.047 A 
ATOM      6  C4  UNL d   1       0.176  -0.179  -4.127  0.00  0.00    -0.004 A 
ENDROOT
TORSDOF 0
ENDMDL
