MODEL 1
REMARK minimizedAffinity 4.71616888
REMARK minimizedRMSD -1
REMARK  0 active torsions:
REMARK  status: ('A' for Active; 'I' for Inactive)
ROOT
ATOM      1  C   UNL d   1       5.852   4.540  -5.713  0.00  0.00     0.172 C 
ATOM      2  N   UNL d   1       5.380   3.236  -5.309  0.00  0.00    -0.070 N 
ATOM      3  C1  UNL d   1       5.883   2.489  -4.277  0.00  0.00    -0.004 A 
ATOM      4  C2  UNL d   1       5.164   1.315  -4.218  0.00  0.00    -0.047 A 
ATOM      5  C3  UNL d   1       4.197   1.357  -5.250  0.00  0.00    -0.047 A 
ATOM      6  C4  UNL d   1       4.353   2.557  -5.910  0.00  0.00    -0.004 A 
ENDROOT
TORSDOF 0
ENDMDL
