MODEL 1
REMARK minimizedAffinity 6.55023432
REMARK minimizedRMSD -1
REMARK  0 active torsions:
REMARK  status: ('A' for Active; 'I' for Inactive)
ROOT
ATOM      1  C   UNL d   1      -0.363  -0.284   2.323  0.00  0.00     0.172 C 
ATOM      2  N   UNL d   1       0.744  -0.834   3.069  0.00  0.00    -0.070 N 
ATOM      3  C1  UNL d   1       1.855  -0.143   3.475  0.00  0.00    -0.004 A 
ATOM      4  C2  UNL d   1       2.671  -1.020   4.156  0.00  0.00    -0.047 A 
ATOM      5  C3  UNL d   1       2.030  -2.281   4.158  0.00  0.00    -0.047 A 
ATOM      6  C4  UNL d   1       0.839  -2.138   3.479  0.00  0.00    -0.004 A 
ENDROOT
TORSDOF 0
ENDMDL
