MODEL 1
REMARK minimizedAffinity 9.34702492
REMARK minimizedRMSD -1
REMARK  0 active torsions:
REMARK  status: ('A' for Active; 'I' for Inactive)
ROOT
ATOM      1  C   UNL d   1       4.003  -1.736  -2.843  0.00  0.00     0.172 C 
ATOM      2  N   UNL d   1       2.739  -1.153  -3.228  0.00  0.00    -0.070 N 
ATOM      3  C1  UNL d   1       1.516  -1.762  -3.132  0.00  0.00    -0.004 A 
ATOM      4  C2  UNL d   1       0.567  -0.879  -3.598  0.00  0.00    -0.047 A 
ATOM      5  C3  UNL d   1       1.242   0.302  -3.988  0.00  0.00    -0.047 A 
ATOM      6  C4  UNL d   1       2.586   0.105  -3.748  0.00  0.00    -0.004 A 
ENDROOT
TORSDOF 0
ENDMDL
