MODEL 1
REMARK minimizedAffinity 3.01520705
REMARK minimizedRMSD -1
REMARK  0 active torsions:
REMARK  status: ('A' for Active; 'I' for Inactive)
ROOT
ATOM      1  C   UNL d   1       3.715  -3.608   5.835  0.00  0.00     0.172 C 
ATOM      2  N   UNL d   1       2.745  -3.233   4.833  0.00  0.00    -0.070 N 
ATOM      3  C1  UNL d   1       2.937  -2.306   3.843  0.00  0.00    -0.004 A 
ATOM      4  C2  UNL d   1       1.780  -2.238   3.099  0.00  0.00    -0.047 A 
ATOM      5  C3  UNL d   1       0.859  -3.154   3.661  0.00  0.00    -0.047 A 
ATOM      6  C4  UNL d   1       1.483  -3.756   4.734  0.00  0.00    -0.004 A 
ENDROOT
TORSDOF 0
ENDMDL
