MODEL 1
REMARK minimizedAffinity 6.10457659
REMARK minimizedRMSD -1
REMARK  0 active torsions:
REMARK  status: ('A' for Active; 'I' for Inactive)
ROOT
ATOM      1  C   UNL d   1      -5.998   5.941  -1.604  0.00  0.00     0.172 C 
ATOM      2  N   UNL d   1      -5.998   4.625  -1.009  0.00  0.00    -0.070 N 
ATOM      3  C1  UNL d   1      -5.998   3.439  -1.693  0.00  0.00    -0.004 A 
ATOM      4  C2  UNL d   1      -5.997   2.418  -0.768  0.00  0.00    -0.047 A 
ATOM      5  C3  UNL d   1      -5.998   3.010   0.517  0.00  0.00    -0.047 A 
ATOM      6  C4  UNL d   1      -5.999   4.378   0.339  0.00  0.00    -0.004 A 
ENDROOT
TORSDOF 0
ENDMDL
