MODEL 1
REMARK minimizedAffinity 4.16866112
REMARK minimizedRMSD -1
REMARK  0 active torsions:
REMARK  status: ('A' for Active; 'I' for Inactive)
ROOT
ATOM      1  C   UNL d   1      -0.737  -5.226   5.999  0.00  0.00     0.172 C 
ATOM      2  N   UNL d   1      -0.057  -4.417   5.014  0.00  0.00    -0.070 N 
ATOM      3  C1  UNL d   1      -0.661  -3.592   4.103  0.00  0.00    -0.004 A 
ATOM      4  C2  UNL d   1       0.329  -3.001   3.349  0.00  0.00    -0.047 A 
ATOM      5  C3  UNL d   1       1.571  -3.487   3.822  0.00  0.00    -0.047 A 
ATOM      6  C4  UNL d   1       1.303  -4.362   4.853  0.00  0.00    -0.004 A 
ENDROOT
TORSDOF 0
ENDMDL
