MODEL 1
REMARK minimizedAffinity 7.19687128
REMARK minimizedRMSD -1
REMARK  0 active torsions:
REMARK  status: ('A' for Active; 'I' for Inactive)
ROOT
ATOM      1  C   UNL d   1       1.681   0.375  -4.126  0.00  0.00     0.172 C 
ATOM      2  N   UNL d   1       0.731  -0.597  -4.614  0.00  0.00    -0.070 N 
ATOM      3  C1  UNL d   1       0.053  -1.506  -3.847  0.00  0.00    -0.004 A 
ATOM      4  C2  UNL d   1      -0.753  -2.247  -4.684  0.00  0.00    -0.047 A 
ATOM      5  C3  UNL d   1      -0.551  -1.768  -6.000  0.00  0.00    -0.047 A 
ATOM      6  C4  UNL d   1       0.372  -0.747  -5.928  0.00  0.00    -0.004 A 
ENDROOT
TORSDOF 0
ENDMDL
