MODEL 1
REMARK minimizedAffinity 8.54169941
REMARK minimizedRMSD -1
REMARK  0 active torsions:
REMARK  status: ('A' for Active; 'I' for Inactive)
ROOT
ATOM      1  C   UNL d   1       2.500  -3.732   4.771  0.00  0.00     0.172 C 
ATOM      2  N   UNL d   1       3.860  -4.129   5.050  0.00  0.00    -0.070 N 
ATOM      3  C1  UNL d   1       4.856  -3.304   5.499  0.00  0.00    -0.004 A 
ATOM      4  C2  UNL d   1       5.999  -4.061   5.641  0.00  0.00    -0.047 A 
ATOM      5  C3  UNL d   1       5.678  -5.387   5.264  0.00  0.00    -0.047 A 
ATOM      6  C4  UNL d   1       4.347  -5.400   4.903  0.00  0.00    -0.004 A 
ENDROOT
TORSDOF 0
ENDMDL
