MODEL 1
REMARK minimizedAffinity 4.91675043
REMARK minimizedRMSD -1
REMARK  1 active torsions:
REMARK  status: ('A' for Active; 'I' for Inactive)
REMARK    1  A    between atoms: N_2  and  C1_3 
ROOT
ATOM      1  C1  UNL d   1       0.180  -0.075   0.525  0.00  0.00     0.143 A 
ATOM      2  C2  UNL d   1      -0.681   0.608   1.392  0.00  0.00    -0.057 A 
ATOM      3  C3  UNL d   1      -2.046   0.733   1.108  0.00  0.00     0.033 A 
ATOM      4  C4  UNL d   1      -2.571   0.201  -0.065  0.00  0.00    -0.042 A 
ATOM      5  C5  UNL d   1      -1.730  -0.459  -0.953  0.00  0.00     0.033 A 
ATOM      6  C6  UNL d   1      -0.368  -0.587  -0.661  0.00  0.00    -0.057 A 
ENDROOT
BRANCH   1   7
ATOM      7  N   UNL d   1       1.564  -0.148   0.703  0.00  0.00    -0.732 N 
ATOM      8  C   UNL d   1       2.345   1.052   0.912  0.00  0.00     0.284 C 
ATOM      9  H3  UNL d   1       1.839  -0.932   1.291  0.00  0.00     0.395 HD
ENDBRANCH   1   7
TORSDOF 1
ENDMDL
