MODEL 1
REMARK minimizedAffinity -0.362980783
REMARK minimizedRMSD -1
REMARK  1 active torsions:
REMARK  status: ('A' for Active; 'I' for Inactive)
REMARK    1  A    between atoms: N_2  and  C1_3 
ROOT
ATOM      1  C1  UNL d   1       0.222  -0.672   2.959  0.00  0.00     0.143 A 
ATOM      2  C2  UNL d   1      -1.033  -0.183   2.582  0.00  0.00    -0.057 A 
ATOM      3  C3  UNL d   1      -2.183  -0.488   3.320  0.00  0.00     0.033 A 
ATOM      4  C4  UNL d   1      -2.102  -1.314   4.436  0.00  0.00    -0.042 A 
ATOM      5  C5  UNL d   1      -0.869  -1.832   4.815  0.00  0.00     0.033 A 
ATOM      6  C6  UNL d   1       0.277  -1.519   4.077  0.00  0.00    -0.057 A 
ENDROOT
BRANCH   1   7
ATOM      7  N   UNL d   1       1.386  -0.486   2.210  0.00  0.00    -0.732 N 
ATOM      8  C   UNL d   1       1.319  -0.293   0.778  0.00  0.00     0.284 C 
ATOM      9  H3  UNL d   1       2.057   0.118   2.680  0.00  0.00     0.395 HD
ENDBRANCH   1   7
TORSDOF 1
ENDMDL
