MODEL 1
REMARK minimizedAffinity -0.966664433
REMARK minimizedRMSD -1
REMARK  1 active torsions:
REMARK  status: ('A' for Active; 'I' for Inactive)
REMARK    1  A    between atoms: N_2  and  C1_3 
ROOT
ATOM      1  C1  UNL d   1      -1.436  -0.401   3.281  0.00  0.00     0.143 A 
ATOM      2  C2  UNL d   1      -2.482  -1.144   3.840  0.00  0.00    -0.057 A 
ATOM      3  C3  UNL d   1      -2.235  -2.152   4.779  0.00  0.00     0.033 A 
ATOM      4  C4  UNL d   1      -0.931  -2.456   5.155  0.00  0.00    -0.042 A 
ATOM      5  C5  UNL d   1       0.126  -1.748   4.594  0.00  0.00     0.033 A 
ATOM      6  C6  UNL d   1      -0.128  -0.738   3.661  0.00  0.00    -0.057 A 
ENDROOT
BRANCH   1   7
ATOM      7  N   UNL d   1      -1.609   0.547   2.269  0.00  0.00    -0.732 N 
ATOM      8  C   UNL d   1      -1.204   0.257   0.910  0.00  0.00     0.284 C 
ATOM      9  H3  UNL d   1      -2.499   1.035   2.343  0.00  0.00     0.395 HD
ENDBRANCH   1   7
TORSDOF 1
ENDMDL
