MODEL 1
REMARK minimizedAffinity -0.695403576
REMARK minimizedRMSD -1
REMARK  1 active torsions:
REMARK  status: ('A' for Active; 'I' for Inactive)
REMARK    1  A    between atoms: N_2  and  C1_3 
ROOT
ATOM      1  C1  UNL d   1       0.008  -0.958   3.090  0.00  0.00     0.143 A 
ATOM      2  C2  UNL d   1       0.561  -0.759   1.820  0.00  0.00    -0.057 A 
ATOM      3  C3  UNL d   1      -0.158  -0.110   0.809  0.00  0.00     0.033 A 
ATOM      4  C4  UNL d   1      -1.457   0.328   1.043  0.00  0.00    -0.042 A 
ATOM      5  C5  UNL d   1      -2.035   0.120   2.290  0.00  0.00     0.033 A 
ATOM      6  C6  UNL d   1      -1.310  -0.524   3.297  0.00  0.00    -0.057 A 
ENDROOT
BRANCH   1   7
ATOM      7  N   UNL d   1       0.635  -1.683   4.106  0.00  0.00    -0.732 N 
ATOM      8  C   UNL d   1       1.504  -1.022   5.056  0.00  0.00     0.284 C 
ATOM      9  H3  UNL d   1       0.021  -2.381   4.521  0.00  0.00     0.395 HD
ENDBRANCH   1   7
TORSDOF 1
ENDMDL
