MODEL 1
REMARK minimizedAffinity -3.64523053
REMARK minimizedRMSD -1
REMARK  1 active torsions:
REMARK  status: ('A' for Active; 'I' for Inactive)
REMARK    1  A    between atoms: N_2  and  C1_3 
ROOT
ATOM      1  C1  UNL d   1      -0.039  -0.945   3.565  0.00  0.00     0.143 A 
ATOM      2  C2  UNL d   1       0.746  -0.697   2.434  0.00  0.00    -0.057 A 
ATOM      3  C3  UNL d   1       0.255   0.054   1.359  0.00  0.00     0.033 A 
ATOM      4  C4  UNL d   1      -1.045   0.549   1.386  0.00  0.00    -0.042 A 
ATOM      5  C5  UNL d   1      -1.852   0.294   2.489  0.00  0.00     0.033 A 
ATOM      6  C6  UNL d   1      -1.353  -0.452   3.561  0.00  0.00    -0.057 A 
ENDROOT
BRANCH   1   7
ATOM      7  N   UNL d   1       0.358  -1.768   4.622  0.00  0.00    -0.732 N 
ATOM      8  C   UNL d   1       1.467  -1.392   5.472  0.00  0.00     0.284 C 
ATOM      9  H3  UNL d   1      -0.434  -2.166   5.122  0.00  0.00     0.395 HD
ENDBRANCH   1   7
TORSDOF 1
ENDMDL
