MODEL 1
REMARK minimizedAffinity 5.44976902
REMARK minimizedRMSD -1
REMARK  1 active torsions:
REMARK  status: ('A' for Active; 'I' for Inactive)
REMARK    1  A    between atoms: N_2  and  C1_3 
ROOT
ATOM      1  C1  UNL d   1      -2.148  -0.127   2.133  0.00  0.00     0.143 A 
ATOM      2  C2  UNL d   1      -1.798   1.216   1.957  0.00  0.00    -0.057 A 
ATOM      3  C3  UNL d   1      -1.874   1.828   0.700  0.00  0.00     0.033 A 
ATOM      4  C4  UNL d   1      -2.276   1.096  -0.413  0.00  0.00    -0.042 A 
ATOM      5  C5  UNL d   1      -2.605  -0.247  -0.266  0.00  0.00     0.033 A 
ATOM      6  C6  UNL d   1      -2.533  -0.850   0.994  0.00  0.00    -0.057 A 
ENDROOT
BRANCH   1   7
ATOM      7  N   UNL d   1      -2.000  -0.818   3.338  0.00  0.00    -0.732 N 
ATOM      8  C   UNL d   1      -0.701  -0.932   3.967  0.00  0.00     0.284 C 
ATOM      9  H3  UNL d   1      -2.761  -0.634   3.988  0.00  0.00     0.395 HD
ENDBRANCH   1   7
TORSDOF 1
ENDMDL
