MODEL 1
REMARK minimizedAffinity -1.97620559
REMARK minimizedRMSD -1
REMARK  1 active torsions:
REMARK  status: ('A' for Active; 'I' for Inactive)
REMARK    1  A    between atoms: N_2  and  C1_3 
ROOT
ATOM      1  C1  UNL d   1       0.552  -0.204   1.644  0.00  0.00     0.143 A 
ATOM      2  C2  UNL d   1      -0.512   0.235   0.849  0.00  0.00    -0.057 A 
ATOM      3  C3  UNL d   1      -1.800   0.381   1.376  0.00  0.00     0.033 A 
ATOM      4  C4  UNL d   1      -2.054   0.062   2.706  0.00  0.00    -0.042 A 
ATOM      5  C5  UNL d   1      -1.017  -0.400   3.509  0.00  0.00     0.033 A 
ATOM      6  C6  UNL d   1       0.269  -0.537   2.978  0.00  0.00    -0.057 A 
ENDROOT
BRANCH   1   7
ATOM      7  N   UNL d   1       1.834  -0.464   1.154  0.00  0.00    -0.732 N 
ATOM      8  C   UNL d   1       2.449   0.424   0.190  0.00  0.00     0.284 C 
ATOM      9  H3  UNL d   1       2.468  -0.794   1.878  0.00  0.00     0.395 HD
ENDBRANCH   1   7
TORSDOF 1
ENDMDL
