MODEL 1
REMARK minimizedAffinity 3.08758831
REMARK minimizedRMSD -1
REMARK  1 active torsions:
REMARK  status: ('A' for Active; 'I' for Inactive)
REMARK    1  A    between atoms: N_2  and  C1_3 
ROOT
ATOM      1  C1  UNL d   1      -1.034   0.255   2.054  0.00  0.00     0.143 A 
ATOM      2  C2  UNL d   1       0.282   0.089   1.609  0.00  0.00    -0.057 A 
ATOM      3  C3  UNL d   1       1.276  -0.415   2.457  0.00  0.00     0.033 A 
ATOM      4  C4  UNL d   1       0.976  -0.736   3.777  0.00  0.00    -0.042 A 
ATOM      5  C5  UNL d   1      -0.319  -0.555   4.247  0.00  0.00     0.033 A 
ATOM      6  C6  UNL d   1      -1.309  -0.057   3.394  0.00  0.00    -0.057 A 
ENDROOT
BRANCH   1   7
ATOM      7  N   UNL d   1      -2.044   0.844   1.289  0.00  0.00    -0.732 N 
ATOM      8  C   UNL d   1      -2.292   0.407  -0.068  0.00  0.00     0.284 C 
ATOM      9  H3  UNL d   1      -2.888   1.019   1.830  0.00  0.00     0.395 HD
ENDBRANCH   1   7
TORSDOF 1
ENDMDL
