MODEL 1
REMARK minimizedAffinity 6.67320442
REMARK minimizedRMSD -1
REMARK  1 active torsions:
REMARK  status: ('A' for Active; 'I' for Inactive)
REMARK    1  A    between atoms: N_2  and  C1_3 
ROOT
ATOM      1  C1  UNL d   1      -0.455   0.137  -3.716  0.00  0.00     0.143 A 
ATOM      2  C2  UNL d   1      -0.867  -0.796  -4.673  0.00  0.00    -0.057 A 
ATOM      3  C3  UNL d   1      -0.032  -1.166  -5.734  0.00  0.00     0.033 A 
ATOM      4  C4  UNL d   1       1.224  -0.585  -5.873  0.00  0.00    -0.042 A 
ATOM      5  C5  UNL d   1       1.645   0.363  -4.948  0.00  0.00     0.033 A 
ATOM      6  C6  UNL d   1       0.809   0.724  -3.887  0.00  0.00    -0.057 A 
ENDROOT
BRANCH   1   7
ATOM      7  N   UNL d   1      -1.277   0.619  -2.694  0.00  0.00    -0.732 N 
ATOM      8  C   UNL d   1      -1.564  -0.196  -1.533  0.00  0.00     0.284 C 
ATOM      9  H3  UNL d   1      -1.098   1.598  -2.481  0.00  0.00     0.395 HD
ENDBRANCH   1   7
TORSDOF 1
ENDMDL
