MODEL 1
REMARK minimizedAffinity -5.02419519
REMARK minimizedRMSD -1
REMARK  3 active torsions:
REMARK  status: ('A' for Active; 'I' for Inactive)
REMARK    1  A    between atoms: C3'_2  and  C2'_3 
REMARK    2  A    between atoms: C2'_3  and  C1'_4 
REMARK    3  A    between atoms: C1'_4  and  C1_5 
ROOT
ATOM      1  C1  N4B d   1      -0.004  -0.011  -0.132  0.00  0.00    -0.075 A 
ATOM      2  C2  N4B d   1       0.949   0.379  -1.098  0.00  0.00     0.002 A 
ATOM      3  C3  N4B d   1       1.887  -0.522  -1.539  0.00  0.00     0.002 A 
ATOM      4  C4  N4B d   1       1.904  -1.807  -1.016  0.00  0.00    -0.004 A 
ATOM      5  C5  N4B d   1       0.963  -2.182  -0.102  0.00  0.00     0.002 A 
ATOM      6  C6  N4B d   1       0.012  -1.289   0.347  0.00  0.00     0.002 A 
ENDROOT
BRANCH   1   7
ATOM      7  C1' N4B d   1      -0.996   0.964   0.443  0.00  0.00     0.057 C 
BRANCH   7   8
ATOM      8  C2' N4B d   1      -1.855   0.249   1.482  0.00  0.00     0.009 C 
BRANCH   8   9
ATOM      9  C3' N4B d   1      -1.896   1.002   2.801  0.00  0.00     0.004 C 
ATOM     10  C4' N4B d   1      -1.151   2.303   2.750  0.00  0.00     0.003 C 
ENDBRANCH   8   9
ENDBRANCH   7   8
ENDBRANCH   1   7
TORSDOF 3
ENDMDL
