MODEL 1
REMARK minimizedAffinity -3.36745739
REMARK minimizedRMSD -1
REMARK  3 active torsions:
REMARK  status: ('A' for Active; 'I' for Inactive)
REMARK    1  A    between atoms: C3'_2  and  C2'_3 
REMARK    2  A    between atoms: C2'_3  and  C1'_4 
REMARK    3  A    between atoms: C1'_4  and  C1_5 
ROOT
ATOM      1  C1  N4B d   1      -0.071   0.138  -0.740  0.00  0.00    -0.075 A 
ATOM      2  C2  N4B d   1       0.860  -0.894  -0.986  0.00  0.00     0.002 A 
ATOM      3  C3  N4B d   1       1.807  -0.743  -1.969  0.00  0.00     0.002 A 
ATOM      4  C4  N4B d   1       1.830   0.417  -2.728  0.00  0.00    -0.004 A 
ATOM      5  C5  N4B d   1       0.943   1.420  -2.467  0.00  0.00     0.002 A 
ATOM      6  C6  N4B d   1      -0.012   1.284  -1.479  0.00  0.00     0.002 A 
ENDROOT
BRANCH   1   7
ATOM      7  C1' N4B d   1      -1.179  -0.015   0.266  0.00  0.00     0.057 C 
BRANCH   7   8
ATOM      8  C2' N4B d   1      -0.703   0.503   1.619  0.00  0.00     0.009 C 
BRANCH   8   9
ATOM      9  C3' N4B d   1      -1.842   0.619   2.617  0.00  0.00     0.004 C 
ATOM     10  C4' N4B d   1      -1.594   1.664   3.663  0.00  0.00     0.003 C 
ENDBRANCH   8   9
ENDBRANCH   7   8
ENDBRANCH   1   7
TORSDOF 3
ENDMDL
