MODEL 1
REMARK minimizedAffinity -2.29336691
REMARK minimizedRMSD -1
REMARK  3 active torsions:
REMARK  status: ('A' for Active; 'I' for Inactive)
REMARK    1  A    between atoms: C3'_2  and  C2'_3 
REMARK    2  A    between atoms: C2'_3  and  C1'_4 
REMARK    3  A    between atoms: C1'_4  and  C1_5 
ROOT
ATOM      1  C1  N4B d   1      -0.766   0.919   1.457  0.00  0.00    -0.075 A 
ATOM      2  C2  N4B d   1      -1.667  -0.010   2.022  0.00  0.00     0.002 A 
ATOM      3  C3  N4B d   1      -2.057   0.121   3.332  0.00  0.00     0.002 A 
ATOM      4  C4  N4B d   1      -1.546   1.157   4.099  0.00  0.00    -0.004 A 
ATOM      5  C5  N4B d   1      -0.696   2.065   3.539  0.00  0.00     0.002 A 
ATOM      6  C6  N4B d   1      -0.299   1.948   2.222  0.00  0.00     0.002 A 
ENDROOT
BRANCH   1   7
ATOM      7  C1' N4B d   1      -0.244   0.767   0.054  0.00  0.00     0.057 C 
BRANCH   7   8
ATOM      8  C2' N4B d   1      -0.284  -0.707  -0.338  0.00  0.00     0.009 C 
BRANCH   8   9
ATOM      9  C3' N4B d   1       1.012  -1.422   0.005  0.00  0.00     0.004 C 
ATOM     10  C4' N4B d   1       1.827  -1.761  -1.207  0.00  0.00     0.003 C 
ENDBRANCH   8   9
ENDBRANCH   7   8
ENDBRANCH   1   7
TORSDOF 3
ENDMDL
