MODEL 1
REMARK minimizedAffinity -4.00138235
REMARK minimizedRMSD -1
REMARK  3 active torsions:
REMARK  status: ('A' for Active; 'I' for Inactive)
REMARK    1  A    between atoms: C3'_2  and  C2'_3 
REMARK    2  A    between atoms: C2'_3  and  C1'_4 
REMARK    3  A    between atoms: C1'_4  and  C1_5 
ROOT
ATOM      1  C1  N4B d   1       0.630  -0.096  -0.652  0.00  0.00    -0.075 A 
ATOM      2  C2  N4B d   1       0.577   1.093  -1.411  0.00  0.00     0.002 A 
ATOM      3  C3  N4B d   1       1.312   1.204  -2.565  0.00  0.00     0.002 A 
ATOM      4  C4  N4B d   1       2.118   0.150  -2.969  0.00  0.00    -0.004 A 
ATOM      5  C5  N4B d   1       2.144  -1.005  -2.244  0.00  0.00     0.002 A 
ATOM      6  C6  N4B d   1       1.407  -1.132  -1.084  0.00  0.00     0.002 A 
ENDROOT
BRANCH   1   7
ATOM      7  C1' N4B d   1      -0.090  -0.232   0.663  0.00  0.00     0.057 C 
BRANCH   7   8
ATOM      8  C2' N4B d   1      -1.471   0.405   0.546  0.00  0.00     0.009 C 
BRANCH   8   9
ATOM      9  C3' N4B d   1      -2.289   0.224   1.813  0.00  0.00     0.004 C 
ATOM     10  C4' N4B d   1      -1.901   1.185   2.897  0.00  0.00     0.003 C 
ENDBRANCH   8   9
ENDBRANCH   7   8
ENDBRANCH   1   7
TORSDOF 3
ENDMDL
