MODEL 1
REMARK minimizedAffinity -1.56094754
REMARK minimizedRMSD -1
REMARK  3 active torsions:
REMARK  status: ('A' for Active; 'I' for Inactive)
REMARK    1  A    between atoms: C3'_2  and  C2'_3 
REMARK    2  A    between atoms: C2'_3  and  C1'_4 
REMARK    3  A    between atoms: C1'_4  and  C1_5 
ROOT
ATOM      1  C1  N4B d   1      -0.538  -0.091   0.359  0.00  0.00    -0.075 A 
ATOM      2  C2  N4B d   1      -0.250   0.732  -0.752  0.00  0.00     0.002 A 
ATOM      3  C3  N4B d   1       0.676   0.329  -1.682  0.00  0.00     0.002 A 
ATOM      4  C4  N4B d   1       1.338  -0.878  -1.514  0.00  0.00    -0.004 A 
ATOM      5  C5  N4B d   1       1.035  -1.679  -0.452  0.00  0.00     0.002 A 
ATOM      6  C6  N4B d   1       0.103  -1.289   0.489  0.00  0.00     0.002 A 
ENDROOT
BRANCH   1   7
ATOM      7  C1' N4B d   1      -1.480   0.346   1.448  0.00  0.00     0.057 C 
BRANCH   7   8
ATOM      8  C2' N4B d   1      -0.728   1.236   2.433  0.00  0.00     0.009 C 
BRANCH   8   9
ATOM      9  C3' N4B d   1      -1.148   0.975   3.869  0.00  0.00     0.004 C 
ATOM     10  C4' N4B d   1      -2.267  -0.018   3.976  0.00  0.00     0.003 C 
ENDBRANCH   8   9
ENDBRANCH   7   8
ENDBRANCH   1   7
TORSDOF 3
ENDMDL
