MODEL 1
REMARK minimizedAffinity -4.35177946
REMARK minimizedRMSD -1
REMARK  3 active torsions:
REMARK  status: ('A' for Active; 'I' for Inactive)
REMARK    1  A    between atoms: C3'_2  and  C2'_3 
REMARK    2  A    between atoms: C2'_3  and  C1'_4 
REMARK    3  A    between atoms: C1'_4  and  C1_5 
ROOT
ATOM      1  C1  N4B d   1       1.067  -0.592  -0.796  0.00  0.00    -0.075 A 
ATOM      2  C2  N4B d   1       2.277  -1.240  -1.127  0.00  0.00     0.002 A 
ATOM      3  C3  N4B d   1       3.263  -0.554  -1.792  0.00  0.00     0.002 A 
ATOM      4  C4  N4B d   1       3.055   0.769  -2.152  0.00  0.00    -0.004 A 
ATOM      5  C5  N4B d   1       1.893   1.395  -1.806  0.00  0.00     0.002 A 
ATOM      6  C6  N4B d   1       0.895   0.719  -1.134  0.00  0.00     0.002 A 
ENDROOT
BRANCH   1   7
ATOM      7  C1' N4B d   1      -0.074  -1.326  -0.145  0.00  0.00     0.057 C 
BRANCH   7   8
ATOM      8  C2' N4B d   1      -1.264  -0.381  -0.010  0.00  0.00     0.009 C 
BRANCH   8   9
ATOM      9  C3' N4B d   1      -1.195   0.442   1.265  0.00  0.00     0.004 C 
ATOM     10  C4' N4B d   1      -2.286   0.102   2.236  0.00  0.00     0.003 C 
ENDBRANCH   8   9
ENDBRANCH   7   8
ENDBRANCH   1   7
TORSDOF 3
ENDMDL
