MODEL 1
REMARK minimizedAffinity -0.667994022
REMARK minimizedRMSD -1
REMARK  3 active torsions:
REMARK  status: ('A' for Active; 'I' for Inactive)
REMARK    1  A    between atoms: C3'_2  and  C2'_3 
REMARK    2  A    between atoms: C2'_3  and  C1'_4 
REMARK    3  A    between atoms: C1'_4  and  C1_5 
ROOT
ATOM      1  C1  N4B d   1       0.403   2.698   0.502  0.00  0.00    -0.075 A 
ATOM      2  C2  N4B d   1       1.775   2.636   0.173  0.00  0.00     0.002 A 
ATOM      3  C3  N4B d   1       2.160   2.409  -1.126  0.00  0.00     0.002 A 
ATOM      4  C4  N4B d   1       1.195   2.223  -2.104  0.00  0.00    -0.004 A 
ATOM      5  C5  N4B d   1      -0.128   2.310  -1.782  0.00  0.00     0.002 A 
ATOM      6  C6  N4B d   1      -0.529   2.542  -0.482  0.00  0.00     0.002 A 
ENDROOT
BRANCH   1   7
ATOM      7  C1' N4B d   1      -0.066   2.859   1.923  0.00  0.00     0.057 C 
BRANCH   7   8
ATOM      8  C2' N4B d   1      -1.549   2.510   2.002  0.00  0.00     0.009 C 
BRANCH   8   9
ATOM      9  C3' N4B d   1      -2.029   2.394   3.439  0.00  0.00     0.004 C 
ATOM     10  C4' N4B d   1      -3.125   1.385   3.606  0.00  0.00     0.003 C 
ENDBRANCH   8   9
ENDBRANCH   7   8
ENDBRANCH   1   7
TORSDOF 3
ENDMDL
