MODEL 1
REMARK minimizedAffinity -6.33351994
REMARK minimizedRMSD -1
REMARK  3 active torsions:
REMARK  status: ('A' for Active; 'I' for Inactive)
REMARK    1  A    between atoms: C3'_2  and  C2'_3 
REMARK    2  A    between atoms: C2'_3  and  C1'_4 
REMARK    3  A    between atoms: C1'_4  and  C1_5 
ROOT
ATOM      1  C1  N4B d   1      -0.074   0.158  -0.404  0.00  0.00    -0.075 A 
ATOM      2  C2  N4B d   1       0.261   1.213  -1.280  0.00  0.00     0.002 A 
ATOM      3  C3  N4B d   1       1.257   1.044  -2.210  0.00  0.00     0.002 A 
ATOM      4  C4  N4B d   1       1.942  -0.161  -2.269  0.00  0.00    -0.004 A 
ATOM      5  C5  N4B d   1       1.595  -1.184  -1.437  0.00  0.00     0.002 A 
ATOM      6  C6  N4B d   1       0.593  -1.029  -0.500  0.00  0.00     0.002 A 
ENDROOT
BRANCH   1   7
ATOM      7  C1' N4B d   1      -1.098   0.325   0.686  0.00  0.00     0.057 C 
BRANCH   7   8
ATOM      8  C2' N4B d   1      -0.724   1.530   1.543  0.00  0.00     0.009 C 
BRANCH   8   9
ATOM      9  C3' N4B d   1      -1.438   1.517   2.884  0.00  0.00     0.004 C 
ATOM     10  C4' N4B d   1      -2.597   0.567   2.915  0.00  0.00     0.003 C 
ENDBRANCH   8   9
ENDBRANCH   7   8
ENDBRANCH   1   7
TORSDOF 3
ENDMDL
