MODEL 1
REMARK minimizedAffinity -3.27801037
REMARK minimizedRMSD -1
REMARK  3 active torsions:
REMARK  status: ('A' for Active; 'I' for Inactive)
REMARK    1  A    between atoms: C3'_2  and  C2'_3 
REMARK    2  A    between atoms: C2'_3  and  C1'_4 
REMARK    3  A    between atoms: C1'_4  and  C1_5 
ROOT
ATOM      1  C1  N4B d   1      -0.513   0.546  -0.248  0.00  0.00    -0.075 A 
ATOM      2  C2  N4B d   1       0.168   1.409  -1.134  0.00  0.00     0.002 A 
ATOM      3  C3  N4B d   1       1.265   0.956  -1.825  0.00  0.00     0.002 A 
ATOM      4  C4  N4B d   1       1.709  -0.343  -1.633  0.00  0.00    -0.004 A 
ATOM      5  C5  N4B d   1       1.030  -1.178  -0.794  0.00  0.00     0.002 A 
ATOM      6  C6  N4B d   1      -0.077  -0.738  -0.096  0.00  0.00     0.002 A 
ENDROOT
BRANCH   1   7
ATOM      7  C1' N4B d   1      -1.666   1.022   0.595  0.00  0.00     0.057 C 
BRANCH   7   8
ATOM      8  C2' N4B d   1      -2.122  -0.114   1.505  0.00  0.00     0.009 C 
BRANCH   8   9
ATOM      9  C3' N4B d   1      -3.043   0.377   2.609  0.00  0.00     0.004 C 
ATOM     10  C4' N4B d   1      -2.315   0.660   3.889  0.00  0.00     0.003 C 
ENDBRANCH   8   9
ENDBRANCH   7   8
ENDBRANCH   1   7
TORSDOF 3
ENDMDL
