MODEL 1
REMARK minimizedAffinity 2.6721096
REMARK minimizedRMSD -1
REMARK  1 active torsions:
REMARK  status: ('A' for Active; 'I' for Inactive)
REMARK    1  A    between atoms: C1_2  and  C2_3 
ROOT
ATOM      1  C2  UNL d   1       0.832  -2.358   0.851  0.00  0.00    -0.073 A 
ATOM      2  C3  UNL d   1      -0.562  -2.365   0.979  0.00  0.00    -0.002 A 
ATOM      3  C4  UNL d   1      -1.374  -2.367  -0.155  0.00  0.00     0.004 A 
ATOM      4  C5  UNL d   1      -0.803  -2.369  -1.428  0.00  0.00    -0.004 A 
ATOM      5  C6  UNL d   1       0.588  -2.375  -1.577  0.00  0.00    -0.075 A 
ATOM      6  C7  UNL d   1       1.218  -2.375  -2.938  0.00  0.00     0.076 C 
ATOM      7  C8  UNL d   1       1.397  -2.370  -0.432  0.00  0.00     0.001 A 
ENDROOT
BRANCH   1   8
ATOM      8  C1  UNL d   1       1.713  -2.363   2.073  0.00  0.00     0.053 C 
ATOM      9  C   UNL d   1       3.066  -1.724   1.803  0.00  0.00     0.018 C 
ENDBRANCH   1   8
TORSDOF 1
ENDMDL
