MODEL 1
REMARK minimizedAffinity 0.789049923
REMARK minimizedRMSD -1
REMARK  1 active torsions:
REMARK  status: ('A' for Active; 'I' for Inactive)
REMARK    1  A    between atoms: C1_2  and  C2_3 
ROOT
ATOM      1  C2  UNL d   1       2.669  -0.720   1.084  0.00  0.00    -0.073 A 
ATOM      2  C3  UNL d   1       3.448  -1.309   2.086  0.00  0.00    -0.002 A 
ATOM      3  C4  UNL d   1       2.958  -2.396   2.812  0.00  0.00     0.004 A 
ATOM      4  C5  UNL d   1       1.690  -2.909   2.538  0.00  0.00    -0.004 A 
ATOM      5  C6  UNL d   1       0.902  -2.341   1.532  0.00  0.00    -0.075 A 
ATOM      6  C7  UNL d   1      -0.466  -2.879   1.227  0.00  0.00     0.076 C 
ATOM      7  C8  UNL d   1       1.399  -1.248   0.810  0.00  0.00     0.001 A 
ENDROOT
BRANCH   1   8
ATOM      8  C1  UNL d   1       3.196   0.450   0.294  0.00  0.00     0.053 C 
ATOM      9  C   UNL d   1       2.384   1.713   0.534  0.00  0.00     0.018 C 
ENDBRANCH   1   8
TORSDOF 1
ENDMDL
