MODEL 1
REMARK minimizedAffinity 3.30960798
REMARK minimizedRMSD -1
REMARK  1 active torsions:
REMARK  status: ('A' for Active; 'I' for Inactive)
REMARK    1  A    between atoms: C1_2  and  C2_3 
ROOT
ATOM      1  C2  UNL d   1       0.335  -2.502  -1.221  0.00  0.00    -0.073 A 
ATOM      2  C3  UNL d   1       0.540  -2.240   0.138  0.00  0.00    -0.002 A 
ATOM      3  C4  UNL d   1      -0.537  -2.231   1.025  0.00  0.00     0.004 A 
ATOM      4  C5  UNL d   1      -1.828  -2.489   0.564  0.00  0.00    -0.004 A 
ATOM      5  C6  UNL d   1      -2.052  -2.765  -0.788  0.00  0.00    -0.075 A 
ATOM      6  C7  UNL d   1      -3.435  -3.043  -1.300  0.00  0.00     0.076 C 
ATOM      7  C8  UNL d   1      -0.965  -2.770  -1.673  0.00  0.00     0.001 A 
ENDROOT
BRANCH   1   8
ATOM      8  C1  UNL d   1       1.496  -2.520  -2.181  0.00  0.00     0.053 C 
ATOM      9  C   UNL d   1       2.422  -3.699  -1.934  0.00  0.00     0.018 C 
ENDBRANCH   1   8
TORSDOF 1
ENDMDL
