MODEL 1
REMARK minimizedAffinity 9.95705032
REMARK minimizedRMSD -1
REMARK  1 active torsions:
REMARK  status: ('A' for Active; 'I' for Inactive)
REMARK    1  A    between atoms: C1_2  and  C2_3 
ROOT
ATOM      1  C2  UNL d   1       1.045   0.145   1.508  0.00  0.00    -0.073 A 
ATOM      2  C3  UNL d   1       1.852  -0.937   1.138  0.00  0.00    -0.002 A 
ATOM      3  C4  UNL d   1       3.131  -1.080   1.678  0.00  0.00     0.004 A 
ATOM      4  C5  UNL d   1       3.613  -0.148   2.596  0.00  0.00    -0.004 A 
ATOM      5  C6  UNL d   1       2.818   0.934   2.988  0.00  0.00    -0.075 A 
ATOM      6  C7  UNL d   1       3.323   1.946   3.974  0.00  0.00     0.076 C 
ATOM      7  C8  UNL d   1       1.535   1.072   2.440  0.00  0.00     0.001 A 
ENDROOT
BRANCH   1   8
ATOM      8  C1  UNL d   1      -0.339   0.300   0.933  0.00  0.00     0.053 C 
ATOM      9  C   UNL d   1      -1.041  -1.038   0.768  0.00  0.00     0.018 C 
ENDBRANCH   1   8
TORSDOF 1
ENDMDL
