MODEL 1
REMARK minimizedAffinity 2.26979446
REMARK minimizedRMSD -1
REMARK  1 active torsions:
REMARK  status: ('A' for Active; 'I' for Inactive)
REMARK    1  A    between atoms: C1_2  and  C2_3 
ROOT
ATOM      1  C2  UNL d   1       0.287  -0.610   1.423  0.00  0.00    -0.073 A 
ATOM      2  C3  UNL d   1       0.252   0.738   1.796  0.00  0.00    -0.002 A 
ATOM      3  C4  UNL d   1       1.431   1.481   1.865  0.00  0.00     0.004 A 
ATOM      4  C5  UNL d   1       2.654   0.887   1.556  0.00  0.00    -0.004 A 
ATOM      5  C6  UNL d   1       2.709  -0.456   1.169  0.00  0.00    -0.075 A 
ATOM      6  C7  UNL d   1       4.017  -1.110   0.835  0.00  0.00     0.076 C 
ATOM      7  C8  UNL d   1       1.521  -1.196   1.104  0.00  0.00     0.001 A 
ENDROOT
BRANCH   1   8
ATOM      8  C1  UNL d   1      -0.984  -1.415   1.340  0.00  0.00     0.053 C 
ATOM      9  C   UNL d   1      -0.956  -2.622   2.265  0.00  0.00     0.018 C 
ENDBRANCH   1   8
TORSDOF 1
ENDMDL
