MODEL 1
REMARK minimizedAffinity 16.1401901
REMARK minimizedRMSD -1
REMARK  1 active torsions:
REMARK  status: ('A' for Active; 'I' for Inactive)
REMARK    1  A    between atoms: C1_2  and  C2_3 
ROOT
ATOM      1  C2  UNL d   1       1.409  -1.972  -2.356  0.00  0.00    -0.073 A 
ATOM      2  C3  UNL d   1       0.224  -1.851  -3.091  0.00  0.00    -0.002 A 
ATOM      3  C4  UNL d   1      -1.009  -1.807  -2.439  0.00  0.00     0.004 A 
ATOM      4  C5  UNL d   1      -1.070  -1.875  -1.047  0.00  0.00    -0.004 A 
ATOM      5  C6  UNL d   1       0.104  -1.983  -0.294  0.00  0.00    -0.075 A 
ATOM      6  C7  UNL d   1       0.055  -2.060   1.203  0.00  0.00     0.076 C 
ATOM      7  C8  UNL d   1       1.338  -2.030  -0.957  0.00  0.00     0.001 A 
ENDROOT
BRANCH   1   8
ATOM      8  C1  UNL d   1       2.743  -2.014  -3.055  0.00  0.00     0.053 C 
ATOM      9  C   UNL d   1       3.480  -0.688  -2.956  0.00  0.00     0.018 C 
ENDBRANCH   1   8
TORSDOF 1
ENDMDL
