MODEL 1
REMARK minimizedAffinity -1.45456266
REMARK minimizedRMSD -1
REMARK  1 active torsions:
REMARK  status: ('A' for Active; 'I' for Inactive)
REMARK    1  A    between atoms: C1_2  and  C2_3 
ROOT
ATOM      1  C2  UNL d   1       2.110   0.344   1.321  0.00  0.00    -0.073 A 
ATOM      2  C3  UNL d   1       0.798  -0.076   1.568  0.00  0.00    -0.002 A 
ATOM      3  C4  UNL d   1      -0.280   0.742   1.227  0.00  0.00     0.004 A 
ATOM      4  C5  UNL d   1      -0.058   1.983   0.631  0.00  0.00    -0.004 A 
ATOM      5  C6  UNL d   1       1.246   2.415   0.365  0.00  0.00    -0.075 A 
ATOM      6  C7  UNL d   1       1.501   3.748  -0.275  0.00  0.00     0.076 C 
ATOM      7  C8  UNL d   1       2.323   1.589   0.712  0.00  0.00     0.001 A 
ENDROOT
BRANCH   1   8
ATOM      8  C1  UNL d   1       3.277  -0.539   1.681  0.00  0.00     0.053 C 
ATOM      9  C   UNL d   1       4.070  -0.965   0.455  0.00  0.00     0.018 C 
ENDBRANCH   1   8
TORSDOF 1
ENDMDL
