MODEL 1
REMARK minimizedAffinity 3.31236172
REMARK minimizedRMSD -1
REMARK  1 active torsions:
REMARK  status: ('A' for Active; 'I' for Inactive)
REMARK    1  A    between atoms: C1_2  and  C2_3 
ROOT
ATOM      1  C2  UNL d   1       5.677  -3.401   5.111  0.00  0.00    -0.073 A 
ATOM      2  C3  UNL d   1       5.117  -3.596   3.843  0.00  0.00    -0.002 A 
ATOM      3  C4  UNL d   1       4.835  -2.503   3.022  0.00  0.00     0.004 A 
ATOM      4  C5  UNL d   1       5.114  -1.208   3.457  0.00  0.00    -0.004 A 
ATOM      5  C6  UNL d   1       5.685  -0.993   4.716  0.00  0.00    -0.075 A 
ATOM      6  C7  UNL d   1       5.990   0.394   5.199  0.00  0.00     0.076 C 
ATOM      7  C8  UNL d   1       5.963  -2.095   5.535  0.00  0.00     0.001 A 
ENDROOT
BRANCH   1   8
ATOM      8  C1  UNL d   1       5.990  -4.578   5.998  0.00  0.00     0.053 C 
ATOM      9  C   UNL d   1       4.948  -5.678   5.874  0.00  0.00     0.018 C 
ENDBRANCH   1   8
TORSDOF 1
ENDMDL
