MODEL 1
REMARK minimizedAffinity 15.7804003
REMARK minimizedRMSD -1
REMARK  1 active torsions:
REMARK  status: ('A' for Active; 'I' for Inactive)
REMARK    1  A    between atoms: C1_2  and  C2_3 
ROOT
ATOM      1  C2  UNL d   1       3.370   3.380  -2.461  0.00  0.00    -0.073 A 
ATOM      2  C3  UNL d   1       2.839   4.674  -2.499  0.00  0.00    -0.002 A 
ATOM      3  C4  UNL d   1       3.326   5.610  -3.413  0.00  0.00     0.004 A 
ATOM      4  C5  UNL d   1       4.342   5.260  -4.302  0.00  0.00    -0.004 A 
ATOM      5  C6  UNL d   1       4.877   3.968  -4.288  0.00  0.00    -0.075 A 
ATOM      6  C7  UNL d   1       5.972   3.576  -5.236  0.00  0.00     0.076 C 
ATOM      7  C8  UNL d   1       4.385   3.035  -3.365  0.00  0.00     0.001 A 
ENDROOT
BRANCH   1   8
ATOM      8  C1  UNL d   1       2.844   2.365  -1.480  0.00  0.00     0.053 C 
ATOM      9  C   UNL d   1       2.273   3.020  -0.233  0.00  0.00     0.018 C 
ENDBRANCH   1   8
TORSDOF 1
ENDMDL
