MODEL 1
REMARK minimizedAffinity 12.8518429
REMARK minimizedRMSD -1
REMARK  1 active torsions:
REMARK  status: ('A' for Active; 'I' for Inactive)
REMARK    1  A    between atoms: C1_2  and  C2_3 
ROOT
ATOM      1  C2  UNL d   1      -0.080  -0.627  -4.259  0.00  0.00    -0.073 A 
ATOM      2  C3  UNL d   1       1.243  -0.991  -4.530  0.00  0.00    -0.002 A 
ATOM      3  C4  UNL d   1       2.257  -0.692  -3.619  0.00  0.00     0.004 A 
ATOM      4  C5  UNL d   1       1.958  -0.033  -2.427  0.00  0.00    -0.004 A 
ATOM      5  C6  UNL d   1       0.639   0.329  -2.132  0.00  0.00    -0.075 A 
ATOM      6  C7  UNL d   1       0.300   1.040  -0.855  0.00  0.00     0.076 C 
ATOM      7  C8  UNL d   1      -0.373   0.027  -3.054  0.00  0.00     0.001 A 
ENDROOT
BRANCH   1   8
ATOM      8  C1  UNL d   1      -1.179  -0.954  -5.237  0.00  0.00     0.053 C 
ATOM      9  C   UNL d   1      -1.451  -2.448  -5.311  0.00  0.00     0.018 C 
ENDBRANCH   1   8
TORSDOF 1
ENDMDL
