MODEL 1
REMARK minimizedAffinity 12.7161131
REMARK minimizedRMSD -1
REMARK  1 active torsions:
REMARK  status: ('A' for Active; 'I' for Inactive)
REMARK    1  A    between atoms: C1_2  and  C2_3 
ROOT
ATOM      1  C2  UNL d   1      -0.012   0.258  -4.832  0.00  0.00    -0.073 A 
ATOM      2  C3  UNL d   1       0.998  -0.710  -4.794  0.00  0.00    -0.002 A 
ATOM      3  C4  UNL d   1       1.873  -0.774  -3.708  0.00  0.00     0.004 A 
ATOM      4  C5  UNL d   1       1.742   0.124  -2.648  0.00  0.00    -0.004 A 
ATOM      5  C6  UNL d   1       0.732   1.091  -2.663  0.00  0.00    -0.075 A 
ATOM      6  C7  UNL d   1       0.579   2.065  -1.532  0.00  0.00     0.076 C 
ATOM      7  C8  UNL d   1      -0.141   1.150  -3.758  0.00  0.00     0.001 A 
ENDROOT
BRANCH   1   8
ATOM      8  C1  UNL d   1      -0.962   0.326  -6.000  0.00  0.00     0.053 C 
ATOM      9  C   UNL d   1      -2.244   1.063  -5.648  0.00  0.00     0.018 C 
ENDBRANCH   1   8
TORSDOF 1
ENDMDL
