MODEL 1
REMARK minimizedAffinity 14.0089798
REMARK minimizedRMSD -1
REMARK  1 active torsions:
REMARK  status: ('A' for Active; 'I' for Inactive)
REMARK    1  A    between atoms: C1_2  and  C2_3 
ROOT
ATOM      1  C2  UNL d   1       2.684   3.780  -2.029  0.00  0.00    -0.073 A 
ATOM      2  C3  UNL d   1       2.485   3.927  -0.652  0.00  0.00    -0.002 A 
ATOM      3  C4  UNL d   1       1.982   2.868   0.105  0.00  0.00     0.004 A 
ATOM      4  C5  UNL d   1       1.681   1.651  -0.504  0.00  0.00    -0.004 A 
ATOM      5  C6  UNL d   1       1.884   1.480  -1.878  0.00  0.00    -0.075 A 
ATOM      6  C7  UNL d   1       1.562   0.177  -2.549  0.00  0.00     0.076 C 
ATOM      7  C8  UNL d   1       2.387   2.549  -2.632  0.00  0.00     0.001 A 
ENDROOT
BRANCH   1   8
ATOM      8  C1  UNL d   1       3.233   4.918  -2.850  0.00  0.00     0.053 C 
ATOM      9  C   UNL d   1       4.036   4.426  -4.043  0.00  0.00     0.018 C 
ENDBRANCH   1   8
TORSDOF 1
ENDMDL
