MODEL 1
REMARK minimizedAffinity 4.92854404
REMARK minimizedRMSD -1
REMARK  1 active torsions:
REMARK  status: ('A' for Active; 'I' for Inactive)
REMARK    1  A    between atoms: C1_2  and  C2_3 
ROOT
ATOM      1  C2  UNL d   1       1.196   0.591  -2.035  0.00  0.00    -0.073 A 
ATOM      2  C3  UNL d   1       1.988   1.714  -2.300  0.00  0.00    -0.002 A 
ATOM      3  C4  UNL d   1       2.126   2.721  -1.343  0.00  0.00     0.004 A 
ATOM      4  C5  UNL d   1       1.481   2.612  -0.112  0.00  0.00    -0.004 A 
ATOM      5  C6  UNL d   1       0.695   1.492   0.176  0.00  0.00    -0.075 A 
ATOM      6  C7  UNL d   1      -0.008   1.361   1.496  0.00  0.00     0.076 C 
ATOM      7  C8  UNL d   1       0.559   0.486  -0.790  0.00  0.00     0.001 A 
ENDROOT
BRANCH   1   8
ATOM      8  C1  UNL d   1       1.050  -0.502  -3.062  0.00  0.00     0.053 C 
ATOM      9  C   UNL d   1      -0.027  -0.180  -4.087  0.00  0.00     0.018 C 
ENDBRANCH   1   8
TORSDOF 1
ENDMDL
