MODEL 1
REMARK minimizedAffinity 7.6348834
REMARK minimizedRMSD -1
REMARK  1 active torsions:
REMARK  status: ('A' for Active; 'I' for Inactive)
REMARK    1  A    between atoms: C1_2  and  C2_3 
ROOT
ATOM      1  C2  UNL d   1      -0.971  -0.496   4.133  0.00  0.00    -0.073 A 
ATOM      2  C3  UNL d   1       0.007  -1.467   4.376  0.00  0.00    -0.002 A 
ATOM      3  C4  UNL d   1       1.340  -1.223   4.045  0.00  0.00     0.004 A 
ATOM      4  C5  UNL d   1       1.711  -0.005   3.475  0.00  0.00    -0.004 A 
ATOM      5  C6  UNL d   1       0.750   0.983   3.236  0.00  0.00    -0.075 A 
ATOM      6  C7  UNL d   1       1.131   2.298   2.622  0.00  0.00     0.076 C 
ATOM      7  C8  UNL d   1      -0.588   0.729   3.569  0.00  0.00     0.001 A 
ENDROOT
BRANCH   1   8
ATOM      8  C1  UNL d   1      -2.411  -0.753   4.495  0.00  0.00     0.053 C 
ATOM      9  C   UNL d   1      -2.622  -0.797   6.000  0.00  0.00     0.018 C 
ENDBRANCH   1   8
TORSDOF 1
ENDMDL
