MODEL 1
REMARK minimizedAffinity 9.8324976
REMARK minimizedRMSD -1
REMARK  1 active torsions:
REMARK  status: ('A' for Active; 'I' for Inactive)
REMARK    1  A    between atoms: C1_2  and  C2_3 
ROOT
ATOM      1  C2  UNL d   1       1.768   1.418  -1.503  0.00  0.00    -0.073 A 
ATOM      2  C3  UNL d   1       0.794   0.568  -0.966  0.00  0.00    -0.002 A 
ATOM      3  C4  UNL d   1       0.544  -0.675  -1.549  0.00  0.00     0.004 A 
ATOM      4  C5  UNL d   1       1.268  -1.083  -2.669  0.00  0.00    -0.004 A 
ATOM      5  C6  UNL d   1       2.254  -0.254  -3.213  0.00  0.00    -0.075 A 
ATOM      6  C7  UNL d   1       3.041  -0.678  -4.418  0.00  0.00     0.076 C 
ATOM      7  C8  UNL d   1       2.497   0.994  -2.623  0.00  0.00     0.001 A 
ENDROOT
BRANCH   1   8
ATOM      8  C1  UNL d   1       2.046   2.758  -0.873  0.00  0.00     0.053 C 
ATOM      9  C   UNL d   1       2.170   3.861  -1.912  0.00  0.00     0.018 C 
ENDBRANCH   1   8
TORSDOF 1
ENDMDL
