MODEL 1
REMARK minimizedAffinity 12.1224165
REMARK minimizedRMSD -1
REMARK  1 active torsions:
REMARK  status: ('A' for Active; 'I' for Inactive)
REMARK    1  A    between atoms: C1_2  and  C2_3 
ROOT
ATOM      1  C2  UNL d   1       2.953   3.391  -2.400  0.00  0.00    -0.073 A 
ATOM      2  C3  UNL d   1       3.078   4.785  -2.375  0.00  0.00    -0.002 A 
ATOM      3  C4  UNL d   1       3.669   5.459  -3.444  0.00  0.00     0.004 A 
ATOM      4  C5  UNL d   1       4.135   4.749  -4.550  0.00  0.00    -0.004 A 
ATOM      5  C6  UNL d   1       4.009   3.357  -4.599  0.00  0.00    -0.075 A 
ATOM      6  C7  UNL d   1       4.507   2.578  -5.781  0.00  0.00     0.076 C 
ATOM      7  C8  UNL d   1       3.417   2.687  -3.520  0.00  0.00     0.001 A 
ENDROOT
BRANCH   1   8
ATOM      8  C1  UNL d   1       2.310   2.660  -1.250  0.00  0.00     0.053 C 
ATOM      9  C   UNL d   1       2.350   3.470   0.036  0.00  0.00     0.018 C 
ENDBRANCH   1   8
TORSDOF 1
ENDMDL
