MODEL 1
REMARK minimizedAffinity 11.9456444
REMARK minimizedRMSD -1
REMARK  1 active torsions:
REMARK  status: ('A' for Active; 'I' for Inactive)
REMARK    1  A    between atoms: C1_2  and  C2_3 
ROOT
ATOM      1  C2  UNL d   1       0.287  -0.556  -1.136  0.00  0.00    -0.073 A 
ATOM      2  C3  UNL d   1       0.013  -1.898  -0.847  0.00  0.00    -0.002 A 
ATOM      3  C4  UNL d   1      -0.710  -2.239   0.297  0.00  0.00     0.004 A 
ATOM      4  C5  UNL d   1      -1.172  -1.244   1.158  0.00  0.00    -0.004 A 
ATOM      5  C6  UNL d   1      -0.918   0.103   0.881  0.00  0.00    -0.075 A 
ATOM      6  C7  UNL d   1      -1.406   1.185   1.799  0.00  0.00     0.076 C 
ATOM      7  C8  UNL d   1      -0.189   0.438  -0.268  0.00  0.00     0.001 A 
ENDROOT
BRANCH   1   8
ATOM      8  C1  UNL d   1       1.062  -0.182  -2.373  0.00  0.00     0.053 C 
ATOM      9  C   UNL d   1       1.065  -1.300  -3.403  0.00  0.00     0.018 C 
ENDBRANCH   1   8
TORSDOF 1
ENDMDL
