MODEL 1
REMARK minimizedAffinity 16.2345963
REMARK minimizedRMSD -1
REMARK  1 active torsions:
REMARK  status: ('A' for Active; 'I' for Inactive)
REMARK    1  A    between atoms: C1_2  and  C2_3 
ROOT
ATOM      1  C2  UNL d   1       0.136  -1.439  -5.002  0.00  0.00    -0.073 A 
ATOM      2  C3  UNL d   1      -0.260  -2.755  -5.268  0.00  0.00    -0.002 A 
ATOM      3  C4  UNL d   1      -1.538  -3.020  -5.761  0.00  0.00     0.004 A 
ATOM      4  C5  UNL d   1      -2.430  -1.974  -6.000  0.00  0.00    -0.004 A 
ATOM      5  C6  UNL d   1      -2.048  -0.652  -5.751  0.00  0.00    -0.075 A 
ATOM      6  C7  UNL d   1      -2.996   0.485  -6.000  0.00  0.00     0.076 C 
ATOM      7  C8  UNL d   1      -0.764  -0.394  -5.253  0.00  0.00     0.001 A 
ENDROOT
BRANCH   1   8
ATOM      8  C1  UNL d   1       1.517  -1.147  -4.475  0.00  0.00     0.053 C 
ATOM      9  C   UNL d   1       1.479  -0.300  -3.213  0.00  0.00     0.018 C 
ENDBRANCH   1   8
TORSDOF 1
ENDMDL
