MODEL 1
REMARK minimizedAffinity -0.470594585
REMARK minimizedRMSD -1
REMARK  0 active torsions:
REMARK  status: ('A' for Active; 'I' for Inactive)
ROOT
ATOM      1  C   UNL d   1       0.123  -0.041  -1.700  0.00  0.00     0.078 C 
ATOM      2  C1  UNL d   1       0.745   0.237  -0.364  0.00  0.00    -0.077 A 
ATOM      3  C2  UNL d   1       1.850  -0.498   0.084  0.00  0.00    -0.001 A 
ATOM      4  C3  UNL d   1       2.413  -0.236   1.333  0.00  0.00     0.003 A 
ATOM      5  C4  UNL d   1       1.877   0.761   2.147  0.00  0.00    -0.005 A 
ATOM      6  C5  UNL d   1       0.776   1.495   1.711  0.00  0.00     0.003 A 
ATOM      7  C6  UNL d   1       0.212   1.235   0.462  0.00  0.00    -0.001 A 
ENDROOT
TORSDOF 0
ENDMDL
