MODEL 1
REMARK minimizedAffinity -1.26496208
REMARK minimizedRMSD -1
REMARK  0 active torsions:
REMARK  status: ('A' for Active; 'I' for Inactive)
ROOT
ATOM      1  C   UNL d   1       3.079   5.588  -0.143  0.00  0.00     0.078 C 
ATOM      2  C1  UNL d   1       3.872   5.736   1.121  0.00  0.00    -0.077 A 
ATOM      3  C2  UNL d   1       5.272   5.729   1.099  0.00  0.00    -0.001 A 
ATOM      4  C3  UNL d   1       5.998   5.858   2.284  0.00  0.00     0.003 A 
ATOM      5  C4  UNL d   1       5.332   5.994   3.501  0.00  0.00    -0.005 A 
ATOM      6  C5  UNL d   1       3.939   6.000   3.533  0.00  0.00     0.003 A 
ATOM      7  C6  UNL d   1       3.212   5.871   2.348  0.00  0.00    -0.001 A 
ENDROOT
TORSDOF 0
ENDMDL
