MODEL 1
REMARK minimizedAffinity 0.690926611
REMARK minimizedRMSD -1
REMARK  0 active torsions:
REMARK  status: ('A' for Active; 'I' for Inactive)
ROOT
ATOM      1  C   UNL d   1      -2.349   1.112   1.642  0.00  0.00     0.078 C 
ATOM      2  C1  UNL d   1      -1.105   0.348   1.984  0.00  0.00    -0.077 A 
ATOM      3  C2  UNL d   1      -0.979  -0.314   3.211  0.00  0.00    -0.001 A 
ATOM      4  C3  UNL d   1       0.190  -1.012   3.519  0.00  0.00     0.003 A 
ATOM      5  C4  UNL d   1       1.241  -1.055   2.606  0.00  0.00    -0.005 A 
ATOM      6  C5  UNL d   1       1.126  -0.397   1.383  0.00  0.00     0.003 A 
ATOM      7  C6  UNL d   1      -0.042   0.302   1.073  0.00  0.00    -0.001 A 
ENDROOT
TORSDOF 0
ENDMDL
