MODEL 1
REMARK minimizedAffinity -3.87435627
REMARK minimizedRMSD -1
REMARK  0 active torsions:
REMARK  status: ('A' for Active; 'I' for Inactive)
ROOT
ATOM      1  C   UNL d   1       2.413  -1.613  -0.082  0.00  0.00     0.078 C 
ATOM      2  C1  UNL d   1       0.966  -1.241  -0.209  0.00  0.00    -0.077 A 
ATOM      3  C2  UNL d   1       0.388  -0.291   0.643  0.00  0.00    -0.001 A 
ATOM      4  C3  UNL d   1      -0.963   0.038   0.519  0.00  0.00     0.003 A 
ATOM      5  C4  UNL d   1      -1.747  -0.579  -0.453  0.00  0.00    -0.005 A 
ATOM      6  C5  UNL d   1      -1.182  -1.527  -1.303  0.00  0.00     0.003 A 
ATOM      7  C6  UNL d   1       0.169  -1.857  -1.182  0.00  0.00    -0.001 A 
ENDROOT
TORSDOF 0
ENDMDL
