MODEL 1
REMARK minimizedAffinity 4.4179697
REMARK minimizedRMSD -1
REMARK  0 active torsions:
REMARK  status: ('A' for Active; 'I' for Inactive)
ROOT
ATOM      1  C   UNL d   1      -2.788  -0.591  -0.621  0.00  0.00     0.078 C 
ATOM      2  C1  UNL d   1      -2.371   0.543   0.266  0.00  0.00    -0.077 A 
ATOM      3  C2  UNL d   1      -2.354   0.400   1.659  0.00  0.00    -0.001 A 
ATOM      4  C3  UNL d   1      -1.973   1.467   2.474  0.00  0.00     0.003 A 
ATOM      5  C4  UNL d   1      -1.607   2.686   1.905  0.00  0.00    -0.005 A 
ATOM      6  C5  UNL d   1      -1.622   2.838   0.520  0.00  0.00     0.003 A 
ATOM      7  C6  UNL d   1      -2.003   1.772  -0.296  0.00  0.00    -0.001 A 
ENDROOT
TORSDOF 0
ENDMDL
