MODEL 1
REMARK minimizedAffinity -2.43882394
REMARK minimizedRMSD -1
REMARK  2 active torsions:
REMARK  status: ('A' for Active; 'I' for Inactive)
REMARK    1  A    between atoms: C1_2  and  C2_3 
REMARK    2  A    between atoms: C2_3  and  C3_4 
ROOT
ATOM      1  C3  UNL d   1       0.738  -0.012  -0.402  0.00  0.00    -0.075 A 
ATOM      2  C4  UNL d   1       0.129   0.826   0.543  0.00  0.00     0.002 A 
ATOM      3  C5  UNL d   1       0.639   0.920   1.839  0.00  0.00     0.002 A 
ATOM      4  C6  UNL d   1       1.753   0.171   2.209  0.00  0.00    -0.004 A 
ATOM      5  C7  UNL d   1       2.356  -0.678   1.283  0.00  0.00     0.002 A 
ATOM      6  C8  UNL d   1       1.851  -0.771  -0.015  0.00  0.00     0.002 A 
ENDROOT
BRANCH   1   7
ATOM      7  C2  UNL d   1       0.209  -0.096  -1.814  0.00  0.00     0.056 C 
BRANCH   7   8
ATOM      8  C1  UNL d   1       0.944   0.808  -2.809  0.00  0.00     0.007 C 
ATOM      9  C   UNL d   1       0.438   0.663  -4.238  0.00  0.00     0.009 C 
ENDBRANCH   7   8
ENDBRANCH   1   7
TORSDOF 2
ENDMDL
