MODEL 1
REMARK minimizedAffinity -2.69599342
REMARK minimizedRMSD -1
REMARK  2 active torsions:
REMARK  status: ('A' for Active; 'I' for Inactive)
REMARK    1  A    between atoms: C1_2  and  C2_3 
REMARK    2  A    between atoms: C2_3  and  C3_4 
ROOT
ATOM      1  C3  UNL d   1       0.257   0.301   0.666  0.00  0.00    -0.075 A 
ATOM      2  C4  UNL d   1      -0.801   1.084   1.149  0.00  0.00     0.002 A 
ATOM      3  C5  UNL d   1      -0.875   1.418   2.502  0.00  0.00     0.002 A 
ATOM      4  C6  UNL d   1       0.100   0.965   3.389  0.00  0.00    -0.004 A 
ATOM      5  C7  UNL d   1       1.146   0.172   2.923  0.00  0.00     0.002 A 
ATOM      6  C8  UNL d   1       1.225  -0.159   1.569  0.00  0.00     0.002 A 
ENDROOT
BRANCH   1   7
ATOM      7  C2  UNL d   1       0.359  -0.039  -0.802  0.00  0.00     0.056 C 
BRANCH   7   8
ATOM      8  C1  UNL d   1       0.797   1.134  -1.685  0.00  0.00     0.007 C 
ATOM      9  C   UNL d   1       0.494   0.920  -3.162  0.00  0.00     0.009 C 
ENDBRANCH   7   8
ENDBRANCH   1   7
TORSDOF 2
ENDMDL
