MODEL 1
REMARK minimizedAffinity -2.57829523
REMARK minimizedRMSD -1
REMARK  2 active torsions:
REMARK  status: ('A' for Active; 'I' for Inactive)
REMARK    1  A    between atoms: C1_2  and  C2_3 
REMARK    2  A    between atoms: C2_3  and  C3_4 
ROOT
ATOM      1  C3  UNL d   1      -0.255   0.089  -0.100  0.00  0.00    -0.075 A 
ATOM      2  C4  UNL d   1      -1.515   0.390   0.437  0.00  0.00     0.002 A 
ATOM      3  C5  UNL d   1      -1.631   0.891   1.734  0.00  0.00     0.002 A 
ATOM      4  C6  UNL d   1      -0.492   1.089   2.512  0.00  0.00    -0.004 A 
ATOM      5  C7  UNL d   1       0.764   0.778   1.994  0.00  0.00     0.002 A 
ATOM      6  C8  UNL d   1       0.883   0.280   0.695  0.00  0.00     0.002 A 
ENDROOT
BRANCH   1   7
ATOM      7  C2  UNL d   1      -0.121  -0.426  -1.514  0.00  0.00     0.056 C 
BRANCH   7   8
ATOM      8  C1  UNL d   1       0.300   0.642  -2.529  0.00  0.00     0.007 C 
ATOM      9  C   UNL d   1      -0.105   0.304  -3.958  0.00  0.00     0.009 C 
ENDBRANCH   7   8
ENDBRANCH   1   7
TORSDOF 2
ENDMDL
