MODEL 1
REMARK minimizedAffinity -4.22220373
REMARK minimizedRMSD -1
REMARK  2 active torsions:
REMARK  status: ('A' for Active; 'I' for Inactive)
REMARK    1  A    between atoms: C1_2  and  C2_3 
REMARK    2  A    between atoms: C2_3  and  C3_4 
ROOT
ATOM      1  C3  UNL d   1       0.004  -0.710  -3.120  0.00  0.00    -0.075 A 
ATOM      2  C4  UNL d   1       1.016   0.145  -3.580  0.00  0.00     0.002 A 
ATOM      3  C5  UNL d   1       1.002   0.618  -4.892  0.00  0.00     0.002 A 
ATOM      4  C6  UNL d   1      -0.015   0.235  -5.763  0.00  0.00    -0.004 A 
ATOM      5  C7  UNL d   1      -1.017  -0.627  -5.322  0.00  0.00     0.002 A 
ATOM      6  C8  UNL d   1      -1.008  -1.099  -4.008  0.00  0.00     0.002 A 
ENDROOT
BRANCH   1   7
ATOM      7  C2  UNL d   1      -0.003  -1.202  -1.693  0.00  0.00     0.056 C 
BRANCH   7   8
ATOM      8  C1  UNL d   1       0.692  -0.259  -0.705  0.00  0.00     0.007 C 
ATOM      9  C   UNL d   1       1.809  -0.931   0.083  0.00  0.00     0.009 C 
ENDBRANCH   7   8
ENDBRANCH   1   7
TORSDOF 2
ENDMDL
