MODEL 1
REMARK minimizedAffinity 16.8044262
REMARK minimizedRMSD -1
REMARK  0 active torsions:
REMARK  status: ('A' for Active; 'I' for Inactive)
ROOT
ATOM      1  C   UNL d   1      -4.571  -2.410   1.937  0.00  0.00     0.124 A 
ATOM      2  C1  UNL d   1      -3.346  -2.634   2.550  0.00  0.00     0.062 A 
ATOM      3  C2  UNL d   1      -2.365  -1.647   2.535  0.00  0.00     0.162 A 
ATOM      4  C3  UNL d   1      -2.606  -0.425   1.906  0.00  0.00    -0.034 A 
ATOM      5  C4  UNL d   1      -3.840  -0.207   1.291  0.00  0.00     0.162 A 
ATOM      6  C5  UNL d   1      -4.817  -1.197   1.308  0.00  0.00     0.062 A 
ATOM      7  F   UNL d   1      -6.000  -0.979   0.716  0.00  0.00    -0.097 F 
ATOM      8  F1  UNL d   1      -4.104   0.956   0.677  0.00  0.00    -0.096 F 
ATOM      9  I   UNL d   1      -1.141   1.054   1.882  0.00  0.00    -0.060 I 
ATOM     10  F2  UNL d   1      -1.191  -1.890   3.135  0.00  0.00    -0.096 F 
ATOM     11  F3  UNL d   1      -3.106  -3.805   3.157  0.00  0.00    -0.097 F 
ATOM     12  F4  UNL d   1      -5.513  -3.362   1.951  0.00  0.00    -0.092 F 
ENDROOT
TORSDOF 0
ENDMDL
