MODEL 1
REMARK minimizedAffinity 13.2954531
REMARK minimizedRMSD -1
REMARK  0 active torsions:
REMARK  status: ('A' for Active; 'I' for Inactive)
ROOT
ATOM      1  C   UNL d   1      -0.138   4.904  -2.005  0.00  0.00     0.124 A 
ATOM      2  C1  UNL d   1       0.371   3.793  -1.346  0.00  0.00     0.062 A 
ATOM      3  C2  UNL d   1      -0.451   2.704  -1.072  0.00  0.00     0.162 A 
ATOM      4  C3  UNL d   1      -1.792   2.720  -1.457  0.00  0.00    -0.034 A 
ATOM      5  C4  UNL d   1      -2.297   3.841  -2.118  0.00  0.00     0.162 A 
ATOM      6  C5  UNL d   1      -1.471   4.927  -2.390  0.00  0.00     0.062 A 
ATOM      7  F   UNL d   1      -1.965   5.999  -3.026  0.00  0.00    -0.097 F 
ATOM      8  F1  UNL d   1      -3.581   3.889  -2.503  0.00  0.00    -0.096 F 
ATOM      9  I   UNL d   1      -3.025   1.093  -1.049  0.00  0.00    -0.060 I 
ATOM     10  F2  UNL d   1       0.067   1.644  -0.435  0.00  0.00    -0.096 F 
ATOM     11  F3  UNL d   1       1.658   3.769  -0.972  0.00  0.00    -0.097 F 
ATOM     12  F4  UNL d   1       0.655   5.951  -2.266  0.00  0.00    -0.092 F 
ENDROOT
TORSDOF 0
ENDMDL
