MODEL 1
REMARK minimizedAffinity 17.9202175
REMARK minimizedRMSD -1
REMARK  0 active torsions:
REMARK  status: ('A' for Active; 'I' for Inactive)
ROOT
ATOM      1  C   UNL d   1       2.179   2.596   0.911  0.00  0.00     0.124 A 
ATOM      2  C1  UNL d   1       0.966   2.164   1.428  0.00  0.00     0.062 A 
ATOM      3  C2  UNL d   1      -0.181   2.196   0.641  0.00  0.00     0.162 A 
ATOM      4  C3  UNL d   1      -0.121   2.660  -0.673  0.00  0.00    -0.034 A 
ATOM      5  C4  UNL d   1       1.102   3.094  -1.186  0.00  0.00     0.162 A 
ATOM      6  C5  UNL d   1       2.246   3.060  -0.396  0.00  0.00     0.062 A 
ATOM      7  F   UNL d   1       3.418   3.478  -0.897  0.00  0.00    -0.097 F 
ATOM      8  F1  UNL d   1       1.196   3.546  -2.445  0.00  0.00    -0.096 F 
ATOM      9  I   UNL d   1      -1.835   2.708  -1.853  0.00  0.00    -0.060 I 
ATOM     10  F2  UNL d   1      -1.340   1.772   1.168  0.00  0.00    -0.096 F 
ATOM     11  F3  UNL d   1       0.899   1.716   2.690  0.00  0.00    -0.097 F 
ATOM     12  F4  UNL d   1       3.282   2.566   1.670  0.00  0.00    -0.092 F 
ENDROOT
TORSDOF 0
ENDMDL
