MODEL 1
REMARK minimizedAffinity 3.26326442
REMARK minimizedRMSD -1
REMARK  0 active torsions:
REMARK  status: ('A' for Active; 'I' for Inactive)
ROOT
ATOM      1  C   UNL d   1       4.888  -2.479  -2.787  0.00  0.00     0.124 A 
ATOM      2  C1  UNL d   1       3.775  -1.685  -2.544  0.00  0.00     0.062 A 
ATOM      3  C2  UNL d   1       2.699  -2.191  -1.820  0.00  0.00     0.162 A 
ATOM      4  C3  UNL d   1       2.730  -3.498  -1.333  0.00  0.00    -0.034 A 
ATOM      5  C4  UNL d   1       3.853  -4.290  -1.583  0.00  0.00     0.162 A 
ATOM      6  C5  UNL d   1       4.925  -3.780  -2.306  0.00  0.00     0.062 A 
ATOM      7  F   UNL d   1       6.000  -4.548  -2.540  0.00  0.00    -0.097 F 
ATOM      8  F1  UNL d   1       3.916  -5.551  -1.129  0.00  0.00    -0.096 F 
ATOM      9  I   UNL d   1       1.123  -4.259  -0.251  0.00  0.00    -0.060 I 
ATOM     10  F2  UNL d   1       1.637  -1.402  -1.600  0.00  0.00    -0.096 F 
ATOM     11  F3  UNL d   1       3.735  -0.428  -3.008  0.00  0.00    -0.097 F 
ATOM     12  F4  UNL d   1       5.921  -1.989  -3.484  0.00  0.00    -0.092 F 
ENDROOT
TORSDOF 0
ENDMDL
