MODEL 1
REMARK minimizedAffinity 20.3483829
REMARK minimizedRMSD -1
REMARK  0 active torsions:
REMARK  status: ('A' for Active; 'I' for Inactive)
ROOT
ATOM      1  C   UNL d   1       1.710   4.344  -1.053  0.00  0.00     0.124 A 
ATOM      2  C1  UNL d   1       2.447   4.211   0.116  0.00  0.00     0.062 A 
ATOM      3  C2  UNL d   1       2.118   3.227   1.043  0.00  0.00     0.162 A 
ATOM      4  C3  UNL d   1       1.046   2.367   0.806  0.00  0.00    -0.034 A 
ATOM      5  C4  UNL d   1       0.308   2.507  -0.371  0.00  0.00     0.162 A 
ATOM      6  C5  UNL d   1       0.641   3.493  -1.295  0.00  0.00     0.062 A 
ATOM      7  F   UNL d   1      -0.072   3.620  -2.423  0.00  0.00    -0.097 F 
ATOM      8  F1  UNL d   1      -0.729   1.697  -0.631  0.00  0.00    -0.096 F 
ATOM      9  I   UNL d   1       0.550   0.894   2.190  0.00  0.00    -0.060 I 
ATOM     10  F2  UNL d   1       2.848   3.121   2.163  0.00  0.00    -0.096 F 
ATOM     11  F3  UNL d   1       3.480   5.033   0.353  0.00  0.00    -0.097 F 
ATOM     12  F4  UNL d   1       2.028   5.293  -1.943  0.00  0.00    -0.092 F 
ENDROOT
TORSDOF 0
ENDMDL
