MODEL 1
REMARK minimizedAffinity -0.271910101
REMARK minimizedRMSD -1
REMARK  0 active torsions:
REMARK  status: ('A' for Active; 'I' for Inactive)
ROOT
ATOM      1  C   UNL d   1       2.015   4.010   0.277  0.00  0.00     0.124 A 
ATOM      2  C1  UNL d   1       1.800   2.712   0.720  0.00  0.00     0.062 A 
ATOM      3  C2  UNL d   1       0.724   1.975   0.232  0.00  0.00     0.162 A 
ATOM      4  C3  UNL d   1      -0.144   2.534  -0.705  0.00  0.00    -0.034 A 
ATOM      5  C4  UNL d   1       0.078   3.840  -1.145  0.00  0.00     0.162 A 
ATOM      6  C5  UNL d   1       1.154   4.573  -0.655  0.00  0.00     0.062 A 
ATOM      7  F   UNL d   1       1.360   5.827  -1.084  0.00  0.00    -0.097 F 
ATOM      8  F1  UNL d   1      -0.738   4.408  -2.046  0.00  0.00    -0.096 F 
ATOM      9  I   UNL d   1      -1.753   1.436  -1.437  0.00  0.00    -0.060 I 
ATOM     10  F2  UNL d   1       0.541   0.723   0.677  0.00  0.00    -0.096 F 
ATOM     11  F3  UNL d   1       2.630   2.167   1.620  0.00  0.00    -0.097 F 
ATOM     12  F4  UNL d   1       3.049   4.717   0.749  0.00  0.00    -0.092 F 
ENDROOT
TORSDOF 0
ENDMDL
