MODEL 1
REMARK minimizedAffinity 7.85680866
REMARK minimizedRMSD -1
REMARK  0 active torsions:
REMARK  status: ('A' for Active; 'I' for Inactive)
ROOT
ATOM      1  C   UNL d   1       1.508   4.525  -1.287  0.00  0.00     0.124 A 
ATOM      2  C1  UNL d   1       2.277   4.240  -0.167  0.00  0.00     0.062 A 
ATOM      3  C2  UNL d   1       1.951   3.162   0.651  0.00  0.00     0.162 A 
ATOM      4  C3  UNL d   1       0.850   2.360   0.351  0.00  0.00    -0.034 A 
ATOM      5  C4  UNL d   1       0.081   2.653  -0.776  0.00  0.00     0.162 A 
ATOM      6  C5  UNL d   1       0.411   3.732  -1.590  0.00  0.00     0.062 A 
ATOM      7  F   UNL d   1      -0.333   4.005  -2.671  0.00  0.00    -0.097 F 
ATOM      8  F1  UNL d   1      -0.984   1.902  -1.093  0.00  0.00    -0.096 F 
ATOM      9  I   UNL d   1       0.359   0.747   1.571  0.00  0.00    -0.060 I 
ATOM     10  F2  UNL d   1       2.712   2.910   1.726  0.00  0.00    -0.096 F 
ATOM     11  F3  UNL d   1       3.337   5.006   0.129  0.00  0.00    -0.097 F 
ATOM     12  F4  UNL d   1       1.824   5.564  -2.071  0.00  0.00    -0.092 F 
ENDROOT
TORSDOF 0
ENDMDL
