MODEL 1
REMARK minimizedAffinity 2.38527703
REMARK minimizedRMSD -1
REMARK  0 active torsions:
REMARK  status: ('A' for Active; 'I' for Inactive)
ROOT
ATOM      1  C   UNL d   1      -3.595   1.078  -2.298  0.00  0.00     0.124 A 
ATOM      2  C1  UNL d   1      -3.652   2.352  -2.847  0.00  0.00     0.062 A 
ATOM      3  C2  UNL d   1      -2.692   3.302  -2.512  0.00  0.00     0.162 A 
ATOM      4  C3  UNL d   1      -1.665   2.982  -1.623  0.00  0.00    -0.034 A 
ATOM      5  C4  UNL d   1      -1.616   1.699  -1.074  0.00  0.00     0.162 A 
ATOM      6  C5  UNL d   1      -2.578   0.753  -1.412  0.00  0.00     0.062 A 
ATOM      7  F   UNL d   1      -2.522  -0.477  -0.881  0.00  0.00    -0.097 F 
ATOM      8  F1  UNL d   1      -0.643   1.358  -0.216  0.00  0.00    -0.096 F 
ATOM      9  I   UNL d   1      -0.227   4.399  -1.119  0.00  0.00    -0.060 I 
ATOM     10  F2  UNL d   1      -2.771   4.524  -3.058  0.00  0.00    -0.096 F 
ATOM     11  F3  UNL d   1      -4.635   2.668  -3.703  0.00  0.00    -0.097 F 
ATOM     12  F4  UNL d   1      -4.521   0.166  -2.622  0.00  0.00    -0.092 F 
ENDROOT
TORSDOF 0
ENDMDL
