MODEL 1
REMARK minimizedAffinity 13.9810419
REMARK minimizedRMSD -1
REMARK  0 active torsions:
REMARK  status: ('A' for Active; 'I' for Inactive)
ROOT
ATOM      1  C   UNL d   1       3.972  -2.526  -0.896  0.00  0.00     0.124 A 
ATOM      2  C1  UNL d   1       3.693  -2.252  -2.228  0.00  0.00     0.062 A 
ATOM      3  C2  UNL d   1       3.850  -3.242  -3.194  0.00  0.00     0.162 A 
ATOM      4  C3  UNL d   1       4.287  -4.516  -2.832  0.00  0.00    -0.034 A 
ATOM      5  C4  UNL d   1       4.566  -4.784  -1.491  0.00  0.00     0.162 A 
ATOM      6  C5  UNL d   1       4.408  -3.791  -0.529  0.00  0.00     0.062 A 
ATOM      7  F   UNL d   1       4.679  -4.058   0.757  0.00  0.00    -0.097 F 
ATOM      8  F1  UNL d   1       4.988  -5.998  -1.108  0.00  0.00    -0.096 F 
ATOM      9  I   UNL d   1       4.522  -5.998  -4.273  0.00  0.00    -0.060 I 
ATOM     10  F2  UNL d   1       3.573  -2.949  -4.473  0.00  0.00    -0.096 F 
ATOM     11  F3  UNL d   1       3.273  -1.030  -2.585  0.00  0.00    -0.097 F 
ATOM     12  F4  UNL d   1       3.822  -1.572   0.031  0.00  0.00    -0.092 F 
ENDROOT
TORSDOF 0
ENDMDL
