MODEL 1
REMARK minimizedAffinity 17.7662067
REMARK minimizedRMSD -1
REMARK  0 active torsions:
REMARK  status: ('A' for Active; 'I' for Inactive)
ROOT
ATOM      1  C   UNL d   1       1.178   3.445   0.270  0.00  0.00     0.124 A 
ATOM      2  C1  UNL d   1       0.880   2.831   1.478  0.00  0.00     0.062 A 
ATOM      3  C2  UNL d   1      -0.212   1.974   1.576  0.00  0.00     0.162 A 
ATOM      4  C3  UNL d   1      -1.014   1.724   0.462  0.00  0.00    -0.034 A 
ATOM      5  C4  UNL d   1      -0.708   2.346  -0.749  0.00  0.00     0.162 A 
ATOM      6  C5  UNL d   1       0.385   3.202  -0.842  0.00  0.00     0.062 A 
ATOM      7  F   UNL d   1       0.672   3.795  -2.011  0.00  0.00    -0.097 F 
ATOM      8  F1  UNL d   1      -1.457   2.129  -1.840  0.00  0.00    -0.096 F 
ATOM      9  I   UNL d   1      -2.648   0.443   0.605  0.00  0.00    -0.060 I 
ATOM     10  F2  UNL d   1      -0.477   1.394   2.757  0.00  0.00    -0.096 F 
ATOM     11  F3  UNL d   1       1.644   3.065   2.554  0.00  0.00    -0.097 F 
ATOM     12  F4  UNL d   1       2.229   4.270   0.178  0.00  0.00    -0.092 F 
ENDROOT
TORSDOF 0
ENDMDL
