MODEL 1
REMARK minimizedAffinity 14.273097
REMARK minimizedRMSD -1
REMARK  0 active torsions:
REMARK  status: ('A' for Active; 'I' for Inactive)
ROOT
ATOM      1  C   UNL d   1       3.672  -2.409  -1.215  0.00  0.00     0.124 A 
ATOM      2  C1  UNL d   1       3.801  -2.113  -2.565  0.00  0.00     0.062 A 
ATOM      3  C2  UNL d   1       4.104  -3.120  -3.476  0.00  0.00     0.162 A 
ATOM      4  C3  UNL d   1       4.279  -4.433  -3.042  0.00  0.00    -0.034 A 
ATOM      5  C4  UNL d   1       4.148  -4.724  -1.682  0.00  0.00     0.162 A 
ATOM      6  C5  UNL d   1       3.845  -3.714  -0.775  0.00  0.00     0.062 A 
ATOM      7  F   UNL d   1       3.721  -4.002   0.529  0.00  0.00    -0.097 F 
ATOM      8  F1  UNL d   1       4.310  -5.976  -1.230  0.00  0.00    -0.096 F 
ATOM      9  I   UNL d   1       4.732  -5.942  -4.402  0.00  0.00    -0.060 I 
ATOM     10  F2  UNL d   1       4.223  -2.804  -4.775  0.00  0.00    -0.096 F 
ATOM     11  F3  UNL d   1       3.634  -0.853  -2.992  0.00  0.00    -0.097 F 
ATOM     12  F4  UNL d   1       3.381  -1.438  -0.340  0.00  0.00    -0.092 F 
ENDROOT
TORSDOF 0
ENDMDL
