MODEL 1
REMARK minimizedAffinity 3.6212976
REMARK minimizedRMSD -1
REMARK  0 active torsions:
REMARK  status: ('A' for Active; 'I' for Inactive)
ROOT
ATOM      1  C   UNL d   1       4.303  -4.456  -2.852  0.00  0.00     0.124 A 
ATOM      2  C1  UNL d   1       3.946  -3.170  -3.231  0.00  0.00     0.062 A 
ATOM      3  C2  UNL d   1       3.757  -2.183  -2.268  0.00  0.00     0.162 A 
ATOM      4  C3  UNL d   1       3.926  -2.478  -0.915  0.00  0.00    -0.034 A 
ATOM      5  C4  UNL d   1       4.285  -3.774  -0.541  0.00  0.00     0.162 A 
ATOM      6  C5  UNL d   1       4.472  -4.757  -1.508  0.00  0.00     0.062 A 
ATOM      7  F   UNL d   1       4.818  -6.000  -1.139  0.00  0.00    -0.097 F 
ATOM      8  F1  UNL d   1       4.456  -4.093   0.750  0.00  0.00    -0.096 F 
ATOM      9  I   UNL d   1       3.645  -1.005   0.528  0.00  0.00    -0.060 I 
ATOM     10  F2  UNL d   1       3.412  -0.948  -2.663  0.00  0.00    -0.096 F 
ATOM     11  F3  UNL d   1       3.780  -2.877  -4.529  0.00  0.00    -0.097 F 
ATOM     12  F4  UNL d   1       4.483  -5.404  -3.781  0.00  0.00    -0.092 F 
ENDROOT
TORSDOF 0
ENDMDL
