MODEL 1
REMARK minimizedAffinity 8.06341267
REMARK minimizedRMSD -1
REMARK  0 active torsions:
REMARK  status: ('A' for Active; 'I' for Inactive)
ROOT
ATOM      1  C   UNL d   1       0.379   3.606  -0.479  0.00  0.00     0.124 A 
ATOM      2  C1  UNL d   1      -0.078   2.326  -0.762  0.00  0.00     0.062 A 
ATOM      3  C2  UNL d   1      -0.059   1.343   0.223  0.00  0.00     0.162 A 
ATOM      4  C3  UNL d   1       0.418   1.635   1.501  0.00  0.00    -0.034 A 
ATOM      5  C4  UNL d   1       0.876   2.925   1.777  0.00  0.00     0.162 A 
ATOM      6  C5  UNL d   1       0.855   3.904   0.790  0.00  0.00     0.062 A 
ATOM      7  F   UNL d   1       1.297   5.140   1.064  0.00  0.00    -0.097 F 
ATOM      8  F1  UNL d   1       1.341   3.240   2.995  0.00  0.00    -0.096 F 
ATOM      9  I   UNL d   1       0.448   0.168   2.976  0.00  0.00    -0.060 I 
ATOM     10  F2  UNL d   1      -0.507   0.114  -0.078  0.00  0.00    -0.096 F 
ATOM     11  F3  UNL d   1      -0.538   2.035  -1.987  0.00  0.00    -0.097 F 
ATOM     12  F4  UNL d   1       0.360   4.550  -1.429  0.00  0.00    -0.092 F 
ENDROOT
TORSDOF 0
ENDMDL
