MODEL 1
REMARK minimizedAffinity 0.96396786
REMARK minimizedRMSD -1
REMARK  1 active torsions:
REMARK  status: ('A' for Active; 'I' for Inactive)
REMARK    1  A    between atoms: C1_2  and  C2_3 
ROOT
ATOM      1  C2  UNL d   1       3.310   5.030  -5.487  0.00  0.00    -0.076 A 
ATOM      2  C3  UNL d   1       4.220   5.970  -6.000  0.00  0.00     0.004 A 
ATOM      3  C4  UNL d   1       5.544   6.000  -5.563  0.00  0.00    -0.003 A 
ATOM      4  C5  UNL d   1       5.978   5.089  -4.606  0.00  0.00     0.000 A 
ATOM      5  C6  UNL d   1       5.093   4.138  -4.099  0.00  0.00     0.000 A 
ATOM      6  C7  UNL d   1       3.759   4.084  -4.541  0.00  0.00    -0.073 A 
ATOM      7  C8  UNL d   1       2.846   3.042  -3.956  0.00  0.00     0.078 C 
ENDROOT
BRANCH   1   8
ATOM      8  C1  UNL d   1       1.880   5.064  -5.978  0.00  0.00     0.053 C 
ATOM      9  C   UNL d   1       1.004   5.999  -5.159  0.00  0.00     0.018 C 
ENDBRANCH   1   8
TORSDOF 1
ENDMDL
