MODEL 1
REMARK minimizedAffinity 1.55070531
REMARK minimizedRMSD -1
REMARK  1 active torsions:
REMARK  status: ('A' for Active; 'I' for Inactive)
REMARK    1  A    between atoms: C1_2  and  C2_3 
ROOT
ATOM      1  C2  UNL d   1      -1.242   5.835  -3.153  0.00  0.00    -0.076 A 
ATOM      2  C3  UNL d   1      -1.367   5.998  -4.543  0.00  0.00     0.004 A 
ATOM      3  C4  UNL d   1      -0.258   5.893  -5.381  0.00  0.00    -0.003 A 
ATOM      4  C5  UNL d   1       0.995   5.623  -4.841  0.00  0.00     0.000 A 
ATOM      5  C6  UNL d   1       1.135   5.441  -3.465  0.00  0.00     0.000 A 
ATOM      6  C7  UNL d   1       0.024   5.528  -2.609  0.00  0.00    -0.073 A 
ATOM      7  C8  UNL d   1       0.233   5.329  -1.133  0.00  0.00     0.078 C 
ENDROOT
BRANCH   1   8
ATOM      8  C1  UNL d   1      -2.475   5.987  -2.292  0.00  0.00     0.053 C 
ATOM      9  C   UNL d   1      -3.759   5.994  -3.108  0.00  0.00     0.018 C 
ENDBRANCH   1   8
TORSDOF 1
ENDMDL
