MODEL 1
REMARK minimizedAffinity 6.57321119
REMARK minimizedRMSD -1
REMARK  1 active torsions:
REMARK  status: ('A' for Active; 'I' for Inactive)
REMARK    1  A    between atoms: C1_2  and  C2_3 
ROOT
ATOM      1  C2  UNL d   1      -0.961   5.642  -3.875  0.00  0.00    -0.076 A 
ATOM      2  C3  UNL d   1      -2.188   5.825  -4.536  0.00  0.00     0.004 A 
ATOM      3  C4  UNL d   1      -3.370   6.000  -3.819  0.00  0.00    -0.003 A 
ATOM      4  C5  UNL d   1      -3.345   5.996  -2.429  0.00  0.00     0.000 A 
ATOM      5  C6  UNL d   1      -2.134   5.834  -1.756  0.00  0.00     0.000 A 
ATOM      6  C7  UNL d   1      -0.930   5.672  -2.464  0.00  0.00    -0.073 A 
ATOM      7  C8  UNL d   1       0.346   5.495  -1.688  0.00  0.00     0.078 C 
ENDROOT
BRANCH   1   8
ATOM      8  C1  UNL d   1       0.284   5.429  -4.706  0.00  0.00     0.053 C 
ATOM      9  C   UNL d   1       0.182   4.209  -5.608  0.00  0.00     0.018 C 
ENDBRANCH   1   8
TORSDOF 1
ENDMDL
