MODEL 1
REMARK minimizedAffinity 11.0668278
REMARK minimizedRMSD -1
REMARK  1 active torsions:
REMARK  status: ('A' for Active; 'I' for Inactive)
REMARK    1  A    between atoms: C1_2  and  C2_3 
ROOT
ATOM      1  C2  UNL d   1      -1.407   5.971  -3.532  0.00  0.00    -0.076 A 
ATOM      2  C3  UNL d   1      -2.737   5.992  -3.986  0.00  0.00     0.004 A 
ATOM      3  C4  UNL d   1      -3.803   5.994  -3.088  0.00  0.00    -0.003 A 
ATOM      4  C5  UNL d   1      -3.555   5.976  -1.719  0.00  0.00     0.000 A 
ATOM      5  C6  UNL d   1      -2.242   5.973  -1.250  0.00  0.00     0.000 A 
ATOM      6  C7  UNL d   1      -1.156   5.987  -2.143  0.00  0.00    -0.073 A 
ATOM      7  C8  UNL d   1       0.239   5.977  -1.582  0.00  0.00     0.078 C 
ENDROOT
BRANCH   1   8
ATOM      8  C1  UNL d   1      -0.293   5.942  -4.553  0.00  0.00     0.053 C 
ATOM      9  C   UNL d   1       0.017   4.534  -5.037  0.00  0.00     0.018 C 
ENDBRANCH   1   8
TORSDOF 1
ENDMDL
