MODEL 1
REMARK minimizedAffinity 3.57243705
REMARK minimizedRMSD -1
REMARK  1 active torsions:
REMARK  status: ('A' for Active; 'I' for Inactive)
REMARK    1  A    between atoms: C1_2  and  C2_3 
ROOT
ATOM      1  C2  UNL d   1       4.085   3.728  -4.276  0.00  0.00    -0.076 A 
ATOM      2  C3  UNL d   1       3.516   4.963  -4.631  0.00  0.00     0.004 A 
ATOM      3  C4  UNL d   1       4.181   5.841  -5.486  0.00  0.00    -0.003 A 
ATOM      4  C5  UNL d   1       5.427   5.497  -6.000  0.00  0.00     0.000 A 
ATOM      5  C6  UNL d   1       5.998   4.268  -5.672  0.00  0.00     0.000 A 
ATOM      6  C7  UNL d   1       5.334   3.365  -4.825  0.00  0.00    -0.073 A 
ATOM      7  C8  UNL d   1       6.000   2.056  -4.500  0.00  0.00     0.078 C 
ENDROOT
BRANCH   1   8
ATOM      8  C1  UNL d   1       3.330   2.829  -3.323  0.00  0.00     0.053 C 
ATOM      9  C   UNL d   1       2.002   3.429  -2.886  0.00  0.00     0.018 C 
ENDBRANCH   1   8
TORSDOF 1
ENDMDL
