MODEL 1
REMARK minimizedAffinity 10.7925758
REMARK minimizedRMSD -1
REMARK  1 active torsions:
REMARK  status: ('A' for Active; 'I' for Inactive)
REMARK    1  A    between atoms: C1_2  and  C2_3 
ROOT
ATOM      1  C2  UNL d   1       1.054   2.638   0.186  0.00  0.00    -0.076 A 
ATOM      2  C3  UNL d   1       0.323   2.183   1.296  0.00  0.00     0.004 A 
ATOM      3  C4  UNL d   1       0.115   0.821   1.510  0.00  0.00    -0.003 A 
ATOM      4  C5  UNL d   1       0.636  -0.108   0.616  0.00  0.00     0.000 A 
ATOM      5  C6  UNL d   1       1.380   0.325  -0.482  0.00  0.00     0.000 A 
ATOM      6  C7  UNL d   1       1.612   1.693  -0.702  0.00  0.00    -0.073 A 
ATOM      7  C8  UNL d   1       2.416   2.104  -1.906  0.00  0.00     0.078 C 
ENDROOT
BRANCH   1   8
ATOM      8  C1  UNL d   1       1.224   4.127  -0.009  0.00  0.00     0.053 C 
ATOM      9  C   UNL d   1       0.197   4.711  -0.967  0.00  0.00     0.018 C 
ENDBRANCH   1   8
TORSDOF 1
ENDMDL
