MODEL 1
REMARK minimizedAffinity 4.19395733
REMARK minimizedRMSD -1
REMARK  1 active torsions:
REMARK  status: ('A' for Active; 'I' for Inactive)
REMARK    1  A    between atoms: C1_2  and  C2_3 
ROOT
ATOM      1  C2  UNL d   1      -2.132   5.812  -3.765  0.00  0.00    -0.076 A 
ATOM      2  C3  UNL d   1      -0.909   5.859  -3.075  0.00  0.00     0.004 A 
ATOM      3  C4  UNL d   1      -0.868   5.805  -1.683  0.00  0.00    -0.003 A 
ATOM      4  C5  UNL d   1      -2.050   5.702  -0.958  0.00  0.00     0.000 A 
ATOM      5  C6  UNL d   1      -3.272   5.637  -1.627  0.00  0.00     0.000 A 
ATOM      6  C7  UNL d   1      -3.330   5.674  -3.031  0.00  0.00    -0.073 A 
ATOM      7  C8  UNL d   1      -4.675   5.606  -3.700  0.00  0.00     0.078 C 
ENDROOT
BRANCH   1   8
ATOM      8  C1  UNL d   1      -2.116   5.903  -5.274  0.00  0.00     0.053 C 
ATOM      9  C   UNL d   1      -1.120   4.942  -5.905  0.00  0.00     0.018 C 
ENDBRANCH   1   8
TORSDOF 1
ENDMDL
