MODEL 1
REMARK minimizedAffinity 5.60836172
REMARK minimizedRMSD -1
REMARK  1 active torsions:
REMARK  status: ('A' for Active; 'I' for Inactive)
REMARK    1  A    between atoms: C1_2  and  C2_3 
ROOT
ATOM      1  C2  UNL d   1      -1.570   5.959  -2.576  0.00  0.00    -0.076 A 
ATOM      2  C3  UNL d   1      -2.507   5.978  -3.623  0.00  0.00     0.004 A 
ATOM      3  C4  UNL d   1      -3.876   5.998  -3.360  0.00  0.00    -0.003 A 
ATOM      4  C5  UNL d   1      -4.330   6.000  -2.046  0.00  0.00     0.000 A 
ATOM      5  C6  UNL d   1      -3.414   5.999  -0.995  0.00  0.00     0.000 A 
ATOM      6  C7  UNL d   1      -2.030   5.996  -1.242  0.00  0.00    -0.073 A 
ATOM      7  C8  UNL d   1      -1.087   5.989  -0.070  0.00  0.00     0.078 C 
ENDROOT
BRANCH   1   8
ATOM      8  C1  UNL d   1      -0.099   5.911  -2.921  0.00  0.00     0.053 C 
ATOM      9  C   UNL d   1       0.144   5.766  -4.415  0.00  0.00     0.018 C 
ENDBRANCH   1   8
TORSDOF 1
ENDMDL
