MODEL 1
REMARK minimizedAffinity -1.43572628
REMARK minimizedRMSD -1
REMARK  1 active torsions:
REMARK  status: ('A' for Active; 'I' for Inactive)
REMARK    1  A    between atoms: C1_2  and  C2_3 
ROOT
ATOM      1  C2  UNL d   1      -0.885   5.988  -3.318  0.00  0.00    -0.076 A 
ATOM      2  C3  UNL d   1       0.486   5.988  -3.627  0.00  0.00     0.004 A 
ATOM      3  C4  UNL d   1       0.923   5.954  -4.950  0.00  0.00    -0.003 A 
ATOM      4  C5  UNL d   1      -0.004   5.921  -5.986  0.00  0.00     0.000 A 
ATOM      5  C6  UNL d   1      -1.369   5.939  -5.698  0.00  0.00     0.000 A 
ATOM      6  C7  UNL d   1      -1.826   5.989  -4.370  0.00  0.00    -0.073 A 
ATOM      7  C8  UNL d   1      -3.309   5.999  -4.117  0.00  0.00     0.078 C 
ENDROOT
BRANCH   1   8
ATOM      8  C1  UNL d   1      -1.300   5.997  -1.864  0.00  0.00     0.053 C 
ATOM      9  C   UNL d   1      -2.811   5.998  -1.689  0.00  0.00     0.018 C 
ENDBRANCH   1   8
TORSDOF 1
ENDMDL
