MODEL 1
REMARK minimizedAffinity -0.808041275
REMARK minimizedRMSD -1
REMARK  1 active torsions:
REMARK  status: ('A' for Active; 'I' for Inactive)
REMARK    1  A    between atoms: C1_2  and  C2_3 
ROOT
ATOM      1  C2  UNL d   1      -0.004   5.751  -3.345  0.00  0.00    -0.076 A 
ATOM      2  C3  UNL d   1       1.347   6.000  -3.643  0.00  0.00     0.004 A 
ATOM      3  C4  UNL d   1       1.810   5.968  -4.957  0.00  0.00    -0.003 A 
ATOM      4  C5  UNL d   1       0.928   5.687  -5.995  0.00  0.00     0.000 A 
ATOM      5  C6  UNL d   1      -0.419   5.455  -5.720  0.00  0.00     0.000 A 
ATOM      6  C7  UNL d   1      -0.905   5.500  -4.402  0.00  0.00    -0.073 A 
ATOM      7  C8  UNL d   1      -2.366   5.236  -4.162  0.00  0.00     0.078 C 
ENDROOT
BRANCH   1   8
ATOM      8  C1  UNL d   1      -0.443   5.772  -1.898  0.00  0.00     0.053 C 
ATOM      9  C   UNL d   1      -0.028   4.518  -1.145  0.00  0.00     0.018 C 
ENDBRANCH   1   8
TORSDOF 1
ENDMDL
