MODEL 1
REMARK minimizedAffinity 0.771967709
REMARK minimizedRMSD -1
REMARK  1 active torsions:
REMARK  status: ('A' for Active; 'I' for Inactive)
REMARK    1  A    between atoms: C1_2  and  C2_3 
ROOT
ATOM      1  C2  UNL d   1      -1.648   5.968  -3.585  0.00  0.00    -0.076 A 
ATOM      2  C3  UNL d   1      -2.657   5.985  -4.564  0.00  0.00     0.004 A 
ATOM      3  C4  UNL d   1      -4.004   5.999  -4.206  0.00  0.00    -0.003 A 
ATOM      4  C5  UNL d   1      -4.364   5.997  -2.863  0.00  0.00     0.000 A 
ATOM      5  C6  UNL d   1      -3.376   5.998  -1.878  0.00  0.00     0.000 A 
ATOM      6  C7  UNL d   1      -2.014   6.000  -2.222  0.00  0.00    -0.073 A 
ATOM      7  C8  UNL d   1      -0.991   5.995  -1.119  0.00  0.00     0.078 C 
ENDROOT
BRANCH   1   8
ATOM      8  C1  UNL d   1      -0.204   5.925  -4.033  0.00  0.00     0.053 C 
ATOM      9  C   UNL d   1      -0.061   5.997  -5.545  0.00  0.00     0.018 C 
ENDBRANCH   1   8
TORSDOF 1
ENDMDL
