MODEL 1
REMARK minimizedAffinity -1.53994501
REMARK minimizedRMSD -1
REMARK  1 active torsions:
REMARK  status: ('A' for Active; 'I' for Inactive)
REMARK    1  A    between atoms: C1_2  and  C2_3 
ROOT
ATOM      1  C2  UNL d   1       2.244   4.933  -5.295  0.00  0.00    -0.076 A 
ATOM      2  C3  UNL d   1       2.927   5.988  -5.925  0.00  0.00     0.004 A 
ATOM      3  C4  UNL d   1       4.319   5.999  -6.000  0.00  0.00    -0.003 A 
ATOM      4  C5  UNL d   1       5.051   4.954  -5.447  0.00  0.00     0.000 A 
ATOM      5  C6  UNL d   1       4.389   3.890  -4.834  0.00  0.00     0.000 A 
ATOM      6  C7  UNL d   1       2.986   3.856  -4.764  0.00  0.00    -0.073 A 
ATOM      7  C8  UNL d   1       2.325   2.687  -4.086  0.00  0.00     0.078 C 
ENDROOT
BRANCH   1   8
ATOM      8  C1  UNL d   1       0.735   4.989  -5.219  0.00  0.00     0.053 C 
ATOM      9  C   UNL d   1       0.240   5.645  -3.940  0.00  0.00     0.018 C 
ENDBRANCH   1   8
TORSDOF 1
ENDMDL
