MODEL 1
REMARK minimizedAffinity 5.05232573
REMARK minimizedRMSD -1
REMARK  1 active torsions:
REMARK  status: ('A' for Active; 'I' for Inactive)
REMARK    1  A    between atoms: C1_2  and  C2_3 
ROOT
ATOM      1  C2  UNL d   1       2.265   5.245  -5.741  0.00  0.00    -0.076 A 
ATOM      2  C3  UNL d   1       3.430   6.000  -5.964  0.00  0.00     0.004 A 
ATOM      3  C4  UNL d   1       4.692   5.461  -5.719  0.00  0.00    -0.003 A 
ATOM      4  C5  UNL d   1       4.809   4.158  -5.249  0.00  0.00     0.000 A 
ATOM      5  C6  UNL d   1       3.666   3.388  -5.039  0.00  0.00     0.000 A 
ATOM      6  C7  UNL d   1       2.386   3.911  -5.296  0.00  0.00    -0.073 A 
ATOM      7  C8  UNL d   1       1.187   3.039  -5.046  0.00  0.00     0.078 C 
ENDROOT
BRANCH   1   8
ATOM      8  C1  UNL d   1       0.922   5.891  -5.998  0.00  0.00     0.053 C 
ATOM      9  C   UNL d   1       0.077   6.000  -4.738  0.00  0.00     0.018 C 
ENDBRANCH   1   8
TORSDOF 1
ENDMDL
