MODEL 1
REMARK minimizedAffinity -3.93380189
REMARK minimizedRMSD -1
REMARK  0 active torsions:
REMARK  status: ('A' for Active; 'I' for Inactive)
ROOT
ATOM      1  C4' PXY d   1      -1.718  -0.341  -1.403  0.00  0.00     0.077 C 
ATOM      2  C1' PXY d   1       2.786   1.434   1.756  0.00  0.00     0.077 C 
ATOM      3  C1  PXY d   1       1.597   0.976   0.934  0.00  0.00    -0.082 A 
ATOM      4  C2  PXY d   1       1.627  -0.207   0.343  0.00  0.00     0.003 A 
ATOM      5  C3  PXY d   1       0.574  -0.623  -0.430  0.00  0.00     0.003 A 
ATOM      6  C4  PXY d   1      -0.544   0.158  -0.556  0.00  0.00    -0.082 A 
ATOM      7  C5  PXY d   1      -0.586   1.362   0.052  0.00  0.00     0.003 A 
ATOM      8  C6  PXY d   1       0.510   1.783   0.799  0.00  0.00     0.003 A 
ENDROOT
TORSDOF 0
ENDMDL
