MODEL 1
REMARK minimizedAffinity -2.09267569
REMARK minimizedRMSD -1
REMARK  0 active torsions:
REMARK  status: ('A' for Active; 'I' for Inactive)
ROOT
ATOM      1  C4' PXY d   1      -2.021  -0.303  -0.032  0.00  0.00     0.077 C 
ATOM      2  C1' PXY d   1       3.747   0.002   0.200  0.00  0.00     0.077 C 
ATOM      3  C1  PXY d   1       2.235  -0.091   0.137  0.00  0.00    -0.082 A 
ATOM      4  C2  PXY d   1       1.528   0.977  -0.195  0.00  0.00     0.003 A 
ATOM      5  C3  PXY d   1       0.158   0.919  -0.226  0.00  0.00     0.003 A 
ATOM      6  C4  PXY d   1      -0.492  -0.258   0.035  0.00  0.00    -0.082 A 
ATOM      7  C5  PXY d   1       0.224  -1.354   0.365  0.00  0.00     0.003 A 
ATOM      8  C6  PXY d   1       1.611  -1.264   0.430  0.00  0.00     0.003 A 
ENDROOT
TORSDOF 0
ENDMDL
