MODEL 1
REMARK minimizedAffinity 2.23967457
REMARK minimizedRMSD -1
REMARK  0 active torsions:
REMARK  status: ('A' for Active; 'I' for Inactive)
ROOT
ATOM      1  C4' PXY d   1       3.042  -0.242   2.157  0.00  0.00     0.077 C 
ATOM      2  C1' PXY d   1      -1.764  -2.851   0.283  0.00  0.00     0.077 C 
ATOM      3  C1  PXY d   1      -0.503  -2.160   0.763  0.00  0.00    -0.082 A 
ATOM      4  C2  PXY d   1       0.248  -2.738   1.686  0.00  0.00     0.003 A 
ATOM      5  C3  PXY d   1       1.375  -2.112   2.155  0.00  0.00     0.003 A 
ATOM      6  C4  PXY d   1       1.765  -0.907   1.635  0.00  0.00    -0.082 A 
ATOM      7  C5  PXY d   1       1.009  -0.316   0.686  0.00  0.00     0.003 A 
ATOM      8  C6  PXY d   1      -0.153  -0.948   0.253  0.00  0.00     0.003 A 
ENDROOT
TORSDOF 0
ENDMDL
