MODEL 1
REMARK minimizedAffinity -5.27075386
REMARK minimizedRMSD -1
REMARK  0 active torsions:
REMARK  status: ('A' for Active; 'I' for Inactive)
ROOT
ATOM      1  C4' PXY d   1      -1.512   0.489  -0.827  0.00  0.00     0.077 C 
ATOM      2  C1' PXY d   1       3.639  -0.406   1.639  0.00  0.00     0.077 C 
ATOM      3  C1  PXY d   1       2.288  -0.159   0.996  0.00  0.00    -0.082 A 
ATOM      4  C2  PXY d   1       1.474  -1.178   0.772  0.00  0.00     0.003 A 
ATOM      5  C3  PXY d   1       0.263  -0.976   0.163  0.00  0.00     0.003 A 
ATOM      6  C4  PXY d   1      -0.143   0.288  -0.172  0.00  0.00    -0.082 A 
ATOM      7  C5  PXY d   1       0.678   1.334   0.063  0.00  0.00     0.003 A 
ATOM      8  C6  PXY d   1       1.921   1.103   0.645  0.00  0.00     0.003 A 
ENDROOT
TORSDOF 0
ENDMDL
