MODEL 1
REMARK minimizedAffinity -6.03526354
REMARK minimizedRMSD -1
REMARK  0 active torsions:
REMARK  status: ('A' for Active; 'I' for Inactive)
ROOT
ATOM      1  C4' PXY d   1      -1.835   0.028  -0.060  0.00  0.00     0.077 C 
ATOM      2  C1' PXY d   1       3.517  -1.034   1.851  0.00  0.00     0.077 C 
ATOM      3  C1  PXY d   1       2.115  -0.743   1.351  0.00  0.00    -0.082 A 
ATOM      4  C2  PXY d   1       1.163  -1.647   1.509  0.00  0.00     0.003 A 
ATOM      5  C3  PXY d   1      -0.102  -1.414   1.034  0.00  0.00     0.003 A 
ATOM      6  C4  PXY d   1      -0.408  -0.220   0.438  0.00  0.00    -0.082 A 
ATOM      7  C5  PXY d   1       0.556   0.713   0.282  0.00  0.00     0.003 A 
ATOM      8  C6  PXY d   1       1.843   0.439   0.735  0.00  0.00     0.003 A 
ENDROOT
TORSDOF 0
ENDMDL
