MODEL 1
REMARK minimizedAffinity -4.25316525
REMARK minimizedRMSD -1
REMARK  0 active torsions:
REMARK  status: ('A' for Active; 'I' for Inactive)
ROOT
ATOM      1  C4' PXY d   1       3.846  -1.030   0.667  0.00  0.00     0.077 C 
ATOM      2  C1' PXY d   1      -1.630   0.586  -0.233  0.00  0.00     0.077 C 
ATOM      3  C1  PXY d   1      -0.190   0.174  -0.002  0.00  0.00    -0.082 A 
ATOM      4  C2  PXY d   1       0.118  -1.111   0.079  0.00  0.00     0.003 A 
ATOM      5  C3  PXY d   1       1.410  -1.500   0.319  0.00  0.00     0.003 A 
ATOM      6  C4  PXY d   1       2.407  -0.567   0.425  0.00  0.00    -0.082 A 
ATOM      7  C5  PXY d   1       2.103   0.745   0.333  0.00  0.00     0.003 A 
ATOM      8  C6  PXY d   1       0.778   1.121   0.130  0.00  0.00     0.003 A 
ENDROOT
TORSDOF 0
ENDMDL
