MODEL 1
REMARK minimizedAffinity -3.32902837
REMARK minimizedRMSD -1
REMARK  0 active torsions:
REMARK  status: ('A' for Active; 'I' for Inactive)
ROOT
ATOM      1  C4' PXY d   1      -1.579   1.243  -0.801  0.00  0.00     0.077 C 
ATOM      2  C1' PXY d   1       3.539  -0.843   0.893  0.00  0.00     0.077 C 
ATOM      3  C1  PXY d   1       2.194  -0.308   0.445  0.00  0.00    -0.082 A 
ATOM      4  C2  PXY d   1       2.066   0.974   0.145  0.00  0.00     0.003 A 
ATOM      5  C3  PXY d   1       0.849   1.481  -0.231  0.00  0.00     0.003 A 
ATOM      6  C4  PXY d   1      -0.237   0.657  -0.353  0.00  0.00    -0.082 A 
ATOM      7  C5  PXY d   1      -0.113  -0.655  -0.060  0.00  0.00     0.003 A 
ATOM      8  C6  PXY d   1       1.122  -1.142   0.360  0.00  0.00     0.003 A 
ENDROOT
TORSDOF 0
ENDMDL
