MODEL 1
REMARK minimizedAffinity -5.56013775
REMARK minimizedRMSD -1
REMARK  0 active torsions:
REMARK  status: ('A' for Active; 'I' for Inactive)
ROOT
ATOM      1  C4' PXY d   1      -2.511  -0.935  -1.595  0.00  0.00     0.077 C 
ATOM      2  C1' PXY d   1       2.346   1.434   0.458  0.00  0.00     0.077 C 
ATOM      3  C1  PXY d   1       1.078   0.811  -0.092  0.00  0.00    -0.082 A 
ATOM      4  C2  PXY d   1      -0.083   1.074   0.485  0.00  0.00     0.003 A 
ATOM      5  C3  PXY d   1      -1.236   0.495   0.020  0.00  0.00     0.003 A 
ATOM      6  C4  PXY d   1      -1.206  -0.321  -1.079  0.00  0.00    -0.082 A 
ATOM      7  C5  PXY d   1      -0.027  -0.586  -1.679  0.00  0.00     0.003 A 
ATOM      8  C6  PXY d   1       1.137  -0.021  -1.167  0.00  0.00     0.003 A 
ENDROOT
TORSDOF 0
ENDMDL
