MODEL 1
REMARK minimizedAffinity -4.28365898
REMARK minimizedRMSD -1
REMARK  0 active torsions:
REMARK  status: ('A' for Active; 'I' for Inactive)
ROOT
ATOM      1  C4' PXY d   1       0.861  -2.846   2.111  0.00  0.00     0.077 C 
ATOM      2  C1' PXY d   1       2.027   2.413   0.015  0.00  0.00     0.077 C 
ATOM      3  C1  PXY d   1       1.734   1.031   0.564  0.00  0.00    -0.082 A 
ATOM      4  C2  PXY d   1       0.525   0.512   0.419  0.00  0.00     0.003 A 
ATOM      5  C3  PXY d   1       0.234  -0.723   0.938  0.00  0.00     0.003 A 
ATOM      6  C4  PXY d   1       1.205  -1.458   1.564  0.00  0.00    -0.082 A 
ATOM      7  C5  PXY d   1       2.443  -0.940   1.707  0.00  0.00     0.003 A 
ATOM      8  C6  PXY d   1       2.707   0.333   1.209  0.00  0.00     0.003 A 
ENDROOT
TORSDOF 0
ENDMDL
