MODEL 1
REMARK minimizedAffinity -2.51287055
REMARK minimizedRMSD -1
REMARK  0 active torsions:
REMARK  status: ('A' for Active; 'I' for Inactive)
ROOT
ATOM      1  C4' PXY d   1      -3.256   0.531  -1.377  0.00  0.00     0.077 C 
ATOM      2  C1' PXY d   1       1.932  -0.596   0.909  0.00  0.00     0.077 C 
ATOM      3  C1  PXY d   1       0.571  -0.290   0.317  0.00  0.00    -0.082 A 
ATOM      4  C2  PXY d   1      -0.156  -1.270  -0.194  0.00  0.00     0.003 A 
ATOM      5  C3  PXY d   1      -1.375  -1.006  -0.763  0.00  0.00     0.003 A 
ATOM      6  C4  PXY d   1      -1.880   0.267  -0.760  0.00  0.00    -0.082 A 
ATOM      7  C5  PXY d   1      -1.149   1.271  -0.231  0.00  0.00     0.003 A 
ATOM      8  C6  PXY d   1       0.104   0.989   0.304  0.00  0.00     0.003 A 
ENDROOT
TORSDOF 0
ENDMDL
