MODEL 1
REMARK minimizedAffinity -5.00558329
REMARK minimizedRMSD -1
REMARK  1 active torsions:
REMARK  status: ('A' for Active; 'I' for Inactive)
REMARK    1  A    between atoms: C1_2  and  C2_3 
ROOT
ATOM      1  C2  UNL d   1       0.598  -0.242   1.394  0.00  0.00    -0.077 A 
ATOM      2  C3  UNL d   1       1.004  -0.615   2.683  0.00  0.00     0.002 A 
ATOM      3  C4  UNL d   1       0.195  -0.338   3.787  0.00  0.00     0.002 A 
ATOM      4  C5  UNL d   1      -1.026   0.310   3.612  0.00  0.00    -0.004 A 
ATOM      5  C6  UNL d   1      -1.438   0.687   2.334  0.00  0.00     0.002 A 
ATOM      6  C7  UNL d   1      -0.630   0.412   1.230  0.00  0.00     0.002 A 
ENDROOT
BRANCH   1   7
ATOM      7  C1  UNL d   1       1.447  -0.584   0.198  0.00  0.00     0.055 C 
ATOM      8  C   UNL d   1       2.889  -0.142   0.397  0.00  0.00     0.019 C 
ENDBRANCH   1   7
TORSDOF 1
ENDMDL
