MODEL 1
REMARK minimizedAffinity 2.31752014
REMARK minimizedRMSD -1
REMARK  1 active torsions:
REMARK  status: ('A' for Active; 'I' for Inactive)
REMARK    1  A    between atoms: C1_2  and  C2_3 
ROOT
ATOM      1  C2  UNL d   1      -1.619   0.752   0.995  0.00  0.00    -0.077 A 
ATOM      2  C3  UNL d   1      -0.537   0.016   0.493  0.00  0.00     0.002 A 
ATOM      3  C4  UNL d   1      -0.718  -0.866  -0.574  0.00  0.00     0.002 A 
ATOM      4  C5  UNL d   1      -1.977  -1.017  -1.150  0.00  0.00    -0.004 A 
ATOM      5  C6  UNL d   1      -3.060  -0.290  -0.657  0.00  0.00     0.002 A 
ATOM      6  C7  UNL d   1      -2.882   0.591   0.411  0.00  0.00     0.002 A 
ENDROOT
BRANCH   1   7
ATOM      7  C1  UNL d   1      -1.417   1.740   2.114  0.00  0.00     0.055 C 
ATOM      8  C   UNL d   1      -0.533   2.899   1.676  0.00  0.00     0.019 C 
ENDBRANCH   1   7
TORSDOF 1
ENDMDL
