MODEL 1
REMARK minimizedAffinity -2.6581645
REMARK minimizedRMSD -1
REMARK  1 active torsions:
REMARK  status: ('A' for Active; 'I' for Inactive)
REMARK    1  A    between atoms: C1_2  and  C2_3 
ROOT
ATOM      1  C2  UNL d   1      -0.335  -0.265   2.113  0.00  0.00    -0.077 A 
ATOM      2  C3  UNL d   1      -1.636  -0.554   1.678  0.00  0.00     0.002 A 
ATOM      3  C4  UNL d   1      -1.916  -0.665   0.314  0.00  0.00     0.002 A 
ATOM      4  C5  UNL d   1      -0.900  -0.493  -0.623  0.00  0.00    -0.004 A 
ATOM      5  C6  UNL d   1       0.397  -0.204  -0.200  0.00  0.00     0.002 A 
ATOM      6  C7  UNL d   1       0.678  -0.091   1.162  0.00  0.00     0.002 A 
ENDROOT
BRANCH   1   7
ATOM      7  C1  UNL d   1      -0.021  -0.193   3.585  0.00  0.00     0.055 C 
ATOM      8  C   UNL d   1       0.748  -1.422   4.047  0.00  0.00     0.019 C 
ENDBRANCH   1   7
TORSDOF 1
ENDMDL
