MODEL 1
REMARK minimizedAffinity 8.20150566
REMARK minimizedRMSD -1
REMARK  1 active torsions:
REMARK  status: ('A' for Active; 'I' for Inactive)
REMARK    1  A    between atoms: C1_2  and  C2_3 
ROOT
ATOM      1  C2  UNL d   1       3.850   3.553   3.030  0.00  0.00    -0.077 A 
ATOM      2  C3  UNL d   1       5.137   4.105   3.096  0.00  0.00     0.002 A 
ATOM      3  C4  UNL d   1       6.000   3.763   4.139  0.00  0.00     0.002 A 
ATOM      4  C5  UNL d   1       5.587   2.865   5.121  0.00  0.00    -0.004 A 
ATOM      5  C6  UNL d   1       4.308   2.312   5.066  0.00  0.00     0.002 A 
ATOM      6  C7  UNL d   1       3.444   2.653   4.025  0.00  0.00     0.002 A 
ENDROOT
BRANCH   1   7
ATOM      7  C1  UNL d   1       2.936   3.882   1.879  0.00  0.00     0.055 C 
ATOM      8  C   UNL d   1       1.860   2.820   1.706  0.00  0.00     0.019 C 
ENDBRANCH   1   7
TORSDOF 1
ENDMDL
