MODEL 1
REMARK minimizedAffinity 15.2022762
REMARK minimizedRMSD -1
REMARK  0 active torsions:
REMARK  status: ('A' for Active; 'I' for Inactive)
ROOT
ATOM      1  N1  IND d   1      -2.312   1.231  -4.173  0.00  0.00    -0.196 N 
ATOM      2  C2  IND d   1      -1.956   0.242  -3.299  0.00  0.00     0.054 A 
ATOM      3  C3  IND d   1      -2.223   0.620  -2.028  0.00  0.00    -0.031 A 
ATOM      4  C4  IND d   1      -3.335   2.774  -1.161  0.00  0.00     0.051 A 
ATOM      5  C5  IND d   1      -3.802   3.989  -1.579  0.00  0.00    -0.031 A 
ATOM      6  C6  IND d   1      -3.797   4.353  -2.910  0.00  0.00     0.015 A 
ATOM      7  C7  IND d   1      -3.335   3.507  -3.878  0.00  0.00    -0.016 A 
ATOM      8  C8  IND d   1      -2.855   2.276  -3.457  0.00  0.00    -0.047 A 
ATOM      9  C9  IND d   1      -2.817   1.917  -2.104  0.00  0.00    -0.096 A 
ATOM     10  HN1 IND d   1      -2.213   1.206  -5.027  0.00  0.00     0.298 HD
ENDROOT
TORSDOF 0
ENDMDL
