MODEL 1
REMARK minimizedAffinity 12.1055927
REMARK minimizedRMSD -1
REMARK  0 active torsions:
REMARK  status: ('A' for Active; 'I' for Inactive)
ROOT
ATOM      1  N1  IND d   1       0.897  -0.199   3.645  0.00  0.00    -0.196 N 
ATOM      2  C2  IND d   1       2.015  -0.529   4.359  0.00  0.00     0.054 A 
ATOM      3  C3  IND d   1       2.320  -1.834   4.180  0.00  0.00    -0.031 A 
ATOM      4  C4  IND d   1       1.182  -3.588   2.679  0.00  0.00     0.051 A 
ATOM      5  C5  IND d   1       0.101  -3.769   1.863  0.00  0.00    -0.031 A 
ATOM      6  C6  IND d   1      -0.786  -2.748   1.591  0.00  0.00     0.015 A 
ATOM      7  C7  IND d   1      -0.618  -1.499   2.119  0.00  0.00    -0.016 A 
ATOM      8  C8  IND d   1       0.474  -1.314   2.954  0.00  0.00    -0.047 A 
ATOM      9  C9  IND d   1       1.354  -2.358   3.267  0.00  0.00    -0.096 A 
ATOM     10  HN1 IND d   1       0.521   0.574   3.630  0.00  0.00     0.298 HD
ENDROOT
TORSDOF 0
ENDMDL
