MODEL 1
REMARK minimizedAffinity 17.3454876
REMARK minimizedRMSD -1
REMARK  0 active torsions:
REMARK  status: ('A' for Active; 'I' for Inactive)
ROOT
ATOM      1  N1  IND d   1       3.522  -4.381  -6.000  0.00  0.00    -0.196 N 
ATOM      2  C2  IND d   1       3.080  -5.228  -5.022  0.00  0.00     0.054 A 
ATOM      3  C3  IND d   1       3.061  -4.597  -3.826  0.00  0.00    -0.031 A 
ATOM      4  C4  IND d   1       3.617  -2.148  -3.260  0.00  0.00     0.051 A 
ATOM      5  C5  IND d   1       4.102  -0.998  -3.816  0.00  0.00    -0.031 A 
ATOM      6  C6  IND d   1       4.422  -0.913  -5.155  0.00  0.00     0.015 A 
ATOM      7  C7  IND d   1       4.258  -1.978  -5.995  0.00  0.00    -0.016 A 
ATOM      8  C8  IND d   1       3.773  -3.150  -5.433  0.00  0.00    -0.047 A 
ATOM      9  C9  IND d   1       3.486  -3.255  -4.066  0.00  0.00    -0.096 A 
ATOM     10  HN1 IND d   1       3.627  -4.583  -6.829  0.00  0.00     0.298 HD
ENDROOT
TORSDOF 0
ENDMDL
