MODEL 1
REMARK minimizedAffinity 25.1592464
REMARK minimizedRMSD -1
REMARK  0 active torsions:
REMARK  status: ('A' for Active; 'I' for Inactive)
ROOT
ATOM      1  N1  IND d   1      -3.121   3.311  -4.410  0.00  0.00    -0.196 N 
ATOM      2  C2  IND d   1      -3.880   4.116  -3.607  0.00  0.00     0.054 A 
ATOM      3  C3  IND d   1      -4.255   3.449  -2.493  0.00  0.00    -0.031 A 
ATOM      4  C4  IND d   1      -3.652   1.065  -1.731  0.00  0.00     0.051 A 
ATOM      5  C5  IND d   1      -3.011  -0.068  -2.147  0.00  0.00    -0.031 A 
ATOM      6  C6  IND d   1      -2.359  -0.134  -3.361  0.00  0.00     0.015 A 
ATOM      7  C7  IND d   1      -2.313   0.940  -4.204  0.00  0.00    -0.016 A 
ATOM      8  C8  IND d   1      -2.968   2.091  -3.789  0.00  0.00    -0.047 A 
ATOM      9  C9  IND d   1      -3.668   2.150  -2.576  0.00  0.00    -0.096 A 
ATOM     10  HN1 IND d   1      -2.793   3.530  -5.174  0.00  0.00     0.298 HD
ENDROOT
TORSDOF 0
ENDMDL
