MODEL 1
REMARK minimizedAffinity 13.638833
REMARK minimizedRMSD -1
REMARK  0 active torsions:
REMARK  status: ('A' for Active; 'I' for Inactive)
ROOT
ATOM      1  N1  IND d   1      -1.568  -1.443   0.176  0.00  0.00    -0.196 N 
ATOM      2  C2  IND d   1      -1.533  -0.526   1.190  0.00  0.00     0.054 A 
ATOM      3  C3  IND d   1      -1.822   0.708   0.718  0.00  0.00    -0.031 A 
ATOM      4  C4  IND d   1      -2.481   1.436  -1.662  0.00  0.00     0.051 A 
ATOM      5  C5  IND d   1      -2.612   0.960  -2.936  0.00  0.00    -0.031 A 
ATOM      6  C6  IND d   1      -2.401  -0.369  -3.244  0.00  0.00     0.015 A 
ATOM      7  C7  IND d   1      -2.060  -1.277  -2.282  0.00  0.00    -0.016 A 
ATOM      8  C8  IND d   1      -1.918  -0.796  -0.988  0.00  0.00    -0.047 A 
ATOM      9  C9  IND d   1      -2.090   0.559  -0.678  0.00  0.00    -0.096 A 
ATOM     10  HN1 IND d   1      -1.399  -2.283   0.253  0.00  0.00     0.298 HD
ENDROOT
TORSDOF 0
ENDMDL
