MODEL 1
REMARK minimizedAffinity 16.3732548
REMARK minimizedRMSD -1
REMARK  0 active torsions:
REMARK  status: ('A' for Active; 'I' for Inactive)
ROOT
ATOM      1  N1  IND d   1       2.034   5.991  -0.155  0.00  0.00    -0.196 N 
ATOM      2  C2  IND d   1       2.896   4.996  -0.521  0.00  0.00     0.054 A 
ATOM      3  C3  IND d   1       2.371   3.786  -0.224  0.00  0.00    -0.031 A 
ATOM      4  C4  IND d   1       0.070   3.201   0.770  0.00  0.00     0.051 A 
ATOM      5  C5  IND d   1      -1.052   3.774   1.300  0.00  0.00    -0.031 A 
ATOM      6  C6  IND d   1      -1.207   5.144   1.371  0.00  0.00     0.015 A 
ATOM      7  C7  IND d   1      -0.246   5.994   0.902  0.00  0.00    -0.016 A 
ATOM      8  C8  IND d   1       0.898   5.416   0.370  0.00  0.00    -0.047 A 
ATOM      9  C9  IND d   1       1.079   4.027   0.334  0.00  0.00    -0.096 A 
ATOM     10  HN1 IND d   1       2.177   6.835  -0.238  0.00  0.00     0.298 HD
ENDROOT
TORSDOF 0
ENDMDL
