MODEL 1
REMARK minimizedAffinity 7.30374622
REMARK minimizedRMSD -1
REMARK  0 active torsions:
REMARK  status: ('A' for Active; 'I' for Inactive)
ROOT
ATOM      1  N1  IND d   1      -3.454   2.733  -4.129  0.00  0.00    -0.196 N 
ATOM      2  C2  IND d   1      -3.876   3.664  -3.222  0.00  0.00     0.054 A 
ATOM      3  C3  IND d   1      -3.714   3.200  -1.962  0.00  0.00    -0.031 A 
ATOM      4  C4  IND d   1      -2.681   0.984  -1.156  0.00  0.00     0.051 A 
ATOM      5  C5  IND d   1      -2.187  -0.205  -1.616  0.00  0.00    -0.031 A 
ATOM      6  C6  IND d   1      -2.084  -0.479  -2.964  0.00  0.00     0.015 A 
ATOM      7  C7  IND d   1      -2.465   0.434  -3.907  0.00  0.00    -0.016 A 
ATOM      8  C8  IND d   1      -2.974   1.638  -3.444  0.00  0.00    -0.047 A 
ATOM      9  C9  IND d   1      -3.120   1.906  -2.077  0.00  0.00    -0.096 A 
ATOM     10  HN1 IND d   1      -3.484   2.816  -4.985  0.00  0.00     0.298 HD
ENDROOT
TORSDOF 0
ENDMDL
