MODEL 1
REMARK minimizedAffinity 14.5009193
REMARK minimizedRMSD -1
REMARK  0 active torsions:
REMARK  status: ('A' for Active; 'I' for Inactive)
ROOT
ATOM      1  N1  IND d   1      -2.151  -2.256  -2.404  0.00  0.00    -0.196 N 
ATOM      2  C2  IND d   1      -3.219  -2.791  -3.069  0.00  0.00     0.054 A 
ATOM      3  C3  IND d   1      -3.824  -1.846  -3.823  0.00  0.00    -0.031 A 
ATOM      4  C4  IND d   1      -3.172   0.617  -4.194  0.00  0.00     0.051 A 
ATOM      5  C5  IND d   1      -2.292   1.573  -3.772  0.00  0.00    -0.031 A 
ATOM      6  C6  IND d   1      -1.298   1.295  -2.856  0.00  0.00     0.015 A 
ATOM      7  C7  IND d   1      -1.139   0.043  -2.334  0.00  0.00    -0.016 A 
ATOM      8  C8  IND d   1      -2.036  -0.929  -2.755  0.00  0.00    -0.047 A 
ATOM      9  C9  IND d   1      -3.073  -0.643  -3.652  0.00  0.00    -0.096 A 
ATOM     10  HN1 IND d   1      -1.638  -2.678  -1.858  0.00  0.00     0.298 HD
ENDROOT
TORSDOF 0
ENDMDL
