MODEL 1
REMARK minimizedAffinity 3.5033462
REMARK minimizedRMSD -1
REMARK  0 active torsions:
REMARK  status: ('A' for Active; 'I' for Inactive)
ROOT
ATOM      1  N1  IND d   1      -0.040  -1.112  -3.543  0.00  0.00    -0.196 N 
ATOM      2  C2  IND d   1       0.131  -0.188  -2.550  0.00  0.00     0.054 A 
ATOM      3  C3  IND d   1      -1.068   0.255  -2.109  0.00  0.00    -0.031 A 
ATOM      4  C4  IND d   1      -3.438  -0.473  -2.803  0.00  0.00     0.051 A 
ATOM      5  C5  IND d   1      -4.103  -1.263  -3.698  0.00  0.00    -0.031 A 
ATOM      6  C6  IND d   1      -3.435  -2.061  -4.604  0.00  0.00     0.015 A 
ATOM      7  C7  IND d   1      -2.070  -2.108  -4.641  0.00  0.00    -0.016 A 
ATOM      8  C8  IND d   1      -1.391  -1.302  -3.738  0.00  0.00    -0.047 A 
ATOM      9  C9  IND d   1      -2.063  -0.458  -2.845  0.00  0.00    -0.096 A 
ATOM     10  HN1 IND d   1       0.590  -1.508  -3.974  0.00  0.00     0.298 HD
ENDROOT
TORSDOF 0
ENDMDL
