MODEL 1
REMARK minimizedAffinity -2.80907321
REMARK minimizedRMSD -1
REMARK  0 active torsions:
REMARK  status: ('A' for Active; 'I' for Inactive)
ROOT
ATOM      1  C   UNL d   1       1.947   0.504  -1.551  0.00  0.00     0.172 C 
ATOM      2  N   UNL d   1       0.927   0.031  -0.646  0.00  0.00    -0.070 N 
ATOM      3  C1  UNL d   1       0.341  -1.206  -0.680  0.00  0.00    -0.004 A 
ATOM      4  C2  UNL d   1      -0.578  -1.266   0.346  0.00  0.00    -0.047 A 
ATOM      5  C3  UNL d   1      -0.544  -0.021   1.018  0.00  0.00    -0.047 A 
ATOM      6  C4  UNL d   1       0.396   0.763   0.384  0.00  0.00    -0.004 A 
ENDROOT
TORSDOF 0
ENDMDL
