MODEL 1
REMARK minimizedAffinity -3.37663937
REMARK minimizedRMSD -1
REMARK  0 active torsions:
REMARK  status: ('A' for Active; 'I' for Inactive)
ROOT
ATOM      1  C   UNL d   1       1.917  -2.675  -1.538  0.00  0.00     0.172 C 
ATOM      2  N   UNL d   1       1.356  -1.374  -1.259  0.00  0.00    -0.070 N 
ATOM      3  C1  UNL d   1       0.264  -1.128  -0.470  0.00  0.00    -0.004 A 
ATOM      4  C2  UNL d   1       0.052   0.234  -0.457  0.00  0.00    -0.047 A 
ATOM      5  C3  UNL d   1       1.051   0.826  -1.266  0.00  0.00    -0.047 A 
ATOM      6  C4  UNL d   1       1.845  -0.192  -1.750  0.00  0.00    -0.004 A 
ENDROOT
TORSDOF 0
ENDMDL
