MODEL 1
REMARK minimizedAffinity -2.5093236
REMARK minimizedRMSD -1
REMARK  0 active torsions:
REMARK  status: ('A' for Active; 'I' for Inactive)
ROOT
ATOM      1  C   UNL d   1       1.220   1.133  -1.051  0.00  0.00     0.172 C 
ATOM      2  N   UNL d   1       0.684  -0.008  -0.345  0.00  0.00    -0.070 N 
ATOM      3  C1  UNL d   1       0.885  -1.320  -0.679  0.00  0.00    -0.004 A 
ATOM      4  C2  UNL d   1       0.210  -2.097   0.237  0.00  0.00    -0.047 A 
ATOM      5  C3  UNL d   1      -0.420  -1.221   1.153  0.00  0.00    -0.047 A 
ATOM      6  C4  UNL d   1      -0.110   0.066   0.769  0.00  0.00    -0.004 A 
ENDROOT
TORSDOF 0
ENDMDL
