MODEL 1
REMARK minimizedAffinity -1.17408872
REMARK minimizedRMSD -1
REMARK  0 active torsions:
REMARK  status: ('A' for Active; 'I' for Inactive)
ROOT
ATOM      1  C   UNL d   1       2.525   0.508  -1.633  0.00  0.00     0.172 C 
ATOM      2  N   UNL d   1       1.431   0.802  -0.737  0.00  0.00    -0.070 N 
ATOM      3  C1  UNL d   1       1.081   2.047  -0.286  0.00  0.00    -0.004 A 
ATOM      4  C2  UNL d   1      -0.009   1.904   0.544  0.00  0.00    -0.047 A 
ATOM      5  C3  UNL d   1      -0.325   0.526   0.595  0.00  0.00    -0.047 A 
ATOM      6  C4  UNL d   1       0.582  -0.133  -0.207  0.00  0.00    -0.004 A 
ENDROOT
TORSDOF 0
ENDMDL
