MODEL 1
REMARK minimizedAffinity -1.83622181
REMARK minimizedRMSD -1
REMARK  0 active torsions:
REMARK  status: ('A' for Active; 'I' for Inactive)
ROOT
ATOM      1  C   UNL d   1      -4.477   4.936  -5.956  0.00  0.00     0.172 C 
ATOM      2  N   UNL d   1      -3.414   3.996  -5.692  0.00  0.00    -0.070 N 
ATOM      3  C1  UNL d   1      -2.096   4.314  -5.498  0.00  0.00    -0.004 A 
ATOM      4  C2  UNL d   1      -1.407   3.142  -5.276  0.00  0.00    -0.047 A 
ATOM      5  C3  UNL d   1      -2.343   2.082  -5.338  0.00  0.00    -0.047 A 
ATOM      6  C4  UNL d   1      -3.577   2.639  -5.597  0.00  0.00    -0.004 A 
ENDROOT
TORSDOF 0
ENDMDL
