MODEL 1
REMARK minimizedAffinity 1.2714169
REMARK minimizedRMSD -1
REMARK  0 active torsions:
REMARK  status: ('A' for Active; 'I' for Inactive)
ROOT
ATOM      1  C   UNL d   1       1.137   3.650  -0.555  0.00  0.00     0.172 C 
ATOM      2  N   UNL d   1       1.392   2.427  -1.279  0.00  0.00    -0.070 N 
ATOM      3  C1  UNL d   1       1.718   1.221  -0.719  0.00  0.00    -0.004 A 
ATOM      4  C2  UNL d   1       1.879   0.310  -1.741  0.00  0.00    -0.047 A 
ATOM      5  C3  UNL d   1       1.642   0.993  -2.958  0.00  0.00    -0.047 A 
ATOM      6  C4  UNL d   1       1.343   2.302  -2.643  0.00  0.00    -0.004 A 
ENDROOT
TORSDOF 0
ENDMDL
