MODEL 1
REMARK minimizedAffinity -0.659264863
REMARK minimizedRMSD -1
REMARK  0 active torsions:
REMARK  status: ('A' for Active; 'I' for Inactive)
ROOT
ATOM      1  C   UNL d   1       1.439   4.243  -1.194  0.00  0.00     0.172 C 
ATOM      2  N   UNL d   1       1.588   2.814  -1.331  0.00  0.00    -0.070 N 
ATOM      3  C1  UNL d   1       1.175   1.877  -0.422  0.00  0.00    -0.004 A 
ATOM      4  C2  UNL d   1       1.497   0.633  -0.921  0.00  0.00    -0.047 A 
ATOM      5  C3  UNL d   1       2.126   0.829  -2.173  0.00  0.00    -0.047 A 
ATOM      6  C4  UNL d   1       2.170   2.188  -2.403  0.00  0.00    -0.004 A 
ENDROOT
TORSDOF 0
ENDMDL
