MODEL 1
REMARK minimizedAffinity 0.955959141
REMARK minimizedRMSD -1
REMARK  0 active torsions:
REMARK  status: ('A' for Active; 'I' for Inactive)
ROOT
ATOM      1  C   UNL d   1       0.741   3.568  -1.464  0.00  0.00     0.172 C 
ATOM      2  N   UNL d   1       1.317   2.245  -1.504  0.00  0.00    -0.070 N 
ATOM      3  C1  UNL d   1       2.132   1.759  -2.492  0.00  0.00    -0.004 A 
ATOM      4  C2  UNL d   1       2.468   0.463  -2.162  0.00  0.00    -0.047 A 
ATOM      5  C3  UNL d   1       1.832   0.160  -0.935  0.00  0.00    -0.047 A 
ATOM      6  C4  UNL d   1       1.127   1.281  -0.550  0.00  0.00    -0.004 A 
ENDROOT
TORSDOF 0
ENDMDL
