MODEL 1
REMARK minimizedAffinity -2.8262918
REMARK minimizedRMSD -1
REMARK  0 active torsions:
REMARK  status: ('A' for Active; 'I' for Inactive)
ROOT
ATOM      1  C   UNL d   1      -5.655   1.402  -6.000  0.00  0.00     0.172 C 
ATOM      2  N   UNL d   1      -5.073   2.723  -5.944  0.00  0.00    -0.070 N 
ATOM      3  C1  UNL d   1      -5.769   3.901  -5.904  0.00  0.00    -0.004 A 
ATOM      4  C2  UNL d   1      -4.855   4.931  -5.856  0.00  0.00    -0.047 A 
ATOM      5  C3  UNL d   1      -3.564   4.351  -5.870  0.00  0.00    -0.047 A 
ATOM      6  C4  UNL d   1      -3.728   2.983  -5.925  0.00  0.00    -0.004 A 
ENDROOT
TORSDOF 0
ENDMDL
