MODEL 1
REMARK minimizedAffinity 1.7674824
REMARK minimizedRMSD -1
REMARK  0 active torsions:
REMARK  status: ('A' for Active; 'I' for Inactive)
ROOT
ATOM      1  C   UNL d   1       4.642  -2.286  -5.937  0.00  0.00     0.172 C 
ATOM      2  N   UNL d   1       4.625  -2.647  -4.538  0.00  0.00    -0.070 N 
ATOM      3  C1  UNL d   1       4.222  -1.838  -3.510  0.00  0.00    -0.004 A 
ATOM      4  C2  UNL d   1       4.356  -2.548  -2.337  0.00  0.00    -0.047 A 
ATOM      5  C3  UNL d   1       4.858  -3.828  -2.672  0.00  0.00    -0.047 A 
ATOM      6  C4  UNL d   1       5.016  -3.862  -4.041  0.00  0.00    -0.004 A 
ENDROOT
TORSDOF 0
ENDMDL
