MODEL 1
REMARK minimizedAffinity -2.58816719
REMARK minimizedRMSD -1
REMARK  0 active torsions:
REMARK  status: ('A' for Active; 'I' for Inactive)
ROOT
ATOM      1  C   UNL d   1      -4.079   0.204  -5.993  0.00  0.00     0.172 C 
ATOM      2  N   UNL d   1      -3.452   1.497  -5.856  0.00  0.00    -0.070 N 
ATOM      3  C1  UNL d   1      -2.113   1.753  -5.984  0.00  0.00    -0.004 A 
ATOM      4  C2  UNL d   1      -1.920   3.102  -5.782  0.00  0.00    -0.047 A 
ATOM      5  C3  UNL d   1      -3.186   3.677  -5.522  0.00  0.00    -0.047 A 
ATOM      6  C4  UNL d   1      -4.117   2.661  -5.574  0.00  0.00    -0.004 A 
ENDROOT
TORSDOF 0
ENDMDL
