MODEL 1
REMARK minimizedAffinity -1.67334116
REMARK minimizedRMSD -1
REMARK  0 active torsions:
REMARK  status: ('A' for Active; 'I' for Inactive)
ROOT
ATOM      1  C   UNL d   1      -1.096   2.373  -5.702  0.00  0.00     0.172 C 
ATOM      2  N   UNL d   1      -2.323   3.125  -5.822  0.00  0.00    -0.070 N 
ATOM      3  C1  UNL d   1      -3.582   2.592  -5.893  0.00  0.00    -0.004 A 
ATOM      4  C2  UNL d   1      -4.477   3.635  -5.999  0.00  0.00    -0.047 A 
ATOM      5  C3  UNL d   1      -3.729   4.836  -5.993  0.00  0.00    -0.047 A 
ATOM      6  C4  UNL d   1      -2.398   4.492  -5.882  0.00  0.00    -0.004 A 
ENDROOT
TORSDOF 0
ENDMDL
