MODEL 1
REMARK minimizedAffinity -1.59490919
REMARK minimizedRMSD -1
REMARK  0 active torsions:
REMARK  status: ('A' for Active; 'I' for Inactive)
ROOT
ATOM      1  C   UNL d   1       0.206  -1.961   0.357  0.00  0.00     0.172 C 
ATOM      2  N   UNL d   1       0.002  -0.532   0.366  0.00  0.00    -0.070 N 
ATOM      3  C1  UNL d   1      -1.099   0.114   0.861  0.00  0.00    -0.004 A 
ATOM      4  C2  UNL d   1      -0.909   1.468   0.684  0.00  0.00    -0.047 A 
ATOM      5  C3  UNL d   1       0.349   1.641   0.060  0.00  0.00    -0.047 A 
ATOM      6  C4  UNL d   1       0.892   0.387  -0.124  0.00  0.00    -0.004 A 
ENDROOT
TORSDOF 0
ENDMDL
