MODEL 1
REMARK minimizedAffinity -3.09886122
REMARK minimizedRMSD -1
REMARK  0 active torsions:
REMARK  status: ('A' for Active; 'I' for Inactive)
ROOT
ATOM      1  C   UNL d   1      -0.620  -1.406   0.514  0.00  0.00     0.172 C 
ATOM      2  N   UNL d   1      -1.615  -0.609   1.193  0.00  0.00    -0.070 N 
ATOM      3  C1  UNL d   1      -2.969  -0.805   1.137  0.00  0.00    -0.004 A 
ATOM      4  C2  UNL d   1      -3.568   0.159   1.918  0.00  0.00    -0.047 A 
ATOM      5  C3  UNL d   1      -2.538   0.964   2.461  0.00  0.00    -0.047 A 
ATOM      6  C4  UNL d   1      -1.340   0.466   1.996  0.00  0.00    -0.004 A 
ENDROOT
TORSDOF 0
ENDMDL
