MODEL 1
REMARK minimizedAffinity 5.59257364
REMARK minimizedRMSD -1
REMARK  1 active torsions:
REMARK  status: ('A' for Active; 'I' for Inactive)
REMARK    1  A    between atoms: C1_2  and  C2_3 
ROOT
ATOM      1  C2  UNL d   1       1.499   0.879   0.164  0.00  0.00    -0.076 A 
ATOM      2  C3  UNL d   1       1.188   2.036   0.900  0.00  0.00     0.004 A 
ATOM      3  C4  UNL d   1       0.605   3.142   0.284  0.00  0.00    -0.003 A 
ATOM      4  C5  UNL d   1       0.321   3.109  -1.076  0.00  0.00     0.000 A 
ATOM      5  C6  UNL d   1       0.606   1.963  -1.818  0.00  0.00     0.000 A 
ATOM      6  C7  UNL d   1       1.179   0.833  -1.210  0.00  0.00    -0.073 A 
ATOM      7  C8  UNL d   1       1.471  -0.374  -2.059  0.00  0.00     0.078 C 
ENDROOT
BRANCH   1   8
ATOM      8  C1  UNL d   1       2.156  -0.279   0.880  0.00  0.00     0.053 C 
ATOM      9  C   UNL d   1       3.664  -0.118   0.987  0.00  0.00     0.018 C 
ENDBRANCH   1   8
TORSDOF 1
ENDMDL
