MODEL 1
REMARK minimizedAffinity -4.96070385
REMARK minimizedRMSD -1
REMARK  1 active torsions:
REMARK  status: ('A' for Active; 'I' for Inactive)
REMARK    1  A    between atoms: C1_2  and  C2_3 
ROOT
ATOM      1  C2  UNL d   1       0.692   2.479  -0.456  0.00  0.00    -0.076 A 
ATOM      2  C3  UNL d   1       0.924   2.861   0.877  0.00  0.00     0.004 A 
ATOM      3  C4  UNL d   1       1.124   4.198   1.215  0.00  0.00    -0.003 A 
ATOM      4  C5  UNL d   1       1.095   5.175   0.226  0.00  0.00     0.000 A 
ATOM      5  C6  UNL d   1       0.849   4.816  -1.098  0.00  0.00     0.000 A 
ATOM      6  C7  UNL d   1       0.629   3.474  -1.454  0.00  0.00    -0.073 A 
ATOM      7  C8  UNL d   1       0.374   3.143  -2.899  0.00  0.00     0.078 C 
ENDROOT
BRANCH   1   8
ATOM      8  C1  UNL d   1       0.510   1.010  -0.767  0.00  0.00     0.053 C 
ATOM      9  C   UNL d   1       1.806   0.224  -0.648  0.00  0.00     0.018 C 
ENDBRANCH   1   8
TORSDOF 1
ENDMDL
