MODEL 1
REMARK minimizedAffinity 0.215019122
REMARK minimizedRMSD -1
REMARK  1 active torsions:
REMARK  status: ('A' for Active; 'I' for Inactive)
REMARK    1  A    between atoms: C1_2  and  C2_3 
ROOT
ATOM      1  C2  UNL d   1       0.532   0.329  -1.145  0.00  0.00    -0.076 A 
ATOM      2  C3  UNL d   1       0.432  -0.863  -1.885  0.00  0.00     0.004 A 
ATOM      3  C4  UNL d   1       0.977  -2.053  -1.405  0.00  0.00    -0.003 A 
ATOM      4  C5  UNL d   1       1.630  -2.071  -0.177  0.00  0.00     0.000 A 
ATOM      5  C6  UNL d   1       1.723  -0.902   0.578  0.00  0.00     0.000 A 
ATOM      6  C7  UNL d   1       1.165   0.303   0.116  0.00  0.00    -0.073 A 
ATOM      7  C8  UNL d   1       1.300   1.534   0.969  0.00  0.00     0.078 C 
ENDROOT
BRANCH   1   8
ATOM      8  C1  UNL d   1      -0.054   1.594  -1.729  0.00  0.00     0.053 C 
ATOM      9  C   UNL d   1       1.003   2.654  -2.000  0.00  0.00     0.018 C 
ENDBRANCH   1   8
TORSDOF 1
ENDMDL
