MODEL 1
REMARK minimizedAffinity 3.24440885
REMARK minimizedRMSD -1
REMARK  1 active torsions:
REMARK  status: ('A' for Active; 'I' for Inactive)
REMARK    1  A    between atoms: C1_2  and  C2_3 
ROOT
ATOM      1  C2  UNL d   1      -2.850   3.506   2.581  0.00  0.00    -0.076 A 
ATOM      2  C3  UNL d   1      -3.306   3.657   1.260  0.00  0.00     0.004 A 
ATOM      3  C4  UNL d   1      -4.193   2.741   0.697  0.00  0.00    -0.003 A 
ATOM      4  C5  UNL d   1      -4.639   1.658   1.448  0.00  0.00     0.000 A 
ATOM      5  C6  UNL d   1      -4.211   1.502   2.765  0.00  0.00     0.000 A 
ATOM      6  C7  UNL d   1      -3.330   2.426   3.353  0.00  0.00    -0.073 A 
ATOM      7  C8  UNL d   1      -2.896   2.206   4.776  0.00  0.00     0.078 C 
ENDROOT
BRANCH   1   8
ATOM      8  C1  UNL d   1      -1.868   4.517   3.128  0.00  0.00     0.053 C 
ATOM      9  C   UNL d   1      -2.462   5.913   3.226  0.00  0.00     0.018 C 
ENDBRANCH   1   8
TORSDOF 1
ENDMDL
