MODEL 1
REMARK minimizedAffinity -0.438507706
REMARK minimizedRMSD -1
REMARK  1 active torsions:
REMARK  status: ('A' for Active; 'I' for Inactive)
REMARK    1  A    between atoms: C1_2  and  C2_3 
ROOT
ATOM      1  C2  UNL d   1       1.383   0.746  -0.671  0.00  0.00    -0.076 A 
ATOM      2  C3  UNL d   1       1.007   1.296  -1.909  0.00  0.00     0.004 A 
ATOM      3  C4  UNL d   1       0.660   2.641  -2.021  0.00  0.00    -0.003 A 
ATOM      4  C5  UNL d   1       0.683   3.459  -0.896  0.00  0.00     0.000 A 
ATOM      5  C6  UNL d   1       1.070   2.934   0.336  0.00  0.00     0.000 A 
ATOM      6  C7  UNL d   1       1.439   1.584   0.463  0.00  0.00    -0.073 A 
ATOM      7  C8  UNL d   1       1.843   1.070   1.818  0.00  0.00     0.078 C 
ENDROOT
BRANCH   1   8
ATOM      8  C1  UNL d   1       1.723  -0.726  -0.605  0.00  0.00     0.053 C 
ATOM      9  C   UNL d   1       0.618  -1.605  -1.168  0.00  0.00     0.018 C 
ENDBRANCH   1   8
TORSDOF 1
ENDMDL
