MODEL 1
REMARK minimizedAffinity 7.89135122
REMARK minimizedRMSD -1
REMARK  1 active torsions:
REMARK  status: ('A' for Active; 'I' for Inactive)
REMARK    1  A    between atoms: C1_2  and  C2_3 
ROOT
ATOM      1  C2  UNL d   1       1.912   1.437   0.265  0.00  0.00    -0.076 A 
ATOM      2  C3  UNL d   1       1.419   2.617  -0.320  0.00  0.00     0.004 A 
ATOM      3  C4  UNL d   1       1.015   2.642  -1.653  0.00  0.00    -0.003 A 
ATOM      4  C5  UNL d   1       1.096   1.488  -2.424  0.00  0.00     0.000 A 
ATOM      5  C6  UNL d   1       1.566   0.304  -1.856  0.00  0.00     0.000 A 
ATOM      6  C7  UNL d   1       1.963   0.257  -0.509  0.00  0.00    -0.073 A 
ATOM      7  C8  UNL d   1       2.468  -1.044   0.050  0.00  0.00     0.078 C 
ENDROOT
BRANCH   1   8
ATOM      8  C1  UNL d   1       2.362   1.476   1.708  0.00  0.00     0.053 C 
ATOM      9  C   UNL d   1       2.266   2.870   2.310  0.00  0.00     0.018 C 
ENDBRANCH   1   8
TORSDOF 1
ENDMDL
