MODEL 1
REMARK minimizedAffinity 4.08982563
REMARK minimizedRMSD -1
REMARK  1 active torsions:
REMARK  status: ('A' for Active; 'I' for Inactive)
REMARK    1  A    between atoms: C1_2  and  C2_3 
ROOT
ATOM      1  C2  UNL d   1       1.055  -0.011  -0.032  0.00  0.00    -0.076 A 
ATOM      2  C3  UNL d   1       0.807  -0.399  -1.360  0.00  0.00     0.004 A 
ATOM      3  C4  UNL d   1       0.664   0.551  -2.370  0.00  0.00    -0.003 A 
ATOM      4  C5  UNL d   1       0.768   1.905  -2.068  0.00  0.00     0.000 A 
ATOM      5  C6  UNL d   1       1.031   2.307  -0.759  0.00  0.00     0.000 A 
ATOM      6  C7  UNL d   1       1.194   1.361   0.268  0.00  0.00    -0.073 A 
ATOM      7  C8  UNL d   1       1.471   1.851   1.663  0.00  0.00     0.078 C 
ENDROOT
BRANCH   1   8
ATOM      8  C1  UNL d   1       1.174  -1.085   1.026  0.00  0.00     0.053 C 
ATOM      9  C   UNL d   1       1.526  -2.443   0.440  0.00  0.00     0.018 C 
ENDBRANCH   1   8
TORSDOF 1
ENDMDL
