MODEL 1
REMARK minimizedAffinity -0.800986171
REMARK minimizedRMSD -1
REMARK  1 active torsions:
REMARK  status: ('A' for Active; 'I' for Inactive)
REMARK    1  A    between atoms: C1_2  and  C2_3 
ROOT
ATOM      1  C2  UNL d   1       1.079   2.208  -0.942  0.00  0.00    -0.076 A 
ATOM      2  C3  UNL d   1       0.881   2.599   0.394  0.00  0.00     0.004 A 
ATOM      3  C4  UNL d   1       0.844   1.656   1.420  0.00  0.00    -0.003 A 
ATOM      4  C5  UNL d   1       1.004   0.306   1.126  0.00  0.00     0.000 A 
ATOM      5  C6  UNL d   1       1.219  -0.098  -0.191  0.00  0.00     0.000 A 
ATOM      6  C7  UNL d   1       1.276   0.841  -1.235  0.00  0.00    -0.073 A 
ATOM      7  C8  UNL d   1       1.504   0.349  -2.638  0.00  0.00     0.078 C 
ENDROOT
BRANCH   1   8
ATOM      8  C1  UNL d   1       1.083   3.272  -2.015  0.00  0.00     0.053 C 
ATOM      9  C   UNL d   1       1.383   4.657  -1.462  0.00  0.00     0.018 C 
ENDBRANCH   1   8
TORSDOF 1
ENDMDL
