MODEL 1
REMARK minimizedAffinity 4.62302399
REMARK minimizedRMSD -1
REMARK  1 active torsions:
REMARK  status: ('A' for Active; 'I' for Inactive)
REMARK    1  A    between atoms: C1_2  and  C2_3 
ROOT
ATOM      1  C2  UNL d   1       1.209   1.331   0.392  0.00  0.00    -0.076 A 
ATOM      2  C3  UNL d   1       1.134  -0.003   0.829  0.00  0.00     0.004 A 
ATOM      3  C4  UNL d   1       0.911  -1.042  -0.074  0.00  0.00    -0.003 A 
ATOM      4  C5  UNL d   1       0.760  -0.763  -1.428  0.00  0.00     0.000 A 
ATOM      5  C6  UNL d   1       0.850   0.552  -1.881  0.00  0.00     0.000 A 
ATOM      6  C7  UNL d   1       1.090   1.610  -0.987  0.00  0.00    -0.073 A 
ATOM      7  C8  UNL d   1       1.171   3.010  -1.530  0.00  0.00     0.078 C 
ENDROOT
BRANCH   1   8
ATOM      8  C1  UNL d   1       1.426   2.419   1.419  0.00  0.00     0.053 C 
ATOM      9  C   UNL d   1       2.633   2.152   2.305  0.00  0.00     0.018 C 
ENDBRANCH   1   8
TORSDOF 1
ENDMDL
