MODEL 1
REMARK minimizedAffinity 3.30324197
REMARK minimizedRMSD -1
REMARK  1 active torsions:
REMARK  status: ('A' for Active; 'I' for Inactive)
REMARK    1  A    between atoms: C1_2  and  C2_3 
ROOT
ATOM      1  C2  UNL d   1       1.332  -0.653  -1.619  0.00  0.00    -0.076 A 
ATOM      2  C3  UNL d   1       0.311  -1.521  -2.044  0.00  0.00     0.004 A 
ATOM      3  C4  UNL d   1       0.160  -2.784  -1.476  0.00  0.00    -0.003 A 
ATOM      4  C5  UNL d   1       1.028  -3.201  -0.472  0.00  0.00     0.000 A 
ATOM      5  C6  UNL d   1       2.036  -2.346  -0.026  0.00  0.00     0.000 A 
ATOM      6  C7  UNL d   1       2.191  -1.062  -0.577  0.00  0.00    -0.073 A 
ATOM      7  C8  UNL d   1       3.298  -0.185  -0.062  0.00  0.00     0.078 C 
ENDROOT
BRANCH   1   8
ATOM      8  C1  UNL d   1       1.463   0.695  -2.291  0.00  0.00     0.053 C 
ATOM      9  C   UNL d   1       0.733   1.796  -1.538  0.00  0.00     0.018 C 
ENDBRANCH   1   8
TORSDOF 1
ENDMDL
