MODEL 1
REMARK minimizedAffinity 6.35860634
REMARK minimizedRMSD -1
REMARK  1 active torsions:
REMARK  status: ('A' for Active; 'I' for Inactive)
REMARK    1  A    between atoms: C1_2  and  C2_3 
ROOT
ATOM      1  C2  UNL d   1      -3.478   1.709   3.843  0.00  0.00    -0.076 A 
ATOM      2  C3  UNL d   1      -2.301   2.337   3.401  0.00  0.00     0.004 A 
ATOM      3  C4  UNL d   1      -2.169   2.764   2.081  0.00  0.00    -0.003 A 
ATOM      4  C5  UNL d   1      -3.211   2.569   1.181  0.00  0.00     0.000 A 
ATOM      5  C6  UNL d   1      -4.393   1.964   1.608  0.00  0.00     0.000 A 
ATOM      6  C7  UNL d   1      -4.549   1.542   2.939  0.00  0.00    -0.073 A 
ATOM      7  C8  UNL d   1      -5.843   0.889   3.343  0.00  0.00     0.078 C 
ENDROOT
BRANCH   1   8
ATOM      8  C1  UNL d   1      -3.555   1.243   5.280  0.00  0.00     0.053 C 
ATOM      9  C   UNL d   1      -2.231   0.687   5.783  0.00  0.00     0.018 C 
ENDBRANCH   1   8
TORSDOF 1
ENDMDL
