MODEL 1
REMARK minimizedAffinity 8.77836323
REMARK minimizedRMSD -1
REMARK  1 active torsions:
REMARK  status: ('A' for Active; 'I' for Inactive)
REMARK    1  A    between atoms: C1_2  and  C2_3 
ROOT
ATOM      1  C2  UNL d   1       1.046   3.319  -0.222  0.00  0.00    -0.076 A 
ATOM      2  C3  UNL d   1       0.803   2.005  -0.658  0.00  0.00     0.004 A 
ATOM      3  C4  UNL d   1       0.806   1.688  -2.016  0.00  0.00    -0.003 A 
ATOM      4  C5  UNL d   1       1.052   2.680  -2.959  0.00  0.00     0.000 A 
ATOM      5  C6  UNL d   1       1.312   3.985  -2.543  0.00  0.00     0.000 A 
ATOM      6  C7  UNL d   1       1.329   4.318  -1.178  0.00  0.00    -0.073 A 
ATOM      7  C8  UNL d   1       1.610   5.743  -0.786  0.00  0.00     0.078 C 
ENDROOT
BRANCH   1   8
ATOM      8  C1  UNL d   1       1.003   3.609   1.261  0.00  0.00     0.053 C 
ATOM      9  C   UNL d   1       1.870   2.654   2.067  0.00  0.00     0.018 C 
ENDBRANCH   1   8
TORSDOF 1
ENDMDL
