MODEL 1
REMARK minimizedAffinity -0.950978458
REMARK minimizedRMSD -1
REMARK  1 active torsions:
REMARK  status: ('A' for Active; 'I' for Inactive)
REMARK    1  A    between atoms: C1_2  and  C2_3 
ROOT
ATOM      1  C2  UNL d   1       1.238   0.302  -0.654  0.00  0.00    -0.076 A 
ATOM      2  C3  UNL d   1       0.690   0.909  -1.798  0.00  0.00     0.004 A 
ATOM      3  C4  UNL d   1       0.350   2.260  -1.800  0.00  0.00    -0.003 A 
ATOM      4  C5  UNL d   1       0.553   3.028  -0.658  0.00  0.00     0.000 A 
ATOM      5  C6  UNL d   1       1.112   2.447   0.480  0.00  0.00     0.000 A 
ATOM      6  C7  UNL d   1       1.476   1.089   0.493  0.00  0.00    -0.073 A 
ATOM      7  C8  UNL d   1       2.069   0.513   1.749  0.00  0.00     0.078 C 
ENDROOT
BRANCH   1   8
ATOM      8  C1  UNL d   1       1.562  -1.174  -0.702  0.00  0.00     0.053 C 
ATOM      9  C   UNL d   1       0.358  -2.023  -1.080  0.00  0.00     0.018 C 
ENDBRANCH   1   8
TORSDOF 1
ENDMDL
