MODEL 1
REMARK minimizedAffinity -1.80235648
REMARK minimizedRMSD -1
REMARK  1 active torsions:
REMARK  status: ('A' for Active; 'I' for Inactive)
REMARK    1  A    between atoms: C1_2  and  C2_3 
ROOT
ATOM      1  C2  UNL d   1       1.044   2.316  -0.035  0.00  0.00    -0.076 A 
ATOM      2  C3  UNL d   1       1.023   2.241  -1.439  0.00  0.00     0.004 A 
ATOM      3  C4  UNL d   1       0.768   1.035  -2.089  0.00  0.00    -0.003 A 
ATOM      4  C5  UNL d   1       0.527  -0.116  -1.346  0.00  0.00     0.000 A 
ATOM      5  C6  UNL d   1       0.527  -0.056   0.047  0.00  0.00     0.000 A 
ATOM      6  C7  UNL d   1       0.767   1.156   0.718  0.00  0.00    -0.073 A 
ATOM      7  C8  UNL d   1       0.760   1.161   2.222  0.00  0.00     0.078 C 
ENDROOT
BRANCH   1   8
ATOM      8  C1  UNL d   1       1.354   3.646   0.614  0.00  0.00     0.053 C 
ATOM      9  C   UNL d   1       1.578   4.754  -0.404  0.00  0.00     0.018 C 
ENDBRANCH   1   8
TORSDOF 1
ENDMDL
