MODEL 1
REMARK minimizedAffinity 0.889552355
REMARK minimizedRMSD -1
REMARK  0 active torsions:
REMARK  status: ('A' for Active; 'I' for Inactive)
ROOT
ATOM      1  C   UNL d   1      -5.612  -0.920  -1.684  0.00  0.00     0.078 C 
ATOM      2  C1  UNL d   1      -4.538  -0.702  -0.661  0.00  0.00    -0.077 A 
ATOM      3  C2  UNL d   1      -3.340  -1.425  -0.709  0.00  0.00    -0.001 A 
ATOM      4  C3  UNL d   1      -2.352  -1.220   0.256  0.00  0.00     0.003 A 
ATOM      5  C4  UNL d   1      -2.553  -0.292   1.276  0.00  0.00    -0.005 A 
ATOM      6  C5  UNL d   1      -3.743   0.430   1.333  0.00  0.00     0.003 A 
ATOM      7  C6  UNL d   1      -4.732   0.226   0.370  0.00  0.00    -0.001 A 
ENDROOT
TORSDOF 0
ENDMDL
