MODEL 1
REMARK minimizedAffinity 3.0938499
REMARK minimizedRMSD -1
REMARK  0 active torsions:
REMARK  status: ('A' for Active; 'I' for Inactive)
ROOT
ATOM      1  C   UNL d   1       0.702  -5.469   5.989  0.00  0.00     0.078 C 
ATOM      2  C1  UNL d   1       0.169  -4.067   6.000  0.00  0.00    -0.077 A 
ATOM      3  C2  UNL d   1      -1.209  -3.819   6.000  0.00  0.00    -0.001 A 
ATOM      4  C3  UNL d   1      -1.690  -2.509   6.000  0.00  0.00     0.003 A 
ATOM      5  C4  UNL d   1      -0.800  -1.437   5.998  0.00  0.00    -0.005 A 
ATOM      6  C5  UNL d   1       0.573  -1.674   5.996  0.00  0.00     0.003 A 
ATOM      7  C6  UNL d   1       1.056  -2.983   5.996  0.00  0.00    -0.001 A 
ENDROOT
TORSDOF 0
ENDMDL
