MODEL 1
REMARK minimizedAffinity 5.36252928
REMARK minimizedRMSD -1
REMARK  0 active torsions:
REMARK  status: ('A' for Active; 'I' for Inactive)
ROOT
ATOM      1  C   UNL d   1      -4.600   0.360   0.594  0.00  0.00     0.078 C 
ATOM      2  C1  UNL d   1      -3.663  -0.809   0.539  0.00  0.00    -0.077 A 
ATOM      3  C2  UNL d   1      -2.987  -1.137  -0.643  0.00  0.00    -0.001 A 
ATOM      4  C3  UNL d   1      -2.125  -2.234  -0.682  0.00  0.00     0.003 A 
ATOM      5  C4  UNL d   1      -1.932  -3.013   0.457  0.00  0.00    -0.005 A 
ATOM      6  C5  UNL d   1      -2.601  -2.696   1.637  0.00  0.00     0.003 A 
ATOM      7  C6  UNL d   1      -3.464  -1.599   1.678  0.00  0.00    -0.001 A 
ENDROOT
TORSDOF 0
ENDMDL
