MODEL 1
REMARK minimizedAffinity 11.1029387
REMARK minimizedRMSD -1
REMARK  0 active torsions:
REMARK  status: ('A' for Active; 'I' for Inactive)
ROOT
ATOM      1  C   UNL d   1      -2.241  -2.124   0.710  0.00  0.00     0.078 C 
ATOM      2  C1  UNL d   1      -1.742  -3.479   0.308  0.00  0.00    -0.077 A 
ATOM      3  C2  UNL d   1      -1.404  -4.439   1.271  0.00  0.00    -0.001 A 
ATOM      4  C3  UNL d   1      -0.932  -5.693   0.882  0.00  0.00     0.003 A 
ATOM      5  C4  UNL d   1      -0.793  -6.000  -0.471  0.00  0.00    -0.005 A 
ATOM      6  C5  UNL d   1      -1.125  -5.051  -1.436  0.00  0.00     0.003 A 
ATOM      7  C6  UNL d   1      -1.597  -3.796  -1.049  0.00  0.00    -0.001 A 
ENDROOT
TORSDOF 0
ENDMDL
