MODEL 1
REMARK minimizedAffinity 11.8686981
REMARK minimizedRMSD -1
REMARK  0 active torsions:
REMARK  status: ('A' for Active; 'I' for Inactive)
ROOT
ATOM      1  C   UNL d   1      -3.002   0.206   1.161  0.00  0.00     0.078 C 
ATOM      2  C1  UNL d   1      -4.004  -0.361   0.200  0.00  0.00    -0.077 A 
ATOM      3  C2  UNL d   1      -3.916  -0.097  -1.173  0.00  0.00    -0.001 A 
ATOM      4  C3  UNL d   1      -4.862  -0.624  -2.054  0.00  0.00     0.003 A 
ATOM      5  C4  UNL d   1      -5.902  -1.416  -1.573  0.00  0.00    -0.005 A 
ATOM      6  C5  UNL d   1      -5.999  -1.682  -0.209  0.00  0.00     0.003 A 
ATOM      7  C6  UNL d   1      -5.054  -1.156   0.674  0.00  0.00    -0.001 A 
ENDROOT
TORSDOF 0
ENDMDL
