MODEL 1
REMARK minimizedAffinity 11.0272036
REMARK minimizedRMSD -1
REMARK  0 active torsions:
REMARK  status: ('A' for Active; 'I' for Inactive)
ROOT
ATOM      1  C   UNL d   1      -1.447  -1.301  -2.388  0.00  0.00     0.078 C 
ATOM      2  C1  UNL d   1      -2.335  -0.695  -1.343  0.00  0.00    -0.077 A 
ATOM      3  C2  UNL d   1      -1.812  -0.251  -0.122  0.00  0.00    -0.001 A 
ATOM      4  C3  UNL d   1      -2.652   0.302   0.846  0.00  0.00     0.003 A 
ATOM      5  C4  UNL d   1      -4.020   0.414   0.604  0.00  0.00    -0.005 A 
ATOM      6  C5  UNL d   1      -4.549  -0.027  -0.606  0.00  0.00     0.003 A 
ATOM      7  C6  UNL d   1      -3.711  -0.580  -1.576  0.00  0.00    -0.001 A 
ENDROOT
TORSDOF 0
ENDMDL
