MODEL 1
REMARK minimizedAffinity 15.7766886
REMARK minimizedRMSD -1
REMARK  0 active torsions:
REMARK  status: ('A' for Active; 'I' for Inactive)
ROOT
ATOM      1  C   UNL d   1      -5.892   1.756  -3.668  0.00  0.00     0.078 C 
ATOM      2  C1  UNL d   1      -5.922   3.181  -3.203  0.00  0.00    -0.077 A 
ATOM      3  C2  UNL d   1      -5.946   3.494  -1.838  0.00  0.00    -0.001 A 
ATOM      4  C3  UNL d   1      -5.983   4.825  -1.420  0.00  0.00     0.003 A 
ATOM      5  C4  UNL d   1      -5.998   5.854  -2.360  0.00  0.00    -0.005 A 
ATOM      6  C5  UNL d   1      -5.977   5.552  -3.720  0.00  0.00     0.003 A 
ATOM      7  C6  UNL d   1      -5.939   4.222  -4.140  0.00  0.00    -0.001 A 
ENDROOT
TORSDOF 0
ENDMDL
