MODEL 1
REMARK minimizedAffinity 15.3831997
REMARK minimizedRMSD -1
REMARK  0 active torsions:
REMARK  status: ('A' for Active; 'I' for Inactive)
ROOT
ATOM      1  C   UNL d   1       0.050   1.138   2.273  0.00  0.00     0.078 C 
ATOM      2  C1  UNL d   1       0.090   0.396   3.575  0.00  0.00    -0.077 A 
ATOM      3  C2  UNL d   1       0.135   1.082   4.795  0.00  0.00    -0.001 A 
ATOM      4  C3  UNL d   1       0.182   0.378   5.999  0.00  0.00     0.003 A 
ATOM      5  C4  UNL d   1       0.186  -1.015   5.996  0.00  0.00    -0.005 A 
ATOM      6  C5  UNL d   1       0.143  -1.707   4.787  0.00  0.00     0.003 A 
ATOM      7  C6  UNL d   1       0.096  -1.005   3.582  0.00  0.00    -0.001 A 
ENDROOT
TORSDOF 0
ENDMDL
