MODEL 1
REMARK minimizedAffinity 8.9052
REMARK minimizedRMSD -1
REMARK  0 active torsions:
REMARK  status: ('A' for Active; 'I' for Inactive)
ROOT
ATOM      1  C   UNL d   1       5.044   1.545  -1.503  0.00  0.00     0.078 C 
ATOM      2  C1  UNL d   1       5.049   1.131  -0.061  0.00  0.00    -0.077 A 
ATOM      3  C2  UNL d   1       4.113   0.212   0.429  0.00  0.00    -0.001 A 
ATOM      4  C3  UNL d   1       4.123  -0.156   1.775  0.00  0.00     0.003 A 
ATOM      5  C4  UNL d   1       5.066   0.391   2.643  0.00  0.00    -0.005 A 
ATOM      6  C5  UNL d   1       6.000   1.308   2.165  0.00  0.00     0.003 A 
ATOM      7  C6  UNL d   1       5.991   1.678   0.819  0.00  0.00    -0.001 A 
ENDROOT
TORSDOF 0
ENDMDL
