MODEL 1
REMARK minimizedAffinity -4.97650146
REMARK minimizedRMSD -1
REMARK  1 active torsions:
REMARK  status: ('A' for Active; 'I' for Inactive)
REMARK    1  A    between atoms: C1_2  and  C2_3 
ROOT
ATOM      1  C2  UNL d   1      -3.403   0.652   2.664  0.00  0.00    -0.077 A 
ATOM      2  C3  UNL d   1      -3.727   0.855   4.013  0.00  0.00     0.002 A 
ATOM      3  C4  UNL d   1      -5.020   1.234   4.380  0.00  0.00     0.002 A 
ATOM      4  C5  UNL d   1      -6.000   1.408   3.405  0.00  0.00    -0.004 A 
ATOM      5  C6  UNL d   1      -5.687   1.211   2.060  0.00  0.00     0.002 A 
ATOM      6  C7  UNL d   1      -4.395   0.834   1.692  0.00  0.00     0.002 A 
ENDROOT
BRANCH   1   7
ATOM      7  C1  UNL d   1      -2.022   0.196   2.271  0.00  0.00     0.055 C 
ATOM      8  C   UNL d   1      -2.068  -1.132   1.529  0.00  0.00     0.019 C 
ENDBRANCH   1   7
TORSDOF 1
ENDMDL
