MODEL 1
REMARK minimizedAffinity 2.97552872
REMARK minimizedRMSD -1
REMARK  1 active torsions:
REMARK  status: ('A' for Active; 'I' for Inactive)
REMARK    1  A    between atoms: C1_2  and  C2_3 
ROOT
ATOM      1  C2  UNL d   1      -3.730   0.243   1.086  0.00  0.00    -0.077 A 
ATOM      2  C3  UNL d   1      -3.667   1.215   2.095  0.00  0.00     0.002 A 
ATOM      3  C4  UNL d   1      -2.642   1.185   3.042  0.00  0.00     0.002 A 
ATOM      4  C5  UNL d   1      -1.670   0.188   2.988  0.00  0.00    -0.004 A 
ATOM      5  C6  UNL d   1      -1.725  -0.784   1.990  0.00  0.00     0.002 A 
ATOM      6  C7  UNL d   1      -2.749  -0.756   1.043  0.00  0.00     0.002 A 
ENDROOT
BRANCH   1   7
ATOM      7  C1  UNL d   1      -4.806   0.303   0.034  0.00  0.00     0.055 C 
ATOM      8  C   UNL d   1      -4.311  -0.246  -1.296  0.00  0.00     0.019 C 
ENDBRANCH   1   7
TORSDOF 1
ENDMDL
