MODEL 1
REMARK minimizedAffinity 5.32675552
REMARK minimizedRMSD -1
REMARK  1 active torsions:
REMARK  status: ('A' for Active; 'I' for Inactive)
REMARK    1  A    between atoms: C1_2  and  C2_3 
ROOT
ATOM      1  C2  UNL d   1       3.302   4.487  -3.045  0.00  0.00    -0.077 A 
ATOM      2  C3  UNL d   1       3.753   3.773  -4.164  0.00  0.00     0.002 A 
ATOM      3  C4  UNL d   1       5.096   3.824  -4.540  0.00  0.00     0.002 A 
ATOM      4  C5  UNL d   1       6.000   4.584  -3.800  0.00  0.00    -0.004 A 
ATOM      5  C6  UNL d   1       5.561   5.299  -2.687  0.00  0.00     0.002 A 
ATOM      6  C7  UNL d   1       4.218   5.250  -2.310  0.00  0.00     0.002 A 
ENDROOT
BRANCH   1   7
ATOM      7  C1  UNL d   1       1.863   4.394  -2.609  0.00  0.00     0.055 C 
ATOM      8  C   UNL d   1       1.495   2.971  -2.213  0.00  0.00     0.019 C 
ENDBRANCH   1   7
TORSDOF 1
ENDMDL
