MODEL 1
REMARK minimizedAffinity 1.38261998
REMARK minimizedRMSD -1
REMARK  1 active torsions:
REMARK  status: ('A' for Active; 'I' for Inactive)
REMARK    1  A    between atoms: C1_2  and  C2_3 
ROOT
ATOM      1  C2  UNL d   1      -3.250   1.329   2.705  0.00  0.00    -0.077 A 
ATOM      2  C3  UNL d   1      -3.671   1.117   1.385  0.00  0.00     0.002 A 
ATOM      3  C4  UNL d   1      -3.054   0.146   0.593  0.00  0.00     0.002 A 
ATOM      4  C5  UNL d   1      -2.016  -0.623   1.115  0.00  0.00    -0.004 A 
ATOM      5  C6  UNL d   1      -1.588  -0.419   2.426  0.00  0.00     0.002 A 
ATOM      6  C7  UNL d   1      -2.203   0.552   3.218  0.00  0.00     0.002 A 
ENDROOT
BRANCH   1   7
ATOM      7  C1  UNL d   1      -3.947   2.341   3.576  0.00  0.00     0.055 C 
ATOM      8  C   UNL d   1      -5.459   2.225   3.458  0.00  0.00     0.019 C 
ENDBRANCH   1   7
TORSDOF 1
ENDMDL
