MODEL 1
REMARK minimizedAffinity 7.25350189
REMARK minimizedRMSD -1
REMARK  1 active torsions:
REMARK  status: ('A' for Active; 'I' for Inactive)
REMARK    1  A    between atoms: C1_2  and  C2_3 
ROOT
ATOM      1  C2  UNL d   1       5.080   4.879  -2.463  0.00  0.00    -0.077 A 
ATOM      2  C3  UNL d   1       3.973   4.036  -2.633  0.00  0.00     0.002 A 
ATOM      3  C4  UNL d   1       3.687   3.489  -3.885  0.00  0.00     0.002 A 
ATOM      4  C5  UNL d   1       4.506   3.775  -4.975  0.00  0.00    -0.004 A 
ATOM      5  C6  UNL d   1       5.609   4.613  -4.817  0.00  0.00     0.002 A 
ATOM      6  C7  UNL d   1       5.895   5.162  -3.566  0.00  0.00     0.002 A 
ENDROOT
BRANCH   1   7
ATOM      7  C1  UNL d   1       5.418   5.431  -1.103  0.00  0.00     0.055 C 
ATOM      8  C   UNL d   1       5.811   4.321  -0.137  0.00  0.00     0.019 C 
ENDBRANCH   1   7
TORSDOF 1
ENDMDL
