MODEL 1
REMARK minimizedAffinity 6.8024168
REMARK minimizedRMSD -1
REMARK  1 active torsions:
REMARK  status: ('A' for Active; 'I' for Inactive)
REMARK    1  A    between atoms: C1_2  and  C2_3 
ROOT
ATOM      1  C2  UNL d   1      -3.287  -0.003   0.942  0.00  0.00    -0.077 A 
ATOM      2  C3  UNL d   1      -2.857  -0.628  -0.237  0.00  0.00     0.002 A 
ATOM      3  C4  UNL d   1      -3.637  -0.569  -1.393  0.00  0.00     0.002 A 
ATOM      4  C5  UNL d   1      -4.849   0.118  -1.384  0.00  0.00    -0.004 A 
ATOM      5  C6  UNL d   1      -5.287   0.742  -0.216  0.00  0.00     0.002 A 
ATOM      6  C7  UNL d   1      -4.509   0.683   0.941  0.00  0.00     0.002 A 
ENDROOT
BRANCH   1   7
ATOM      7  C1  UNL d   1      -2.425  -0.024   2.177  0.00  0.00     0.055 C 
ATOM      8  C   UNL d   1      -2.938   0.949   3.228  0.00  0.00     0.019 C 
ENDBRANCH   1   7
TORSDOF 1
ENDMDL
