MODEL 1
REMARK minimizedAffinity 2.22262383
REMARK minimizedRMSD -1
REMARK  1 active torsions:
REMARK  status: ('A' for Active; 'I' for Inactive)
REMARK    1  A    between atoms: C1_2  and  C2_3 
ROOT
ATOM      1  C2  UNL d   1      -2.078  -0.825   1.737  0.00  0.00    -0.077 A 
ATOM      2  C3  UNL d   1      -1.837   0.159   2.706  0.00  0.00     0.002 A 
ATOM      3  C4  UNL d   1      -2.766   1.179   2.924  0.00  0.00     0.002 A 
ATOM      4  C5  UNL d   1      -3.943   1.222   2.180  0.00  0.00    -0.004 A 
ATOM      5  C6  UNL d   1      -4.191   0.249   1.212  0.00  0.00     0.002 A 
ATOM      6  C7  UNL d   1      -3.263  -0.770   0.992  0.00  0.00     0.002 A 
ENDROOT
BRANCH   1   7
ATOM      7  C1  UNL d   1      -1.101  -1.953   1.535  0.00  0.00     0.055 C 
ATOM      8  C   UNL d   1      -0.011  -1.938   2.597  0.00  0.00     0.019 C 
ENDBRANCH   1   7
TORSDOF 1
ENDMDL
