MODEL 1
REMARK minimizedAffinity 2.80217528
REMARK minimizedRMSD -1
REMARK  1 active torsions:
REMARK  status: ('A' for Active; 'I' for Inactive)
REMARK    1  A    between atoms: C1_2  and  C2_3 
ROOT
ATOM      1  C2  UNL d   1       3.165   3.834  -3.088  0.00  0.00    -0.077 A 
ATOM      2  C3  UNL d   1       4.096   3.494  -4.079  0.00  0.00     0.002 A 
ATOM      3  C4  UNL d   1       5.270   4.234  -4.229  0.00  0.00     0.002 A 
ATOM      4  C5  UNL d   1       5.526   5.315  -3.387  0.00  0.00    -0.004 A 
ATOM      5  C6  UNL d   1       4.606   5.662  -2.399  0.00  0.00     0.002 A 
ATOM      6  C7  UNL d   1       3.431   4.924  -2.250  0.00  0.00     0.002 A 
ENDROOT
BRANCH   1   7
ATOM      7  C1  UNL d   1       1.921   3.007  -2.893  0.00  0.00     0.055 C 
ATOM      8  C   UNL d   1       2.204   1.769  -2.054  0.00  0.00     0.019 C 
ENDBRANCH   1   7
TORSDOF 1
ENDMDL
