MODEL 1
REMARK minimizedAffinity 11.7211227
REMARK minimizedRMSD -1
REMARK  1 active torsions:
REMARK  status: ('A' for Active; 'I' for Inactive)
REMARK    1  A    between atoms: C1_2  and  C2_3 
ROOT
ATOM      1  C2  UNL d   1       3.421   3.304  -3.519  0.00  0.00    -0.077 A 
ATOM      2  C3  UNL d   1       3.778   2.887  -4.809  0.00  0.00     0.002 A 
ATOM      3  C4  UNL d   1       5.045   3.177  -5.319  0.00  0.00     0.002 A 
ATOM      4  C5  UNL d   1       5.965   3.881  -4.545  0.00  0.00    -0.004 A 
ATOM      5  C6  UNL d   1       5.619   4.301  -3.262  0.00  0.00     0.002 A 
ATOM      6  C7  UNL d   1       4.353   4.014  -2.751  0.00  0.00     0.002 A 
ENDROOT
BRANCH   1   7
ATOM      7  C1  UNL d   1       2.072   2.950  -2.948  0.00  0.00     0.055 C 
ATOM      8  C   UNL d   1       2.187   1.857  -1.895  0.00  0.00     0.019 C 
ENDBRANCH   1   7
TORSDOF 1
ENDMDL
