MODEL 1
REMARK minimizedAffinity 4.69230556
REMARK minimizedRMSD -1
REMARK  1 active torsions:
REMARK  status: ('A' for Active; 'I' for Inactive)
REMARK    1  A    between atoms: C1_2  and  C2_3 
ROOT
ATOM      1  C2  UNL d   1      -4.234   1.711   4.800  0.00  0.00    -0.077 A 
ATOM      2  C3  UNL d   1      -4.930   1.507   3.600  0.00  0.00     0.002 A 
ATOM      3  C4  UNL d   1      -4.290   0.927   2.502  0.00  0.00     0.002 A 
ATOM      4  C5  UNL d   1      -2.954   0.544   2.595  0.00  0.00    -0.004 A 
ATOM      5  C6  UNL d   1      -2.253   0.744   3.784  0.00  0.00     0.002 A 
ATOM      6  C7  UNL d   1      -2.891   1.324   4.881  0.00  0.00     0.002 A 
ENDROOT
BRANCH   1   7
ATOM      7  C1  UNL d   1      -4.936   2.290   6.000  0.00  0.00     0.055 C 
ATOM      8  C   UNL d   1      -4.872   3.810   5.998  0.00  0.00     0.019 C 
ENDBRANCH   1   7
TORSDOF 1
ENDMDL
