MODEL 1
REMARK minimizedAffinity 6.2150588
REMARK minimizedRMSD -1
REMARK  1 active torsions:
REMARK  status: ('A' for Active; 'I' for Inactive)
REMARK    1  A    between atoms: C1_2  and  C2_3 
ROOT
ATOM      1  C2  UNL d   1       3.085   1.439   0.423  0.00  0.00    -0.077 A 
ATOM      2  C3  UNL d   1       3.350   1.666  -0.935  0.00  0.00     0.002 A 
ATOM      3  C4  UNL d   1       2.304   1.726  -1.858  0.00  0.00     0.002 A 
ATOM      4  C5  UNL d   1       0.988   1.562  -1.433  0.00  0.00    -0.004 A 
ATOM      5  C6  UNL d   1       0.714   1.334  -0.085  0.00  0.00     0.002 A 
ATOM      6  C7  UNL d   1       1.758   1.273   0.839  0.00  0.00     0.002 A 
ENDROOT
BRANCH   1   7
ATOM      7  C1  UNL d   1       4.207   1.424   1.428  0.00  0.00     0.055 C 
ATOM      8  C   UNL d   1       4.881   2.785   1.525  0.00  0.00     0.019 C 
ENDBRANCH   1   7
TORSDOF 1
ENDMDL
