MODEL 1
REMARK minimizedAffinity 6.19633198
REMARK minimizedRMSD -1
REMARK  1 active torsions:
REMARK  status: ('A' for Active; 'I' for Inactive)
REMARK    1  A    between atoms: C1_2  and  C2_3 
ROOT
ATOM      1  C2  UNL d   1      -1.934   0.104   3.142  0.00  0.00    -0.077 A 
ATOM      2  C3  UNL d   1      -2.885  -0.724   2.529  0.00  0.00     0.002 A 
ATOM      3  C4  UNL d   1      -2.490  -1.672   1.583  0.00  0.00     0.002 A 
ATOM      4  C5  UNL d   1      -1.145  -1.802   1.244  0.00  0.00    -0.004 A 
ATOM      5  C6  UNL d   1      -0.192  -0.981   1.846  0.00  0.00     0.002 A 
ATOM      6  C7  UNL d   1      -0.585  -0.033   2.792  0.00  0.00     0.002 A 
ENDROOT
BRANCH   1   7
ATOM      7  C1  UNL d   1      -2.352   1.093   4.199  0.00  0.00     0.055 C 
ATOM      8  C   UNL d   1      -2.469   0.428   5.563  0.00  0.00     0.019 C 
ENDBRANCH   1   7
TORSDOF 1
ENDMDL
