MODEL 1
REMARK minimizedAffinity 3.86325145
REMARK minimizedRMSD -1
REMARK  1 active torsions:
REMARK  status: ('A' for Active; 'I' for Inactive)
REMARK    1  A    between atoms: C1_2  and  C2_3 
ROOT
ATOM      1  C2  UNL d   1      -1.839  -5.457  -5.465  0.00  0.00    -0.077 A 
ATOM      2  C3  UNL d   1      -1.834  -4.399  -4.546  0.00  0.00     0.002 A 
ATOM      3  C4  UNL d   1      -0.627  -3.869  -4.086  0.00  0.00     0.002 A 
ATOM      4  C5  UNL d   1       0.583  -4.388  -4.543  0.00  0.00    -0.004 A 
ATOM      5  C6  UNL d   1       0.588  -5.441  -5.456  0.00  0.00     0.002 A 
ATOM      6  C7  UNL d   1      -0.618  -5.973  -5.916  0.00  0.00     0.002 A 
ENDROOT
BRANCH   1   7
ATOM      7  C1  UNL d   1      -3.140  -5.997  -6.000  0.00  0.00     0.055 C 
ATOM      8  C   UNL d   1      -4.235  -4.941  -5.963  0.00  0.00     0.019 C 
ENDBRANCH   1   7
TORSDOF 1
ENDMDL
