MODEL 1
REMARK minimizedAffinity 4.78921366
REMARK minimizedRMSD -1
REMARK  1 active torsions:
REMARK  status: ('A' for Active; 'I' for Inactive)
REMARK    1  A    between atoms: C1_2  and  C2_3 
ROOT
ATOM      1  C2  UNL d   1      -4.411   0.153   5.562  0.00  0.00    -0.077 A 
ATOM      2  C3  UNL d   1      -4.841   1.414   5.998  0.00  0.00     0.002 A 
ATOM      3  C4  UNL d   1      -4.198   2.572   5.556  0.00  0.00     0.002 A 
ATOM      4  C5  UNL d   1      -3.124   2.480   4.672  0.00  0.00    -0.004 A 
ATOM      5  C6  UNL d   1      -2.688   1.230   4.234  0.00  0.00     0.002 A 
ATOM      6  C7  UNL d   1      -3.329   0.072   4.676  0.00  0.00     0.002 A 
ENDROOT
BRANCH   1   7
ATOM      7  C1  UNL d   1      -5.135  -1.093   5.999  0.00  0.00     0.055 C 
ATOM      8  C   UNL d   1      -5.098  -2.163   4.918  0.00  0.00     0.019 C 
ENDBRANCH   1   7
TORSDOF 1
ENDMDL
