MODEL 1
REMARK minimizedAffinity 3.68960881
REMARK minimizedRMSD -1
REMARK  1 active torsions:
REMARK  status: ('A' for Active; 'I' for Inactive)
REMARK    1  A    between atoms: C1_2  and  C2_3 
ROOT
ATOM      1  C2  UNL d   1      -3.627   1.130   4.821  0.00  0.00    -0.077 A 
ATOM      2  C3  UNL d   1      -2.250   0.880   4.892  0.00  0.00     0.002 A 
ATOM      3  C4  UNL d   1      -1.565   0.375   3.785  0.00  0.00     0.002 A 
ATOM      4  C5  UNL d   1      -2.249   0.120   2.598  0.00  0.00    -0.004 A 
ATOM      5  C6  UNL d   1      -3.620   0.364   2.518  0.00  0.00     0.002 A 
ATOM      6  C7  UNL d   1      -4.305   0.868   3.624  0.00  0.00     0.002 A 
ENDROOT
BRANCH   1   7
ATOM      7  C1  UNL d   1      -4.358   1.721   5.998  0.00  0.00     0.055 C 
ATOM      8  C   UNL d   1      -4.268   3.240   6.000  0.00  0.00     0.019 C 
ENDBRANCH   1   7
TORSDOF 1
ENDMDL
