MODEL 1
REMARK minimizedAffinity 0.501771212
REMARK minimizedRMSD -1
REMARK  1 active torsions:
REMARK  status: ('A' for Active; 'I' for Inactive)
REMARK    1  A    between atoms: C1_2  and  C2_3 
ROOT
ATOM      1  C2  UNL d   1      -1.256  -0.930  -1.342  0.00  0.00    -0.077 A 
ATOM      2  C3  UNL d   1      -0.995  -1.650  -0.168  0.00  0.00     0.002 A 
ATOM      3  C4  UNL d   1      -1.658  -2.852   0.086  0.00  0.00     0.002 A 
ATOM      4  C5  UNL d   1      -2.583  -3.347  -0.831  0.00  0.00    -0.004 A 
ATOM      5  C6  UNL d   1      -2.851  -2.637  -2.001  0.00  0.00     0.002 A 
ATOM      6  C7  UNL d   1      -2.190  -1.435  -2.256  0.00  0.00     0.002 A 
ENDROOT
BRANCH   1   7
ATOM      7  C1  UNL d   1      -0.506   0.341  -1.641  0.00  0.00     0.055 C 
ATOM      8  C   UNL d   1       0.294   0.222  -2.931  0.00  0.00     0.019 C 
ENDBRANCH   1   7
TORSDOF 1
ENDMDL
