MODEL 1
REMARK minimizedAffinity -4.68932056
REMARK minimizedRMSD -1
REMARK  1 active torsions:
REMARK  status: ('A' for Active; 'I' for Inactive)
REMARK    1  A    between atoms: C1_2  and  C2_3 
ROOT
ATOM      1  C2  UNL d   1       1.166  -0.205  -3.076  0.00  0.00    -0.077 A 
ATOM      2  C3  UNL d   1       1.244  -0.499  -1.707  0.00  0.00     0.002 A 
ATOM      3  C4  UNL d   1       0.122  -0.358  -0.889  0.00  0.00     0.002 A 
ATOM      4  C5  UNL d   1      -1.087   0.073  -1.431  0.00  0.00    -0.004 A 
ATOM      5  C6  UNL d   1      -1.175   0.370  -2.791  0.00  0.00     0.002 A 
ATOM      6  C7  UNL d   1      -0.053   0.231  -3.610  0.00  0.00     0.002 A 
ENDROOT
BRANCH   1   7
ATOM      7  C1  UNL d   1       2.363  -0.404  -3.969  0.00  0.00     0.055 C 
ATOM      8  C   UNL d   1       1.969  -0.371  -5.438  0.00  0.00     0.019 C 
ENDBRANCH   1   7
TORSDOF 1
ENDMDL
