MODEL 1
REMARK minimizedAffinity -4.67977285
REMARK minimizedRMSD -1
REMARK  1 active torsions:
REMARK  status: ('A' for Active; 'I' for Inactive)
REMARK    1  A    between atoms: C1_2  and  C2_3 
ROOT
ATOM      1  C2  UNL d   1      -2.255  -3.059  -2.234  0.00  0.00    -0.077 A 
ATOM      2  C3  UNL d   1      -2.455  -1.691  -2.468  0.00  0.00     0.002 A 
ATOM      3  C4  UNL d   1      -1.939  -0.741  -1.583  0.00  0.00     0.002 A 
ATOM      4  C5  UNL d   1      -1.218  -1.149  -0.463  0.00  0.00    -0.004 A 
ATOM      5  C6  UNL d   1      -1.016  -2.507  -0.221  0.00  0.00     0.002 A 
ATOM      6  C7  UNL d   1      -1.532  -3.458  -1.103  0.00  0.00     0.002 A 
ENDROOT
BRANCH   1   7
ATOM      7  C1  UNL d   1      -2.768  -4.083  -3.213  0.00  0.00     0.055 C 
ATOM      8  C   UNL d   1      -3.028  -3.463  -4.578  0.00  0.00     0.019 C 
ENDBRANCH   1   7
TORSDOF 1
ENDMDL
