MODEL 1
REMARK minimizedAffinity -1.68520081
REMARK minimizedRMSD -1
REMARK  1 active torsions:
REMARK  status: ('A' for Active; 'I' for Inactive)
REMARK    1  A    between atoms: C1_2  and  C2_3 
ROOT
ATOM      1  C2  UNL d   1      -4.713   5.309   2.526  0.00  0.00    -0.077 A 
ATOM      2  C3  UNL d   1      -3.561   5.274   3.323  0.00  0.00     0.002 A 
ATOM      3  C4  UNL d   1      -3.629   5.600   4.679  0.00  0.00     0.002 A 
ATOM      4  C5  UNL d   1      -4.848   5.960   5.250  0.00  0.00    -0.004 A 
ATOM      5  C6  UNL d   1      -6.000   6.000   4.465  0.00  0.00     0.002 A 
ATOM      6  C7  UNL d   1      -5.933   5.675   3.110  0.00  0.00     0.002 A 
ENDROOT
BRANCH   1   7
ATOM      7  C1  UNL d   1      -4.651   4.909   1.075  0.00  0.00     0.055 C 
ATOM      8  C   UNL d   1      -5.276   5.970   0.181  0.00  0.00     0.019 C 
ENDBRANCH   1   7
TORSDOF 1
ENDMDL
