MODEL 1
REMARK minimizedAffinity 3.09480596
REMARK minimizedRMSD -1
REMARK  1 active torsions:
REMARK  status: ('A' for Active; 'I' for Inactive)
REMARK    1  A    between atoms: C1_2  and  C2_3 
ROOT
ATOM      1  C2  UNL d   1      -2.586  -0.183   3.604  0.00  0.00    -0.077 A 
ATOM      2  C3  UNL d   1      -2.989   0.863   4.447  0.00  0.00     0.002 A 
ATOM      3  C4  UNL d   1      -3.671   0.590   5.634  0.00  0.00     0.002 A 
ATOM      4  C5  UNL d   1      -3.953  -0.727   5.990  0.00  0.00    -0.004 A 
ATOM      5  C6  UNL d   1      -3.559  -1.774   5.158  0.00  0.00     0.002 A 
ATOM      6  C7  UNL d   1      -2.878  -1.503   3.970  0.00  0.00     0.002 A 
ENDROOT
BRANCH   1   7
ATOM      7  C1  UNL d   1      -1.807   0.107   2.347  0.00  0.00     0.055 C 
ATOM      8  C   UNL d   1      -2.650   0.872   1.337  0.00  0.00     0.019 C 
ENDBRANCH   1   7
TORSDOF 1
ENDMDL
