MODEL 1
REMARK minimizedAffinity 0.0533426367
REMARK minimizedRMSD -1
REMARK  1 active torsions:
REMARK  status: ('A' for Active; 'I' for Inactive)
REMARK    1  A    between atoms: C1_2  and  C2_3 
ROOT
ATOM      1  C2  UNL d   1       3.008   3.460   1.889  0.00  0.00    -0.077 A 
ATOM      2  C3  UNL d   1       4.128   4.265   1.637  0.00  0.00     0.002 A 
ATOM      3  C4  UNL d   1       4.484   4.588   0.326  0.00  0.00     0.002 A 
ATOM      4  C5  UNL d   1       3.724   4.115  -0.741  0.00  0.00    -0.004 A 
ATOM      5  C6  UNL d   1       2.609   3.313  -0.500  0.00  0.00     0.002 A 
ATOM      6  C7  UNL d   1       2.252   2.987   0.809  0.00  0.00     0.002 A 
ENDROOT
BRANCH   1   7
ATOM      7  C1  UNL d   1       2.593   3.151   3.304  0.00  0.00     0.055 C 
ATOM      8  C   UNL d   1       1.959   1.772   3.406  0.00  0.00     0.019 C 
ENDBRANCH   1   7
TORSDOF 1
ENDMDL
