MODEL 1
REMARK minimizedAffinity 2.22890687
REMARK minimizedRMSD -1
REMARK  1 active torsions:
REMARK  status: ('A' for Active; 'I' for Inactive)
REMARK    1  A    between atoms: C1_2  and  C2_3 
ROOT
ATOM      1  C2  UNL d   1      -5.336   5.638   1.798  0.00  0.00    -0.077 A 
ATOM      2  C3  UNL d   1      -4.082   5.016   1.875  0.00  0.00     0.002 A 
ATOM      3  C4  UNL d   1      -3.496   4.757   3.115  0.00  0.00     0.002 A 
ATOM      4  C5  UNL d   1      -4.159   5.112   4.288  0.00  0.00    -0.004 A 
ATOM      5  C6  UNL d   1      -5.406   5.733   4.223  0.00  0.00     0.002 A 
ATOM      6  C7  UNL d   1      -5.992   5.994   2.984  0.00  0.00     0.002 A 
ENDROOT
BRANCH   1   7
ATOM      7  C1  UNL d   1      -5.992   5.874   0.463  0.00  0.00     0.055 C 
ATOM      8  C   UNL d   1      -5.241   5.164  -0.655  0.00  0.00     0.019 C 
ENDBRANCH   1   7
TORSDOF 1
ENDMDL
