MODEL 1
REMARK minimizedAffinity 1.54748583
REMARK minimizedRMSD -1
REMARK  1 active torsions:
REMARK  status: ('A' for Active; 'I' for Inactive)
REMARK    1  A    between atoms: C1_2  and  C2_3 
ROOT
ATOM      1  C2  UNL d   1      -2.316  -2.418  -2.140  0.00  0.00    -0.077 A 
ATOM      2  C3  UNL d   1      -2.972  -3.604  -2.498  0.00  0.00     0.002 A 
ATOM      3  C4  UNL d   1      -3.450  -3.782  -3.797  0.00  0.00     0.002 A 
ATOM      4  C5  UNL d   1      -3.273  -2.781  -4.750  0.00  0.00    -0.004 A 
ATOM      5  C6  UNL d   1      -2.624  -1.597  -4.403  0.00  0.00     0.002 A 
ATOM      6  C7  UNL d   1      -2.146  -1.416  -3.105  0.00  0.00     0.002 A 
ENDROOT
BRANCH   1   7
ATOM      7  C1  UNL d   1      -1.756  -2.243  -0.752  0.00  0.00     0.055 C 
ATOM      8  C   UNL d   1      -0.990  -0.935  -0.625  0.00  0.00     0.019 C 
ENDBRANCH   1   7
TORSDOF 1
ENDMDL
