MODEL 1
REMARK minimizedAffinity 0.557125926
REMARK minimizedRMSD -1
REMARK  1 active torsions:
REMARK  status: ('A' for Active; 'I' for Inactive)
REMARK    1  A    between atoms: C1_2  and  C2_3 
ROOT
ATOM      1  C2  UNL d   1      -2.068   0.297   1.078  0.00  0.00    -0.077 A 
ATOM      2  C3  UNL d   1      -2.309  -1.059   0.813  0.00  0.00     0.002 A 
ATOM      3  C4  UNL d   1      -1.799  -1.655  -0.341  0.00  0.00     0.002 A 
ATOM      4  C5  UNL d   1      -1.041  -0.905  -1.238  0.00  0.00    -0.004 A 
ATOM      5  C6  UNL d   1      -0.797   0.444  -0.986  0.00  0.00     0.002 A 
ATOM      6  C7  UNL d   1      -1.307   1.042   0.168  0.00  0.00     0.002 A 
ENDROOT
BRANCH   1   7
ATOM      7  C1  UNL d   1      -2.575   0.929   2.347  0.00  0.00     0.055 C 
ATOM      8  C   UNL d   1      -2.401  -0.002   3.538  0.00  0.00     0.019 C 
ENDBRANCH   1   7
TORSDOF 1
ENDMDL
