MODEL 1
REMARK minimizedAffinity 3.86947274
REMARK minimizedRMSD -1
REMARK  1 active torsions:
REMARK  status: ('A' for Active; 'I' for Inactive)
REMARK    1  A    between atoms: C1_2  and  C2_3 
ROOT
ATOM      1  C2  UNL d   1       2.653   2.695   2.952  0.00  0.00    -0.077 A 
ATOM      2  C3  UNL d   1       3.130   2.517   4.258  0.00  0.00     0.002 A 
ATOM      3  C4  UNL d   1       2.395   1.773   5.183  0.00  0.00     0.002 A 
ATOM      4  C5  UNL d   1       1.182   1.198   4.811  0.00  0.00    -0.004 A 
ATOM      5  C6  UNL d   1       0.698   1.371   3.515  0.00  0.00     0.002 A 
ATOM      6  C7  UNL d   1       1.431   2.115   2.589  0.00  0.00     0.002 A 
ENDROOT
BRANCH   1   7
ATOM      7  C1  UNL d   1       3.468   3.456   1.939  0.00  0.00     0.055 C 
ATOM      8  C   UNL d   1       3.020   3.141   0.519  0.00  0.00     0.019 C 
ENDBRANCH   1   7
TORSDOF 1
ENDMDL
