MODEL 1
REMARK minimizedAffinity -4.52099657
REMARK minimizedRMSD -1
REMARK  1 active torsions:
REMARK  status: ('A' for Active; 'I' for Inactive)
REMARK    1  A    between atoms: C1_2  and  C2_3 
ROOT
ATOM      1  C2  UNL d   1      -4.531   2.993   3.707  0.00  0.00    -0.077 A 
ATOM      2  C3  UNL d   1      -4.846   3.468   4.987  0.00  0.00     0.002 A 
ATOM      3  C4  UNL d   1      -5.236   4.796   5.172  0.00  0.00     0.002 A 
ATOM      4  C5  UNL d   1      -5.318   5.658   4.080  0.00  0.00    -0.004 A 
ATOM      5  C6  UNL d   1      -5.005   5.195   2.802  0.00  0.00     0.002 A 
ATOM      6  C7  UNL d   1      -4.614   3.869   2.616  0.00  0.00     0.002 A 
ENDROOT
BRANCH   1   7
ATOM      7  C1  UNL d   1      -4.158   1.548   3.499  0.00  0.00     0.055 C 
ATOM      8  C   UNL d   1      -3.460   1.344   2.162  0.00  0.00     0.019 C 
ENDBRANCH   1   7
TORSDOF 1
ENDMDL
