MODEL 1
REMARK minimizedAffinity 1.90850651
REMARK minimizedRMSD -1
REMARK  1 active torsions:
REMARK  status: ('A' for Active; 'I' for Inactive)
REMARK    1  A    between atoms: C1_2  and  C2_3 
ROOT
ATOM      1  C2  UNL d   1      -4.911  -4.006  -2.169  0.00  0.00    -0.077 A 
ATOM      2  C3  UNL d   1      -4.316  -2.749  -1.996  0.00  0.00     0.002 A 
ATOM      3  C4  UNL d   1      -3.339  -2.302  -2.888  0.00  0.00     0.002 A 
ATOM      4  C5  UNL d   1      -2.952  -3.103  -3.959  0.00  0.00    -0.004 A 
ATOM      5  C6  UNL d   1      -3.536  -4.357  -4.138  0.00  0.00     0.002 A 
ATOM      6  C7  UNL d   1      -4.512  -4.806  -3.247  0.00  0.00     0.002 A 
ENDROOT
BRANCH   1   7
ATOM      7  C1  UNL d   1      -6.000  -4.470  -1.237  0.00  0.00     0.055 C 
ATOM      8  C   UNL d   1      -5.999  -5.985  -1.094  0.00  0.00     0.019 C 
ENDBRANCH   1   7
TORSDOF 1
ENDMDL
