MODEL 1
REMARK minimizedAffinity 0.57687372
REMARK minimizedRMSD -1
REMARK  1 active torsions:
REMARK  status: ('A' for Active; 'I' for Inactive)
REMARK    1  A    between atoms: C1_2  and  C2_3 
ROOT
ATOM      1  C2  UNL d   1      -4.574   4.059   3.336  0.00  0.00    -0.077 A 
ATOM      2  C3  UNL d   1      -5.523   5.002   3.756  0.00  0.00     0.002 A 
ATOM      3  C4  UNL d   1      -5.999   5.969   2.869  0.00  0.00     0.002 A 
ATOM      4  C5  UNL d   1      -5.536   5.999   1.555  0.00  0.00    -0.004 A 
ATOM      5  C6  UNL d   1      -4.591   5.067   1.128  0.00  0.00     0.002 A 
ATOM      6  C7  UNL d   1      -4.113   4.101   2.014  0.00  0.00     0.002 A 
ENDROOT
BRANCH   1   7
ATOM      7  C1  UNL d   1      -4.096   2.985   4.278  0.00  0.00     0.055 C 
ATOM      8  C   UNL d   1      -3.736   1.711   3.528  0.00  0.00     0.019 C 
ENDBRANCH   1   7
TORSDOF 1
ENDMDL
