MODEL 1
REMARK minimizedAffinity 1.3546735
REMARK minimizedRMSD -1
REMARK  0 active torsions:
REMARK  status: ('A' for Active; 'I' for Inactive)
ROOT
ATOM      1  C4' PXY d   1      -0.122   3.845  -1.372  0.00  0.00     0.077 C 
ATOM      2  C1' PXY d   1       0.457  -0.662   2.201  0.00  0.00     0.077 C 
ATOM      3  C1  PXY d   1       0.310   0.513   1.255  0.00  0.00    -0.082 A 
ATOM      4  C2  PXY d   1       0.287   1.744   1.738  0.00  0.00     0.003 A 
ATOM      5  C3  PXY d   1       0.123   2.816   0.899  0.00  0.00     0.003 A 
ATOM      6  C4  PXY d   1       0.034   2.629  -0.454  0.00  0.00    -0.082 A 
ATOM      7  C5  PXY d   1       0.068   1.377  -0.956  0.00  0.00     0.003 A 
ATOM      8  C6  PXY d   1       0.194   0.300  -0.084  0.00  0.00     0.003 A 
ENDROOT
TORSDOF 0
ENDMDL
