MODEL 1
REMARK minimizedAffinity -0.699876189
REMARK minimizedRMSD -1
REMARK  0 active torsions:
REMARK  status: ('A' for Active; 'I' for Inactive)
ROOT
ATOM      1  C4' PXY d   1       0.543   4.963  -1.435  0.00  0.00     0.077 C 
ATOM      2  C1' PXY d   1       0.297   0.134   1.733  0.00  0.00     0.077 C 
ATOM      3  C1  PXY d   1       0.365   1.393   0.892  0.00  0.00    -0.082 A 
ATOM      4  C2  PXY d   1       0.556   2.563   1.480  0.00  0.00     0.003 A 
ATOM      5  C3  PXY d   1       0.588   3.716   0.738  0.00  0.00     0.003 A 
ATOM      6  C4  PXY d   1       0.477   3.664  -0.626  0.00  0.00    -0.082 A 
ATOM      7  C5  PXY d   1       0.293   2.473  -1.235  0.00  0.00     0.003 A 
ATOM      8  C6  PXY d   1       0.222   1.320  -0.459  0.00  0.00     0.003 A 
ENDROOT
TORSDOF 0
ENDMDL
