MODEL 1
REMARK minimizedAffinity 0.612053394
REMARK minimizedRMSD -1
REMARK  0 active torsions:
REMARK  status: ('A' for Active; 'I' for Inactive)
ROOT
ATOM      1  C4' PXY d   1       0.913   2.455   2.649  0.00  0.00     0.077 C 
ATOM      2  C1' PXY d   1       0.276   4.658  -2.657  0.00  0.00     0.077 C 
ATOM      3  C1  PXY d   1       0.434   4.071  -1.268  0.00  0.00    -0.082 A 
ATOM      4  C2  PXY d   1       0.834   4.845  -0.272  0.00  0.00     0.003 A 
ATOM      5  C3  PXY d   1       1.013   4.323   0.983  0.00  0.00     0.003 A 
ATOM      6  C4  PXY d   1       0.730   3.007   1.233  0.00  0.00    -0.082 A 
ATOM      7  C5  PXY d   1       0.312   2.213   0.224  0.00  0.00     0.003 A 
ATOM      8  C6  PXY d   1       0.176   2.753  -1.052  0.00  0.00     0.003 A 
ENDROOT
TORSDOF 0
ENDMDL
