MODEL 1
REMARK minimizedAffinity 3.94689107
REMARK minimizedRMSD -1
REMARK  0 active torsions:
REMARK  status: ('A' for Active; 'I' for Inactive)
ROOT
ATOM      1  C4' PXY d   1       0.109   1.908  -0.986  0.00  0.00     0.077 C 
ATOM      2  C1' PXY d   1       1.802  -1.234   3.561  0.00  0.00     0.077 C 
ATOM      3  C1  PXY d   1       1.349  -0.405   2.376  0.00  0.00    -0.082 A 
ATOM      4  C2  PXY d   1       1.570  -0.843   1.148  0.00  0.00     0.003 A 
ATOM      5  C3  PXY d   1       1.196  -0.090   0.065  0.00  0.00     0.003 A 
ATOM      6  C4  PXY d   1       0.541   1.099   0.240  0.00  0.00    -0.082 A 
ATOM      7  C5  PXY d   1       0.302   1.548   1.491  0.00  0.00     0.003 A 
ATOM      8  C6  PXY d   1       0.727   0.789   2.577  0.00  0.00     0.003 A 
ENDROOT
TORSDOF 0
ENDMDL
