MODEL 1
REMARK minimizedAffinity -4.24080658
REMARK minimizedRMSD -1
REMARK  0 active torsions:
REMARK  status: ('A' for Active; 'I' for Inactive)
ROOT
ATOM      1  C4' PXY d   1       3.004   2.733   4.828  0.00  0.00     0.077 C 
ATOM      2  C1' PXY d   1       1.260  -1.246   1.014  0.00  0.00     0.077 C 
ATOM      3  C1  PXY d   1       1.713  -0.193   2.006  0.00  0.00    -0.082 A 
ATOM      4  C2  PXY d   1       2.716  -0.457   2.828  0.00  0.00     0.003 A 
ATOM      5  C3  PXY d   1       3.117   0.472   3.754  0.00  0.00     0.003 A 
ATOM      6  C4  PXY d   1       2.520   1.703   3.803  0.00  0.00    -0.082 A 
ATOM      7  C5  PXY d   1       1.503   1.984   2.961  0.00  0.00     0.003 A 
ATOM      8  C6  PXY d   1       1.084   1.012   2.056  0.00  0.00     0.003 A 
ENDROOT
TORSDOF 0
ENDMDL
