MODEL 1
REMARK minimizedAffinity 3.10560226
REMARK minimizedRMSD -1
REMARK  0 active torsions:
REMARK  status: ('A' for Active; 'I' for Inactive)
ROOT
ATOM      1  C4' PXY d   1      -0.380   5.997  -3.149  0.00  0.00     0.077 C 
ATOM      2  C1' PXY d   1       1.303   3.404   1.735  0.00  0.00     0.077 C 
ATOM      3  C1  PXY d   1       0.867   4.075   0.447  0.00  0.00    -0.082 A 
ATOM      4  C2  PXY d   1       0.667   5.382   0.426  0.00  0.00     0.003 A 
ATOM      5  C3  PXY d   1       0.241   6.000  -0.722  0.00  0.00     0.003 A 
ATOM      6  C4  PXY d   1       0.070   5.279  -1.874  0.00  0.00    -0.082 A 
ATOM      7  C5  PXY d   1       0.282   3.946  -1.862  0.00  0.00     0.003 A 
ATOM      8  C6  PXY d   1       0.674   3.332  -0.676  0.00  0.00     0.003 A 
ENDROOT
TORSDOF 0
ENDMDL
