MODEL 1
REMARK minimizedAffinity 7.25428534
REMARK minimizedRMSD -1
REMARK  0 active torsions:
REMARK  status: ('A' for Active; 'I' for Inactive)
ROOT
ATOM      1  C4' PXY d   1      -0.697  -4.114  -1.178  0.00  0.00     0.077 C 
ATOM      2  C1' PXY d   1       4.467  -5.996   0.616  0.00  0.00     0.077 C 
ATOM      3  C1  PXY d   1       3.118  -5.491   0.141  0.00  0.00    -0.082 A 
ATOM      4  C2  PXY d   1       2.011  -5.999   0.658  0.00  0.00     0.003 A 
ATOM      5  C3  PXY d   1       0.783  -5.577   0.218  0.00  0.00     0.003 A 
ATOM      6  C4  PXY d   1       0.687  -4.587  -0.723  0.00  0.00    -0.082 A 
ATOM      7  C5  PXY d   1       1.812  -4.056  -1.247  0.00  0.00     0.003 A 
ATOM      8  C6  PXY d   1       3.049  -4.527  -0.816  0.00  0.00     0.003 A 
ENDROOT
TORSDOF 0
ENDMDL
