MODEL 1
REMARK minimizedAffinity -2.39210463
REMARK minimizedRMSD -1
REMARK  0 active torsions:
REMARK  status: ('A' for Active; 'I' for Inactive)
ROOT
ATOM      1  C4' PXY d   1      -2.539   0.981  -2.275  0.00  0.00     0.077 C 
ATOM      2  C1' PXY d   1       0.253   6.000  -1.619  0.00  0.00     0.077 C 
ATOM      3  C1  PXY d   1      -0.468   4.677  -1.789  0.00  0.00    -0.082 A 
ATOM      4  C2  PXY d   1      -1.565   4.620  -2.526  0.00  0.00     0.003 A 
ATOM      5  C3  PXY d   1      -2.248   3.439  -2.664  0.00  0.00     0.003 A 
ATOM      6  C4  PXY d   1      -1.773   2.293  -2.084  0.00  0.00    -0.082 A 
ATOM      7  C5  PXY d   1      -0.649   2.341  -1.339  0.00  0.00     0.003 A 
ATOM      8  C6  PXY d   1       0.007   3.558  -1.178  0.00  0.00     0.003 A 
ENDROOT
TORSDOF 0
ENDMDL
