MODEL 1
REMARK minimizedAffinity -2.61079168
REMARK minimizedRMSD -1
REMARK  0 active torsions:
REMARK  status: ('A' for Active; 'I' for Inactive)
ROOT
ATOM      1  C4' PXY d   1       0.708   0.542   1.920  0.00  0.00     0.077 C 
ATOM      2  C1' PXY d   1       0.457   5.081  -1.651  0.00  0.00     0.077 C 
ATOM      3  C1  PXY d   1       0.514   3.884  -0.722  0.00  0.00    -0.082 A 
ATOM      4  C2  PXY d   1       0.888   4.050   0.536  0.00  0.00     0.003 A 
ATOM      5  C3  PXY d   1       0.976   2.974   1.381  0.00  0.00     0.003 A 
ATOM      6  C4  PXY d   1       0.626   1.723   0.949  0.00  0.00    -0.082 A 
ATOM      7  C5  PXY d   1       0.233   1.547  -0.330  0.00  0.00     0.003 A 
ATOM      8  C6  PXY d   1       0.190   2.646  -1.184  0.00  0.00     0.003 A 
ENDROOT
TORSDOF 0
ENDMDL
