MODEL 1
REMARK minimizedAffinity 0.751126766
REMARK minimizedRMSD -1
REMARK  0 active torsions:
REMARK  status: ('A' for Active; 'I' for Inactive)
ROOT
ATOM      1  C4' PXY d   1       0.355   0.551   1.846  0.00  0.00     0.077 C 
ATOM      2  C1' PXY d   1       0.654   5.319  -1.407  0.00  0.00     0.077 C 
ATOM      3  C1  PXY d   1       0.568   4.063  -0.563  0.00  0.00    -0.082 A 
ATOM      4  C2  PXY d   1       0.779   4.136   0.741  0.00  0.00     0.003 A 
ATOM      5  C3  PXY d   1       0.736   3.005   1.515  0.00  0.00     0.003 A 
ATOM      6  C4  PXY d   1       0.423   1.795   0.956  0.00  0.00    -0.082 A 
ATOM      7  C5  PXY d   1       0.196   1.714  -0.372  0.00  0.00     0.003 A 
ATOM      8  C6  PXY d   1       0.285   2.867  -1.146  0.00  0.00     0.003 A 
ENDROOT
TORSDOF 0
ENDMDL
