MODEL 1
REMARK minimizedAffinity 2.92006469
REMARK minimizedRMSD -1
REMARK  0 active torsions:
REMARK  status: ('A' for Active; 'I' for Inactive)
ROOT
ATOM      1  C4' PXY d   1       0.592   5.166  -1.372  0.00  0.00     0.077 C 
ATOM      2  C1' PXY d   1       0.243   0.415   1.902  0.00  0.00     0.077 C 
ATOM      3  C1  PXY d   1       0.338   1.654   1.033  0.00  0.00    -0.082 A 
ATOM      4  C2  PXY d   1       0.525   2.836   1.598  0.00  0.00     0.003 A 
ATOM      5  C3  PXY d   1       0.581   3.970   0.830  0.00  0.00     0.003 A 
ATOM      6  C4  PXY d   1       0.499   3.888  -0.535  0.00  0.00    -0.082 A 
ATOM      7  C5  PXY d   1       0.319   2.684  -1.119  0.00  0.00     0.003 A 
ATOM      8  C6  PXY d   1       0.223   1.549  -0.318  0.00  0.00     0.003 A 
ENDROOT
TORSDOF 0
ENDMDL
