MODEL 1
REMARK minimizedAffinity 8.96575737
REMARK minimizedRMSD -1
REMARK  0 active torsions:
REMARK  status: ('A' for Active; 'I' for Inactive)
ROOT
ATOM      1  N1  IND d   1       1.477   2.857  -2.278  0.00  0.00    -0.196 N 
ATOM      2  C2  IND d   1       1.321   1.666  -1.626  0.00  0.00     0.054 A 
ATOM      3  C3  IND d   1       1.254   1.866  -0.291  0.00  0.00    -0.031 A 
ATOM      4  C4  IND d   1       1.276   4.072   1.036  0.00  0.00     0.051 A 
ATOM      5  C5  IND d   1       1.437   5.421   0.881  0.00  0.00    -0.031 A 
ATOM      6  C6  IND d   1       1.621   5.995  -0.360  0.00  0.00     0.015 A 
ATOM      7  C7  IND d   1       1.639   5.241  -1.499  0.00  0.00    -0.016 A 
ATOM      8  C8  IND d   1       1.482   3.871  -1.345  0.00  0.00    -0.047 A 
ATOM      9  C9  IND d   1       1.338   3.277  -0.084  0.00  0.00    -0.096 A 
ATOM     10  HN1 IND d   1       1.558   2.957  -3.128  0.00  0.00     0.298 HD
ENDROOT
TORSDOF 0
ENDMDL
