MODEL 1
REMARK minimizedAffinity 1.00540161
REMARK minimizedRMSD -1
REMARK  0 active torsions:
REMARK  status: ('A' for Active; 'I' for Inactive)
ROOT
ATOM      1  N1  IND d   1       1.044   4.279  -1.838  0.00  0.00    -0.196 N 
ATOM      2  C2  IND d   1       1.444   4.861  -0.668  0.00  0.00     0.054 A 
ATOM      3  C3  IND d   1       1.805   3.915   0.228  0.00  0.00    -0.031 A 
ATOM      4  C4  IND d   1       1.917   1.358  -0.048  0.00  0.00     0.051 A 
ATOM      5  C5  IND d   1       1.616   0.355  -0.926  0.00  0.00    -0.031 A 
ATOM      6  C6  IND d   1       1.102   0.614  -2.180  0.00  0.00     0.015 A 
ATOM      7  C7  IND d   1       0.878   1.892  -2.608  0.00  0.00    -0.016 A 
ATOM      8  C8  IND d   1       1.176   2.913  -1.716  0.00  0.00    -0.047 A 
ATOM      9  C9  IND d   1       1.658   2.654  -0.427  0.00  0.00    -0.096 A 
ATOM     10  HN1 IND d   1       0.759   4.696  -2.534  0.00  0.00     0.298 HD
ENDROOT
TORSDOF 0
ENDMDL
