MODEL 1
REMARK minimizedAffinity -2.13281655
REMARK minimizedRMSD -1
REMARK  0 active torsions:
REMARK  status: ('A' for Active; 'I' for Inactive)
ROOT
ATOM      1  N1  IND d   1       1.050   4.059  -1.400  0.00  0.00    -0.196 N 
ATOM      2  C2  IND d   1       1.223   4.633  -0.171  0.00  0.00     0.054 A 
ATOM      3  C3  IND d   1       1.519   3.690   0.751  0.00  0.00    -0.031 A 
ATOM      4  C4  IND d   1       1.872   1.158   0.447  0.00  0.00     0.051 A 
ATOM      5  C5  IND d   1       1.785   0.163  -0.486  0.00  0.00    -0.031 A 
ATOM      6  C6  IND d   1       1.445   0.421  -1.799  0.00  0.00     0.015 A 
ATOM      7  C7  IND d   1       1.189   1.692  -2.231  0.00  0.00    -0.016 A 
ATOM      8  C8  IND d   1       1.269   2.703  -1.285  0.00  0.00    -0.047 A 
ATOM      9  C9  IND d   1       1.572   2.442   0.058  0.00  0.00    -0.096 A 
ATOM     10  HN1 IND d   1       0.840   4.474  -2.122  0.00  0.00     0.298 HD
ENDROOT
TORSDOF 0
ENDMDL
