MODEL 1
REMARK minimizedAffinity 3.00219035
REMARK minimizedRMSD -1
REMARK  0 active torsions:
REMARK  status: ('A' for Active; 'I' for Inactive)
ROOT
ATOM      1  N1  IND d   1      -3.395  -3.583   5.584  0.00  0.00    -0.196 N 
ATOM      2  C2  IND d   1      -3.801  -4.769   5.040  0.00  0.00     0.054 A 
ATOM      3  C3  IND d   1      -3.092  -5.040   3.921  0.00  0.00    -0.031 A 
ATOM      4  C4  IND d   1      -1.150  -3.728   2.857  0.00  0.00     0.051 A 
ATOM      5  C5  IND d   1      -0.446  -2.561   2.974  0.00  0.00    -0.031 A 
ATOM      6  C6  IND d   1      -0.693  -1.659   3.988  0.00  0.00     0.015 A 
ATOM      7  C7  IND d   1      -1.649  -1.896   4.935  0.00  0.00    -0.016 A 
ATOM      8  C8  IND d   1      -2.370  -3.076   4.816  0.00  0.00    -0.047 A 
ATOM      9  C9  IND d   1      -2.153  -3.975   3.764  0.00  0.00    -0.096 A 
ATOM     10  HN1 IND d   1      -3.725  -3.215   6.288  0.00  0.00     0.298 HD
ENDROOT
TORSDOF 0
ENDMDL
