MODEL 1
REMARK minimizedAffinity 4.4525466
REMARK minimizedRMSD -1
REMARK  0 active torsions:
REMARK  status: ('A' for Active; 'I' for Inactive)
ROOT
ATOM      1  N1  IND d   1      -3.323   0.422   2.597  0.00  0.00    -0.196 N 
ATOM      2  C2  IND d   1      -3.204   1.720   3.007  0.00  0.00     0.054 A 
ATOM      3  C3  IND d   1      -2.272   1.823   3.981  0.00  0.00    -0.031 A 
ATOM      4  C4  IND d   1      -0.748   0.006   4.983  0.00  0.00     0.051 A 
ATOM      5  C5  IND d   1      -0.514  -1.340   4.954  0.00  0.00    -0.031 A 
ATOM      6  C6  IND d   1      -1.216  -2.184   4.119  0.00  0.00     0.015 A 
ATOM      7  C7  IND d   1      -2.176  -1.710   3.270  0.00  0.00    -0.016 A 
ATOM      8  C8  IND d   1      -2.421  -0.345   3.302  0.00  0.00    -0.047 A 
ATOM      9  C9  IND d   1      -1.741   0.511   4.177  0.00  0.00    -0.096 A 
ATOM     10  HN1 IND d   1      -3.869   0.132   1.999  0.00  0.00     0.298 HD
ENDROOT
TORSDOF 0
ENDMDL
