MODEL 1
REMARK minimizedAffinity -2.98647952
REMARK minimizedRMSD -1
REMARK  0 active torsions:
REMARK  status: ('A' for Active; 'I' for Inactive)
ROOT
ATOM      1  N1  IND d   1       1.695   3.988   1.704  0.00  0.00    -0.196 N 
ATOM      2  C2  IND d   1       1.683   2.911   2.546  0.00  0.00     0.054 A 
ATOM      3  C3  IND d   1       1.478   1.771   1.850  0.00  0.00    -0.031 A 
ATOM      4  C4  IND d   1       1.238   1.426  -0.690  0.00  0.00     0.051 A 
ATOM      5  C5  IND d   1       1.146   2.116  -1.867  0.00  0.00    -0.031 A 
ATOM      6  C6  IND d   1       1.238   3.492  -1.915  0.00  0.00     0.015 A 
ATOM      7  C7  IND d   1       1.436   4.232  -0.784  0.00  0.00    -0.016 A 
ATOM      8  C8  IND d   1       1.523   3.536   0.414  0.00  0.00    -0.047 A 
ATOM      9  C9  IND d   1       1.388   2.143   0.474  0.00  0.00    -0.096 A 
ATOM     10  HN1 IND d   1       1.794   4.808   1.940  0.00  0.00     0.298 HD
ENDROOT
TORSDOF 0
ENDMDL
