MODEL 1
REMARK minimizedAffinity 3.64535117
REMARK minimizedRMSD -1
REMARK  0 active torsions:
REMARK  status: ('A' for Active; 'I' for Inactive)
ROOT
ATOM      1  N1  IND d   1       1.371   2.291   0.875  0.00  0.00    -0.196 N 
ATOM      2  C2  IND d   1       1.193   1.444   1.934  0.00  0.00     0.054 A 
ATOM      3  C3  IND d   1       1.118   0.164   1.505  0.00  0.00    -0.031 A 
ATOM      4  C4  IND d   1       1.364  -0.780  -0.877  0.00  0.00     0.051 A 
ATOM      5  C5  IND d   1       1.502  -0.392  -2.180  0.00  0.00    -0.031 A 
ATOM      6  C6  IND d   1       1.608   0.936  -2.539  0.00  0.00     0.015 A 
ATOM      7  C7  IND d   1       1.592   1.930  -1.602  0.00  0.00    -0.016 A 
ATOM      8  C8  IND d   1       1.445   1.541  -0.278  0.00  0.00    -0.047 A 
ATOM      9  C9  IND d   1       1.294   0.197   0.088  0.00  0.00    -0.096 A 
ATOM     10  HN1 IND d   1       1.427   3.148   0.922  0.00  0.00     0.298 HD
ENDROOT
TORSDOF 0
ENDMDL
