MODEL 1
REMARK minimizedAffinity 5.16565847
REMARK minimizedRMSD -1
REMARK  0 active torsions:
REMARK  status: ('A' for Active; 'I' for Inactive)
ROOT
ATOM      1  N1  IND d   1       0.546   5.342  -1.226  0.00  0.00    -0.196 N 
ATOM      2  C2  IND d   1       1.678   5.722  -0.561  0.00  0.00     0.054 A 
ATOM      3  C3  IND d   1       2.542   4.685  -0.472  0.00  0.00    -0.031 A 
ATOM      4  C4  IND d   1       2.345   2.306  -1.434  0.00  0.00     0.051 A 
ATOM      5  C5  IND d   1       1.477   1.476  -2.087  0.00  0.00    -0.031 A 
ATOM      6  C6  IND d   1       0.230   1.903  -2.497  0.00  0.00     0.015 A 
ATOM      7  C7  IND d   1      -0.193   3.183  -2.279  0.00  0.00    -0.016 A 
ATOM      8  C8  IND d   1       0.683   4.026  -1.609  0.00  0.00    -0.047 A 
ATOM      9  C9  IND d   1       1.933   3.587  -1.153  0.00  0.00    -0.096 A 
ATOM     10  HN1 IND d   1      -0.137   5.841  -1.378  0.00  0.00     0.298 HD
ENDROOT
TORSDOF 0
ENDMDL
