MODEL 1
REMARK minimizedAffinity -2.51498818
REMARK minimizedRMSD -1
REMARK  0 active torsions:
REMARK  status: ('A' for Active; 'I' for Inactive)
ROOT
ATOM      1  N1  IND d   1       1.553  -0.337  -2.001  0.00  0.00    -0.196 N 
ATOM      2  C2  IND d   1       1.451  -1.347  -1.084  0.00  0.00     0.054 A 
ATOM      3  C3  IND d   1       1.271  -0.839   0.156  0.00  0.00    -0.031 A 
ATOM      4  C4  IND d   1       1.011   1.612   0.898  0.00  0.00     0.051 A 
ATOM      5  C5  IND d   1       1.068   2.893   0.425  0.00  0.00    -0.031 A 
ATOM      6  C6  IND d   1       1.292   3.168  -0.908  0.00  0.00     0.015 A 
ATOM      7  C7  IND d   1       1.456   2.167  -1.824  0.00  0.00    -0.016 A 
ATOM      8  C8  IND d   1       1.405   0.866  -1.346  0.00  0.00    -0.047 A 
ATOM      9  C9  IND d   1       1.221   0.581   0.013  0.00  0.00    -0.096 A 
ATOM     10  HN1 IND d   1       1.687  -0.437  -2.844  0.00  0.00     0.298 HD
ENDROOT
TORSDOF 0
ENDMDL
