MODEL 1
REMARK minimizedAffinity -2.23197722
REMARK minimizedRMSD -1
REMARK  0 active torsions:
REMARK  status: ('A' for Active; 'I' for Inactive)
ROOT
ATOM      1  N1  IND d   1       1.512   5.304  -1.609  0.00  0.00    -0.196 N 
ATOM      2  C2  IND d   1       1.639   5.925  -0.399  0.00  0.00     0.054 A 
ATOM      3  C3  IND d   1       1.556   5.023   0.605  0.00  0.00    -0.031 A 
ATOM      4  C4  IND d   1       1.314   2.463   0.486  0.00  0.00     0.051 A 
ATOM      5  C5  IND d   1       1.124   1.439  -0.399  0.00  0.00    -0.031 A 
ATOM      6  C6  IND d   1       1.054   1.655  -1.760  0.00  0.00     0.015 A 
ATOM      7  C7  IND d   1       1.184   2.907  -2.290  0.00  0.00    -0.016 A 
ATOM      8  C8  IND d   1       1.371   3.950  -1.395  0.00  0.00    -0.047 A 
ATOM      9  C9  IND d   1       1.400   3.743  -0.009  0.00  0.00    -0.096 A 
ATOM     10  HN1 IND d   1       1.519   5.692  -2.376  0.00  0.00     0.298 HD
ENDROOT
TORSDOF 0
ENDMDL
