MODEL 1
REMARK minimizedAffinity 2.8737731
REMARK minimizedRMSD -1
REMARK  0 active torsions:
REMARK  status: ('A' for Active; 'I' for Inactive)
ROOT
ATOM      1  N1  IND d   1       1.587   4.206  -1.707  0.00  0.00    -0.196 N 
ATOM      2  C2  IND d   1       1.772   4.924  -0.558  0.00  0.00     0.054 A 
ATOM      3  C3  IND d   1       1.621   4.128   0.524  0.00  0.00    -0.031 A 
ATOM      4  C4  IND d   1       1.169   1.596   0.642  0.00  0.00     0.051 A 
ATOM      5  C5  IND d   1       0.890   0.514  -0.145  0.00  0.00    -0.031 A 
ATOM      6  C6  IND d   1       0.830   0.609  -1.520  0.00  0.00     0.015 A 
ATOM      7  C7  IND d   1       1.059   1.792  -2.164  0.00  0.00    -0.016 A 
ATOM      8  C8  IND d   1       1.337   2.894  -1.368  0.00  0.00    -0.047 A 
ATOM      9  C9  IND d   1       1.357   2.814   0.031  0.00  0.00    -0.096 A 
ATOM     10  HN1 IND d   1       1.621   4.520  -2.506  0.00  0.00     0.298 HD
ENDROOT
TORSDOF 0
ENDMDL
