MODEL 1
REMARK minimizedAffinity 2.73550701
REMARK minimizedRMSD -1
REMARK  0 active torsions:
REMARK  status: ('A' for Active; 'I' for Inactive)
ROOT
ATOM      1  N1  IND d   1      -4.608   2.859   4.016  0.00  0.00    -0.196 N 
ATOM      2  C2  IND d   1      -3.397   3.131   3.444  0.00  0.00     0.054 A 
ATOM      3  C3  IND d   1      -2.880   2.015   2.883  0.00  0.00    -0.031 A 
ATOM      4  C4  IND d   1      -3.898  -0.343   2.694  0.00  0.00     0.051 A 
ATOM      5  C5  IND d   1      -4.971  -1.088   3.096  0.00  0.00    -0.031 A 
ATOM      6  C6  IND d   1      -6.000  -0.544   3.838  0.00  0.00     0.015 A 
ATOM      7  C7  IND d   1      -6.000   0.774   4.197  0.00  0.00    -0.016 A 
ATOM      8  C8  IND d   1      -4.908   1.532   3.797  0.00  0.00    -0.047 A 
ATOM      9  C9  IND d   1      -3.841   0.976   3.081  0.00  0.00    -0.096 A 
ATOM     10  HN1 IND d   1      -5.100   3.421   4.442  0.00  0.00     0.298 HD
ENDROOT
TORSDOF 0
ENDMDL
