MODEL 1
REMARK minimizedAffinity 0.54615891
REMARK minimizedRMSD -1
REMARK  0 active torsions:
REMARK  status: ('A' for Active; 'I' for Inactive)
ROOT
ATOM      1  N1  IND d   1       1.580   4.298   0.057  0.00  0.00    -0.196 N 
ATOM      2  C2  IND d   1       1.427   4.440  -1.294  0.00  0.00     0.054 A 
ATOM      3  C3  IND d   1       1.263   3.232  -1.878  0.00  0.00    -0.031 A 
ATOM      4  C4  IND d   1       1.109   0.900  -0.799  0.00  0.00     0.051 A 
ATOM      5  C5  IND d   1       1.228   0.259   0.403  0.00  0.00    -0.031 A 
ATOM      6  C6  IND d   1       1.472   0.946   1.574  0.00  0.00     0.015 A 
ATOM      7  C7  IND d   1       1.596   2.307   1.590  0.00  0.00    -0.016 A 
ATOM      8  C8  IND d   1       1.484   2.960   0.371  0.00  0.00    -0.047 A 
ATOM      9  C9  IND d   1       1.278   2.264  -0.828  0.00  0.00    -0.096 A 
ATOM     10  HN1 IND d   1       1.715   4.937   0.617  0.00  0.00     0.298 HD
ENDROOT
TORSDOF 0
ENDMDL
