MODEL 1
REMARK minimizedAffinity 0.359902829
REMARK minimizedRMSD -1
REMARK  0 active torsions:
REMARK  status: ('A' for Active; 'I' for Inactive)
ROOT
ATOM      1  N1  IND d   1       1.321   4.305  -1.785  0.00  0.00    -0.196 N 
ATOM      2  C2  IND d   1       1.425   4.967  -0.593  0.00  0.00     0.054 A 
ATOM      3  C3  IND d   1       1.642   4.092   0.414  0.00  0.00    -0.031 A 
ATOM      4  C4  IND d   1       1.962   1.539   0.322  0.00  0.00     0.051 A 
ATOM      5  C5  IND d   1       1.917   0.478  -0.538  0.00  0.00    -0.031 A 
ATOM      6  C6  IND d   1       1.668   0.642  -1.886  0.00  0.00     0.015 A 
ATOM      7  C7  IND d   1       1.466   1.880  -2.427  0.00  0.00    -0.016 A 
ATOM      8  C8  IND d   1       1.505   2.959  -1.556  0.00  0.00    -0.047 A 
ATOM      9  C9  IND d   1       1.714   2.795  -0.180  0.00  0.00    -0.096 A 
ATOM     10  HN1 IND d   1       1.167   4.668  -2.549  0.00  0.00     0.298 HD
ENDROOT
TORSDOF 0
ENDMDL
