MODEL 1
REMARK minimizedAffinity 3.04438376
REMARK minimizedRMSD -1
REMARK  0 active torsions:
REMARK  status: ('A' for Active; 'I' for Inactive)
ROOT
ATOM      1  N1  IND d   1       2.004   2.434  -0.823  0.00  0.00    -0.196 N 
ATOM      2  C2  IND d   1       1.268   2.783  -1.921  0.00  0.00     0.054 A 
ATOM      3  C3  IND d   1       0.609   1.707  -2.407  0.00  0.00    -0.031 A 
ATOM      4  C4  IND d   1       0.512  -0.699  -1.497  0.00  0.00     0.051 A 
ATOM      5  C5  IND d   1       1.047  -1.510  -0.536  0.00  0.00    -0.031 A 
ATOM      6  C6  IND d   1       1.945  -1.037   0.399  0.00  0.00     0.015 A 
ATOM      7  C7  IND d   1       2.334   0.273   0.415  0.00  0.00    -0.016 A 
ATOM      8  C8  IND d   1       1.798   1.097  -0.564  0.00  0.00    -0.047 A 
ATOM      9  C9  IND d   1       0.919   0.613  -1.542  0.00  0.00    -0.096 A 
ATOM     10  HN1 IND d   1       2.511   2.961  -0.371  0.00  0.00     0.298 HD
ENDROOT
TORSDOF 0
ENDMDL
