MODEL 1
REMARK minimizedAffinity -2.5787971
REMARK minimizedRMSD -1
REMARK  0 active torsions:
REMARK  status: ('A' for Active; 'I' for Inactive)
ROOT
ATOM      1  N1  IND d   1       1.660   3.944  -1.528  0.00  0.00    -0.196 N 
ATOM      2  C2  IND d   1       1.739   4.735  -0.416  0.00  0.00     0.054 A 
ATOM      3  C3  IND d   1       1.598   3.990   0.703  0.00  0.00    -0.031 A 
ATOM      4  C4  IND d   1       1.329   1.441   0.947  0.00  0.00     0.051 A 
ATOM      5  C5  IND d   1       1.165   0.300   0.213  0.00  0.00    -0.031 A 
ATOM      6  C6  IND d   1       1.161   0.315  -1.166  0.00  0.00     0.015 A 
ATOM      7  C7  IND d   1       1.332   1.475  -1.867  0.00  0.00    -0.016 A 
ATOM      8  C8  IND d   1       1.491   2.637  -1.125  0.00  0.00    -0.047 A 
ATOM      9  C9  IND d   1       1.454   2.634   0.276  0.00  0.00    -0.096 A 
ATOM     10  HN1 IND d   1       1.707   4.216  -2.342  0.00  0.00     0.298 HD
ENDROOT
TORSDOF 0
ENDMDL
