MODEL 1
REMARK minimizedAffinity -1.63693261
REMARK minimizedRMSD -1
REMARK  0 active torsions:
REMARK  status: ('A' for Active; 'I' for Inactive)
ROOT
ATOM      1  N1  IND d   1      -4.464   2.059   3.420  0.00  0.00    -0.196 N 
ATOM      2  C2  IND d   1      -4.118   2.052   2.098  0.00  0.00     0.054 A 
ATOM      3  C3  IND d   1      -2.780   1.919   1.961  0.00  0.00    -0.031 A 
ATOM      4  C4  IND d   1      -0.976   1.594   3.769  0.00  0.00     0.051 A 
ATOM      5  C5  IND d   1      -0.802   1.570   5.125  0.00  0.00    -0.031 A 
ATOM      6  C6  IND d   1      -1.861   1.707   5.999  0.00  0.00     0.015 A 
ATOM      7  C7  IND d   1      -3.141   1.863   5.548  0.00  0.00    -0.016 A 
ATOM      8  C8  IND d   1      -3.321   1.896   4.172  0.00  0.00    -0.047 A 
ATOM      9  C9  IND d   1      -2.245   1.799   3.281  0.00  0.00    -0.096 A 
ATOM     10  HN1 IND d   1      -5.260   2.150   3.731  0.00  0.00     0.298 HD
ENDROOT
TORSDOF 0
ENDMDL
