MODEL 1
REMARK minimizedAffinity 10.4645472
REMARK minimizedRMSD -1
REMARK  0 active torsions:
REMARK  status: ('A' for Active; 'I' for Inactive)
ROOT
ATOM      1  N1  IND d   1       1.742   5.084  -1.548  0.00  0.00    -0.196 N 
ATOM      2  C2  IND d   1       1.895   5.611  -0.295  0.00  0.00     0.054 A 
ATOM      3  C3  IND d   1       1.786   4.640   0.640  0.00  0.00    -0.031 A 
ATOM      4  C4  IND d   1       1.460   2.105   0.335  0.00  0.00     0.051 A 
ATOM      5  C5  IND d   1       1.232   1.155  -0.621  0.00  0.00    -0.031 A 
ATOM      6  C6  IND d   1       1.164   1.473  -1.962  0.00  0.00     0.015 A 
ATOM      7  C7  IND d   1       1.333   2.756  -2.400  0.00  0.00    -0.016 A 
ATOM      8  C8  IND d   1       1.558   3.724  -1.431  0.00  0.00    -0.047 A 
ATOM      9  C9  IND d   1       1.586   3.414  -0.065  0.00  0.00    -0.096 A 
ATOM     10  HN1 IND d   1       1.759   5.527  -2.284  0.00  0.00     0.298 HD
ENDROOT
TORSDOF 0
ENDMDL
