MODEL 1
REMARK minimizedAffinity 3.48381495
REMARK minimizedRMSD -1
REMARK  1 active torsions:
REMARK  status: ('A' for Active; 'I' for Inactive)
REMARK    1  A    between atoms: C1_2  and  C2_3 
ROOT
ATOM      1  C2  UNL d   1       3.293  -0.335  -0.689  0.00  0.00    -0.077 A 
ATOM      2  C3  UNL d   1       3.195  -1.732  -0.619  0.00  0.00     0.002 A 
ATOM      3  C4  UNL d   1       2.142  -2.333   0.072  0.00  0.00     0.002 A 
ATOM      4  C5  UNL d   1       1.177  -1.545   0.696  0.00  0.00    -0.004 A 
ATOM      5  C6  UNL d   1       1.266  -0.155   0.634  0.00  0.00     0.002 A 
ATOM      6  C7  UNL d   1       2.319   0.447  -0.056  0.00  0.00     0.002 A 
ENDROOT
BRANCH   1   7
ATOM      7  C1  UNL d   1       4.401   0.314  -1.476  0.00  0.00     0.055 C 
ATOM      8  C   UNL d   1       5.021   1.472  -0.708  0.00  0.00     0.019 C 
ENDBRANCH   1   7
TORSDOF 1
ENDMDL
