MODEL 1
REMARK minimizedAffinity 5.15560627
REMARK minimizedRMSD -1
REMARK  1 active torsions:
REMARK  status: ('A' for Active; 'I' for Inactive)
REMARK    1  A    between atoms: C1_2  and  C2_3 
ROOT
ATOM      1  C2  UNL d   1      -3.835   1.921  -0.918  0.00  0.00    -0.077 A 
ATOM      2  C3  UNL d   1      -3.041   2.838  -0.215  0.00  0.00     0.002 A 
ATOM      3  C4  UNL d   1      -1.666   2.630  -0.088  0.00  0.00     0.002 A 
ATOM      4  C5  UNL d   1      -1.073   1.509  -0.664  0.00  0.00    -0.004 A 
ATOM      5  C6  UNL d   1      -1.854   0.590  -1.363  0.00  0.00     0.002 A 
ATOM      6  C7  UNL d   1      -3.229   0.795  -1.491  0.00  0.00     0.002 A 
ENDROOT
BRANCH   1   7
ATOM      7  C1  UNL d   1      -5.310   2.169  -1.099  0.00  0.00     0.055 C 
ATOM      8  C   UNL d   1      -5.995   0.980  -1.756  0.00  0.00     0.019 C 
ENDBRANCH   1   7
TORSDOF 1
ENDMDL
