MODEL 1
REMARK minimizedAffinity 5.8397193
REMARK minimizedRMSD -1
REMARK  1 active torsions:
REMARK  status: ('A' for Active; 'I' for Inactive)
REMARK    1  A    between atoms: C1_2  and  C2_3 
ROOT
ATOM      1  C2  UNL d   1       2.665  -0.467   0.240  0.00  0.00    -0.077 A 
ATOM      2  C3  UNL d   1       3.835  -0.248  -0.500  0.00  0.00     0.002 A 
ATOM      3  C4  UNL d   1       4.283  -1.204  -1.414  0.00  0.00     0.002 A 
ATOM      4  C5  UNL d   1       3.563  -2.383  -1.600  0.00  0.00    -0.004 A 
ATOM      5  C6  UNL d   1       2.399  -2.611  -0.867  0.00  0.00     0.002 A 
ATOM      6  C7  UNL d   1       1.952  -1.657   0.048  0.00  0.00     0.002 A 
ENDROOT
BRANCH   1   7
ATOM      7  C1  UNL d   1       2.154   0.585   1.190  0.00  0.00     0.055 C 
ATOM      8  C   UNL d   1       1.471  -0.044   2.395  0.00  0.00     0.019 C 
ENDBRANCH   1   7
TORSDOF 1
ENDMDL
