MODEL 1
REMARK minimizedAffinity 11.0656071
REMARK minimizedRMSD -1
REMARK  0 active torsions:
REMARK  status: ('A' for Active; 'I' for Inactive)
ROOT
ATOM      1  C   UNL d   1      -2.282   2.710   1.754  0.00  0.00     0.023 A 
ATOM      2  C1  UNL d   1      -1.370   2.578   2.801  0.00  0.00     0.003 A 
ATOM      3  C2  UNL d   1      -0.180   1.872   2.608  0.00  0.00     0.048 A 
ATOM      4  C3  UNL d   1       0.091   1.302   1.365  0.00  0.00     0.023 A 
ATOM      5  C4  UNL d   1      -0.818   1.432   0.314  0.00  0.00     0.048 A 
ATOM      6  C5  UNL d   1      -2.007   2.138   0.512  0.00  0.00     0.003 A 
ATOM      7  I   UNL d   1       1.861   0.252   1.075  0.00  0.00    -0.146 I 
ENDROOT
TORSDOF 0
ENDMDL
