MODEL 1
REMARK minimizedAffinity 12.9782038
REMARK minimizedRMSD -1
REMARK  0 active torsions:
REMARK  status: ('A' for Active; 'I' for Inactive)
ROOT
ATOM      1  C   UNL d   1       2.877  -1.092  -0.082  0.00  0.00     0.023 A 
ATOM      2  C1  UNL d   1       4.231  -1.070  -0.418  0.00  0.00     0.003 A 
ATOM      3  C2  UNL d   1       4.930  -2.268  -0.584  0.00  0.00     0.048 A 
ATOM      4  C3  UNL d   1       4.270  -3.484  -0.413  0.00  0.00     0.023 A 
ATOM      5  C4  UNL d   1       2.915  -3.511  -0.077  0.00  0.00     0.048 A 
ATOM      6  C5  UNL d   1       2.220  -2.311   0.088  0.00  0.00     0.003 A 
ATOM      7  I   UNL d   1       5.308  -5.267  -0.659  0.00  0.00    -0.146 I 
ENDROOT
TORSDOF 0
ENDMDL
