MODEL 1
REMARK minimizedAffinity 7.7718606
REMARK minimizedRMSD -1
REMARK  0 active torsions:
REMARK  status: ('A' for Active; 'I' for Inactive)
ROOT
ATOM      1  C   UNL d   1      -0.413   3.689  -1.274  0.00  0.00     0.023 A 
ATOM      2  C1  UNL d   1       0.034   4.375  -0.145  0.00  0.00     0.003 A 
ATOM      3  C2  UNL d   1       0.202   3.698   1.064  0.00  0.00     0.048 A 
ATOM      4  C3  UNL d   1      -0.079   2.335   1.138  0.00  0.00     0.023 A 
ATOM      5  C4  UNL d   1      -0.526   1.643   0.011  0.00  0.00     0.048 A 
ATOM      6  C5  UNL d   1      -0.693   2.325  -1.196  0.00  0.00     0.003 A 
ATOM      7  I   UNL d   1       0.170   1.324   2.937  0.00  0.00    -0.146 I 
ENDROOT
TORSDOF 0
ENDMDL
