MODEL 1
REMARK minimizedAffinity 3.59634137
REMARK minimizedRMSD -1
REMARK  0 active torsions:
REMARK  status: ('A' for Active; 'I' for Inactive)
ROOT
ATOM      1  C   UNL d   1       0.978   3.586   3.276  0.00  0.00     0.023 A 
ATOM      2  C1  UNL d   1       1.678   4.174   2.222  0.00  0.00     0.003 A 
ATOM      3  C2  UNL d   1       1.189   4.075   0.917  0.00  0.00     0.048 A 
ATOM      4  C3  UNL d   1      -0.000   3.388   0.675  0.00  0.00     0.023 A 
ATOM      5  C4  UNL d   1      -0.704   2.799   1.727  0.00  0.00     0.048 A 
ATOM      6  C5  UNL d   1      -0.211   2.900   3.029  0.00  0.00     0.003 A 
ATOM      7  I   UNL d   1      -0.729   3.239  -1.266  0.00  0.00    -0.146 I 
ENDROOT
TORSDOF 0
ENDMDL
