MODEL 1
REMARK minimizedAffinity 6.17780972
REMARK minimizedRMSD -1
REMARK  0 active torsions:
REMARK  status: ('A' for Active; 'I' for Inactive)
ROOT
ATOM      1  C   UNL d   1       0.594  -4.562  -0.382  0.00  0.00     0.023 A 
ATOM      2  C1  UNL d   1       1.056  -5.804  -0.817  0.00  0.00     0.003 A 
ATOM      3  C2  UNL d   1       2.418  -6.000  -1.055  0.00  0.00     0.048 A 
ATOM      4  C3  UNL d   1       3.313  -4.950  -0.853  0.00  0.00     0.023 A 
ATOM      5  C4  UNL d   1       2.855  -3.705  -0.416  0.00  0.00     0.048 A 
ATOM      6  C5  UNL d   1       1.492  -3.514  -0.181  0.00  0.00     0.003 A 
ATOM      7  I   UNL d   1       5.340  -5.239  -1.205  0.00  0.00    -0.146 I 
ENDROOT
TORSDOF 0
ENDMDL
