MODEL 1
REMARK minimizedAffinity -0.979862869
REMARK minimizedRMSD -1
REMARK  0 active torsions:
REMARK  status: ('A' for Active; 'I' for Inactive)
ROOT
ATOM      1  C   UNL d   1       3.969  -4.590  -2.485  0.00  0.00     0.023 A 
ATOM      2  C1  UNL d   1       5.001  -4.792  -1.569  0.00  0.00     0.003 A 
ATOM      3  C2  UNL d   1       5.249  -3.844  -0.573  0.00  0.00     0.048 A 
ATOM      4  C3  UNL d   1       4.459  -2.698  -0.498  0.00  0.00     0.023 A 
ATOM      5  C4  UNL d   1       3.424  -2.492  -1.412  0.00  0.00     0.048 A 
ATOM      6  C5  UNL d   1       3.181  -3.441  -2.407  0.00  0.00     0.003 A 
ATOM      7  I   UNL d   1       4.824  -1.286   0.983  0.00  0.00    -0.146 I 
ENDROOT
TORSDOF 0
ENDMDL
