MODEL 1
REMARK minimizedAffinity 11.3048687
REMARK minimizedRMSD -1
REMARK  0 active torsions:
REMARK  status: ('A' for Active; 'I' for Inactive)
ROOT
ATOM      1  C   UNL d   1       5.073  -3.025  -1.153  0.00  0.00     0.023 A 
ATOM      2  C1  UNL d   1       4.809  -2.497  -2.417  0.00  0.00     0.003 A 
ATOM      3  C2  UNL d   1       4.523  -3.349  -3.485  0.00  0.00     0.048 A 
ATOM      4  C3  UNL d   1       4.503  -4.729  -3.283  0.00  0.00     0.023 A 
ATOM      5  C4  UNL d   1       4.766  -5.262  -2.020  0.00  0.00     0.048 A 
ATOM      6  C5  UNL d   1       5.051  -4.406  -0.955  0.00  0.00     0.003 A 
ATOM      7  I   UNL d   1       4.079  -5.999  -4.873  0.00  0.00    -0.146 I 
ENDROOT
TORSDOF 0
ENDMDL
