MODEL 1
REMARK minimizedAffinity 13.1786394
REMARK minimizedRMSD -1
REMARK  0 active torsions:
REMARK  status: ('A' for Active; 'I' for Inactive)
ROOT
ATOM      1  C1  DEN d   1       0.011   3.450  -1.482  0.00  0.00     0.130 A 
ATOM      2  C2  DEN d   1      -1.134   2.593  -1.778  0.00  0.00    -0.031 A 
ATOM      3  C3  DEN d   1      -1.342   1.695  -0.624  0.00  0.00     0.027 A 
ATOM      4  C4  DEN d   1      -0.015   1.553   1.582  0.00  0.00     0.027 A 
ATOM      5  C5  DEN d   1       1.050   2.070   2.287  0.00  0.00    -0.003 A 
ATOM      6  C6  DEN d   1       1.857   3.052   1.776  0.00  0.00     0.001 A 
ATOM      7  C7  DEN d   1       1.584   3.579   0.541  0.00  0.00     0.017 A 
ATOM      8  C8  DEN d   1       0.517   3.058  -0.179  0.00  0.00    -0.094 A 
ATOM      9  C9  DEN d   1      -0.294   2.074   0.361  0.00  0.00    -0.072 A 
ENDROOT
TORSDOF 0
ENDMDL
