MODEL 1
REMARK minimizedAffinity 9.51762199
REMARK minimizedRMSD -1
REMARK  0 active torsions:
REMARK  status: ('A' for Active; 'I' for Inactive)
ROOT
ATOM      1  C1  DEN d   1       0.355   2.022  -0.704  0.00  0.00     0.130 A 
ATOM      2  C2  DEN d   1       0.268   2.002   0.753  0.00  0.00    -0.031 A 
ATOM      3  C3  DEN d   1      -0.081   3.362   1.209  0.00  0.00     0.027 A 
ATOM      4  C4  DEN d   1      -0.499   5.486  -0.195  0.00  0.00     0.027 A 
ATOM      5  C5  DEN d   1      -0.528   5.999  -1.473  0.00  0.00    -0.003 A 
ATOM      6  C6  DEN d   1      -0.234   5.237  -2.572  0.00  0.00     0.001 A 
ATOM      7  C7  DEN d   1       0.058   3.907  -2.419  0.00  0.00     0.017 A 
ATOM      8  C8  DEN d   1       0.097   3.385  -1.133  0.00  0.00    -0.094 A 
ATOM      9  C9  DEN d   1      -0.215   4.168  -0.035  0.00  0.00    -0.072 A 
ENDROOT
TORSDOF 0
ENDMDL
