MODEL 1
REMARK minimizedAffinity 6.58206177
REMARK minimizedRMSD -1
REMARK  0 active torsions:
REMARK  status: ('A' for Active; 'I' for Inactive)
ROOT
ATOM      1  C1  DEN d   1      -2.550  -1.431   4.117  0.00  0.00     0.130 A 
ATOM      2  C2  DEN d   1      -1.549  -1.834   5.101  0.00  0.00    -0.031 A 
ATOM      3  C3  DEN d   1      -2.161  -2.846   5.986  0.00  0.00     0.027 A 
ATOM      4  C4  DEN d   1      -4.547  -3.824   5.925  0.00  0.00     0.027 A 
ATOM      5  C5  DEN d   1      -5.762  -3.781   5.277  0.00  0.00    -0.003 A 
ATOM      6  C6  DEN d   1      -6.000  -2.934   4.227  0.00  0.00     0.001 A 
ATOM      7  C7  DEN d   1      -4.994  -2.127   3.765  0.00  0.00     0.017 A 
ATOM      8  C8  DEN d   1      -3.769  -2.160   4.418  0.00  0.00    -0.094 A 
ATOM      9  C9  DEN d   1      -3.544  -3.031   5.470  0.00  0.00    -0.072 A 
ENDROOT
TORSDOF 0
ENDMDL
