MODEL 1
REMARK minimizedAffinity 15.6800108
REMARK minimizedRMSD -1
REMARK  0 active torsions:
REMARK  status: ('A' for Active; 'I' for Inactive)
ROOT
ATOM      1  C1  DEN d   1       3.621  -3.076  -0.001  0.00  0.00     0.130 A 
ATOM      2  C2  DEN d   1       2.820  -1.907   0.352  0.00  0.00    -0.031 A 
ATOM      3  C3  DEN d   1       1.429  -2.162  -0.071  0.00  0.00     0.027 A 
ATOM      4  C4  DEN d   1       0.440  -4.245  -1.228  0.00  0.00     0.027 A 
ATOM      5  C5  DEN d   1       0.733  -5.490  -1.740  0.00  0.00    -0.003 A 
ATOM      6  C6  DEN d   1       2.005  -5.999  -1.739  0.00  0.00     0.001 A 
ATOM      7  C7  DEN d   1       3.024  -5.279  -1.174  0.00  0.00     0.017 A 
ATOM      8  C8  DEN d   1       2.738  -4.020  -0.663  0.00  0.00    -0.094 A 
ATOM      9  C9  DEN d   1       1.444  -3.527  -0.662  0.00  0.00    -0.072 A 
ENDROOT
TORSDOF 0
ENDMDL
