MODEL 1
REMARK minimizedAffinity 5.56920671
REMARK minimizedRMSD -1
REMARK  0 active torsions:
REMARK  status: ('A' for Active; 'I' for Inactive)
ROOT
ATOM      1  C1  DEN d   1      -4.565  -1.331   3.243  0.00  0.00     0.130 A 
ATOM      2  C2  DEN d   1      -5.852  -1.978   3.482  0.00  0.00    -0.031 A 
ATOM      3  C3  DEN d   1      -5.666  -2.987   4.545  0.00  0.00     0.027 A 
ATOM      4  C4  DEN d   1      -3.522  -3.604   5.839  0.00  0.00     0.027 A 
ATOM      5  C5  DEN d   1      -2.178  -3.335   5.978  0.00  0.00    -0.003 A 
ATOM      6  C6  DEN d   1      -1.534  -2.411   5.199  0.00  0.00     0.001 A 
ATOM      7  C7  DEN d   1      -2.243  -1.690   4.274  0.00  0.00     0.017 A 
ATOM      8  C8  DEN d   1      -3.596  -1.961   4.123  0.00  0.00    -0.094 A 
ATOM      9  C9  DEN d   1      -4.232  -2.890   4.929  0.00  0.00    -0.072 A 
ENDROOT
TORSDOF 0
ENDMDL
