MODEL 1
REMARK minimizedAffinity 7.88758802
REMARK minimizedRMSD -1
REMARK  0 active torsions:
REMARK  status: ('A' for Active; 'I' for Inactive)
ROOT
ATOM      1  C1  DEN d   1      -2.376  -5.999  -4.618  0.00  0.00     0.130 A 
ATOM      2  C2  DEN d   1      -2.649  -5.197  -5.807  0.00  0.00    -0.031 A 
ATOM      3  C3  DEN d   1      -1.518  -4.267  -6.000  0.00  0.00     0.027 A 
ATOM      4  C4  DEN d   1       0.620  -3.996  -4.582  0.00  0.00     0.027 A 
ATOM      5  C5  DEN d   1       1.292  -4.447  -3.468  0.00  0.00    -0.003 A 
ATOM      6  C6  DEN d   1       0.778  -5.416  -2.647  0.00  0.00     0.001 A 
ATOM      7  C7  DEN d   1      -0.424  -5.997  -2.953  0.00  0.00     0.017 A 
ATOM      8  C8  DEN d   1      -1.112  -5.542  -4.070  0.00  0.00    -0.094 A 
ATOM      9  C9  DEN d   1      -0.569  -4.571  -4.895  0.00  0.00    -0.072 A 
ENDROOT
TORSDOF 0
ENDMDL
