MODEL 1
REMARK minimizedAffinity 22.4042397
REMARK minimizedRMSD -1
REMARK  0 active torsions:
REMARK  status: ('A' for Active; 'I' for Inactive)
ROOT
ATOM      1  C1  DEN d   1       2.164  -5.257  -1.158  0.00  0.00     0.130 A 
ATOM      2  C2  DEN d   1       0.729  -5.120  -1.388  0.00  0.00    -0.031 A 
ATOM      3  C3  DEN d   1       0.352  -3.720  -1.105  0.00  0.00     0.027 A 
ATOM      4  C4  DEN d   1       1.846  -1.762  -0.340  0.00  0.00     0.027 A 
ATOM      5  C5  DEN d   1       3.130  -1.395  -0.000  0.00  0.00    -0.003 A 
ATOM      6  C6  DEN d   1       4.166  -2.291   0.011  0.00  0.00     0.001 A 
ATOM      7  C7  DEN d   1       3.946  -3.588  -0.369  0.00  0.00     0.017 A 
ATOM      8  C8  DEN d   1       2.653  -3.967  -0.706  0.00  0.00    -0.094 A 
ATOM      9  C9  DEN d   1       1.622  -3.044  -0.723  0.00  0.00    -0.072 A 
ENDROOT
TORSDOF 0
ENDMDL
