MODEL 1
REMARK minimizedAffinity -2.77998972
REMARK minimizedRMSD -1
REMARK  0 active torsions:
REMARK  status: ('A' for Active; 'I' for Inactive)
ROOT
ATOM      1  C1  DEN d   1      -0.424  -4.511  -3.553  0.00  0.00     0.130 A 
ATOM      2  C2  DEN d   1      -0.527  -4.127  -4.958  0.00  0.00    -0.031 A 
ATOM      3  C3  DEN d   1       0.754  -4.451  -5.616  0.00  0.00     0.027 A 
ATOM      4  C4  DEN d   1       2.876  -5.512  -4.602  0.00  0.00     0.027 A 
ATOM      5  C5  DEN d   1       3.444  -6.000  -3.446  0.00  0.00    -0.003 A 
ATOM      6  C6  DEN d   1       2.781  -5.995  -2.248  0.00  0.00     0.001 A 
ATOM      7  C7  DEN d   1       1.493  -5.533  -2.187  0.00  0.00     0.017 A 
ATOM      8  C8  DEN d   1       0.916  -5.032  -3.346  0.00  0.00    -0.094 A 
ATOM      9  C9  DEN d   1       1.598  -5.057  -4.551  0.00  0.00    -0.072 A 
ENDROOT
TORSDOF 0
ENDMDL
