MODEL 1
REMARK minimizedAffinity 1.9905647
REMARK minimizedRMSD -1
REMARK  0 active torsions:
REMARK  status: ('A' for Active; 'I' for Inactive)
ROOT
ATOM      1  C1  DEN d   1      -2.023  -2.415  -5.982  0.00  0.00     0.130 A 
ATOM      2  C2  DEN d   1      -0.647  -2.901  -5.953  0.00  0.00    -0.031 A 
ATOM      3  C3  DEN d   1      -0.684  -4.377  -5.941  0.00  0.00     0.027 A 
ATOM      4  C4  DEN d   1      -2.729  -5.949  -5.968  0.00  0.00     0.027 A 
ATOM      5  C5  DEN d   1      -4.105  -6.000  -5.982  0.00  0.00    -0.003 A 
ATOM      6  C6  DEN d   1      -4.878  -4.869  -5.962  0.00  0.00     0.001 A 
ATOM      7  C7  DEN d   1      -4.279  -3.637  -5.973  0.00  0.00     0.017 A 
ATOM      8  C8  DEN d   1      -2.892  -3.578  -5.952  0.00  0.00    -0.094 A 
ATOM      9  C9  DEN d   1      -2.128  -4.732  -5.985  0.00  0.00    -0.072 A 
ENDROOT
TORSDOF 0
ENDMDL
