MODEL 1
REMARK minimizedAffinity 7.76132679
REMARK minimizedRMSD -1
REMARK  0 active torsions:
REMARK  status: ('A' for Active; 'I' for Inactive)
ROOT
ATOM      1  C1  DEN d   1      -1.915  -1.618  -4.623  0.00  0.00     0.130 A 
ATOM      2  C2  DEN d   1      -1.226  -1.589  -5.911  0.00  0.00    -0.031 A 
ATOM      3  C3  DEN d   1      -0.118  -2.564  -5.858  0.00  0.00     0.027 A 
ATOM      4  C4  DEN d   1       0.591  -4.111  -3.920  0.00  0.00     0.027 A 
ATOM      5  C5  DEN d   1       0.315  -4.484  -2.623  0.00  0.00    -0.003 A 
ATOM      6  C6  DEN d   1      -0.693  -3.909  -1.896  0.00  0.00     0.001 A 
ATOM      7  C7  DEN d   1      -1.492  -2.959  -2.477  0.00  0.00     0.017 A 
ATOM      8  C8  DEN d   1      -1.216  -2.573  -3.782  0.00  0.00    -0.094 A 
ATOM      9  C9  DEN d   1      -0.200  -3.176  -4.504  0.00  0.00    -0.072 A 
ENDROOT
TORSDOF 0
ENDMDL
