MODEL 1
REMARK minimizedAffinity -4.64077997
REMARK minimizedRMSD -1
REMARK  1 active torsions:
REMARK  status: ('A' for Active; 'I' for Inactive)
REMARK    1  A    between atoms: N_2  and  C1_3 
ROOT
ATOM      1  C1  UNL d   1      -0.436   1.509  -0.618  0.00  0.00     0.143 A 
ATOM      2  C2  UNL d   1      -0.613   1.904   0.712  0.00  0.00    -0.057 A 
ATOM      3  C3  UNL d   1      -0.874   3.239   1.044  0.00  0.00     0.033 A 
ATOM      4  C4  UNL d   1      -0.932   4.211   0.051  0.00  0.00    -0.042 A 
ATOM      5  C5  UNL d   1      -0.734   3.845  -1.276  0.00  0.00     0.033 A 
ATOM      6  C6  UNL d   1      -0.481   2.509  -1.602  0.00  0.00    -0.057 A 
ENDROOT
BRANCH   1   7
ATOM      7  N   UNL d   1      -0.077   0.215  -1.004  0.00  0.00    -0.732 N 
ATOM      8  C   UNL d   1       0.894  -0.539  -0.240  0.00  0.00     0.284 C 
ATOM      9  H3  UNL d   1      -0.875  -0.332  -1.318  0.00  0.00     0.395 HD
ENDBRANCH   1   7
TORSDOF 1
ENDMDL
