MODEL 1
REMARK minimizedAffinity 1.59250653
REMARK minimizedRMSD -1
REMARK  1 active torsions:
REMARK  status: ('A' for Active; 'I' for Inactive)
REMARK    1  A    between atoms: N_2  and  C1_3 
ROOT
ATOM      1  C1  UNL d   1       0.356  -2.245  -1.028  0.00  0.00     0.143 A 
ATOM      2  C2  UNL d   1       1.413  -1.455  -0.563  0.00  0.00    -0.057 A 
ATOM      3  C3  UNL d   1       1.426  -0.070  -0.762  0.00  0.00     0.033 A 
ATOM      4  C4  UNL d   1       0.393   0.549  -1.458  0.00  0.00    -0.042 A 
ATOM      5  C5  UNL d   1      -0.655  -0.220  -1.952  0.00  0.00     0.033 A 
ATOM      6  C6  UNL d   1      -0.666  -1.602  -1.744  0.00  0.00    -0.057 A 
ENDROOT
BRANCH   1   7
ATOM      7  N   UNL d   1       0.333  -3.640  -0.948  0.00  0.00    -0.732 N 
ATOM      8  C   UNL d   1      -0.816  -4.386  -1.413  0.00  0.00     0.284 C 
ATOM      9  H3  UNL d   1       1.228  -4.058  -1.194  0.00  0.00     0.395 HD
ENDBRANCH   1   7
TORSDOF 1
ENDMDL
