MODEL 1
REMARK minimizedAffinity -4.12501478
REMARK minimizedRMSD -1
REMARK  1 active torsions:
REMARK  status: ('A' for Active; 'I' for Inactive)
REMARK    1  A    between atoms: N_2  and  C1_3 
ROOT
ATOM      1  C1  UNL d   1       0.009   0.202  -0.068  0.00  0.00     0.143 A 
ATOM      2  C2  UNL d   1       0.657   0.409   1.154  0.00  0.00    -0.057 A 
ATOM      3  C3  UNL d   1       0.151   1.306   2.103  0.00  0.00     0.033 A 
ATOM      4  C4  UNL d   1      -1.002   2.036   1.832  0.00  0.00    -0.042 A 
ATOM      5  C5  UNL d   1      -1.650   1.865   0.613  0.00  0.00     0.033 A 
ATOM      6  C6  UNL d   1      -1.142   0.963  -0.327  0.00  0.00    -0.057 A 
ENDROOT
BRANCH   1   7
ATOM      7  N   UNL d   1       0.516  -0.602  -1.091  0.00  0.00    -0.732 N 
ATOM      8  C   UNL d   1       0.117  -1.989  -1.206  0.00  0.00     0.284 C 
ATOM      9  H3  UNL d   1       0.571  -0.111  -1.980  0.00  0.00     0.395 HD
ENDBRANCH   1   7
TORSDOF 1
ENDMDL
