MODEL 1
REMARK minimizedAffinity 2.62397289
REMARK minimizedRMSD -1
REMARK  1 active torsions:
REMARK  status: ('A' for Active; 'I' for Inactive)
REMARK    1  A    between atoms: C1_2  and  C2_3 
ROOT
ATOM      1  C2  UNL d   1      -1.482  -0.368   0.918  0.00  0.00    -0.081 A 
ATOM      2  C3  UNL d   1      -0.124  -0.642   1.120  0.00  0.00     0.006 A 
ATOM      3  C4  UNL d   1       0.365  -0.888   2.405  0.00  0.00     0.002 A 
ATOM      4  C5  UNL d   1      -0.496  -0.872   3.507  0.00  0.00    -0.080 A 
ATOM      5  C6  UNL d   1       0.011  -1.164   4.889  0.00  0.00     0.076 C 
ATOM      6  C7  UNL d   1      -1.850  -0.581   3.307  0.00  0.00     0.002 A 
ATOM      7  C8  UNL d   1      -2.339  -0.335   2.023  0.00  0.00     0.006 A 
ENDROOT
BRANCH   1   8
ATOM      8  C1  UNL d   1      -2.024  -0.167  -0.475  0.00  0.00     0.054 C 
ATOM      9  C   UNL d   1      -1.360  -1.109  -1.469  0.00  0.00     0.018 C 
ENDBRANCH   1   8
TORSDOF 1
ENDMDL
