MODEL 1
REMARK minimizedAffinity 2.79019213
REMARK minimizedRMSD -1
REMARK  1 active torsions:
REMARK  status: ('A' for Active; 'I' for Inactive)
REMARK    1  A    between atoms: C1_2  and  C2_3 
ROOT
ATOM      1  C2  UNL d   1      -0.561  -0.410   2.080  0.00  0.00    -0.081 A 
ATOM      2  C3  UNL d   1      -0.588  -0.926   3.381  0.00  0.00     0.006 A 
ATOM      3  C4  UNL d   1       0.596  -1.305   4.018  0.00  0.00     0.002 A 
ATOM      4  C5  UNL d   1       1.827  -1.168   3.367  0.00  0.00    -0.080 A 
ATOM      5  C6  UNL d   1       3.109  -1.543   4.050  0.00  0.00     0.076 C 
ATOM      6  C7  UNL d   1       1.853  -0.669   2.060  0.00  0.00     0.002 A 
ATOM      7  C8  UNL d   1       0.669  -0.291   1.423  0.00  0.00     0.006 A 
ENDROOT
BRANCH   1   8
ATOM      8  C1  UNL d   1      -1.829   0.060   1.415  0.00  0.00     0.054 C 
ATOM      9  C   UNL d   1      -2.051  -0.645   0.085  0.00  0.00     0.018 C 
ENDBRANCH   1   8
TORSDOF 1
ENDMDL
