MODEL 1
REMARK minimizedAffinity -3.39848614
REMARK minimizedRMSD -1
REMARK  1 active torsions:
REMARK  status: ('A' for Active; 'I' for Inactive)
REMARK    1  A    between atoms: C1_2  and  C2_3 
ROOT
ATOM      1  C2  UNL d   1       0.137   0.279   1.842  0.00  0.00    -0.081 A 
ATOM      2  C3  UNL d   1       1.409   0.409   1.271  0.00  0.00     0.006 A 
ATOM      3  C4  UNL d   1       2.548   0.027   1.983  0.00  0.00     0.002 A 
ATOM      4  C5  UNL d   1       2.434  -0.498   3.275  0.00  0.00    -0.080 A 
ATOM      5  C6  UNL d   1       3.646  -0.940   4.040  0.00  0.00     0.076 C 
ATOM      6  C7  UNL d   1       1.165  -0.611   3.853  0.00  0.00     0.002 A 
ATOM      7  C8  UNL d   1       0.026  -0.228   3.142  0.00  0.00     0.006 A 
ENDROOT
BRANCH   1   8
ATOM      8  C1  UNL d   1      -1.098   0.630   1.052  0.00  0.00     0.054 C 
ATOM      9  C   UNL d   1      -1.445  -0.465   0.053  0.00  0.00     0.018 C 
ENDBRANCH   1   8
TORSDOF 1
ENDMDL
