MODEL 1
REMARK minimizedAffinity 9.15810394
REMARK minimizedRMSD -1
REMARK  1 active torsions:
REMARK  status: ('A' for Active; 'I' for Inactive)
REMARK    1  A    between atoms: C1_2  and  C2_3 
ROOT
ATOM      1  C2  UNL d   1       3.039  -0.422   2.725  0.00  0.00    -0.081 A 
ATOM      2  C3  UNL d   1       2.267  -0.479   1.558  0.00  0.00     0.006 A 
ATOM      3  C4  UNL d   1       2.432   0.476   0.553  0.00  0.00     0.002 A 
ATOM      4  C5  UNL d   1       3.376   1.499   0.693  0.00  0.00    -0.080 A 
ATOM      5  C6  UNL d   1       3.585   2.513  -0.392  0.00  0.00     0.076 C 
ATOM      6  C7  UNL d   1       4.135   1.566   1.867  0.00  0.00     0.002 A 
ATOM      7  C8  UNL d   1       3.970   0.612   2.873  0.00  0.00     0.006 A 
ENDROOT
BRANCH   1   8
ATOM      8  C1  UNL d   1       2.908  -1.488   3.783  0.00  0.00     0.054 C 
ATOM      9  C   UNL d   1       1.505  -1.515   4.372  0.00  0.00     0.018 C 
ENDBRANCH   1   8
TORSDOF 1
ENDMDL
