MODEL 1
REMARK minimizedAffinity 3.68667173
REMARK minimizedRMSD -1
REMARK  1 active torsions:
REMARK  status: ('A' for Active; 'I' for Inactive)
REMARK    1  A    between atoms: C1_2  and  C2_3 
ROOT
ATOM      1  C2  UNL d   1       1.495   1.268   0.576  0.00  0.00    -0.081 A 
ATOM      2  C3  UNL d   1       1.254   0.043   1.211  0.00  0.00     0.006 A 
ATOM      3  C4  UNL d   1       0.046  -0.631   1.012  0.00  0.00     0.002 A 
ATOM      4  C5  UNL d   1      -0.935  -0.097   0.171  0.00  0.00    -0.080 A 
ATOM      5  C6  UNL d   1      -2.223  -0.825  -0.074  0.00  0.00     0.076 C 
ATOM      6  C7  UNL d   1      -0.701   1.135  -0.449  0.00  0.00     0.002 A 
ATOM      7  C8  UNL d   1       0.505   1.811  -0.250  0.00  0.00     0.006 A 
ENDROOT
BRANCH   1   8
ATOM      8  C1  UNL d   1       2.821   1.966   0.737  0.00  0.00     0.054 C 
ATOM      9  C   UNL d   1       3.617   1.949  -0.560  0.00  0.00     0.018 C 
ENDBRANCH   1   8
TORSDOF 1
ENDMDL
