MODEL 1
REMARK minimizedAffinity 1.37578392
REMARK minimizedRMSD -1
REMARK  1 active torsions:
REMARK  status: ('A' for Active; 'I' for Inactive)
REMARK    1  A    between atoms: C1_2  and  C2_3 
ROOT
ATOM      1  C2  UNL d   1       0.271  -0.477   1.841  0.00  0.00    -0.081 A 
ATOM      2  C3  UNL d   1      -0.972  -0.128   2.384  0.00  0.00     0.006 A 
ATOM      3  C4  UNL d   1      -2.079   0.061   1.554  0.00  0.00     0.002 A 
ATOM      4  C5  UNL d   1      -1.965  -0.102   0.169  0.00  0.00    -0.080 A 
ATOM      5  C6  UNL d   1      -3.154   0.068  -0.730  0.00  0.00     0.076 C 
ATOM      6  C7  UNL d   1      -0.720  -0.434  -0.375  0.00  0.00     0.002 A 
ATOM      7  C8  UNL d   1       0.388  -0.622   0.454  0.00  0.00     0.006 A 
ENDROOT
BRANCH   1   8
ATOM      8  C1  UNL d   1       1.452  -0.745   2.738  0.00  0.00     0.054 C 
ATOM      9  C   UNL d   1       1.004  -1.170   4.129  0.00  0.00     0.018 C 
ENDBRANCH   1   8
TORSDOF 1
ENDMDL
