MODEL 1
REMARK minimizedAffinity 0.887162805
REMARK minimizedRMSD -1
REMARK  1 active torsions:
REMARK  status: ('A' for Active; 'I' for Inactive)
REMARK    1  A    between atoms: N_2  and  C1_3 
ROOT
ATOM      1  C1  UNL d   1      -5.319   2.835  -3.210  0.00  0.00     0.143 A 
ATOM      2  C2  UNL d   1      -5.060   1.634  -3.878  0.00  0.00    -0.057 A 
ATOM      3  C3  UNL d   1      -5.240   1.519  -5.262  0.00  0.00     0.033 A 
ATOM      4  C4  UNL d   1      -5.712   2.599  -6.000  0.00  0.00    -0.042 A 
ATOM      5  C5  UNL d   1      -6.000   3.796  -5.353  0.00  0.00     0.033 A 
ATOM      6  C6  UNL d   1      -5.811   3.906  -3.972  0.00  0.00    -0.057 A 
ENDROOT
BRANCH   1   7
ATOM      7  N   UNL d   1      -5.253   2.984  -1.823  0.00  0.00    -0.732 N 
ATOM      8  C   UNL d   1      -4.237   2.295  -1.055  0.00  0.00     0.284 C 
ATOM      9  H3  UNL d   1      -5.419   3.943  -1.526  0.00  0.00     0.395 HD
ENDBRANCH   1   7
TORSDOF 1
ENDMDL
