MODEL 1
REMARK minimizedAffinity 4.65708303
REMARK minimizedRMSD -1
REMARK  1 active torsions:
REMARK  status: ('A' for Active; 'I' for Inactive)
REMARK    1  A    between atoms: N_2  and  C1_3 
ROOT
ATOM      1  C1  UNL d   1      -4.971   2.826  -4.623  0.00  0.00     0.143 A 
ATOM      2  C2  UNL d   1      -6.000   2.001  -5.088  0.00  0.00    -0.057 A 
ATOM      3  C3  UNL d   1      -5.970   0.616  -4.880  0.00  0.00     0.033 A 
ATOM      4  C4  UNL d   1      -4.892   0.028  -4.226  0.00  0.00    -0.042 A 
ATOM      5  C5  UNL d   1      -3.846   0.827  -3.777  0.00  0.00     0.033 A 
ATOM      6  C6  UNL d   1      -3.885   2.209  -3.982  0.00  0.00    -0.057 A 
ENDROOT
BRANCH   1   7
ATOM      7  N   UNL d   1      -4.895   4.197  -4.885  0.00  0.00    -0.732 N 
ATOM      8  C   UNL d   1      -5.876   4.841  -5.731  0.00  0.00     0.284 C 
ATOM      9  H3  UNL d   1      -4.638   4.736  -4.061  0.00  0.00     0.395 HD
ENDBRANCH   1   7
TORSDOF 1
ENDMDL
