MODEL 1
REMARK minimizedAffinity -0.613655329
REMARK minimizedRMSD -1
REMARK  1 active torsions:
REMARK  status: ('A' for Active; 'I' for Inactive)
REMARK    1  A    between atoms: N_2  and  C1_3 
ROOT
ATOM      1  C1  UNL d   1       0.189   1.868   3.205  0.00  0.00     0.143 A 
ATOM      2  C2  UNL d   1      -0.085   2.393   4.472  0.00  0.00    -0.057 A 
ATOM      3  C3  UNL d   1       0.223   3.721   4.791  0.00  0.00     0.033 A 
ATOM      4  C4  UNL d   1       0.840   4.542   3.853  0.00  0.00    -0.042 A 
ATOM      5  C5  UNL d   1       1.145   4.035   2.595  0.00  0.00     0.033 A 
ATOM      6  C6  UNL d   1       0.829   2.710   2.281  0.00  0.00    -0.057 A 
ENDROOT
BRANCH   1   7
ATOM      7  N   UNL d   1      -0.003   0.528   2.859  0.00  0.00    -0.732 N 
ATOM      8  C   UNL d   1      -0.233   0.148   1.482  0.00  0.00     0.284 C 
ATOM      9  H3  UNL d   1       0.621  -0.096   3.365  0.00  0.00     0.395 HD
ENDBRANCH   1   7
TORSDOF 1
ENDMDL
