MODEL 1
REMARK minimizedAffinity 1.85591674
REMARK minimizedRMSD -1
REMARK  1 active torsions:
REMARK  status: ('A' for Active; 'I' for Inactive)
REMARK    1  A    between atoms: N_2  and  C1_3 
ROOT
ATOM      1  C1  UNL d   1       0.223   3.413   2.088  0.00  0.00     0.143 A 
ATOM      2  C2  UNL d   1       0.691   3.601   0.783  0.00  0.00    -0.057 A 
ATOM      3  C3  UNL d   1       0.805   4.882   0.230  0.00  0.00     0.033 A 
ATOM      4  C4  UNL d   1       0.424   6.000   0.964  0.00  0.00    -0.042 A 
ATOM      5  C5  UNL d   1      -0.068   5.835   2.254  0.00  0.00     0.033 A 
ATOM      6  C6  UNL d   1      -0.173   4.554   2.804  0.00  0.00    -0.057 A 
ENDROOT
BRANCH   1   7
ATOM      7  N   UNL d   1      -0.005   2.159   2.660  0.00  0.00    -0.732 N 
ATOM      8  C   UNL d   1       0.020   0.963   1.846  0.00  0.00     0.284 C 
ATOM      9  H3  UNL d   1       0.448   2.056   3.564  0.00  0.00     0.395 HD
ENDBRANCH   1   7
TORSDOF 1
ENDMDL
