MODEL 1
REMARK minimizedAffinity -3.48073697
REMARK minimizedRMSD -1
REMARK  1 active torsions:
REMARK  status: ('A' for Active; 'I' for Inactive)
REMARK    1  A    between atoms: N_2  and  C1_3 
ROOT
ATOM      1  C1  UNL d   1      -5.154   3.746  -3.685  0.00  0.00     0.143 A 
ATOM      2  C2  UNL d   1      -5.642   4.147  -2.437  0.00  0.00    -0.057 A 
ATOM      3  C3  UNL d   1      -5.571   3.300  -1.324  0.00  0.00     0.033 A 
ATOM      4  C4  UNL d   1      -5.035   2.023  -1.447  0.00  0.00    -0.042 A 
ATOM      5  C5  UNL d   1      -4.566   1.594  -2.684  0.00  0.00     0.033 A 
ATOM      6  C6  UNL d   1      -4.634   2.447  -3.790  0.00  0.00    -0.057 A 
ENDROOT
BRANCH   1   7
ATOM      7  N   UNL d   1      -5.286   4.504  -4.851  0.00  0.00    -0.732 N 
ATOM      8  C   UNL d   1      -5.991   3.975  -5.999  0.00  0.00     0.284 C 
ATOM      9  H3  UNL d   1      -5.483   5.483  -4.658  0.00  0.00     0.395 HD
ENDBRANCH   1   7
TORSDOF 1
ENDMDL
