MODEL 1
REMARK minimizedAffinity 3.78743529
REMARK minimizedRMSD -1
REMARK  1 active torsions:
REMARK  status: ('A' for Active; 'I' for Inactive)
REMARK    1  A    between atoms: N_2  and  C1_3 
ROOT
ATOM      1  C1  UNL d   1      -4.444   1.936  -2.760  0.00  0.00     0.143 A 
ATOM      2  C2  UNL d   1      -5.350   2.969  -3.022  0.00  0.00    -0.057 A 
ATOM      3  C3  UNL d   1      -5.997   3.071  -4.260  0.00  0.00     0.033 A 
ATOM      4  C4  UNL d   1      -5.726   2.155  -5.270  0.00  0.00    -0.042 A 
ATOM      5  C5  UNL d   1      -4.811   1.134  -5.041  0.00  0.00     0.033 A 
ATOM      6  C6  UNL d   1      -4.173   1.033  -3.800  0.00  0.00    -0.057 A 
ENDROOT
BRANCH   1   7
ATOM      7  N   UNL d   1      -3.696   1.838  -1.584  0.00  0.00    -0.732 N 
ATOM      8  C   UNL d   1      -4.316   1.411  -0.349  0.00  0.00     0.284 C 
ATOM      9  H3  UNL d   1      -2.772   1.441  -1.744  0.00  0.00     0.395 HD
ENDBRANCH   1   7
TORSDOF 1
ENDMDL
