MODEL 1
REMARK minimizedAffinity -3.26701331
REMARK minimizedRMSD -1
REMARK  1 active torsions:
REMARK  status: ('A' for Active; 'I' for Inactive)
REMARK    1  A    between atoms: N_2  and  C1_3 
ROOT
ATOM      1  C1  UNL d   1      -4.716   2.154  -3.103  0.00  0.00     0.143 A 
ATOM      2  C2  UNL d   1      -4.654   1.079  -3.996  0.00  0.00    -0.057 A 
ATOM      3  C3  UNL d   1      -5.227   1.161  -5.271  0.00  0.00     0.033 A 
ATOM      4  C4  UNL d   1      -5.899   2.313  -5.666  0.00  0.00    -0.042 A 
ATOM      5  C5  UNL d   1      -5.994   3.385  -4.786  0.00  0.00     0.033 A 
ATOM      6  C6  UNL d   1      -5.415   3.300  -3.516  0.00  0.00    -0.057 A 
ENDROOT
BRANCH   1   7
ATOM      7  N   UNL d   1      -4.252   2.100  -1.787  0.00  0.00    -0.732 N 
ATOM      8  C   UNL d   1      -5.042   1.467  -0.752  0.00  0.00     0.284 C 
ATOM      9  H3  UNL d   1      -3.257   1.894  -1.733  0.00  0.00     0.395 HD
ENDBRANCH   1   7
TORSDOF 1
ENDMDL
