MODEL 1
REMARK minimizedAffinity -0.0420095436
REMARK minimizedRMSD -1
REMARK  1 active torsions:
REMARK  status: ('A' for Active; 'I' for Inactive)
REMARK    1  A    between atoms: N_2  and  C1_3 
ROOT
ATOM      1  C1  UNL d   1      -5.018   2.720  -5.127  0.00  0.00     0.143 A 
ATOM      2  C2  UNL d   1      -4.238   3.497  -4.263  0.00  0.00    -0.057 A 
ATOM      3  C3  UNL d   1      -4.353   4.892  -4.238  0.00  0.00     0.033 A 
ATOM      4  C4  UNL d   1      -5.232   5.539  -5.100  0.00  0.00    -0.042 A 
ATOM      5  C5  UNL d   1      -5.999   4.789  -5.984  0.00  0.00     0.033 A 
ATOM      6  C6  UNL d   1      -5.885   3.396  -6.000  0.00  0.00    -0.057 A 
ENDROOT
BRANCH   1   7
ATOM      7  N   UNL d   1      -4.879   1.337  -5.269  0.00  0.00    -0.732 N 
ATOM      8  C   UNL d   1      -5.969   0.448  -4.930  0.00  0.00     0.284 C 
ATOM      9  H3  UNL d   1      -4.383   1.082  -6.120  0.00  0.00     0.395 HD
ENDBRANCH   1   7
TORSDOF 1
ENDMDL
