MODEL 1
REMARK minimizedAffinity -2.67104077
REMARK minimizedRMSD -1
REMARK  1 active torsions:
REMARK  status: ('A' for Active; 'I' for Inactive)
REMARK    1  A    between atoms: N_2  and  C1_3 
ROOT
ATOM      1  C1  UNL d   1      -4.444   2.086  -3.571  0.00  0.00     0.143 A 
ATOM      2  C2  UNL d   1      -5.111   3.131  -4.219  0.00  0.00    -0.057 A 
ATOM      3  C3  UNL d   1      -5.808   2.916  -5.414  0.00  0.00     0.033 A 
ATOM      4  C4  UNL d   1      -5.825   1.655  -6.000  0.00  0.00    -0.042 A 
ATOM      5  C5  UNL d   1      -5.147   0.607  -5.387  0.00  0.00     0.033 A 
ATOM      6  C6  UNL d   1      -4.459   0.826  -4.190  0.00  0.00    -0.057 A 
ENDROOT
BRANCH   1   7
ATOM      7  N   UNL d   1      -3.652   2.256  -2.433  0.00  0.00    -0.732 N 
ATOM      8  C   UNL d   1      -2.208   2.271  -2.535  0.00  0.00     0.284 C 
ATOM      9  H3  UNL d   1      -4.031   2.954  -1.797  0.00  0.00     0.395 HD
ENDBRANCH   1   7
TORSDOF 1
ENDMDL
