MODEL 1
REMARK minimizedAffinity 3.37342882
REMARK minimizedRMSD -1
REMARK  1 active torsions:
REMARK  status: ('A' for Active; 'I' for Inactive)
REMARK    1  A    between atoms: N_2  and  C1_3 
ROOT
ATOM      1  C1  UNL d   1      -4.641   3.243  -4.372  0.00  0.00     0.143 A 
ATOM      2  C2  UNL d   1      -5.605   3.004  -3.387  0.00  0.00    -0.057 A 
ATOM      3  C3  UNL d   1      -5.243   2.582  -2.102  0.00  0.00     0.033 A 
ATOM      4  C4  UNL d   1      -3.906   2.363  -1.787  0.00  0.00    -0.042 A 
ATOM      5  C5  UNL d   1      -2.932   2.570  -2.758  0.00  0.00     0.033 A 
ATOM      6  C6  UNL d   1      -3.300   2.998  -4.037  0.00  0.00    -0.057 A 
ENDROOT
BRANCH   1   7
ATOM      7  N   UNL d   1      -4.945   3.569  -5.696  0.00  0.00    -0.732 N 
ATOM      8  C   UNL d   1      -6.000   4.512  -6.000  0.00  0.00     0.284 C 
ATOM      9  H3  UNL d   1      -4.112   3.678  -6.270  0.00  0.00     0.395 HD
ENDBRANCH   1   7
TORSDOF 1
ENDMDL
