MODEL 1
REMARK minimizedAffinity -1.24567032
REMARK minimizedRMSD -1
REMARK  1 active torsions:
REMARK  status: ('A' for Active; 'I' for Inactive)
REMARK    1  A    between atoms: N_2  and  C1_3 
ROOT
ATOM      1  C1  UNL d   1      -0.770  -2.497   4.545  0.00  0.00     0.143 A 
ATOM      2  C2  UNL d   1      -0.853  -1.826   3.320  0.00  0.00    -0.057 A 
ATOM      3  C3  UNL d   1       0.280  -1.631   2.521  0.00  0.00     0.033 A 
ATOM      4  C4  UNL d   1       1.526  -2.079   2.949  0.00  0.00    -0.042 A 
ATOM      5  C5  UNL d   1       1.636  -2.726   4.174  0.00  0.00     0.033 A 
ATOM      6  C6  UNL d   1       0.500  -2.924   4.965  0.00  0.00    -0.057 A 
ENDROOT
BRANCH   1   7
ATOM      7  N   UNL d   1      -1.842  -2.635   5.430  0.00  0.00    -0.732 N 
ATOM      8  C   UNL d   1      -2.518  -1.470   5.959  0.00  0.00     0.284 C 
ATOM      9  H3  UNL d   1      -2.467  -3.394   5.167  0.00  0.00     0.395 HD
ENDBRANCH   1   7
TORSDOF 1
ENDMDL
