MODEL 1
REMARK minimizedAffinity -1.0657481
REMARK minimizedRMSD -1
REMARK  1 active torsions:
REMARK  status: ('A' for Active; 'I' for Inactive)
REMARK    1  A    between atoms: N_2  and  C1_3 
ROOT
ATOM      1  C1  UNL d   1       0.223  -1.567  -2.216  0.00  0.00     0.143 A 
ATOM      2  C2  UNL d   1      -0.111  -0.343  -2.805  0.00  0.00    -0.057 A 
ATOM      3  C3  UNL d   1      -0.032   0.855  -2.084  0.00  0.00     0.033 A 
ATOM      4  C4  UNL d   1       0.356   0.846  -0.748  0.00  0.00    -0.042 A 
ATOM      5  C5  UNL d   1       0.669  -0.363  -0.136  0.00  0.00     0.033 A 
ATOM      6  C6  UNL d   1       0.594  -1.554  -0.863  0.00  0.00    -0.057 A 
ENDROOT
BRANCH   1   7
ATOM      7  N   UNL d   1       0.071  -2.802  -2.851  0.00  0.00    -0.732 N 
ATOM      8  C   UNL d   1       0.728  -3.983  -2.333  0.00  0.00     0.284 C 
ATOM      9  H3  UNL d   1      -0.884  -2.962  -3.166  0.00  0.00     0.395 HD
ENDBRANCH   1   7
TORSDOF 1
ENDMDL
