MODEL 1
REMARK minimizedAffinity 3.0812428
REMARK minimizedRMSD -1
REMARK  1 active torsions:
REMARK  status: ('A' for Active; 'I' for Inactive)
REMARK    1  A    between atoms: N_2  and  C1_3 
ROOT
ATOM      1  C1  UNL d   1      -0.901   1.746  -1.803  0.00  0.00     0.143 A 
ATOM      2  C2  UNL d   1       0.463   2.059  -1.795  0.00  0.00    -0.057 A 
ATOM      3  C3  UNL d   1       1.375   1.311  -1.040  0.00  0.00     0.033 A 
ATOM      4  C4  UNL d   1       0.933   0.251  -0.255  0.00  0.00    -0.042 A 
ATOM      5  C5  UNL d   1      -0.421  -0.062  -0.228  0.00  0.00     0.033 A 
ATOM      6  C6  UNL d   1      -1.326   0.684  -0.989  0.00  0.00    -0.057 A 
ENDROOT
BRANCH   1   7
ATOM      7  N   UNL d   1      -1.871   2.511  -2.454  0.00  0.00    -0.732 N 
ATOM      8  C   UNL d   1      -1.672   3.929  -2.664  0.00  0.00     0.284 C 
ATOM      9  H3  UNL d   1      -2.278   2.026  -3.251  0.00  0.00     0.395 HD
ENDBRANCH   1   7
TORSDOF 1
ENDMDL
