MODEL 1
REMARK minimizedAffinity 8.69450855
REMARK minimizedRMSD -1
REMARK  1 active torsions:
REMARK  status: ('A' for Active; 'I' for Inactive)
REMARK    1  A    between atoms: N_2  and  C1_3 
ROOT
ATOM      1  C1  UNL d   1       0.111   2.391   1.822  0.00  0.00     0.143 A 
ATOM      2  C2  UNL d   1       0.426   1.358   2.712  0.00  0.00    -0.057 A 
ATOM      3  C3  UNL d   1       0.853   1.629   4.017  0.00  0.00     0.033 A 
ATOM      4  C4  UNL d   1       1.002   2.944   4.447  0.00  0.00    -0.042 A 
ATOM      5  C5  UNL d   1       0.719   3.986   3.572  0.00  0.00     0.033 A 
ATOM      6  C6  UNL d   1       0.287   3.709   2.272  0.00  0.00    -0.057 A 
ENDROOT
BRANCH   1   7
ATOM      7  N   UNL d   1      -0.224   2.187   0.481  0.00  0.00    -0.732 N 
ATOM      8  C   UNL d   1      -1.607   2.210   0.055  0.00  0.00     0.284 C 
ATOM      9  H3  UNL d   1       0.415   2.658  -0.155  0.00  0.00     0.395 HD
ENDBRANCH   1   7
TORSDOF 1
ENDMDL
