MODEL 1
REMARK minimizedAffinity 4.56612015
REMARK minimizedRMSD -1
REMARK  2 active torsions:
REMARK  status: ('A' for Active; 'I' for Inactive)
REMARK    1  A    between atoms: C1_2  and  C2_3 
REMARK    2  A    between atoms: C2_3  and  C3_4 
ROOT
ATOM      1  C3  UNL d   1       3.975   1.470   0.344  0.00  0.00    -0.075 A 
ATOM      2  C4  UNL d   1       4.271   0.339   1.118  0.00  0.00     0.002 A 
ATOM      3  C5  UNL d   1       3.263  -0.324   1.819  0.00  0.00     0.002 A 
ATOM      4  C6  UNL d   1       1.951   0.140   1.763  0.00  0.00    -0.004 A 
ATOM      5  C7  UNL d   1       1.648   1.273   1.010  0.00  0.00     0.002 A 
ATOM      6  C8  UNL d   1       2.654   1.935   0.304  0.00  0.00     0.002 A 
ENDROOT
BRANCH   1   7
ATOM      7  C2  UNL d   1       5.056   2.174  -0.441  0.00  0.00     0.056 C 
BRANCH   7   8
ATOM      8  C1  UNL d   1       5.999   3.022   0.420  0.00  0.00     0.007 C 
ATOM      9  C   UNL d   1       5.995   2.620   1.889  0.00  0.00     0.009 C 
ENDBRANCH   7   8
ENDBRANCH   1   7
TORSDOF 2
ENDMDL
