MODEL 1
REMARK minimizedAffinity 14.0641146
REMARK minimizedRMSD -1
REMARK  2 active torsions:
REMARK  status: ('A' for Active; 'I' for Inactive)
REMARK    1  A    between atoms: C1_2  and  C2_3 
REMARK    2  A    between atoms: C2_3  and  C3_4 
ROOT
ATOM      1  C3  UNL d   1       4.136  -1.236   3.163  0.00  0.00    -0.075 A 
ATOM      2  C4  UNL d   1       5.016  -1.141   2.075  0.00  0.00     0.002 A 
ATOM      3  C5  UNL d   1       4.601  -0.554   0.879  0.00  0.00     0.002 A 
ATOM      4  C6  UNL d   1       3.302  -0.066   0.752  0.00  0.00    -0.004 A 
ATOM      5  C7  UNL d   1       2.415  -0.170   1.822  0.00  0.00     0.002 A 
ATOM      6  C8  UNL d   1       2.829  -0.753   3.021  0.00  0.00     0.002 A 
ENDROOT
BRANCH   1   7
ATOM      7  C2  UNL d   1       4.588  -1.843   4.470  0.00  0.00     0.056 C 
BRANCH   7   8
ATOM      8  C1  UNL d   1       5.994  -1.414   4.904  0.00  0.00     0.007 C 
ATOM      9  C   UNL d   1       5.987  -0.354   5.997  0.00  0.00     0.009 C 
ENDBRANCH   7   8
ENDBRANCH   1   7
TORSDOF 2
ENDMDL
