MODEL 1
REMARK minimizedAffinity 2.25088143
REMARK minimizedRMSD -1
REMARK  2 active torsions:
REMARK  status: ('A' for Active; 'I' for Inactive)
REMARK    1  A    between atoms: C1_2  and  C2_3 
REMARK    2  A    between atoms: C2_3  and  C3_4 
ROOT
ATOM      1  C3  UNL d   1       4.000   4.242  -4.295  0.00  0.00    -0.075 A 
ATOM      2  C4  UNL d   1       4.495   5.203  -5.189  0.00  0.00     0.002 A 
ATOM      3  C5  UNL d   1       3.621   6.000  -5.928  0.00  0.00     0.002 A 
ATOM      4  C6  UNL d   1       2.244   5.840  -5.792  0.00  0.00    -0.004 A 
ATOM      5  C7  UNL d   1       1.741   4.878  -4.919  0.00  0.00     0.002 A 
ATOM      6  C8  UNL d   1       2.613   4.082  -4.175  0.00  0.00     0.002 A 
ENDROOT
BRANCH   1   7
ATOM      7  C2  UNL d   1       4.941   3.397  -3.470  0.00  0.00     0.056 C 
BRANCH   7   8
ATOM      8  C1  UNL d   1       4.368   2.031  -3.075  0.00  0.00     0.007 C 
ATOM      9  C   UNL d   1       4.513   0.980  -4.167  0.00  0.00     0.009 C 
ENDBRANCH   7   8
ENDBRANCH   1   7
TORSDOF 2
ENDMDL
