MODEL 1
REMARK minimizedAffinity 10.260108
REMARK minimizedRMSD -1
REMARK  2 active torsions:
REMARK  status: ('A' for Active; 'I' for Inactive)
REMARK    1  A    between atoms: C1_2  and  C2_3 
REMARK    2  A    between atoms: C2_3  and  C3_4 
ROOT
ATOM      1  C3  UNL d   1       3.512   1.353  -0.362  0.00  0.00    -0.075 A 
ATOM      2  C4  UNL d   1       3.269   0.321   0.556  0.00  0.00     0.002 A 
ATOM      3  C5  UNL d   1       2.255   0.444   1.507  0.00  0.00     0.002 A 
ATOM      4  C6  UNL d   1       1.481   1.601   1.559  0.00  0.00    -0.004 A 
ATOM      5  C7  UNL d   1       1.726   2.639   0.662  0.00  0.00     0.002 A 
ATOM      6  C8  UNL d   1       2.736   2.517  -0.293  0.00  0.00     0.002 A 
ENDROOT
BRANCH   1   7
ATOM      7  C2  UNL d   1       4.588   1.214  -1.413  0.00  0.00     0.056 C 
BRANCH   7   8
ATOM      8  C1  UNL d   1       4.506   2.257  -2.532  0.00  0.00     0.007 C 
ATOM      9  C   UNL d   1       3.994   1.687  -3.848  0.00  0.00     0.009 C 
ENDBRANCH   7   8
ENDBRANCH   1   7
TORSDOF 2
ENDMDL
