MODEL 1
REMARK minimizedAffinity 5.28367662
REMARK minimizedRMSD -1
REMARK  2 active torsions:
REMARK  status: ('A' for Active; 'I' for Inactive)
REMARK    1  A    between atoms: C1_2  and  C2_3 
REMARK    2  A    between atoms: C2_3  and  C3_4 
ROOT
ATOM      1  C3  UNL d   1       2.416   1.094   1.380  0.00  0.00    -0.075 A 
ATOM      2  C4  UNL d   1       1.336   0.485   2.036  0.00  0.00     0.002 A 
ATOM      3  C5  UNL d   1       0.265   1.250   2.497  0.00  0.00     0.002 A 
ATOM      4  C6  UNL d   1       0.264   2.632   2.318  0.00  0.00    -0.004 A 
ATOM      5  C7  UNL d   1       1.339   3.249   1.683  0.00  0.00     0.002 A 
ATOM      6  C8  UNL d   1       2.410   2.485   1.216  0.00  0.00     0.002 A 
ENDROOT
BRANCH   1   7
ATOM      7  C2  UNL d   1       3.565   0.268   0.852  0.00  0.00     0.056 C 
BRANCH   7   8
ATOM      8  C1  UNL d   1       4.520  -0.238   1.939  0.00  0.00     0.007 C 
ATOM      9  C   UNL d   1       5.946  -0.433   1.441  0.00  0.00     0.009 C 
ENDBRANCH   7   8
ENDBRANCH   1   7
TORSDOF 2
ENDMDL
