MODEL 1
REMARK minimizedAffinity 13.0461206
REMARK minimizedRMSD -1
REMARK  2 active torsions:
REMARK  status: ('A' for Active; 'I' for Inactive)
REMARK    1  A    between atoms: C1_2  and  C2_3 
REMARK    2  A    between atoms: C2_3  and  C3_4 
ROOT
ATOM      1  C3  UNL d   1       2.865   3.569  -4.128  0.00  0.00    -0.075 A 
ATOM      2  C4  UNL d   1       3.117   2.317  -4.708  0.00  0.00     0.002 A 
ATOM      3  C5  UNL d   1       3.996   1.420  -4.101  0.00  0.00     0.002 A 
ATOM      4  C6  UNL d   1       4.640   1.765  -2.915  0.00  0.00    -0.004 A 
ATOM      5  C7  UNL d   1       4.410   3.012  -2.338  0.00  0.00     0.002 A 
ATOM      6  C8  UNL d   1       3.527   3.910  -2.941  0.00  0.00     0.002 A 
ENDROOT
BRANCH   1   7
ATOM      7  C2  UNL d   1       1.892   4.533  -4.764  0.00  0.00     0.056 C 
BRANCH   7   8
ATOM      8  C1  UNL d   1       2.457   5.942  -4.971  0.00  0.00     0.007 C 
ATOM      9  C   UNL d   1       3.579   5.994  -6.000  0.00  0.00     0.009 C 
ENDBRANCH   7   8
ENDBRANCH   1   7
TORSDOF 2
ENDMDL
