MODEL 1
REMARK minimizedAffinity 13.8617239
REMARK minimizedRMSD -1
REMARK  2 active torsions:
REMARK  status: ('A' for Active; 'I' for Inactive)
REMARK    1  A    between atoms: C1_2  and  C2_3 
REMARK    2  A    between atoms: C2_3  and  C3_4 
ROOT
ATOM      1  C3  UNL d   1       1.945   2.922   0.758  0.00  0.00    -0.075 A 
ATOM      2  C4  UNL d   1       1.431   2.309   1.910  0.00  0.00     0.002 A 
ATOM      3  C5  UNL d   1       1.197   0.934   1.936  0.00  0.00     0.002 A 
ATOM      4  C6  UNL d   1       1.464   0.158   0.811  0.00  0.00    -0.004 A 
ATOM      5  C7  UNL d   1       1.960   0.758  -0.344  0.00  0.00     0.002 A 
ATOM      6  C8  UNL d   1       2.199   2.134  -0.372  0.00  0.00     0.002 A 
ENDROOT
BRANCH   1   7
ATOM      7  C2  UNL d   1       2.228   4.405   0.733  0.00  0.00     0.056 C 
BRANCH   7   8
ATOM      8  C1  UNL d   1       3.715   4.755   0.607  0.00  0.00     0.007 C 
ATOM      9  C   UNL d   1       4.109   5.996   1.397  0.00  0.00     0.009 C 
ENDBRANCH   7   8
ENDBRANCH   1   7
TORSDOF 2
ENDMDL
