MODEL 1
REMARK minimizedAffinity -2.78903437
REMARK minimizedRMSD -1
REMARK  2 active torsions:
REMARK  status: ('A' for Active; 'I' for Inactive)
REMARK    1  A    between atoms: C1_2  and  C2_3 
REMARK    2  A    between atoms: C2_3  and  C3_4 
ROOT
ATOM      1  C3  UNL d   1       4.120   4.371  -4.791  0.00  0.00    -0.075 A 
ATOM      2  C4  UNL d   1       4.649   4.863  -3.589  0.00  0.00     0.002 A 
ATOM      3  C5  UNL d   1       4.863   4.008  -2.507  0.00  0.00     0.002 A 
ATOM      4  C6  UNL d   1       4.543   2.656  -2.609  0.00  0.00    -0.004 A 
ATOM      5  C7  UNL d   1       4.001   2.160  -3.793  0.00  0.00     0.002 A 
ATOM      6  C8  UNL d   1       3.790   3.012  -4.879  0.00  0.00     0.002 A 
ENDROOT
BRANCH   1   7
ATOM      7  C2  UNL d   1       3.913   5.285  -5.975  0.00  0.00     0.056 C 
BRANCH   7   8
ATOM      8  C1  UNL d   1       2.556   5.997  -5.984  0.00  0.00     0.007 C 
ATOM      9  C   UNL d   1       1.374   5.037  -5.992  0.00  0.00     0.009 C 
ENDBRANCH   7   8
ENDBRANCH   1   7
TORSDOF 2
ENDMDL
