MODEL 1
REMARK minimizedAffinity 4.22861624
REMARK minimizedRMSD -1
REMARK  2 active torsions:
REMARK  status: ('A' for Active; 'I' for Inactive)
REMARK    1  A    between atoms: C1_2  and  C2_3 
REMARK    2  A    between atoms: C2_3  and  C3_4 
ROOT
ATOM      1  C3  UNL d   1       3.466   3.510  -4.118  0.00  0.00    -0.075 A 
ATOM      2  C4  UNL d   1       4.359   3.991  -3.150  0.00  0.00     0.002 A 
ATOM      3  C5  UNL d   1       5.586   3.360  -2.941  0.00  0.00     0.002 A 
ATOM      4  C6  UNL d   1       5.930   2.235  -3.688  0.00  0.00    -0.004 A 
ATOM      5  C7  UNL d   1       5.043   1.738  -4.641  0.00  0.00     0.002 A 
ATOM      6  C8  UNL d   1       3.817   2.371  -4.855  0.00  0.00     0.002 A 
ENDROOT
BRANCH   1   7
ATOM      7  C2  UNL d   1       2.150   4.206  -4.369  0.00  0.00     0.056 C 
BRANCH   7   8
ATOM      8  C1  UNL d   1       2.272   5.494  -5.191  0.00  0.00     0.007 C 
ATOM      9  C   UNL d   1       1.022   5.811  -6.000  0.00  0.00     0.009 C 
ENDBRANCH   7   8
ENDBRANCH   1   7
TORSDOF 2
ENDMDL
