MODEL 1
REMARK minimizedAffinity 8.76374054
REMARK minimizedRMSD -1
REMARK  2 active torsions:
REMARK  status: ('A' for Active; 'I' for Inactive)
REMARK    1  A    between atoms: C1_2  and  C2_3 
REMARK    2  A    between atoms: C2_3  and  C3_4 
ROOT
ATOM      1  C3  UNL d   1      -4.444   3.736   4.124  0.00  0.00    -0.075 A 
ATOM      2  C4  UNL d   1      -4.438   4.845   4.983  0.00  0.00     0.002 A 
ATOM      3  C5  UNL d   1      -5.215   5.967   4.695  0.00  0.00     0.002 A 
ATOM      4  C6  UNL d   1      -5.998   6.000   3.544  0.00  0.00    -0.004 A 
ATOM      5  C7  UNL d   1      -6.000   4.910   2.675  0.00  0.00     0.002 A 
ATOM      6  C8  UNL d   1      -5.227   3.784   2.962  0.00  0.00     0.002 A 
ENDROOT
BRANCH   1   7
ATOM      7  C2  UNL d   1      -3.628   2.506   4.444  0.00  0.00     0.056 C 
BRANCH   7   8
ATOM      8  C1  UNL d   1      -3.378   1.593   3.240  0.00  0.00     0.007 C 
ATOM      9  C   UNL d   1      -4.486   0.573   3.018  0.00  0.00     0.009 C 
ENDBRANCH   7   8
ENDBRANCH   1   7
TORSDOF 2
ENDMDL
