MODEL 1
REMARK minimizedAffinity 5.80838585
REMARK minimizedRMSD -1
REMARK  2 active torsions:
REMARK  status: ('A' for Active; 'I' for Inactive)
REMARK    1  A    between atoms: C1_2  and  C2_3 
REMARK    2  A    between atoms: C2_3  and  C3_4 
ROOT
ATOM      1  C3  UNL d   1       2.992   1.764  -0.174  0.00  0.00    -0.075 A 
ATOM      2  C4  UNL d   1       3.257   0.486   0.341  0.00  0.00     0.002 A 
ATOM      3  C5  UNL d   1       2.522  -0.009   1.418  0.00  0.00     0.002 A 
ATOM      4  C6  UNL d   1       1.523   0.768   2.001  0.00  0.00    -0.004 A 
ATOM      5  C7  UNL d   1       1.264   2.045   1.509  0.00  0.00     0.002 A 
ATOM      6  C8  UNL d   1       1.994   2.542   0.428  0.00  0.00     0.002 A 
ENDROOT
BRANCH   1   7
ATOM      7  C2  UNL d   1       3.764   2.294  -1.359  0.00  0.00     0.056 C 
BRANCH   7   8
ATOM      8  C1  UNL d   1       3.495   1.541  -2.666  0.00  0.00     0.007 C 
ATOM      9  C   UNL d   1       3.844   2.350  -3.908  0.00  0.00     0.009 C 
ENDBRANCH   7   8
ENDBRANCH   1   7
TORSDOF 2
ENDMDL
