MODEL 1
REMARK minimizedAffinity -0.885039032
REMARK minimizedRMSD -1
REMARK  2 active torsions:
REMARK  status: ('A' for Active; 'I' for Inactive)
REMARK    1  A    between atoms: C1_2  and  C2_3 
REMARK    2  A    between atoms: C2_3  and  C3_4 
ROOT
ATOM      1  C3  UNL d   1       3.705   3.018  -5.211  0.00  0.00    -0.075 A 
ATOM      2  C4  UNL d   1       3.729   1.900  -4.365  0.00  0.00     0.002 A 
ATOM      3  C5  UNL d   1       4.869   1.601  -3.619  0.00  0.00     0.002 A 
ATOM      4  C6  UNL d   1       6.000   2.408  -3.715  0.00  0.00    -0.004 A 
ATOM      5  C7  UNL d   1       5.993   3.512  -4.565  0.00  0.00     0.002 A 
ATOM      6  C8  UNL d   1       4.852   3.816  -5.310  0.00  0.00     0.002 A 
ENDROOT
BRANCH   1   7
ATOM      7  C2  UNL d   1       2.464   3.364  -6.000  0.00  0.00     0.056 C 
BRANCH   7   8
ATOM      8  C1  UNL d   1       1.470   4.249  -5.241  0.00  0.00     0.007 C 
ATOM      9  C   UNL d   1       1.094   5.515  -6.000  0.00  0.00     0.009 C 
ENDBRANCH   7   8
ENDBRANCH   1   7
TORSDOF 2
ENDMDL
