MODEL 1
REMARK minimizedAffinity -1.87047577
REMARK minimizedRMSD -1
REMARK  2 active torsions:
REMARK  status: ('A' for Active; 'I' for Inactive)
REMARK    1  A    between atoms: C1_2  and  C2_3 
REMARK    2  A    between atoms: C2_3  and  C3_4 
ROOT
ATOM      1  C3  UNL d   1       3.616   3.653  -4.450  0.00  0.00    -0.075 A 
ATOM      2  C4  UNL d   1       2.339   3.764  -5.020  0.00  0.00     0.002 A 
ATOM      3  C5  UNL d   1       1.961   4.929  -5.688  0.00  0.00     0.002 A 
ATOM      4  C6  UNL d   1       2.847   5.999  -5.785  0.00  0.00    -0.004 A 
ATOM      5  C7  UNL d   1       4.112   5.906  -5.208  0.00  0.00     0.002 A 
ATOM      6  C8  UNL d   1       4.495   4.740  -4.543  0.00  0.00     0.002 A 
ENDROOT
BRANCH   1   7
ATOM      7  C2  UNL d   1       4.043   2.384  -3.751  0.00  0.00     0.056 C 
BRANCH   7   8
ATOM      8  C1  UNL d   1       5.406   2.482  -3.058  0.00  0.00     0.007 C 
ATOM      9  C   UNL d   1       5.321   2.347  -1.544  0.00  0.00     0.009 C 
ENDBRANCH   7   8
ENDBRANCH   1   7
TORSDOF 2
ENDMDL
