MODEL 1
REMARK minimizedAffinity -0.655644655
REMARK minimizedRMSD -1
REMARK  1 active torsions:
REMARK  status: ('A' for Active; 'I' for Inactive)
REMARK    1  A    between atoms: C1_2  and  C2_3 
ROOT
ATOM      1  C2  UNL d   1       0.271  -0.344  -3.354  0.00  0.00    -0.076 A 
ATOM      2  C3  UNL d   1      -0.633  -1.209  -3.994  0.00  0.00     0.004 A 
ATOM      3  C4  UNL d   1      -1.235  -0.853  -5.200  0.00  0.00    -0.003 A 
ATOM      4  C5  UNL d   1      -0.942   0.374  -5.785  0.00  0.00     0.000 A 
ATOM      5  C6  UNL d   1      -0.034   1.237  -5.172  0.00  0.00     0.000 A 
ATOM      6  C7  UNL d   1       0.594   0.886  -3.965  0.00  0.00    -0.073 A 
ATOM      7  C8  UNL d   1       1.561   1.858  -3.345  0.00  0.00     0.078 C 
ENDROOT
BRANCH   1   8
ATOM      8  C1  UNL d   1       0.873  -0.773  -2.034  0.00  0.00     0.053 C 
ATOM      9  C   UNL d   1       0.091  -0.248  -0.840  0.00  0.00     0.018 C 
ENDBRANCH   1   8
TORSDOF 1
ENDMDL
