MODEL 1
REMARK minimizedAffinity -5.85514307
REMARK minimizedRMSD -1
REMARK  1 active torsions:
REMARK  status: ('A' for Active; 'I' for Inactive)
REMARK    1  A    between atoms: C1_2  and  C2_3 
ROOT
ATOM      1  C2  UNL d   1       0.384  -0.084   0.291  0.00  0.00    -0.076 A 
ATOM      2  C3  UNL d   1      -0.978   0.160   0.044  0.00  0.00     0.004 A 
ATOM      3  C4  UNL d   1      -1.856   0.447   1.087  0.00  0.00    -0.003 A 
ATOM      4  C5  UNL d   1      -1.387   0.495   2.395  0.00  0.00     0.000 A 
ATOM      5  C6  UNL d   1      -0.035   0.273   2.657  0.00  0.00     0.000 A 
ATOM      6  C7  UNL d   1       0.867  -0.001   1.615  0.00  0.00    -0.073 A 
ATOM      7  C8  UNL d   1       2.313  -0.239   1.956  0.00  0.00     0.078 C 
ENDROOT
BRANCH   1   8
ATOM      8  C1  UNL d   1       1.284  -0.416  -0.877  0.00  0.00     0.053 C 
ATOM      9  C   UNL d   1       0.596  -0.215  -2.218  0.00  0.00     0.018 C 
ENDBRANCH   1   8
TORSDOF 1
ENDMDL
