MODEL 1
REMARK minimizedAffinity -1.210446
REMARK minimizedRMSD -1
REMARK  1 active torsions:
REMARK  status: ('A' for Active; 'I' for Inactive)
REMARK    1  A    between atoms: C1_2  and  C2_3 
ROOT
ATOM      1  C2  UNL d   1       0.882  -0.005   1.259  0.00  0.00    -0.076 A 
ATOM      2  C3  UNL d   1       1.838  -0.539   2.141  0.00  0.00     0.004 A 
ATOM      3  C4  UNL d   1       1.557  -0.689   3.498  0.00  0.00    -0.003 A 
ATOM      4  C5  UNL d   1       0.315  -0.307   3.995  0.00  0.00     0.000 A 
ATOM      5  C6  UNL d   1      -0.651   0.208   3.131  0.00  0.00     0.000 A 
ATOM      6  C7  UNL d   1      -0.389   0.351   1.757  0.00  0.00    -0.073 A 
ATOM      7  C8  UNL d   1      -1.465   0.918   0.873  0.00  0.00     0.078 C 
ENDROOT
BRANCH   1   8
ATOM      8  C1  UNL d   1       1.253   0.160  -0.198  0.00  0.00     0.053 C 
ATOM      9  C   UNL d   1       0.580  -0.871  -1.091  0.00  0.00     0.018 C 
ENDBRANCH   1   8
TORSDOF 1
ENDMDL
