MODEL 1
REMARK minimizedAffinity -1.09262908
REMARK minimizedRMSD -1
REMARK  1 active torsions:
REMARK  status: ('A' for Active; 'I' for Inactive)
REMARK    1  A    between atoms: C1_2  and  C2_3 
ROOT
ATOM      1  C2  UNL d   1      -0.156   0.003   1.189  0.00  0.00    -0.076 A 
ATOM      2  C3  UNL d   1      -0.999   0.082   0.068  0.00  0.00     0.004 A 
ATOM      3  C4  UNL d   1      -0.536  -0.251  -1.204  0.00  0.00    -0.003 A 
ATOM      4  C5  UNL d   1       0.779  -0.670  -1.375  0.00  0.00     0.000 A 
ATOM      5  C6  UNL d   1       1.625  -0.771  -0.271  0.00  0.00     0.000 A 
ATOM      6  C7  UNL d   1       1.169  -0.454   1.020  0.00  0.00    -0.073 A 
ATOM      7  C8  UNL d   1       2.126  -0.576   2.174  0.00  0.00     0.078 C 
ENDROOT
BRANCH   1   8
ATOM      8  C1  UNL d   1      -0.706   0.403   2.539  0.00  0.00     0.053 C 
ATOM      9  C   UNL d   1      -1.806  -0.531   3.020  0.00  0.00     0.018 C 
ENDBRANCH   1   8
TORSDOF 1
ENDMDL
