MODEL 1
REMARK minimizedAffinity -1.61913466
REMARK minimizedRMSD -1
REMARK  1 active torsions:
REMARK  status: ('A' for Active; 'I' for Inactive)
REMARK    1  A    between atoms: C1_2  and  C2_3 
ROOT
ATOM      1  C2  UNL d   1      -0.062  -0.108   0.202  0.00  0.00    -0.076 A 
ATOM      2  C3  UNL d   1      -1.319   0.498   0.377  0.00  0.00     0.004 A 
ATOM      3  C4  UNL d   1      -1.740   0.925   1.636  0.00  0.00    -0.003 A 
ATOM      4  C5  UNL d   1      -0.911   0.753   2.739  0.00  0.00     0.000 A 
ATOM      5  C6  UNL d   1       0.346   0.170   2.580  0.00  0.00     0.000 A 
ATOM      6  C7  UNL d   1       0.792  -0.251   1.316  0.00  0.00    -0.073 A 
ATOM      7  C8  UNL d   1       2.154  -0.879   1.203  0.00  0.00     0.078 C 
ENDROOT
BRANCH   1   8
ATOM      8  C1  UNL d   1       0.329  -0.575  -1.182  0.00  0.00     0.053 C 
ATOM      9  C   UNL d   1       1.013   0.515  -1.993  0.00  0.00     0.018 C 
ENDBRANCH   1   8
TORSDOF 1
ENDMDL
