MODEL 1
REMARK minimizedAffinity 6.49275494
REMARK minimizedRMSD -1
REMARK  0 active torsions:
REMARK  status: ('A' for Active; 'I' for Inactive)
ROOT
ATOM      1  C   UNL d   1      -0.297   0.913   0.742  0.00  0.00     0.124 A 
ATOM      2  C1  UNL d   1      -1.374   0.145   1.163  0.00  0.00     0.062 A 
ATOM      3  C2  UNL d   1      -2.669   0.495   0.793  0.00  0.00     0.162 A 
ATOM      4  C3  UNL d   1      -2.895   1.617  -0.004  0.00  0.00    -0.034 A 
ATOM      5  C4  UNL d   1      -1.807   2.384  -0.422  0.00  0.00     0.162 A 
ATOM      6  C5  UNL d   1      -0.514   2.031  -0.050  0.00  0.00     0.062 A 
ATOM      7  F   UNL d   1       0.525   2.774  -0.458  0.00  0.00    -0.097 F 
ATOM      8  F1  UNL d   1      -1.988   3.470  -1.189  0.00  0.00    -0.096 F 
ATOM      9  I   UNL d   1      -4.831   2.143  -0.559  0.00  0.00    -0.060 I 
ATOM     10  F2  UNL d   1      -3.691  -0.265   1.215  0.00  0.00    -0.096 F 
ATOM     11  F3  UNL d   1      -1.166  -0.935   1.929  0.00  0.00    -0.097 F 
ATOM     12  F4  UNL d   1       0.949   0.575   1.100  0.00  0.00    -0.092 F 
ENDROOT
TORSDOF 0
ENDMDL
