MODEL 1
REMARK minimizedAffinity -1.42177582
REMARK minimizedRMSD -1
REMARK  0 active torsions:
REMARK  status: ('A' for Active; 'I' for Inactive)
ROOT
ATOM      1  C   UNL d   1      -2.542   1.386   0.343  0.00  0.00     0.124 A 
ATOM      2  C1  UNL d   1      -2.158   0.369   1.206  0.00  0.00     0.062 A 
ATOM      3  C2  UNL d   1      -0.810   0.162   1.487  0.00  0.00     0.162 A 
ATOM      4  C3  UNL d   1       0.163   0.975   0.906  0.00  0.00    -0.034 A 
ATOM      5  C4  UNL d   1      -0.232   1.996   0.039  0.00  0.00     0.162 A 
ATOM      6  C5  UNL d   1      -1.580   2.199  -0.239  0.00  0.00     0.062 A 
ATOM      7  F   UNL d   1      -1.950   3.182  -1.072  0.00  0.00    -0.097 F 
ATOM      8  F1  UNL d   1       0.678   2.796  -0.537  0.00  0.00    -0.096 F 
ATOM      9  I   UNL d   1       2.179   0.669   1.324  0.00  0.00    -0.060 I 
ATOM     10  F2  UNL d   1      -0.467  -0.828   2.324  0.00  0.00    -0.096 F 
ATOM     11  F3  UNL d   1      -3.086  -0.417   1.769  0.00  0.00    -0.097 F 
ATOM     12  F4  UNL d   1      -3.839   1.583   0.074  0.00  0.00    -0.092 F 
ENDROOT
TORSDOF 0
ENDMDL
