MODEL 1
REMARK minimizedAffinity 19.290451
REMARK minimizedRMSD -1
REMARK  0 active torsions:
REMARK  status: ('A' for Active; 'I' for Inactive)
ROOT
ATOM      1  C   UNL d   1      -0.057   1.536   1.094  0.00  0.00     0.124 A 
ATOM      2  C1  UNL d   1      -1.111   0.739   1.519  0.00  0.00     0.062 A 
ATOM      3  C2  UNL d   1      -2.379   0.904   0.970  0.00  0.00     0.162 A 
ATOM      4  C3  UNL d   1      -2.600   1.871  -0.012  0.00  0.00    -0.034 A 
ATOM      5  C4  UNL d   1      -1.535   2.669  -0.433  0.00  0.00     0.162 A 
ATOM      6  C5  UNL d   1      -0.270   2.500   0.119  0.00  0.00     0.062 A 
ATOM      7  F   UNL d   1       0.747   3.271  -0.292  0.00  0.00    -0.097 F 
ATOM      8  F1  UNL d   1      -1.713   3.608  -1.375  0.00  0.00    -0.096 F 
ATOM      9  I   UNL d   1      -4.495   2.121  -0.836  0.00  0.00    -0.060 I 
ATOM     10  F2  UNL d   1      -3.379   0.120   1.399  0.00  0.00    -0.096 F 
ATOM     11  F3  UNL d   1      -0.908  -0.193   2.462  0.00  0.00    -0.097 F 
ATOM     12  F4  UNL d   1       1.162   1.375   1.625  0.00  0.00    -0.092 F 
ENDROOT
TORSDOF 0
ENDMDL
