MODEL 1
REMARK minimizedAffinity 5.59381676
REMARK minimizedRMSD -1
REMARK  0 active torsions:
REMARK  status: ('A' for Active; 'I' for Inactive)
ROOT
ATOM      1  C   UNL d   1      -3.004   1.398  -0.171  0.00  0.00     0.124 A 
ATOM      2  C1  UNL d   1      -2.596   0.325   0.610  0.00  0.00     0.062 A 
ATOM      3  C2  UNL d   1      -1.292   0.265   1.090  0.00  0.00     0.162 A 
ATOM      4  C3  UNL d   1      -0.385   1.282   0.793  0.00  0.00    -0.034 A 
ATOM      5  C4  UNL d   1      -0.802   2.357   0.007  0.00  0.00     0.162 A 
ATOM      6  C5  UNL d   1      -2.107   2.413  -0.471  0.00  0.00     0.062 A 
ATOM      7  F   UNL d   1      -2.499   3.450  -1.225  0.00  0.00    -0.097 F 
ATOM      8  F1  UNL d   1       0.045   3.352  -0.299  0.00  0.00    -0.096 F 
ATOM      9  I   UNL d   1       1.567   1.196   1.510  0.00  0.00    -0.060 I 
ATOM     10  F2  UNL d   1      -0.925  -0.784   1.842  0.00  0.00    -0.096 F 
ATOM     11  F3  UNL d   1      -3.461  -0.657   0.901  0.00  0.00    -0.097 F 
ATOM     12  F4  UNL d   1      -4.260   1.453  -0.633  0.00  0.00    -0.092 F 
ENDROOT
TORSDOF 0
ENDMDL
