MODEL 1
REMARK minimizedAffinity 3.66009617
REMARK minimizedRMSD -1
REMARK  0 active torsions:
REMARK  status: ('A' for Active; 'I' for Inactive)
ROOT
ATOM      1  C   UNL d   1      -0.294   1.886   0.189  0.00  0.00     0.124 A 
ATOM      2  C1  UNL d   1      -1.586   2.312  -0.086  0.00  0.00     0.062 A 
ATOM      3  C2  UNL d   1      -2.676   1.543   0.312  0.00  0.00     0.162 A 
ATOM      4  C3  UNL d   1      -2.478   0.339   0.989  0.00  0.00    -0.034 A 
ATOM      5  C4  UNL d   1      -1.176  -0.083   1.260  0.00  0.00     0.162 A 
ATOM      6  C5  UNL d   1      -0.090   0.690   0.861  0.00  0.00     0.062 A 
ATOM      7  F   UNL d   1       1.158   0.277   1.127  0.00  0.00    -0.097 F 
ATOM      8  F1  UNL d   1      -0.949  -1.235   1.910  0.00  0.00    -0.096 F 
ATOM      9  I   UNL d   1      -4.105  -0.814   1.585  0.00  0.00    -0.060 I 
ATOM     10  F2  UNL d   1      -3.914   1.979   0.034  0.00  0.00    -0.096 F 
ATOM     11  F3  UNL d   1      -1.786   3.467  -0.736  0.00  0.00    -0.097 F 
ATOM     12  F4  UNL d   1       0.753   2.628  -0.196  0.00  0.00    -0.092 F 
ENDROOT
TORSDOF 0
ENDMDL
