MODEL 1
REMARK minimizedAffinity 2.46211576
REMARK minimizedRMSD -1
REMARK  0 active torsions:
REMARK  status: ('A' for Active; 'I' for Inactive)
ROOT
ATOM      1  C   UNL d   1      -4.442   0.977   0.928  0.00  0.00     0.124 A 
ATOM      2  C1  UNL d   1      -3.643  -0.027   1.458  0.00  0.00     0.062 A 
ATOM      3  C2  UNL d   1      -2.265  -0.001   1.263  0.00  0.00     0.162 A 
ATOM      4  C3  UNL d   1      -1.677   1.033   0.534  0.00  0.00    -0.034 A 
ATOM      5  C4  UNL d   1      -2.487   2.039   0.003  0.00  0.00     0.162 A 
ATOM      6  C5  UNL d   1      -3.864   2.008   0.201  0.00  0.00     0.062 A 
ATOM      7  F   UNL d   1      -4.634   2.978  -0.312  0.00  0.00    -0.097 F 
ATOM      8  F1  UNL d   1      -1.955   3.047  -0.702  0.00  0.00    -0.096 F 
ATOM      9  I   UNL d   1       0.383   1.076   0.240  0.00  0.00    -0.060 I 
ATOM     10  F2  UNL d   1      -1.518  -0.983   1.786  0.00  0.00    -0.096 F 
ATOM     11  F3  UNL d   1      -4.200  -1.025   2.159  0.00  0.00    -0.097 F 
ATOM     12  F4  UNL d   1      -5.768   0.949   1.116  0.00  0.00    -0.092 F 
ENDROOT
TORSDOF 0
ENDMDL
