MODEL 1
REMARK minimizedAffinity 13.4697838
REMARK minimizedRMSD -1
REMARK  0 active torsions:
REMARK  status: ('A' for Active; 'I' for Inactive)
ROOT
ATOM      1  C   UNL d   1      -2.803  -3.002  -0.939  0.00  0.00     0.124 A 
ATOM      2  C1  UNL d   1      -2.427  -2.581  -2.207  0.00  0.00     0.062 A 
ATOM      3  C2  UNL d   1      -1.496  -3.312  -2.939  0.00  0.00     0.162 A 
ATOM      4  C3  UNL d   1      -0.935  -4.473  -2.406  0.00  0.00    -0.034 A 
ATOM      5  C4  UNL d   1      -1.318  -4.889  -1.129  0.00  0.00     0.162 A 
ATOM      6  C5  UNL d   1      -2.249  -4.155  -0.401  0.00  0.00     0.062 A 
ATOM      7  F   UNL d   1      -2.611  -4.563   0.824  0.00  0.00    -0.097 F 
ATOM      8  F1  UNL d   1      -0.798  -6.000  -0.586  0.00  0.00    -0.096 F 
ATOM      9  I   UNL d   1       0.458  -5.569  -3.497  0.00  0.00    -0.060 I 
ATOM     10  F2  UNL d   1      -1.150  -2.882  -4.162  0.00  0.00    -0.096 F 
ATOM     11  F3  UNL d   1      -2.960  -1.467  -2.728  0.00  0.00    -0.097 F 
ATOM     12  F4  UNL d   1      -3.698  -2.296  -0.236  0.00  0.00    -0.092 F 
ENDROOT
TORSDOF 0
ENDMDL
