MODEL 1
REMARK minimizedAffinity 17.4090672
REMARK minimizedRMSD -1
REMARK  0 active torsions:
REMARK  status: ('A' for Active; 'I' for Inactive)
ROOT
ATOM      1  C   UNL d   1      -3.056   1.376  -0.042  0.00  0.00     0.124 A 
ATOM      2  C1  UNL d   1      -2.801   0.345   0.851  0.00  0.00     0.062 A 
ATOM      3  C2  UNL d   1      -1.537   0.205   1.417  0.00  0.00     0.162 A 
ATOM      4  C3  UNL d   1      -0.517   1.099   1.091  0.00  0.00    -0.034 A 
ATOM      5  C4  UNL d   1      -0.781   2.134   0.191  0.00  0.00     0.162 A 
ATOM      6  C5  UNL d   1      -2.046   2.269  -0.371  0.00  0.00     0.062 A 
ATOM      7  F   UNL d   1      -2.290   3.267  -1.234  0.00  0.00    -0.097 F 
ATOM      8  F1  UNL d   1       0.177   3.011  -0.143  0.00  0.00    -0.096 F 
ATOM      9  I   UNL d   1       1.374   0.893   1.934  0.00  0.00    -0.060 I 
ATOM     10  F2  UNL d   1      -1.319  -0.801   2.277  0.00  0.00    -0.096 F 
ATOM     11  F3  UNL d   1      -3.775  -0.520   1.170  0.00  0.00    -0.097 F 
ATOM     12  F4  UNL d   1      -4.273   1.508  -0.585  0.00  0.00    -0.092 F 
ENDROOT
TORSDOF 0
ENDMDL
