MODEL 1
REMARK minimizedAffinity 8.04496956
REMARK minimizedRMSD -1
REMARK  0 active torsions:
REMARK  status: ('A' for Active; 'I' for Inactive)
ROOT
ATOM      1  C   UNL d   1      -0.879   1.096   0.062  0.00  0.00     0.124 A 
ATOM      2  C1  UNL d   1      -2.228   1.224  -0.239  0.00  0.00     0.062 A 
ATOM      3  C2  UNL d   1      -3.190   0.724   0.634  0.00  0.00     0.162 A 
ATOM      4  C3  UNL d   1      -2.806   0.093   1.818  0.00  0.00    -0.034 A 
ATOM      5  C4  UNL d   1      -1.447  -0.033   2.112  0.00  0.00     0.162 A 
ATOM      6  C5  UNL d   1      -0.490   0.468   1.236  0.00  0.00     0.062 A 
ATOM      7  F   UNL d   1       0.813   0.344   1.528  0.00  0.00    -0.097 F 
ATOM      8  F1  UNL d   1      -1.043  -0.634   3.241  0.00  0.00    -0.096 F 
ATOM      9  I   UNL d   1      -4.241  -0.656   3.126  0.00  0.00    -0.060 I 
ATOM     10  F2  UNL d   1      -4.486   0.861   0.319  0.00  0.00    -0.096 F 
ATOM     11  F3  UNL d   1      -2.606   1.829  -1.374  0.00  0.00    -0.097 F 
ATOM     12  F4  UNL d   1       0.045   1.577  -0.781  0.00  0.00    -0.092 F 
ENDROOT
TORSDOF 0
ENDMDL
