MODEL 1
REMARK minimizedAffinity 4.97281408
REMARK minimizedRMSD -1
REMARK  0 active torsions:
REMARK  status: ('A' for Active; 'I' for Inactive)
ROOT
ATOM      1  C   UNL d   1      -3.266   1.116   0.445  0.00  0.00     0.124 A 
ATOM      2  C1  UNL d   1      -2.324   1.955  -0.134  0.00  0.00     0.062 A 
ATOM      3  C2  UNL d   1      -0.972   1.793   0.153  0.00  0.00     0.162 A 
ATOM      4  C3  UNL d   1      -0.553   0.786   1.023  0.00  0.00    -0.034 A 
ATOM      5  C4  UNL d   1      -1.507  -0.052   1.603  0.00  0.00     0.162 A 
ATOM      6  C5  UNL d   1      -2.857   0.114   1.313  0.00  0.00     0.062 A 
ATOM      7  F   UNL d   1      -3.766  -0.697   1.874  0.00  0.00    -0.097 F 
ATOM      8  F1  UNL d   1      -1.139  -1.030   2.444  0.00  0.00    -0.096 F 
ATOM      9  I   UNL d   1       1.468   0.540   1.455  0.00  0.00    -0.060 I 
ATOM     10  F2  UNL d   1      -0.083   2.617  -0.422  0.00  0.00    -0.096 F 
ATOM     11  F3  UNL d   1      -2.717   2.925  -0.973  0.00  0.00    -0.097 F 
ATOM     12  F4  UNL d   1      -4.567   1.276   0.168  0.00  0.00    -0.092 F 
ENDROOT
TORSDOF 0
ENDMDL
