MODEL 1
REMARK minimizedAffinity 1.74190307
REMARK minimizedRMSD -1
REMARK  0 active torsions:
REMARK  status: ('A' for Active; 'I' for Inactive)
ROOT
ATOM      1  C   UNL d   1      -2.907   1.580   0.225  0.00  0.00     0.124 A 
ATOM      2  C1  UNL d   1      -1.934   2.459  -0.229  0.00  0.00     0.062 A 
ATOM      3  C2  UNL d   1      -0.593   2.236   0.072  0.00  0.00     0.162 A 
ATOM      4  C3  UNL d   1      -0.217   1.128   0.831  0.00  0.00    -0.034 A 
ATOM      5  C4  UNL d   1      -1.202   0.248   1.285  0.00  0.00     0.162 A 
ATOM      6  C5  UNL d   1      -2.540   0.476   0.981  0.00  0.00     0.062 A 
ATOM      7  F   UNL d   1      -3.479  -0.375   1.421  0.00  0.00    -0.097 F 
ATOM      8  F1  UNL d   1      -0.876  -0.827   2.017  0.00  0.00    -0.096 F 
ATOM      9  I   UNL d   1       1.786   0.790   1.284  0.00  0.00    -0.060 I 
ATOM     10  F2  UNL d   1       0.326   3.102  -0.380  0.00  0.00    -0.096 F 
ATOM     11  F3  UNL d   1      -2.285   3.527  -0.959  0.00  0.00    -0.097 F 
ATOM     12  F4  UNL d   1      -4.196   1.797  -0.066  0.00  0.00    -0.092 F 
ENDROOT
TORSDOF 0
ENDMDL
