MODEL 1
REMARK minimizedAffinity 7.31089544
REMARK minimizedRMSD -1
REMARK  0 active torsions:
REMARK  status: ('A' for Active; 'I' for Inactive)
ROOT
ATOM      1  C   UNL d   1      -2.963   1.717   0.043  0.00  0.00     0.124 A 
ATOM      2  C1  UNL d   1      -1.883   2.531  -0.271  0.00  0.00     0.062 A 
ATOM      3  C2  UNL d   1      -0.692   2.420   0.440  0.00  0.00     0.162 A 
ATOM      4  C3  UNL d   1      -0.573   1.488   1.472  0.00  0.00    -0.034 A 
ATOM      5  C4  UNL d   1      -1.663   0.674   1.782  0.00  0.00     0.162 A 
ATOM      6  C5  UNL d   1      -2.852   0.789   1.069  0.00  0.00     0.062 A 
ATOM      7  F   UNL d   1      -3.893   0.002   1.373  0.00  0.00    -0.097 F 
ATOM      8  F1  UNL d   1      -1.583  -0.232   2.768  0.00  0.00    -0.096 F 
ATOM      9  I   UNL d   1       1.207   1.318   2.538  0.00  0.00    -0.060 I 
ATOM     10  F2  UNL d   1       0.335   3.219   0.115  0.00  0.00    -0.096 F 
ATOM     11  F3  UNL d   1      -1.988   3.429  -1.261  0.00  0.00    -0.097 F 
ATOM     12  F4  UNL d   1      -4.108   1.827  -0.642  0.00  0.00    -0.092 F 
ENDROOT
TORSDOF 0
ENDMDL
