MODEL 1
REMARK minimizedAffinity 7.64971495
REMARK minimizedRMSD -1
REMARK  0 active torsions:
REMARK  status: ('A' for Active; 'I' for Inactive)
ROOT
ATOM      1  C   UNL d   1      -2.983   1.761   0.151  0.00  0.00     0.124 A 
ATOM      2  C1  UNL d   1      -2.669   0.523   0.693  0.00  0.00     0.062 A 
ATOM      3  C2  UNL d   1      -1.348   0.205   0.995  0.00  0.00     0.162 A 
ATOM      4  C3  UNL d   1      -0.330   1.129   0.757  0.00  0.00    -0.034 A 
ATOM      5  C4  UNL d   1      -0.654   2.372   0.211  0.00  0.00     0.162 A 
ATOM      6  C5  UNL d   1      -1.976   2.685  -0.089  0.00  0.00     0.062 A 
ATOM      7  F   UNL d   1      -2.277   3.882  -0.612  0.00  0.00    -0.097 F 
ATOM      8  F1  UNL d   1       0.300   3.284  -0.030  0.00  0.00    -0.096 F 
ATOM      9  I   UNL d   1       1.646   0.658   1.207  0.00  0.00    -0.060 I 
ATOM     10  F2  UNL d   1      -1.074  -0.999   1.517  0.00  0.00    -0.096 F 
ATOM     11  F3  UNL d   1      -3.641  -0.372   0.925  0.00  0.00    -0.097 F 
ATOM     12  F4  UNL d   1      -4.255   2.064  -0.140  0.00  0.00    -0.092 F 
ENDROOT
TORSDOF 0
ENDMDL
