MODEL 1
REMARK minimizedAffinity 7.11216068
REMARK minimizedRMSD -1
REMARK  0 active torsions:
REMARK  status: ('A' for Active; 'I' for Inactive)
ROOT
ATOM      1  C   UNL d   1       0.722   2.354   2.362  0.00  0.00     0.124 A 
ATOM      2  C1  UNL d   1      -0.021   1.801   1.329  0.00  0.00     0.062 A 
ATOM      3  C2  UNL d   1       0.620   1.259   0.219  0.00  0.00     0.162 A 
ATOM      4  C3  UNL d   1       2.012   1.266   0.137  0.00  0.00    -0.034 A 
ATOM      5  C4  UNL d   1       2.752   1.825   1.180  0.00  0.00     0.162 A 
ATOM      6  C5  UNL d   1       2.107   2.366   2.287  0.00  0.00     0.062 A 
ATOM      7  F   UNL d   1       2.826   2.900   3.285  0.00  0.00    -0.097 F 
ATOM      8  F1  UNL d   1       4.093   1.848   1.134  0.00  0.00    -0.096 F 
ATOM      9  I   UNL d   1       2.974   0.456  -1.521  0.00  0.00    -0.060 I 
ATOM     10  F2  UNL d   1      -0.123   0.730  -0.765  0.00  0.00    -0.096 F 
ATOM     11  F3  UNL d   1      -1.360   1.790   1.399  0.00  0.00    -0.097 F 
ATOM     12  F4  UNL d   1       0.102   2.877   3.429  0.00  0.00    -0.092 F 
ENDROOT
TORSDOF 0
ENDMDL
