MODEL 1
REMARK minimizedAffinity 12.5265598
REMARK minimizedRMSD -1
REMARK  0 active torsions:
REMARK  status: ('A' for Active; 'I' for Inactive)
ROOT
ATOM      1  C   UNL d   1      -3.547   1.882  -0.121  0.00  0.00     0.124 A 
ATOM      2  C1  UNL d   1      -2.223   1.839   0.292  0.00  0.00     0.062 A 
ATOM      3  C2  UNL d   1      -1.850   1.033   1.365  0.00  0.00     0.162 A 
ATOM      4  C3  UNL d   1      -2.803   0.263   2.031  0.00  0.00    -0.034 A 
ATOM      5  C4  UNL d   1      -4.134   0.312   1.609  0.00  0.00     0.162 A 
ATOM      6  C5  UNL d   1      -4.501   1.119   0.537  0.00  0.00     0.062 A 
ATOM      7  F   UNL d   1      -5.781   1.159   0.139  0.00  0.00    -0.097 F 
ATOM      8  F1  UNL d   1      -5.076  -0.415   2.227  0.00  0.00    -0.096 F 
ATOM      9  I   UNL d   1      -2.251  -0.943   3.635  0.00  0.00    -0.060 I 
ATOM     10  F2  UNL d   1      -0.563   1.011   1.743  0.00  0.00    -0.096 F 
ATOM     11  F3  UNL d   1      -1.299   2.575  -0.342  0.00  0.00    -0.097 F 
ATOM     12  F4  UNL d   1      -3.902   2.658  -1.153  0.00  0.00    -0.092 F 
ENDROOT
TORSDOF 0
ENDMDL
