MODEL 1
REMARK minimizedAffinity 3.81003809
REMARK minimizedRMSD -1
REMARK  0 active torsions:
REMARK  status: ('A' for Active; 'I' for Inactive)
ROOT
ATOM      1  C   UNL d   1       1.422   2.736   2.176  0.00  0.00     0.124 A 
ATOM      2  C1  UNL d   1       1.692   1.778   1.208  0.00  0.00     0.062 A 
ATOM      3  C2  UNL d   1       0.648   1.093   0.591  0.00  0.00     0.162 A 
ATOM      4  C3  UNL d   1      -0.675   1.365   0.939  0.00  0.00    -0.034 A 
ATOM      5  C4  UNL d   1      -0.938   2.329   1.914  0.00  0.00     0.162 A 
ATOM      6  C5  UNL d   1       0.108   3.011   2.528  0.00  0.00     0.062 A 
ATOM      7  F   UNL d   1      -0.154   3.936   3.462  0.00  0.00    -0.097 F 
ATOM      8  F1  UNL d   1      -2.198   2.615   2.273  0.00  0.00    -0.096 F 
ATOM      9  I   UNL d   1      -2.237   0.343   0.019  0.00  0.00    -0.060 I 
ATOM     10  F2  UNL d   1       0.938   0.173  -0.340  0.00  0.00    -0.096 F 
ATOM     11  F3  UNL d   1       2.960   1.510   0.867  0.00  0.00    -0.097 F 
ATOM     12  F4  UNL d   1       2.428   3.392   2.768  0.00  0.00    -0.092 F 
ENDROOT
TORSDOF 0
ENDMDL
