MODEL 1
REMARK minimizedAffinity 6.53423595
REMARK minimizedRMSD -1
REMARK  0 active torsions:
REMARK  status: ('A' for Active; 'I' for Inactive)
ROOT
ATOM      1  C   UNL d   1      -0.377   2.082   2.450  0.00  0.00     0.124 A 
ATOM      2  C1  UNL d   1      -0.923   1.721   1.226  0.00  0.00     0.062 A 
ATOM      3  C2  UNL d   1      -0.093   1.431   0.148  0.00  0.00     0.162 A 
ATOM      4  C3  UNL d   1       1.293   1.499   0.288  0.00  0.00    -0.034 A 
ATOM      5  C4  UNL d   1       1.835   1.863   1.522  0.00  0.00     0.162 A 
ATOM      6  C5  UNL d   1       1.001   2.152   2.597  0.00  0.00     0.062 A 
ATOM      7  F   UNL d   1       1.530   2.501   3.779  0.00  0.00    -0.097 F 
ATOM      8  F1  UNL d   1       3.163   1.938   1.692  0.00  0.00    -0.096 F 
ATOM      9  I   UNL d   1       2.538   1.065  -1.322  0.00  0.00    -0.060 I 
ATOM     10  F2  UNL d   1      -0.648   1.085  -1.023  0.00  0.00    -0.096 F 
ATOM     11  F3  UNL d   1      -2.255   1.653   1.082  0.00  0.00    -0.097 F 
ATOM     12  F4  UNL d   1      -1.179   2.362   3.486  0.00  0.00    -0.092 F 
ENDROOT
TORSDOF 0
ENDMDL
