MODEL 1
REMARK minimizedAffinity 19.2775936
REMARK minimizedRMSD -1
REMARK  0 active torsions:
REMARK  status: ('A' for Active; 'I' for Inactive)
ROOT
ATOM      1  C   UNL d   1      -1.509  -2.165   1.179  0.00  0.00     0.124 A 
ATOM      2  C1  UNL d   1      -2.094  -1.281   0.283  0.00  0.00     0.062 A 
ATOM      3  C2  UNL d   1      -1.350  -0.236  -0.257  0.00  0.00     0.162 A 
ATOM      4  C3  UNL d   1      -0.011  -0.070   0.096  0.00  0.00    -0.034 A 
ATOM      5  C4  UNL d   1       0.571  -0.962   0.999  0.00  0.00     0.162 A 
ATOM      6  C5  UNL d   1      -0.177  -2.004   1.536  0.00  0.00     0.062 A 
ATOM      7  F   UNL d   1       0.390  -2.857   2.402  0.00  0.00    -0.097 F 
ATOM      8  F1  UNL d   1       1.856  -0.831   1.360  0.00  0.00    -0.096 F 
ATOM      9  I   UNL d   1       1.105   1.491  -0.710  0.00  0.00    -0.060 I 
ATOM     10  F2  UNL d   1      -1.942   0.602  -1.121  0.00  0.00    -0.096 F 
ATOM     11  F3  UNL d   1      -3.381  -1.433  -0.062  0.00  0.00    -0.097 F 
ATOM     12  F4  UNL d   1      -2.227  -3.168   1.699  0.00  0.00    -0.092 F 
ENDROOT
TORSDOF 0
ENDMDL
