MODEL 1
REMARK minimizedAffinity 4.84120178
REMARK minimizedRMSD -1
REMARK  0 active torsions:
REMARK  status: ('A' for Active; 'I' for Inactive)
ROOT
ATOM      1  C   UNL d   1      -0.791   2.014   0.966  0.00  0.00     0.124 A 
ATOM      2  C1  UNL d   1       0.171   2.243  -0.008  0.00  0.00     0.062 A 
ATOM      3  C2  UNL d   1       1.044   1.225  -0.383  0.00  0.00     0.162 A 
ATOM      4  C3  UNL d   1       0.958  -0.032   0.215  0.00  0.00    -0.034 A 
ATOM      5  C4  UNL d   1      -0.012  -0.255   1.195  0.00  0.00     0.162 A 
ATOM      6  C5  UNL d   1      -0.882   0.766   1.566  0.00  0.00     0.062 A 
ATOM      7  F   UNL d   1      -1.810   0.542   2.507  0.00  0.00    -0.097 F 
ATOM      8  F1  UNL d   1      -0.123  -1.451   1.790  0.00  0.00    -0.096 F 
ATOM      9  I   UNL d   1       2.260  -1.556  -0.343  0.00  0.00    -0.060 I 
ATOM     10  F2  UNL d   1       1.964   1.475  -1.327  0.00  0.00    -0.096 F 
ATOM     11  F3  UNL d   1       0.262   3.448  -0.589  0.00  0.00    -0.097 F 
ATOM     12  F4  UNL d   1      -1.628   2.995   1.326  0.00  0.00    -0.092 F 
ENDROOT
TORSDOF 0
ENDMDL
