MODEL 1
REMARK minimizedAffinity 5.31170177
REMARK minimizedRMSD -1
REMARK  0 active torsions:
REMARK  status: ('A' for Active; 'I' for Inactive)
ROOT
ATOM      1  C1  BNZ d   1       1.472   5.640   3.426  0.00  0.00     0.000 A 
ATOM      2  C2  BNZ d   1       0.704   4.549   3.118  0.00  0.00     0.000 A 
ATOM      3  C3  BNZ d   1       1.260   3.303   3.035  0.00  0.00     0.000 A 
ATOM      4  C4  BNZ d   1       2.588   3.155   3.220  0.00  0.00     0.000 A 
ATOM      5  C5  BNZ d   1       3.377   4.246   3.523  0.00  0.00     0.000 A 
ATOM      6  C6  BNZ d   1       2.808   5.493   3.644  0.00  0.00     0.000 A 
ENDROOT
TORSDOF 0
ENDMDL
