MODEL 1
REMARK minimizedAffinity 3.46573281
REMARK minimizedRMSD -1
REMARK  0 active torsions:
REMARK  status: ('A' for Active; 'I' for Inactive)
ROOT
ATOM      1  C1  BNZ d   1      -5.993   4.987   3.258  0.00  0.00     0.000 A 
ATOM      2  C2  BNZ d   1      -5.972   5.778   4.376  0.00  0.00     0.000 A 
ATOM      3  C3  BNZ d   1      -5.939   5.224   5.625  0.00  0.00     0.000 A 
ATOM      4  C4  BNZ d   1      -5.968   3.882   5.756  0.00  0.00     0.000 A 
ATOM      5  C5  BNZ d   1      -5.998   3.071   4.639  0.00  0.00     0.000 A 
ATOM      6  C6  BNZ d   1      -5.992   3.632   3.382  0.00  0.00     0.000 A 
ENDROOT
TORSDOF 0
ENDMDL
