MODEL 1
REMARK minimizedAffinity 5.43792486
REMARK minimizedRMSD -1
REMARK  0 active torsions:
REMARK  status: ('A' for Active; 'I' for Inactive)
ROOT
ATOM      1  C1  BNZ d   1       1.743   1.512   0.310  0.00  0.00     0.000 A 
ATOM      2  C2  BNZ d   1       2.917   2.189   0.116  0.00  0.00     0.000 A 
ATOM      3  C3  BNZ d   1       4.038   1.538  -0.318  0.00  0.00     0.000 A 
ATOM      4  C4  BNZ d   1       3.994   0.205  -0.519  0.00  0.00     0.000 A 
ATOM      5  C5  BNZ d   1       2.820  -0.494  -0.320  0.00  0.00     0.000 A 
ATOM      6  C6  BNZ d   1       1.683   0.172   0.080  0.00  0.00     0.000 A 
ENDROOT
TORSDOF 0
ENDMDL
