MODEL 1
REMARK minimizedAffinity -0.3429524
REMARK minimizedRMSD -1
REMARK  0 active torsions:
REMARK  status: ('A' for Active; 'I' for Inactive)
ROOT
ATOM      1  C1  BNZ d   1      -3.299   5.999   2.370  0.00  0.00     0.000 A 
ATOM      2  C2  BNZ d   1      -3.711   5.999   3.676  0.00  0.00     0.000 A 
ATOM      3  C3  BNZ d   1      -5.024   5.794   3.995  0.00  0.00     0.000 A 
ATOM      4  C4  BNZ d   1      -5.929   5.631   3.009  0.00  0.00     0.000 A 
ATOM      5  C5  BNZ d   1      -5.531   5.639   1.687  0.00  0.00     0.000 A 
ATOM      6  C6  BNZ d   1      -4.202   5.806   1.370  0.00  0.00     0.000 A 
ENDROOT
TORSDOF 0
ENDMDL
