MODEL 1
REMARK minimizedAffinity -1.47397208
REMARK minimizedRMSD -1
REMARK  0 active torsions:
REMARK  status: ('A' for Active; 'I' for Inactive)
ROOT
ATOM      1  C1  BNZ d   1      -3.087   5.989   3.001  0.00  0.00     0.000 A 
ATOM      2  C2  BNZ d   1      -3.761   5.999   4.193  0.00  0.00     0.000 A 
ATOM      3  C3  BNZ d   1      -5.128   5.984   4.224  0.00  0.00     0.000 A 
ATOM      4  C4  BNZ d   1      -5.818   6.000   3.065  0.00  0.00     0.000 A 
ATOM      5  C5  BNZ d   1      -5.152   5.999   1.855  0.00  0.00     0.000 A 
ATOM      6  C6  BNZ d   1      -3.777   5.975   1.828  0.00  0.00     0.000 A 
ENDROOT
TORSDOF 0
ENDMDL
