MODEL 1
REMARK minimizedAffinity 1.01872087
REMARK minimizedRMSD -1
REMARK  0 active torsions:
REMARK  status: ('A' for Active; 'I' for Inactive)
ROOT
ATOM      1  C1  BNZ d   1      -3.395   5.997   3.088  0.00  0.00     0.000 A 
ATOM      2  C2  BNZ d   1      -4.705   5.993   3.487  0.00  0.00     0.000 A 
ATOM      3  C3  BNZ d   1      -5.716   5.967   2.568  0.00  0.00     0.000 A 
ATOM      4  C4  BNZ d   1      -5.418   5.986   1.253  0.00  0.00     0.000 A 
ATOM      5  C5  BNZ d   1      -4.102   6.000   0.835  0.00  0.00     0.000 A 
ATOM      6  C6  BNZ d   1      -3.086   5.986   1.763  0.00  0.00     0.000 A 
ENDROOT
TORSDOF 0
ENDMDL
