MODEL 1
REMARK minimizedAffinity -1.59841394
REMARK minimizedRMSD -1
REMARK  0 active torsions:
REMARK  status: ('A' for Active; 'I' for Inactive)
ROOT
ATOM      1  C1  BNZ d   1      -4.010   5.621   2.118  0.00  0.00     0.000 A 
ATOM      2  C2  BNZ d   1      -5.328   5.257   2.186  0.00  0.00     0.000 A 
ATOM      3  C3  BNZ d   1      -5.999   5.277   3.377  0.00  0.00     0.000 A 
ATOM      4  C4  BNZ d   1      -5.341   5.623   4.502  0.00  0.00     0.000 A 
ATOM      5  C5  BNZ d   1      -4.010   5.983   4.451  0.00  0.00     0.000 A 
ATOM      6  C6  BNZ d   1      -3.348   5.999   3.245  0.00  0.00     0.000 A 
ENDROOT
TORSDOF 0
ENDMDL
