MODEL 1
REMARK minimizedAffinity -3.02787733
REMARK minimizedRMSD -1
REMARK  0 active torsions:
REMARK  status: ('A' for Active; 'I' for Inactive)
ROOT
ATOM      1  C1  BNZ d   1      -5.100   0.760  -4.255  0.00  0.00     0.000 A 
ATOM      2  C2  BNZ d   1      -3.818   0.283  -4.333  0.00  0.00     0.000 A 
ATOM      3  C3  BNZ d   1      -2.770   1.012  -3.845  0.00  0.00     0.000 A 
ATOM      4  C4  BNZ d   1      -2.998   2.232  -3.318  0.00  0.00     0.000 A 
ATOM      5  C5  BNZ d   1      -4.283   2.731  -3.241  0.00  0.00     0.000 A 
ATOM      6  C6  BNZ d   1      -5.341   1.978  -3.697  0.00  0.00     0.000 A 
ENDROOT
TORSDOF 0
ENDMDL
