MODEL 1
REMARK minimizedAffinity 6.34765911
REMARK minimizedRMSD -1
REMARK  2 active torsions:
REMARK  status: ('A' for Active; 'I' for Inactive)
REMARK    1  A    between atoms: C2'_3  and  C1'_4 
REMARK    2  A    between atoms: C1'_4  and  C1_5 
ROOT
ATOM      1  C1  I4B d   1       3.094   1.548   0.059  0.00  0.00    -0.075 A 
ATOM      2  C2  I4B d   1       3.800   2.274   0.985  0.00  0.00     0.003 A 
ATOM      3  C3  I4B d   1       3.282   2.463   2.289  0.00  0.00     0.002 A 
ATOM      4  C4  I4B d   1       2.040   1.953   2.607  0.00  0.00    -0.004 A 
ATOM      5  C5  I4B d   1       1.335   1.197   1.674  0.00  0.00     0.002 A 
ATOM      6  C6  I4B d   1       1.871   0.982   0.396  0.00  0.00     0.003 A 
ENDROOT
BRANCH   1   7
ATOM      7  C1' I4B d   1       3.656   1.397  -1.319  0.00  0.00     0.060 C 
BRANCH   7   8
ATOM      8  C2' I4B d   1       2.940   0.242  -1.991  0.00  0.00    -0.013 C 
ATOM      9  C4' I4B d   1       2.118   0.717  -3.160  0.00  0.00     0.013 C 
ATOM     10  C3' I4B d   1       3.974  -0.754  -2.425  0.00  0.00     0.013 C 
ENDBRANCH   7   8
ENDBRANCH   1   7
TORSDOF 2
ENDMDL
