MODEL 1
REMARK minimizedAffinity 12.0802355
REMARK minimizedRMSD -1
REMARK  2 active torsions:
REMARK  status: ('A' for Active; 'I' for Inactive)
REMARK    1  A    between atoms: C2'_3  and  C1'_4 
REMARK    2  A    between atoms: C1'_4  and  C1_5 
ROOT
ATOM      1  C1  I4B d   1       2.201   0.153  -1.005  0.00  0.00    -0.075 A 
ATOM      2  C2  I4B d   1       1.252   0.751  -1.796  0.00  0.00     0.003 A 
ATOM      3  C3  I4B d   1       1.375   0.715  -3.206  0.00  0.00     0.002 A 
ATOM      4  C4  I4B d   1       2.481   0.119  -3.777  0.00  0.00    -0.004 A 
ATOM      5  C5  I4B d   1       3.430  -0.506  -2.974  0.00  0.00     0.002 A 
ATOM      6  C6  I4B d   1       3.283  -0.501  -1.579  0.00  0.00     0.003 A 
ENDROOT
BRANCH   1   7
ATOM      7  C1' I4B d   1       2.057   0.237   0.482  0.00  0.00     0.060 C 
BRANCH   7   8
ATOM      8  C2' I4B d   1       1.745   1.676   0.840  0.00  0.00    -0.013 C 
ATOM      9  C4' I4B d   1       0.350   1.811   1.391  0.00  0.00     0.013 C 
ATOM     10  C3' I4B d   1       2.768   2.138   1.834  0.00  0.00     0.013 C 
ENDBRANCH   7   8
ENDBRANCH   1   7
TORSDOF 2
ENDMDL
