MODEL 1
REMARK minimizedAffinity 1.13174081
REMARK minimizedRMSD -1
REMARK  2 active torsions:
REMARK  status: ('A' for Active; 'I' for Inactive)
REMARK    1  A    between atoms: C2'_3  and  C1'_4 
REMARK    2  A    between atoms: C1'_4  and  C1_5 
ROOT
ATOM      1  C1  I4B d   1       2.778   2.638   2.393  0.00  0.00    -0.075 A 
ATOM      2  C2  I4B d   1       1.537   2.858   2.937  0.00  0.00     0.003 A 
ATOM      3  C3  I4B d   1       0.398   2.212   2.398  0.00  0.00     0.002 A 
ATOM      4  C4  I4B d   1       0.537   1.400   1.291  0.00  0.00    -0.004 A 
ATOM      5  C5  I4B d   1       1.799   1.160   0.756  0.00  0.00     0.002 A 
ATOM      6  C6  I4B d   1       2.929   1.773   1.317  0.00  0.00     0.003 A 
ENDROOT
BRANCH   1   7
ATOM      7  C1' I4B d   1       3.955   3.362   2.966  0.00  0.00     0.060 C 
BRANCH   7   8
ATOM      8  C2' I4B d   1       3.595   4.830   3.069  0.00  0.00    -0.013 C 
ATOM      9  C4' I4B d   1       4.298   5.483   4.230  0.00  0.00     0.013 C 
ATOM     10  C3' I4B d   1       3.963   5.489   1.773  0.00  0.00     0.013 C 
ENDBRANCH   7   8
ENDBRANCH   1   7
TORSDOF 2
ENDMDL
