MODEL 1
REMARK minimizedAffinity 11.2526293
REMARK minimizedRMSD -1
REMARK  2 active torsions:
REMARK  status: ('A' for Active; 'I' for Inactive)
REMARK    1  A    between atoms: C2'_3  and  C1'_4 
REMARK    2  A    between atoms: C1'_4  and  C1_5 
ROOT
ATOM      1  C1  I4B d   1       1.631   0.519  -0.158  0.00  0.00    -0.075 A 
ATOM      2  C2  I4B d   1       0.340   0.543   0.307  0.00  0.00     0.003 A 
ATOM      3  C3  I4B d   1       0.010   1.299   1.458  0.00  0.00     0.002 A 
ATOM      4  C4  I4B d   1       1.006   1.970   2.138  0.00  0.00    -0.004 A 
ATOM      5  C5  I4B d   1       2.311   1.963   1.652  0.00  0.00     0.002 A 
ATOM      6  C6  I4B d   1       2.623   1.243   0.490  0.00  0.00     0.003 A 
ENDROOT
BRANCH   1   7
ATOM      7  C1' I4B d   1       1.950  -0.317  -1.357  0.00  0.00     0.060 C 
BRANCH   7   8
ATOM      8  C2' I4B d   1       2.682   0.558  -2.354  0.00  0.00    -0.013 C 
ATOM      9  C4' I4B d   1       3.990  -0.064  -2.767  0.00  0.00     0.013 C 
ATOM     10  C3' I4B d   1       1.784   0.764  -3.537  0.00  0.00     0.013 C 
ENDBRANCH   7   8
ENDBRANCH   1   7
TORSDOF 2
ENDMDL
