MODEL 1
REMARK minimizedAffinity 9.72289181
REMARK minimizedRMSD -1
REMARK  2 active torsions:
REMARK  status: ('A' for Active; 'I' for Inactive)
REMARK    1  A    between atoms: C2'_3  and  C1'_4 
REMARK    2  A    between atoms: C1'_4  and  C1_5 
ROOT
ATOM      1  C1  I4B d   1       1.552   0.702   0.485  0.00  0.00    -0.075 A 
ATOM      2  C2  I4B d   1       0.336   1.119   0.966  0.00  0.00     0.003 A 
ATOM      3  C3  I4B d   1       0.270   1.971   2.096  0.00  0.00     0.002 A 
ATOM      4  C4  I4B d   1       1.434   2.337   2.739  0.00  0.00    -0.004 A 
ATOM      5  C5  I4B d   1       2.667   1.932   2.237  0.00  0.00     0.002 A 
ATOM      6  C6  I4B d   1       2.727   1.119   1.095  0.00  0.00     0.003 A 
ENDROOT
BRANCH   1   7
ATOM      7  C1' I4B d   1       1.583  -0.224  -0.689  0.00  0.00     0.060 C 
BRANCH   7   8
ATOM      8  C2' I4B d   1       2.289   0.488  -1.825  0.00  0.00    -0.013 C 
ATOM      9  C4' I4B d   1       3.609  -0.165  -2.141  0.00  0.00     0.013 C 
ATOM     10  C3' I4B d   1       1.379   0.474  -3.017  0.00  0.00     0.013 C 
ENDBRANCH   7   8
ENDBRANCH   1   7
TORSDOF 2
ENDMDL
