MODEL 1
REMARK minimizedAffinity 4.92020512
REMARK minimizedRMSD -1
REMARK  2 active torsions:
REMARK  status: ('A' for Active; 'I' for Inactive)
REMARK    1  A    between atoms: C2'_3  and  C1'_4 
REMARK    2  A    between atoms: C1'_4  and  C1_5 
ROOT
ATOM      1  C1  I4B d   1       1.747   0.792   0.415  0.00  0.00    -0.075 A 
ATOM      2  C2  I4B d   1       1.745  -0.579   0.339  0.00  0.00     0.003 A 
ATOM      3  C3  I4B d   1       2.177  -1.228  -0.843  0.00  0.00     0.002 A 
ATOM      4  C4  I4B d   1       2.553  -0.472  -1.935  0.00  0.00    -0.004 A 
ATOM      5  C5  I4B d   1       2.576   0.917  -1.848  0.00  0.00     0.002 A 
ATOM      6  C6  I4B d   1       2.183   1.553  -0.662  0.00  0.00     0.003 A 
ENDROOT
BRANCH   1   7
ATOM      7  C1' I4B d   1       1.253   1.445   1.666  0.00  0.00     0.060 C 
BRANCH   7   8
ATOM      8  C2' I4B d   1      -0.040   2.163   1.339  0.00  0.00    -0.013 C 
ATOM      9  C4' I4B d   1      -1.080   1.205   0.821  0.00  0.00     0.013 C 
ATOM     10  C3' I4B d   1      -0.513   2.855   2.582  0.00  0.00     0.013 C 
ENDBRANCH   7   8
ENDBRANCH   1   7
TORSDOF 2
ENDMDL
