MODEL 1
REMARK minimizedAffinity 10.4782362
REMARK minimizedRMSD -1
REMARK  2 active torsions:
REMARK  status: ('A' for Active; 'I' for Inactive)
REMARK    1  A    between atoms: C2'_3  and  C1'_4 
REMARK    2  A    between atoms: C1'_4  and  C1_5 
ROOT
ATOM      1  C1  I4B d   1       3.566   1.390  -0.901  0.00  0.00    -0.075 A 
ATOM      2  C2  I4B d   1       2.848   0.292  -1.306  0.00  0.00     0.003 A 
ATOM      3  C3  I4B d   1       1.803  -0.215  -0.496  0.00  0.00     0.002 A 
ATOM      4  C4  I4B d   1       1.545   0.372   0.726  0.00  0.00    -0.004 A 
ATOM      5  C5  I4B d   1       2.258   1.499   1.124  0.00  0.00     0.002 A 
ATOM      6  C6  I4B d   1       3.266   2.019   0.300  0.00  0.00     0.003 A 
ENDROOT
BRANCH   1   7
ATOM      7  C1' I4B d   1       4.684   1.879  -1.766  0.00  0.00     0.060 C 
BRANCH   7   8
ATOM      8  C2' I4B d   1       5.159   3.205  -1.209  0.00  0.00    -0.013 C 
ATOM      9  C4' I4B d   1       6.000   3.009   0.026  0.00  0.00     0.013 C 
ATOM     10  C3' I4B d   1       5.932   3.909  -2.284  0.00  0.00     0.013 C 
ENDBRANCH   7   8
ENDBRANCH   1   7
TORSDOF 2
ENDMDL
