MODEL 1
REMARK minimizedAffinity 12.0688591
REMARK minimizedRMSD -1
REMARK  2 active torsions:
REMARK  status: ('A' for Active; 'I' for Inactive)
REMARK    1  A    between atoms: C2'_3  and  C1'_4 
REMARK    2  A    between atoms: C1'_4  and  C1_5 
ROOT
ATOM      1  C1  I4B d   1       1.525   0.498  -0.776  0.00  0.00    -0.075 A 
ATOM      2  C2  I4B d   1       2.182  -0.486  -1.472  0.00  0.00     0.003 A 
ATOM      3  C3  I4B d   1       2.284  -0.415  -2.882  0.00  0.00     0.002 A 
ATOM      4  C4  I4B d   1       1.674   0.624  -3.556  0.00  0.00    -0.004 A 
ATOM      5  C5  I4B d   1       1.028   1.632  -2.847  0.00  0.00     0.002 A 
ATOM      6  C6  I4B d   1       0.964   1.576  -1.447  0.00  0.00     0.003 A 
ENDROOT
BRANCH   1   7
ATOM      7  C1' I4B d   1       1.409   0.374   0.711  0.00  0.00     0.060 C 
BRANCH   7   8
ATOM      8  C2' I4B d   1       1.269   1.769   1.286  0.00  0.00    -0.013 C 
ATOM      9  C4' I4B d   1       0.056   1.875   2.172  0.00  0.00     0.013 C 
ATOM     10  C3' I4B d   1       2.524   2.085   2.045  0.00  0.00     0.013 C 
ENDBRANCH   7   8
ENDBRANCH   1   7
TORSDOF 2
ENDMDL
