MODEL 1
REMARK minimizedAffinity 14.5882359
REMARK minimizedRMSD -1
REMARK  2 active torsions:
REMARK  status: ('A' for Active; 'I' for Inactive)
REMARK    1  A    between atoms: C2'_3  and  C1'_4 
REMARK    2  A    between atoms: C1'_4  and  C1_5 
ROOT
ATOM      1  C1  I4B d   1       1.248   2.236   1.500  0.00  0.00    -0.075 A 
ATOM      2  C2  I4B d   1       0.763   2.234   2.784  0.00  0.00     0.003 A 
ATOM      3  C3  I4B d   1      -0.634   2.255   3.018  0.00  0.00     0.002 A 
ATOM      4  C4  I4B d   1      -1.501   2.330   1.948  0.00  0.00    -0.004 A 
ATOM      5  C5  I4B d   1      -1.009   2.310   0.647  0.00  0.00     0.002 A 
ATOM      6  C6  I4B d   1       0.374   2.250   0.420  0.00  0.00     0.003 A 
ENDROOT
BRANCH   1   7
ATOM      7  C1' I4B d   1       2.729   2.246   1.289  0.00  0.00     0.060 C 
BRANCH   7   8
ATOM      8  C2' I4B d   1       3.333   3.231   2.268  0.00  0.00    -0.013 C 
ATOM      9  C4' I4B d   1       4.501   2.625   3.000  0.00  0.00     0.013 C 
ATOM     10  C3' I4B d   1       3.749   4.451   1.500  0.00  0.00     0.013 C 
ENDBRANCH   7   8
ENDBRANCH   1   7
TORSDOF 2
ENDMDL
