MODEL 1
REMARK minimizedAffinity 11.0139046
REMARK minimizedRMSD -1
REMARK  2 active torsions:
REMARK  status: ('A' for Active; 'I' for Inactive)
REMARK    1  A    between atoms: C2'_3  and  C1'_4 
REMARK    2  A    between atoms: C1'_4  and  C1_5 
ROOT
ATOM      1  C1  I4B d   1       2.223   0.087  -0.969  0.00  0.00    -0.075 A 
ATOM      2  C2  I4B d   1       3.319  -0.599  -1.431  0.00  0.00     0.003 A 
ATOM      3  C3  I4B d   1       3.514  -0.779  -2.822  0.00  0.00     0.002 A 
ATOM      4  C4  I4B d   1       2.568  -0.304  -3.707  0.00  0.00    -0.004 A 
ATOM      5  C5  I4B d   1       1.470   0.411  -3.239  0.00  0.00     0.002 A 
ATOM      6  C6  I4B d   1       1.302   0.619  -1.862  0.00  0.00     0.003 A 
ENDROOT
BRANCH   1   7
ATOM      7  C1' I4B d   1       2.032   0.230   0.507  0.00  0.00     0.060 C 
BRANCH   7   8
ATOM      8  C2' I4B d   1       1.583   1.650   0.785  0.00  0.00    -0.013 C 
ATOM      9  C4' I4B d   1       0.127   1.697   1.165  0.00  0.00     0.013 C 
ATOM     10  C3' I4B d   1       2.447   2.203   1.879  0.00  0.00     0.013 C 
ENDBRANCH   7   8
ENDBRANCH   1   7
TORSDOF 2
ENDMDL
