MODEL 1
REMARK minimizedAffinity 5.92982006
REMARK minimizedRMSD -1
REMARK  2 active torsions:
REMARK  status: ('A' for Active; 'I' for Inactive)
REMARK    1  A    between atoms: C2'_3  and  C1'_4 
REMARK    2  A    between atoms: C1'_4  and  C1_5 
ROOT
ATOM      1  C1  I4B d   1       1.393   0.820   0.381  0.00  0.00    -0.075 A 
ATOM      2  C2  I4B d   1       1.235  -0.485   0.774  0.00  0.00     0.003 A 
ATOM      3  C3  I4B d   1       1.654  -1.540  -0.073  0.00  0.00     0.002 A 
ATOM      4  C4  I4B d   1       2.174  -1.248  -1.317  0.00  0.00    -0.004 A 
ATOM      5  C5  I4B d   1       2.355   0.077  -1.704  0.00  0.00     0.002 A 
ATOM      6  C6  I4B d   1       1.973   1.118  -0.846  0.00  0.00     0.003 A 
ENDROOT
BRANCH   1   7
ATOM      7  C1' I4B d   1       0.910   1.909   1.286  0.00  0.00     0.060 C 
BRANCH   7   8
ATOM      8  C2' I4B d   1      -0.590   2.030   1.111  0.00  0.00    -0.013 C 
ATOM      9  C4' I4B d   1      -1.246   2.536   2.369  0.00  0.00     0.013 C 
ATOM     10  C3' I4B d   1      -0.849   2.952  -0.043  0.00  0.00     0.013 C 
ENDBRANCH   7   8
ENDBRANCH   1   7
TORSDOF 2
ENDMDL
