MODEL 1
REMARK minimizedAffinity 13.0526447
REMARK minimizedRMSD -1
REMARK  2 active torsions:
REMARK  status: ('A' for Active; 'I' for Inactive)
REMARK    1  A    between atoms: C2'_3  and  C1'_4 
REMARK    2  A    between atoms: C1'_4  and  C1_5 
ROOT
ATOM      1  C1  I4B d   1       1.978   0.462   0.084  0.00  0.00    -0.075 A 
ATOM      2  C2  I4B d   1       0.704   0.719   0.525  0.00  0.00     0.003 A 
ATOM      3  C3  I4B d   1       0.495   1.519   1.674  0.00  0.00     0.002 A 
ATOM      4  C4  I4B d   1       1.582   1.996   2.377  0.00  0.00    -0.004 A 
ATOM      5  C5  I4B d   1       2.873   1.753   1.916  0.00  0.00     0.002 A 
ATOM      6  C6  I4B d   1       3.072   0.992   0.755  0.00  0.00     0.003 A 
ENDROOT
BRANCH   1   7
ATOM      7  C1' I4B d   1       2.163  -0.413  -1.115  0.00  0.00     0.060 C 
BRANCH   7   8
ATOM      8  C2' I4B d   1       2.765   0.430  -2.220  0.00  0.00    -0.013 C 
ATOM      9  C4' I4B d   1       4.098  -0.118  -2.659  0.00  0.00     0.013 C 
ATOM     10  C3' I4B d   1       1.791   0.463  -3.360  0.00  0.00     0.013 C 
ENDBRANCH   7   8
ENDBRANCH   1   7
TORSDOF 2
ENDMDL
