MODEL 1
REMARK minimizedAffinity 6.07312298
REMARK minimizedRMSD -1
REMARK  2 active torsions:
REMARK  status: ('A' for Active; 'I' for Inactive)
REMARK    1  A    between atoms: C2'_3  and  C1'_4 
REMARK    2  A    between atoms: C1'_4  and  C1_5 
ROOT
ATOM      1  C1  I4B d   1       0.722   1.649   1.502  0.00  0.00    -0.075 A 
ATOM      2  C2  I4B d   1      -0.255   1.956   0.589  0.00  0.00     0.003 A 
ATOM      3  C3  I4B d   1      -1.539   2.360   1.028  0.00  0.00     0.002 A 
ATOM      4  C4  I4B d   1      -1.816   2.394   2.380  0.00  0.00    -0.004 A 
ATOM      5  C5  I4B d   1      -0.816   2.104   3.304  0.00  0.00     0.002 A 
ATOM      6  C6  I4B d   1       0.464   1.742   2.863  0.00  0.00     0.003 A 
ENDROOT
BRANCH   1   7
ATOM      7  C1' I4B d   1       2.057   1.195   1.003  0.00  0.00     0.060 C 
BRANCH   7   8
ATOM      8  C2' I4B d   1       1.826   0.106  -0.025  0.00  0.00    -0.013 C 
ATOM      9  C4' I4B d   1       2.713   0.294  -1.227  0.00  0.00     0.013 C 
ATOM     10  C3' I4B d   1       2.080  -1.216   0.635  0.00  0.00     0.013 C 
ENDBRANCH   7   8
ENDBRANCH   1   7
TORSDOF 2
ENDMDL
