MODEL 1
REMARK minimizedAffinity 8.61918449
REMARK minimizedRMSD -1
REMARK  2 active torsions:
REMARK  status: ('A' for Active; 'I' for Inactive)
REMARK    1  A    between atoms: C2'_3  and  C1'_4 
REMARK    2  A    between atoms: C1'_4  and  C1_5 
ROOT
ATOM      1  C1  I4B d   1      -5.549   2.760   0.562  0.00  0.00    -0.075 A 
ATOM      2  C2  I4B d   1      -5.574   3.896   1.332  0.00  0.00     0.003 A 
ATOM      3  C3  I4B d   1      -5.827   5.156   0.736  0.00  0.00     0.002 A 
ATOM      4  C4  I4B d   1      -5.996   5.239  -0.631  0.00  0.00    -0.004 A 
ATOM      5  C5  I4B d   1      -5.993   4.083  -1.407  0.00  0.00     0.002 A 
ATOM      6  C6  I4B d   1      -5.780   2.834  -0.805  0.00  0.00     0.003 A 
ENDROOT
BRANCH   1   7
ATOM      7  C1' I4B d   1      -5.247   1.451   1.220  0.00  0.00     0.060 C 
BRANCH   7   8
ATOM      8  C2' I4B d   1      -3.796   1.113   0.943  0.00  0.00    -0.013 C 
ATOM      9  C4' I4B d   1      -2.893   2.271   1.280  0.00  0.00     0.013 C 
ATOM     10  C3' I4B d   1      -3.441  -0.101   1.748  0.00  0.00     0.013 C 
ENDBRANCH   7   8
ENDBRANCH   1   7
TORSDOF 2
ENDMDL
