MODEL 1
REMARK minimizedAffinity 8.62216663
REMARK minimizedRMSD -1
REMARK  2 active torsions:
REMARK  status: ('A' for Active; 'I' for Inactive)
REMARK    1  A    between atoms: C2'_3  and  C1'_4 
REMARK    2  A    between atoms: C1'_4  and  C1_5 
ROOT
ATOM      1  C1  I4B d   1       1.795   0.507   0.479  0.00  0.00    -0.075 A 
ATOM      2  C2  I4B d   1       2.104   0.796  -0.826  0.00  0.00     0.003 A 
ATOM      3  C3  I4B d   1       2.634  -0.208  -1.673  0.00  0.00     0.002 A 
ATOM      4  C4  I4B d   1       2.883  -1.465  -1.162  0.00  0.00    -0.004 A 
ATOM      5  C5  I4B d   1       2.548  -1.763   0.156  0.00  0.00     0.002 A 
ATOM      6  C6  I4B d   1       1.988  -0.775   0.979  0.00  0.00     0.003 A 
ENDROOT
BRANCH   1   7
ATOM      7  C1' I4B d   1       1.268   1.599   1.355  0.00  0.00     0.060 C 
BRANCH   7   8
ATOM      8  C2' I4B d   1      -0.207   1.771   1.051  0.00  0.00    -0.013 C 
ATOM      9  C4' I4B d   1      -0.978   2.146   2.288  0.00  0.00     0.013 C 
ATOM     10  C3' I4B d   1      -0.342   2.821  -0.011  0.00  0.00     0.013 C 
ENDBRANCH   7   8
ENDBRANCH   1   7
TORSDOF 2
ENDMDL
