MODEL 1
REMARK minimizedAffinity 8.24544239
REMARK minimizedRMSD -1
REMARK  2 active torsions:
REMARK  status: ('A' for Active; 'I' for Inactive)
REMARK    1  A    between atoms: C2'_3  and  C1'_4 
REMARK    2  A    between atoms: C1'_4  and  C1_5 
ROOT
ATOM      1  C1  I4B d   1       3.645   1.581  -0.697  0.00  0.00    -0.075 A 
ATOM      2  C2  I4B d   1       3.722   2.256   0.495  0.00  0.00     0.003 A 
ATOM      3  C3  I4B d   1       4.717   3.243   0.693  0.00  0.00     0.002 A 
ATOM      4  C4  I4B d   1       5.640   3.487  -0.303  0.00  0.00    -0.004 A 
ATOM      5  C5  I4B d   1       5.547   2.817  -1.520  0.00  0.00     0.002 A 
ATOM      6  C6  I4B d   1       4.536   1.867  -1.724  0.00  0.00     0.003 A 
ENDROOT
BRANCH   1   7
ATOM      7  C1' I4B d   1       2.602   0.521  -0.860  0.00  0.00     0.060 C 
BRANCH   7   8
ATOM      8  C2' I4B d   1       2.225   0.022   0.520  0.00  0.00    -0.013 C 
ATOM      9  C4' I4B d   1       1.070   0.806   1.086  0.00  0.00     0.013 C 
ATOM     10  C3' I4B d   1       1.887  -1.435   0.409  0.00  0.00     0.013 C 
ENDBRANCH   7   8
ENDBRANCH   1   7
TORSDOF 2
ENDMDL
