MODEL 1
REMARK minimizedAffinity 6.69442463
REMARK minimizedRMSD -1
REMARK  2 active torsions:
REMARK  status: ('A' for Active; 'I' for Inactive)
REMARK    1  A    between atoms: C2'_3  and  C1'_4 
REMARK    2  A    between atoms: C1'_4  and  C1_5 
ROOT
ATOM      1  C1  I4B d   1       1.783   0.787  -1.061  0.00  0.00    -0.075 A 
ATOM      2  C2  I4B d   1       2.442  -0.117  -1.857  0.00  0.00     0.003 A 
ATOM      3  C3  I4B d   1       2.370  -0.010  -3.267  0.00  0.00     0.002 A 
ATOM      4  C4  I4B d   1       1.594   0.980  -3.834  0.00  0.00    -0.004 A 
ATOM      5  C5  I4B d   1       0.946   1.909  -3.026  0.00  0.00     0.002 A 
ATOM      6  C6  I4B d   1       1.051   1.820  -1.630  0.00  0.00     0.003 A 
ENDROOT
BRANCH   1   7
ATOM      7  C1' I4B d   1       1.853   0.624   0.425  0.00  0.00     0.060 C 
BRANCH   7   8
ATOM      8  C2' I4B d   1       1.499   1.955   1.057  0.00  0.00    -0.013 C 
ATOM      9  C4' I4B d   1       0.095   1.943   1.602  0.00  0.00     0.013 C 
ATOM     10  C3' I4B d   1       2.498   2.233   2.140  0.00  0.00     0.013 C 
ENDBRANCH   7   8
ENDBRANCH   1   7
TORSDOF 2
ENDMDL
