MODEL 1
REMARK minimizedAffinity -5.88560724
REMARK minimizedRMSD -1
REMARK  0 active torsions:
REMARK  status: ('A' for Active; 'I' for Inactive)
ROOT
ATOM      1  C   UNL d   1      -0.564  -1.249   2.166  0.00  0.00     0.077 C 
ATOM      2  C1  UNL d   1      -0.857  -0.045   1.321  0.00  0.00    -0.074 A 
ATOM      3  C2  UNL d   1      -1.944   0.788   1.609  0.00  0.00    -0.005 A 
ATOM      4  C3  UNL d   1      -2.198   1.909   0.820  0.00  0.00     0.006 A 
ATOM      5  C4  UNL d   1      -1.371   2.209  -0.263  0.00  0.00    -0.005 A 
ATOM      6  C5  UNL d   1      -0.280   1.388  -0.565  0.00  0.00    -0.074 A 
ATOM      7  C6  UNL d   1       0.625   1.702  -1.720  0.00  0.00     0.077 C 
ATOM      8  C7  UNL d   1      -0.026   0.267   0.236  0.00  0.00    -0.001 A 
ENDROOT
TORSDOF 0
ENDMDL
