MODEL 1
REMARK minimizedAffinity -3.10225749
REMARK minimizedRMSD -1
REMARK  0 active torsions:
REMARK  status: ('A' for Active; 'I' for Inactive)
ROOT
ATOM      1  C   UNL d   1       0.940   1.259  -2.245  0.00  0.00     0.077 C 
ATOM      2  C1  UNL d   1       0.444   0.730  -0.933  0.00  0.00    -0.074 A 
ATOM      3  C2  UNL d   1       0.826  -0.537  -0.478  0.00  0.00    -0.005 A 
ATOM      4  C3  UNL d   1       0.364  -1.012   0.750  0.00  0.00     0.006 A 
ATOM      5  C4  UNL d   1      -0.483  -0.227   1.533  0.00  0.00    -0.005 A 
ATOM      6  C5  UNL d   1      -0.875   1.042   1.095  0.00  0.00    -0.074 A 
ATOM      7  C6  UNL d   1      -1.777   1.902   1.929  0.00  0.00     0.077 C 
ATOM      8  C7  UNL d   1      -0.401   1.515  -0.136  0.00  0.00    -0.001 A 
ENDROOT
TORSDOF 0
ENDMDL
