MODEL 1
REMARK minimizedAffinity -2.07572842
REMARK minimizedRMSD -1
REMARK  0 active torsions:
REMARK  status: ('A' for Active; 'I' for Inactive)
ROOT
ATOM      1  C   UNL d   1      -2.060   2.049   1.738  0.00  0.00     0.077 C 
ATOM      2  C1  UNL d   1      -0.989   1.406   0.908  0.00  0.00    -0.074 A 
ATOM      3  C2  UNL d   1      -0.471   0.152   1.249  0.00  0.00    -0.005 A 
ATOM      4  C3  UNL d   1       0.518  -0.438   0.462  0.00  0.00     0.006 A 
ATOM      5  C4  UNL d   1       0.999   0.219  -0.671  0.00  0.00    -0.005 A 
ATOM      6  C5  UNL d   1       0.493   1.473  -1.028  0.00  0.00    -0.074 A 
ATOM      7  C6  UNL d   1       0.992   2.188  -2.248  0.00  0.00     0.077 C 
ATOM      8  C7  UNL d   1      -0.506   2.056  -0.236  0.00  0.00    -0.001 A 
ENDROOT
TORSDOF 0
ENDMDL
