MODEL 1
REMARK minimizedAffinity -5.45246649
REMARK minimizedRMSD -1
REMARK  0 active torsions:
REMARK  status: ('A' for Active; 'I' for Inactive)
ROOT
ATOM      1  C   UNL d   1      -0.000   1.003  -1.596  0.00  0.00     0.077 C 
ATOM      2  C1  UNL d   1      -0.484   0.933  -0.178  0.00  0.00    -0.074 A 
ATOM      3  C2  UNL d   1      -1.387   1.877   0.321  0.00  0.00    -0.005 A 
ATOM      4  C3  UNL d   1      -1.835   1.793   1.639  0.00  0.00     0.006 A 
ATOM      5  C4  UNL d   1      -1.386   0.766   2.470  0.00  0.00    -0.005 A 
ATOM      6  C5  UNL d   1      -0.483  -0.187   1.988  0.00  0.00    -0.074 A 
ATOM      7  C6  UNL d   1       0.002  -1.303   2.865  0.00  0.00     0.077 C 
ATOM      8  C7  UNL d   1      -0.043  -0.101   0.660  0.00  0.00    -0.001 A 
ENDROOT
TORSDOF 0
ENDMDL
