MODEL 1
REMARK minimizedAffinity -4.07955837
REMARK minimizedRMSD -1
REMARK  0 active torsions:
REMARK  status: ('A' for Active; 'I' for Inactive)
ROOT
ATOM      1  C   UNL d   1       1.175  -1.791  -1.114  0.00  0.00     0.077 C 
ATOM      2  C1  UNL d   1       0.598  -0.452  -0.762  0.00  0.00    -0.074 A 
ATOM      3  C2  UNL d   1       1.002   0.705  -1.437  0.00  0.00    -0.005 A 
ATOM      4  C3  UNL d   1       0.450   1.942  -1.104  0.00  0.00     0.006 A 
ATOM      5  C4  UNL d   1      -0.510   2.034  -0.096  0.00  0.00    -0.005 A 
ATOM      6  C5  UNL d   1      -0.928   0.888   0.588  0.00  0.00    -0.074 A 
ATOM      7  C6  UNL d   1      -1.966   0.969   1.667  0.00  0.00     0.077 C 
ATOM      8  C7  UNL d   1      -0.373  -0.352   0.244  0.00  0.00    -0.001 A 
ENDROOT
TORSDOF 0
ENDMDL
