MODEL 1
REMARK minimizedAffinity -3.53449178
REMARK minimizedRMSD -1
REMARK  0 active torsions:
REMARK  status: ('A' for Active; 'I' for Inactive)
ROOT
ATOM      1  C   UNL d   1       0.376   2.965  -1.060  0.00  0.00     0.077 C 
ATOM      2  C1  UNL d   1       0.251   1.652  -0.347  0.00  0.00    -0.074 A 
ATOM      3  C2  UNL d   1      -0.352   1.571   0.912  0.00  0.00    -0.005 A 
ATOM      4  C3  UNL d   1      -0.470   0.341   1.558  0.00  0.00     0.006 A 
ATOM      5  C4  UNL d   1       0.014  -0.820   0.953  0.00  0.00    -0.005 A 
ATOM      6  C5  UNL d   1       0.620  -0.759  -0.306  0.00  0.00    -0.074 A 
ATOM      7  C6  UNL d   1       1.136  -1.998  -0.975  0.00  0.00     0.077 C 
ATOM      8  C7  UNL d   1       0.728   0.480  -0.952  0.00  0.00    -0.001 A 
ENDROOT
TORSDOF 0
ENDMDL
