MODEL 1
REMARK minimizedAffinity -0.172628373
REMARK minimizedRMSD -1
REMARK  0 active torsions:
REMARK  status: ('A' for Active; 'I' for Inactive)
ROOT
ATOM      1  C   UNL d   1       0.745  -0.601   2.986  0.00  0.00     0.077 C 
ATOM      2  C1  UNL d   1       0.220  -0.280   1.618  0.00  0.00    -0.074 A 
ATOM      3  C2  UNL d   1      -0.847  -1.001   1.071  0.00  0.00    -0.005 A 
ATOM      4  C3  UNL d   1      -1.331  -0.686  -0.199  0.00  0.00     0.006 A 
ATOM      5  C4  UNL d   1      -0.755   0.352  -0.932  0.00  0.00    -0.005 A 
ATOM      6  C5  UNL d   1       0.311   1.085  -0.401  0.00  0.00    -0.074 A 
ATOM      7  C6  UNL d   1       0.935   2.210  -1.172  0.00  0.00     0.077 C 
ATOM      8  C7  UNL d   1       0.788   0.766   0.878  0.00  0.00    -0.001 A 
ENDROOT
TORSDOF 0
ENDMDL
