MODEL 1
REMARK minimizedAffinity 1.45829475
REMARK minimizedRMSD -1
REMARK  0 active torsions:
REMARK  status: ('A' for Active; 'I' for Inactive)
ROOT
ATOM      1  C   UNL d   1       6.000  -3.431  -1.787  0.00  0.00     0.077 C 
ATOM      2  C1  UNL d   1       5.329  -2.858  -3.000  0.00  0.00    -0.074 A 
ATOM      3  C2  UNL d   1       4.090  -3.342  -3.432  0.00  0.00    -0.005 A 
ATOM      4  C3  UNL d   1       3.474  -2.793  -4.556  0.00  0.00     0.006 A 
ATOM      5  C4  UNL d   1       4.090  -1.757  -5.260  0.00  0.00    -0.005 A 
ATOM      6  C5  UNL d   1       5.329  -1.260  -4.842  0.00  0.00    -0.074 A 
ATOM      7  C6  UNL d   1       6.000  -0.140  -5.581  0.00  0.00     0.077 C 
ATOM      8  C7  UNL d   1       5.938  -1.812  -3.707  0.00  0.00    -0.001 A 
ENDROOT
TORSDOF 0
ENDMDL
