MODEL 1
REMARK minimizedAffinity -3.35230422
REMARK minimizedRMSD -1
REMARK  0 active torsions:
REMARK  status: ('A' for Active; 'I' for Inactive)
ROOT
ATOM      1  C   UNL d   1      -0.022  -3.852  -2.085  0.00  0.00     0.077 C 
ATOM      2  C1  UNL d   1       0.050  -2.403  -1.707  0.00  0.00    -0.074 A 
ATOM      3  C2  UNL d   1       0.007  -1.402  -2.684  0.00  0.00    -0.005 A 
ATOM      4  C3  UNL d   1       0.066  -0.058  -2.316  0.00  0.00     0.006 A 
ATOM      5  C4  UNL d   1       0.169   0.299  -0.971  0.00  0.00    -0.005 A 
ATOM      6  C5  UNL d   1       0.213  -0.688   0.019  0.00  0.00    -0.074 A 
ATOM      7  C6  UNL d   1       0.313  -0.321   1.470  0.00  0.00     0.077 C 
ATOM      8  C7  UNL d   1       0.146  -2.036  -0.357  0.00  0.00    -0.001 A 
ENDROOT
TORSDOF 0
ENDMDL
