MODEL 1
REMARK minimizedAffinity -6.06333637
REMARK minimizedRMSD -1
REMARK  0 active torsions:
REMARK  status: ('A' for Active; 'I' for Inactive)
ROOT
ATOM      1  C   UNL d   1      -2.761   3.123   1.755  0.00  0.00     0.077 C 
ATOM      2  C1  UNL d   1      -1.834   2.148   1.092  0.00  0.00    -0.074 A 
ATOM      3  C2  UNL d   1      -1.582   2.216  -0.282  0.00  0.00    -0.005 A 
ATOM      4  C3  UNL d   1      -0.709   1.308  -0.882  0.00  0.00     0.006 A 
ATOM      5  C4  UNL d   1      -0.081   0.325  -0.116  0.00  0.00    -0.005 A 
ATOM      6  C5  UNL d   1      -0.321   0.243   1.259  0.00  0.00    -0.074 A 
ATOM      7  C6  UNL d   1       0.354  -0.802   2.099  0.00  0.00     0.077 C 
ATOM      8  C7  UNL d   1      -1.193   1.163   1.856  0.00  0.00    -0.001 A 
ENDROOT
TORSDOF 0
ENDMDL
