MODEL 1
REMARK minimizedAffinity -6.02376366
REMARK minimizedRMSD -1
REMARK  0 active torsions:
REMARK  status: ('A' for Active; 'I' for Inactive)
ROOT
ATOM      1  C   UNL d   1       1.513   1.138  -1.749  0.00  0.00     0.077 C 
ATOM      2  C1  UNL d   1       0.455   1.380  -0.713  0.00  0.00    -0.074 A 
ATOM      3  C2  UNL d   1      -0.227   2.600  -0.654  0.00  0.00    -0.005 A 
ATOM      4  C3  UNL d   1      -1.215   2.807   0.309  0.00  0.00     0.006 A 
ATOM      5  C4  UNL d   1      -1.529   1.799   1.221  0.00  0.00    -0.005 A 
ATOM      6  C5  UNL d   1      -0.857   0.573   1.177  0.00  0.00    -0.074 A 
ATOM      7  C6  UNL d   1      -1.190  -0.524   2.144  0.00  0.00     0.077 C 
ATOM      8  C7  UNL d   1       0.129   0.370   0.202  0.00  0.00    -0.001 A 
ENDROOT
TORSDOF 0
ENDMDL
