MODEL 1
REMARK minimizedAffinity -5.65688276
REMARK minimizedRMSD -1
REMARK  0 active torsions:
REMARK  status: ('A' for Active; 'I' for Inactive)
ROOT
ATOM      1  C   UNL d   1       1.204   1.878  -2.232  0.00  0.00     0.077 C 
ATOM      2  C1  UNL d   1       0.628   1.243  -1.001  0.00  0.00    -0.074 A 
ATOM      3  C2  UNL d   1       1.212   0.103  -0.439  0.00  0.00    -0.005 A 
ATOM      4  C3  UNL d   1       0.670  -0.471   0.711  0.00  0.00     0.006 A 
ATOM      5  C4  UNL d   1      -0.460   0.088   1.309  0.00  0.00    -0.005 A 
ATOM      6  C5  UNL d   1      -1.057   1.228   0.762  0.00  0.00    -0.074 A 
ATOM      7  C6  UNL d   1      -2.266   1.847   1.398  0.00  0.00     0.077 C 
ATOM      8  C7  UNL d   1      -0.503   1.803  -0.390  0.00  0.00    -0.001 A 
ENDROOT
TORSDOF 0
ENDMDL
