MODEL 1
REMARK minimizedAffinity -4.1541791
REMARK minimizedRMSD -1
REMARK  0 active torsions:
REMARK  status: ('A' for Active; 'I' for Inactive)
ROOT
ATOM      1  C   UNL d   1      -2.942   2.273   1.453  0.00  0.00     0.077 C 
ATOM      2  C1  UNL d   1      -1.772   1.334   1.455  0.00  0.00    -0.074 A 
ATOM      3  C2  UNL d   1      -1.289   0.792   2.650  0.00  0.00    -0.005 A 
ATOM      4  C3  UNL d   1      -0.206  -0.088   2.636  0.00  0.00     0.006 A 
ATOM      5  C4  UNL d   1       0.403  -0.433   1.429  0.00  0.00    -0.005 A 
ATOM      6  C5  UNL d   1      -0.068   0.098   0.224  0.00  0.00    -0.074 A 
ATOM      7  C6  UNL d   1       0.569  -0.270  -1.083  0.00  0.00     0.077 C 
ATOM      8  C7  UNL d   1      -1.160   0.976   0.246  0.00  0.00    -0.001 A 
ENDROOT
TORSDOF 0
ENDMDL
