MODEL 1
REMARK minimizedAffinity -3.61861968
REMARK minimizedRMSD -1
REMARK  0 active torsions:
REMARK  status: ('A' for Active; 'I' for Inactive)
ROOT
ATOM      1  C   UNL d   1       0.686  -1.747  -0.898  0.00  0.00     0.077 C 
ATOM      2  C1  UNL d   1       0.055  -0.769   0.048  0.00  0.00    -0.074 A 
ATOM      3  C2  UNL d   1      -0.644  -1.210   1.176  0.00  0.00    -0.005 A 
ATOM      4  C3  UNL d   1      -1.218  -0.288   2.052  0.00  0.00     0.006 A 
ATOM      5  C4  UNL d   1      -1.100   1.081   1.808  0.00  0.00    -0.005 A 
ATOM      6  C5  UNL d   1      -0.404   1.540   0.685  0.00  0.00    -0.074 A 
ATOM      7  C6  UNL d   1      -0.259   3.008   0.414  0.00  0.00     0.077 C 
ATOM      8  C7  UNL d   1       0.176   0.608  -0.186  0.00  0.00    -0.001 A 
ENDROOT
TORSDOF 0
ENDMDL
