MODEL 1
REMARK minimizedAffinity -5.3877306
REMARK minimizedRMSD -1
REMARK  0 active torsions:
REMARK  status: ('A' for Active; 'I' for Inactive)
ROOT
ATOM      1  C   UNL d   1       0.757  -1.217  -0.818  0.00  0.00     0.077 C 
ATOM      2  C1  UNL d   1       0.269   0.006  -0.100  0.00  0.00    -0.074 A 
ATOM      3  C2  UNL d   1      -0.363  -0.096   1.144  0.00  0.00    -0.005 A 
ATOM      4  C3  UNL d   1      -0.803   1.051   1.805  0.00  0.00     0.006 A 
ATOM      5  C4  UNL d   1      -0.617   2.308   1.230  0.00  0.00    -0.005 A 
ATOM      6  C5  UNL d   1       0.013   2.430  -0.013  0.00  0.00    -0.074 A 
ATOM      7  C6  UNL d   1       0.230   3.774  -0.640  0.00  0.00     0.077 C 
ATOM      8  C7  UNL d   1       0.459   1.273  -0.667  0.00  0.00    -0.001 A 
ENDROOT
TORSDOF 0
ENDMDL
