MODEL 1
REMARK minimizedAffinity -3.91583085
REMARK minimizedRMSD -1
REMARK  0 active torsions:
REMARK  status: ('A' for Active; 'I' for Inactive)
ROOT
ATOM      1  C   UNL d   1      -0.157  -3.871  -1.980  0.00  0.00     0.077 C 
ATOM      2  C1  UNL d   1      -0.062  -2.448  -1.518  0.00  0.00    -0.074 A 
ATOM      3  C2  UNL d   1      -0.196  -1.388  -2.420  0.00  0.00    -0.005 A 
ATOM      4  C3  UNL d   1      -0.115  -0.069  -1.974  0.00  0.00     0.006 A 
ATOM      5  C4  UNL d   1       0.102   0.203  -0.623  0.00  0.00    -0.005 A 
ATOM      6  C5  UNL d   1       0.238  -0.844   0.295  0.00  0.00    -0.074 A 
ATOM      7  C6  UNL d   1       0.462  -0.569   1.752  0.00  0.00     0.077 C 
ATOM      8  C7  UNL d   1       0.148  -2.166  -0.160  0.00  0.00    -0.001 A 
ENDROOT
TORSDOF 0
ENDMDL
