MODEL 1
REMARK minimizedAffinity -0.127565235
REMARK minimizedRMSD -1
REMARK  0 active torsions:
REMARK  status: ('A' for Active; 'I' for Inactive)
ROOT
ATOM      1  C   UNL d   1      -1.785   0.937  -1.015  0.00  0.00     0.077 C 
ATOM      2  C1  UNL d   1      -2.585   1.766  -1.975  0.00  0.00    -0.074 A 
ATOM      3  C2  UNL d   1      -3.690   1.226  -2.642  0.00  0.00    -0.005 A 
ATOM      4  C3  UNL d   1      -4.431   2.012  -3.525  0.00  0.00     0.006 A 
ATOM      5  C4  UNL d   1      -4.075   3.343  -3.749  0.00  0.00    -0.005 A 
ATOM      6  C5  UNL d   1      -2.975   3.899  -3.090  0.00  0.00    -0.074 A 
ATOM      7  C6  UNL d   1      -2.585   5.331  -3.313  0.00  0.00     0.077 C 
ATOM      8  C7  UNL d   1      -2.239   3.106  -2.200  0.00  0.00    -0.001 A 
ENDROOT
TORSDOF 0
ENDMDL
