MODEL 1
REMARK minimizedAffinity -4.06301928
REMARK minimizedRMSD -1
REMARK  0 active torsions:
REMARK  status: ('A' for Active; 'I' for Inactive)
ROOT
ATOM      1  C   UNL d   1       0.060  -0.644   2.249  0.00  0.00     0.077 C 
ATOM      2  C1  UNL d   1      -0.517   0.511   1.485  0.00  0.00    -0.074 A 
ATOM      3  C2  UNL d   1      -1.105   1.591   2.151  0.00  0.00    -0.005 A 
ATOM      4  C3  UNL d   1      -1.629   2.663   1.428  0.00  0.00     0.006 A 
ATOM      5  C4  UNL d   1      -1.571   2.665   0.034  0.00  0.00    -0.005 A 
ATOM      6  C5  UNL d   1      -0.986   1.594  -0.649  0.00  0.00    -0.074 A 
ATOM      7  C6  UNL d   1      -0.907   1.585  -2.147  0.00  0.00     0.077 C 
ATOM      8  C7  UNL d   1      -0.456   0.524   0.085  0.00  0.00    -0.001 A 
ENDROOT
TORSDOF 0
ENDMDL
