MODEL 1
REMARK minimizedAffinity 1.30310059
REMARK minimizedRMSD -1
REMARK  0 active torsions:
REMARK  status: ('A' for Active; 'I' for Inactive)
ROOT
ATOM      1  C   UNL d   1       0.170  -0.224   1.786  0.00  0.00     0.077 C 
ATOM      2  C1  UNL d   1      -0.558   0.136   0.525  0.00  0.00    -0.074 A 
ATOM      3  C2  UNL d   1      -1.935   0.381   0.535  0.00  0.00    -0.005 A 
ATOM      4  C3  UNL d   1      -2.596   0.724  -0.644  0.00  0.00     0.006 A 
ATOM      5  C4  UNL d   1      -1.889   0.826  -1.842  0.00  0.00    -0.005 A 
ATOM      6  C5  UNL d   1      -0.512   0.586  -1.872  0.00  0.00    -0.074 A 
ATOM      7  C6  UNL d   1       0.265   0.701  -3.150  0.00  0.00     0.077 C 
ATOM      8  C7  UNL d   1       0.147   0.248  -0.682  0.00  0.00    -0.001 A 
ENDROOT
TORSDOF 0
ENDMDL
