MODEL 1
REMARK minimizedAffinity -0.505279064
REMARK minimizedRMSD -1
REMARK  0 active torsions:
REMARK  status: ('A' for Active; 'I' for Inactive)
ROOT
ATOM      1  O1  BZF d   1       4.754  -1.960   2.532  0.00  0.00    -0.204 OA
ATOM      2  C2  BZF d   1       5.864  -2.287   3.287  0.00  0.00     0.174 A 
ATOM      3  C3  BZF d   1       5.499  -2.884   4.439  0.00  0.00    -0.012 A 
ATOM      4  C3A BZF d   1       4.077  -3.017   4.361  0.00  0.00    -0.107 A 
ATOM      5  C4  BZF d   1       3.136  -3.548   5.196  0.00  0.00     0.055 A 
ATOM      6  C5  BZF d   1       1.823  -3.454   4.857  0.00  0.00    -0.016 A 
ATOM      7  C6  BZF d   1       1.416  -2.832   3.695  0.00  0.00     0.022 A 
ATOM      8  C7  BZF d   1       2.313  -2.295   2.832  0.00  0.00     0.029 A 
ATOM      9  C7A BZF d   1       3.642  -2.418   3.156  0.00  0.00     0.058 A 
ENDROOT
TORSDOF 0
ENDMDL
