MODEL 1
REMARK minimizedAffinity 11.1376123
REMARK minimizedRMSD -1
REMARK  0 active torsions:
REMARK  status: ('A' for Active; 'I' for Inactive)
ROOT
ATOM      1  O1  BZF d   1       1.107  -0.205   2.985  0.00  0.00    -0.204 OA
ATOM      2  C2  BZF d   1       1.732  -0.093   1.759  0.00  0.00     0.174 A 
ATOM      3  C3  BZF d   1       2.485  -1.183   1.504  0.00  0.00    -0.012 A 
ATOM      4  C3A BZF d   1       2.246  -2.069   2.601  0.00  0.00    -0.107 A 
ATOM      5  C4  BZF d   1       2.697  -3.320   2.913  0.00  0.00     0.055 A 
ATOM      6  C5  BZF d   1       2.330  -3.879   4.096  0.00  0.00    -0.016 A 
ATOM      7  C6  BZF d   1       1.519  -3.214   4.993  0.00  0.00     0.022 A 
ATOM      8  C7  BZF d   1       1.043  -1.974   4.725  0.00  0.00     0.029 A 
ATOM      9  C7A BZF d   1       1.385  -1.420   3.516  0.00  0.00     0.058 A 
ENDROOT
TORSDOF 0
ENDMDL
