MODEL 1
REMARK minimizedAffinity 14.764287
REMARK minimizedRMSD -1
REMARK  0 active torsions:
REMARK  status: ('A' for Active; 'I' for Inactive)
ROOT
ATOM      1  O1  BZF d   1       1.511  -0.444   4.706  0.00  0.00    -0.204 OA
ATOM      2  C2  BZF d   1       1.549  -1.807   4.479  0.00  0.00     0.174 A 
ATOM      3  C3  BZF d   1       2.001  -2.072   3.236  0.00  0.00    -0.012 A 
ATOM      4  C3A BZF d   1       2.349  -0.799   2.682  0.00  0.00    -0.107 A 
ATOM      5  C4  BZF d   1       2.869  -0.408   1.482  0.00  0.00     0.055 A 
ATOM      6  C5  BZF d   1       3.021   0.919   1.229  0.00  0.00    -0.016 A 
ATOM      7  C6  BZF d   1       2.659   1.880   2.150  0.00  0.00     0.022 A 
ATOM      8  C7  BZF d   1       2.143   1.540   3.356  0.00  0.00     0.029 A 
ATOM      9  C7A BZF d   1       2.019   0.200   3.628  0.00  0.00     0.058 A 
ENDROOT
TORSDOF 0
ENDMDL
