MODEL 1
REMARK minimizedAffinity 10.9077864
REMARK minimizedRMSD -1
REMARK  0 active torsions:
REMARK  status: ('A' for Active; 'I' for Inactive)
ROOT
ATOM      1  O1  BZF d   1       1.388  -0.787   4.262  0.00  0.00    -0.204 OA
ATOM      2  C2  BZF d   1       2.279  -0.234   3.362  0.00  0.00     0.174 A 
ATOM      3  C3  BZF d   1       3.023  -1.193   2.775  0.00  0.00    -0.012 A 
ATOM      4  C3A BZF d   1       2.505  -2.430   3.274  0.00  0.00    -0.107 A 
ATOM      5  C4  BZF d   1       2.821  -3.739   3.049  0.00  0.00     0.055 A 
ATOM      6  C5  BZF d   1       2.173  -4.705   3.751  0.00  0.00    -0.016 A 
ATOM      7  C6  BZF d   1       1.209  -4.398   4.689  0.00  0.00     0.022 A 
ATOM      8  C7  BZF d   1       0.858  -3.114   4.944  0.00  0.00     0.029 A 
ATOM      9  C7A BZF d   1       1.488  -2.137   4.212  0.00  0.00     0.058 A 
ENDROOT
TORSDOF 0
ENDMDL
