MODEL 1
REMARK minimizedAffinity 11.1792717
REMARK minimizedRMSD -1
REMARK  0 active torsions:
REMARK  status: ('A' for Active; 'I' for Inactive)
ROOT
ATOM      1  O1  BZF d   1       5.126  -1.199   3.777  0.00  0.00    -0.204 OA
ATOM      2  C2  BZF d   1       5.870  -2.048   4.574  0.00  0.00     0.174 A 
ATOM      3  C3  BZF d   1       5.085  -2.994   5.128  0.00  0.00    -0.012 A 
ATOM      4  C3A BZF d   1       3.784  -2.776   4.575  0.00  0.00    -0.107 A 
ATOM      5  C4  BZF d   1       2.581  -3.404   4.728  0.00  0.00     0.055 A 
ATOM      6  C5  BZF d   1       1.487  -2.897   4.101  0.00  0.00    -0.016 A 
ATOM      7  C6  BZF d   1       1.558  -1.762   3.320  0.00  0.00     0.022 A 
ATOM      8  C7  BZF d   1       2.730  -1.108   3.134  0.00  0.00     0.029 A 
ATOM      9  C7A BZF d   1       3.844  -1.636   3.739  0.00  0.00     0.058 A 
ENDROOT
TORSDOF 0
ENDMDL
