MODEL 1
REMARK minimizedAffinity 13.379921
REMARK minimizedRMSD -1
REMARK  0 active torsions:
REMARK  status: ('A' for Active; 'I' for Inactive)
ROOT
ATOM      1  O1  BZF d   1       1.382  -0.836   3.049  0.00  0.00    -0.204 OA
ATOM      2  C2  BZF d   1       2.475  -1.656   3.252  0.00  0.00     0.174 A 
ATOM      3  C3  BZF d   1       2.672  -2.464   2.191  0.00  0.00    -0.012 A 
ATOM      4  C3A BZF d   1       1.692  -2.064   1.228  0.00  0.00    -0.107 A 
ATOM      5  C4  BZF d   1       1.393  -2.484  -0.037  0.00  0.00     0.055 A 
ATOM      6  C5  BZF d   1       0.328  -1.937  -0.680  0.00  0.00    -0.016 A 
ATOM      7  C6  BZF d   1      -0.461  -0.973  -0.087  0.00  0.00     0.022 A 
ATOM      8  C7  BZF d   1      -0.201  -0.522   1.164  0.00  0.00     0.029 A 
ATOM      9  C7A BZF d   1       0.894  -1.049   1.804  0.00  0.00     0.058 A 
ENDROOT
TORSDOF 0
ENDMDL
