MODEL 1
REMARK minimizedAffinity 0.250024498
REMARK minimizedRMSD -1
REMARK  0 active torsions:
REMARK  status: ('A' for Active; 'I' for Inactive)
ROOT
ATOM      1  O1  BZF d   1       4.749  -3.415   5.972  0.00  0.00    -0.204 OA
ATOM      2  C2  BZF d   1       5.999  -2.832   5.888  0.00  0.00     0.174 A 
ATOM      3  C3  BZF d   1       6.000  -1.830   4.985  0.00  0.00    -0.012 A 
ATOM      4  C3A BZF d   1       4.644  -1.723   4.540  0.00  0.00    -0.107 A 
ATOM      5  C4  BZF d   1       4.008  -0.900   3.655  0.00  0.00     0.055 A 
ATOM      6  C5  BZF d   1       2.691  -1.105   3.392  0.00  0.00    -0.016 A 
ATOM      7  C6  BZF d   1       1.981  -2.125   3.991  0.00  0.00     0.022 A 
ATOM      8  C7  BZF d   1       2.567  -2.964   4.879  0.00  0.00     0.029 A 
ATOM      9  C7A BZF d   1       3.890  -2.739   5.172  0.00  0.00     0.058 A 
ENDROOT
TORSDOF 0
ENDMDL
