MODEL 1
REMARK minimizedAffinity 4.07206345
REMARK minimizedRMSD -1
REMARK  0 active torsions:
REMARK  status: ('A' for Active; 'I' for Inactive)
ROOT
ATOM      1  O1  BZF d   1       1.454  -1.225   4.385  0.00  0.00    -0.204 OA
ATOM      2  C2  BZF d   1       1.596  -2.170   3.387  0.00  0.00     0.174 A 
ATOM      3  C3  BZF d   1       2.157  -1.625   2.288  0.00  0.00    -0.012 A 
ATOM      4  C3A BZF d   1       2.464  -0.276   2.652  0.00  0.00    -0.107 A 
ATOM      5  C4  BZF d   1       3.049   0.766   1.990  0.00  0.00     0.055 A 
ATOM      6  C5  BZF d   1       3.135   1.975   2.605  0.00  0.00    -0.016 A 
ATOM      7  C6  BZF d   1       2.643   2.179   3.877  0.00  0.00     0.022 A 
ATOM      8  C7  BZF d   1       2.059   1.175   4.576  0.00  0.00     0.029 A 
ATOM      9  C7A BZF d   1       2.000  -0.057   3.970  0.00  0.00     0.058 A 
ENDROOT
TORSDOF 0
ENDMDL
