MODEL 1
REMARK minimizedAffinity 9.74129295
REMARK minimizedRMSD -1
REMARK  0 active torsions:
REMARK  status: ('A' for Active; 'I' for Inactive)
ROOT
ATOM      1  O1  BZF d   1       4.890  -3.848   5.924  0.00  0.00    -0.204 OA
ATOM      2  C2  BZF d   1       5.999  -3.026   5.999  0.00  0.00     0.174 A 
ATOM      3  C3  BZF d   1       5.785  -1.874   5.332  0.00  0.00    -0.012 A 
ATOM      4  C3A BZF d   1       4.427  -1.943   4.886  0.00  0.00    -0.107 A 
ATOM      5  C4  BZF d   1       3.626  -1.090   4.183  0.00  0.00     0.055 A 
ATOM      6  C5  BZF d   1       2.370  -1.488   3.848  0.00  0.00    -0.016 A 
ATOM      7  C6  BZF d   1       1.886  -2.733   4.196  0.00  0.00     0.022 A 
ATOM      8  C7  BZF d   1       2.643  -3.611   4.899  0.00  0.00     0.029 A 
ATOM      9  C7A BZF d   1       3.900  -3.198   5.266  0.00  0.00     0.058 A 
ENDROOT
TORSDOF 0
ENDMDL
