MODEL 1
REMARK minimizedAffinity 5.30305195
REMARK minimizedRMSD -1
REMARK  1 active torsions:
REMARK  status: ('A' for Active; 'I' for Inactive)
REMARK    1  A    between atoms: C1_2  and  C2_3 
ROOT
ATOM      1  C2  UNL d   1      -3.060   0.641  -2.887  0.00  0.00    -0.077 A 
ATOM      2  C3  UNL d   1      -4.287   0.473  -2.230  0.00  0.00     0.002 A 
ATOM      3  C4  UNL d   1      -5.487   0.695  -2.907  0.00  0.00     0.002 A 
ATOM      4  C5  UNL d   1      -5.473   1.084  -4.245  0.00  0.00    -0.004 A 
ATOM      5  C6  UNL d   1      -4.258   1.256  -4.907  0.00  0.00     0.002 A 
ATOM      6  C7  UNL d   1      -3.057   1.035  -4.231  0.00  0.00     0.002 A 
ENDROOT
BRANCH   1   7
ATOM      7  C1  UNL d   1      -1.765   0.354  -2.172  0.00  0.00     0.055 C 
ATOM      8  C   UNL d   1      -1.097   1.637  -1.700  0.00  0.00     0.019 C 
ENDBRANCH   1   7
TORSDOF 1
ENDMDL
