MODEL 1
REMARK minimizedAffinity 2.51312637
REMARK minimizedRMSD -1
REMARK  1 active torsions:
REMARK  status: ('A' for Active; 'I' for Inactive)
REMARK    1  A    between atoms: C1_2  and  C2_3 
ROOT
ATOM      1  C2  UNL d   1       4.524   1.210  -0.079  0.00  0.00    -0.077 A 
ATOM      2  C3  UNL d   1       5.149   1.595  -1.273  0.00  0.00     0.002 A 
ATOM      3  C4  UNL d   1       4.698   1.101  -2.498  0.00  0.00     0.002 A 
ATOM      4  C5  UNL d   1       3.618   0.222  -2.542  0.00  0.00    -0.004 A 
ATOM      5  C6  UNL d   1       2.991  -0.169  -1.360  0.00  0.00     0.002 A 
ATOM      6  C7  UNL d   1       3.441   0.323  -0.134  0.00  0.00     0.002 A 
ENDROOT
BRANCH   1   7
ATOM      7  C1  UNL d   1       4.977   1.780   1.240  0.00  0.00     0.055 C 
ATOM      8  C   UNL d   1       4.606   3.251   1.363  0.00  0.00     0.019 C 
ENDBRANCH   1   7
TORSDOF 1
ENDMDL
