MODEL 1
REMARK minimizedAffinity 8.35053253
REMARK minimizedRMSD -1
REMARK  1 active torsions:
REMARK  status: ('A' for Active; 'I' for Inactive)
REMARK    1  A    between atoms: C1_2  and  C2_3 
ROOT
ATOM      1  C2  UNL d   1       4.900   1.095  -2.101  0.00  0.00    -0.077 A 
ATOM      2  C3  UNL d   1       4.515   1.134  -0.753  0.00  0.00     0.002 A 
ATOM      3  C4  UNL d   1       3.527   0.271  -0.275  0.00  0.00     0.002 A 
ATOM      4  C5  UNL d   1       2.919  -0.640  -1.137  0.00  0.00    -0.004 A 
ATOM      5  C6  UNL d   1       3.293  -0.684  -2.479  0.00  0.00     0.002 A 
ATOM      6  C7  UNL d   1       4.280   0.178  -2.959  0.00  0.00     0.002 A 
ENDROOT
BRANCH   1   7
ATOM      7  C1  UNL d   1       6.000   1.991  -2.607  0.00  0.00     0.055 C 
ATOM      8  C   UNL d   1       5.573   3.452  -2.596  0.00  0.00     0.019 C 
ENDBRANCH   1   7
TORSDOF 1
ENDMDL
