MODEL 1
REMARK minimizedAffinity 11.7975292
REMARK minimizedRMSD -1
REMARK  1 active torsions:
REMARK  status: ('A' for Active; 'I' for Inactive)
REMARK    1  A    between atoms: C1_2  and  C2_3 
ROOT
ATOM      1  C2  UNL d   1      -0.714   2.712   3.363  0.00  0.00    -0.077 A 
ATOM      2  C3  UNL d   1       0.269   2.576   2.372  0.00  0.00     0.002 A 
ATOM      3  C4  UNL d   1       0.144   3.249   1.156  0.00  0.00     0.002 A 
ATOM      4  C5  UNL d   1      -0.960   4.066   0.919  0.00  0.00    -0.004 A 
ATOM      5  C6  UNL d   1      -1.944   4.206   1.897  0.00  0.00     0.002 A 
ATOM      6  C7  UNL d   1      -1.821   3.533   3.114  0.00  0.00     0.002 A 
ENDROOT
BRANCH   1   7
ATOM      7  C1  UNL d   1      -0.557   2.026   4.694  0.00  0.00     0.055 C 
ATOM      8  C   UNL d   1       0.858   1.496   4.880  0.00  0.00     0.019 C 
ENDBRANCH   1   7
TORSDOF 1
ENDMDL
