MODEL 1
REMARK minimizedAffinity 4.19496775
REMARK minimizedRMSD -1
REMARK  1 active torsions:
REMARK  status: ('A' for Active; 'I' for Inactive)
REMARK    1  A    between atoms: C1_2  and  C2_3 
ROOT
ATOM      1  C2  UNL d   1       3.801  -0.507  -2.657  0.00  0.00    -0.077 A 
ATOM      2  C3  UNL d   1       4.936   0.232  -2.296  0.00  0.00     0.002 A 
ATOM      3  C4  UNL d   1       5.009   0.849  -1.045  0.00  0.00     0.002 A 
ATOM      4  C5  UNL d   1       3.952   0.729  -0.145  0.00  0.00    -0.004 A 
ATOM      5  C6  UNL d   1       2.818  -0.002  -0.496  0.00  0.00     0.002 A 
ATOM      6  C7  UNL d   1       2.743  -0.618  -1.746  0.00  0.00     0.002 A 
ENDROOT
BRANCH   1   7
ATOM      7  C1  UNL d   1       3.742  -1.214  -3.986  0.00  0.00     0.055 C 
ATOM      8  C   UNL d   1       5.111  -1.262  -4.649  0.00  0.00     0.019 C 
ENDBRANCH   1   7
TORSDOF 1
ENDMDL
