MODEL 1
REMARK minimizedAffinity 11.4395542
REMARK minimizedRMSD -1
REMARK  1 active torsions:
REMARK  status: ('A' for Active; 'I' for Inactive)
REMARK    1  A    between atoms: C1_2  and  C2_3 
ROOT
ATOM      1  C2  UNL d   1      -5.267   0.381  -4.129  0.00  0.00    -0.077 A 
ATOM      2  C3  UNL d   1      -5.480   1.537  -3.366  0.00  0.00     0.002 A 
ATOM      3  C4  UNL d   1      -4.836   2.731  -3.697  0.00  0.00     0.002 A 
ATOM      4  C5  UNL d   1      -3.978   2.781  -4.793  0.00  0.00    -0.004 A 
ATOM      5  C6  UNL d   1      -3.758   1.636  -5.558  0.00  0.00     0.002 A 
ATOM      6  C7  UNL d   1      -4.400   0.441  -5.228  0.00  0.00     0.002 A 
ENDROOT
BRANCH   1   7
ATOM      7  C1  UNL d   1      -6.000  -0.895  -3.804  0.00  0.00     0.055 C 
ATOM      8  C   UNL d   1      -5.990  -1.855  -4.984  0.00  0.00     0.019 C 
ENDBRANCH   1   7
TORSDOF 1
ENDMDL
