MODEL 1
REMARK minimizedAffinity 5.0636158
REMARK minimizedRMSD -1
REMARK  1 active torsions:
REMARK  status: ('A' for Active; 'I' for Inactive)
REMARK    1  A    between atoms: C1_2  and  C2_3 
ROOT
ATOM      1  C2  UNL d   1       1.025  -0.281   0.253  0.00  0.00    -0.077 A 
ATOM      2  C3  UNL d   1       2.304  -0.826   0.074  0.00  0.00     0.002 A 
ATOM      3  C4  UNL d   1       2.468  -2.044  -0.589  0.00  0.00     0.002 A 
ATOM      4  C5  UNL d   1       1.357  -2.725  -1.082  0.00  0.00    -0.004 A 
ATOM      5  C6  UNL d   1       0.080  -2.193  -0.907  0.00  0.00     0.002 A 
ATOM      6  C7  UNL d   1      -0.085  -0.976  -0.244  0.00  0.00     0.002 A 
ENDROOT
BRANCH   1   7
ATOM      7  C1  UNL d   1       0.851   1.056   0.924  0.00  0.00     0.055 C 
ATOM      8  C   UNL d   1       1.701   2.126   0.255  0.00  0.00     0.019 C 
ENDBRANCH   1   7
TORSDOF 1
ENDMDL
