MODEL 1
REMARK minimizedAffinity 3.6684351
REMARK minimizedRMSD -1
REMARK  1 active torsions:
REMARK  status: ('A' for Active; 'I' for Inactive)
REMARK    1  A    between atoms: C1_2  and  C2_3 
ROOT
ATOM      1  C2  UNL d   1      -0.442  -1.763  -2.522  0.00  0.00    -0.077 A 
ATOM      2  C3  UNL d   1      -0.888  -0.512  -2.074  0.00  0.00     0.002 A 
ATOM      3  C4  UNL d   1      -0.638  -0.100  -0.764  0.00  0.00     0.002 A 
ATOM      4  C5  UNL d   1       0.063  -0.931   0.107  0.00  0.00    -0.004 A 
ATOM      5  C6  UNL d   1       0.510  -2.178  -0.328  0.00  0.00     0.002 A 
ATOM      6  C7  UNL d   1       0.259  -2.592  -1.636  0.00  0.00     0.002 A 
ENDROOT
BRANCH   1   7
ATOM      7  C1  UNL d   1      -0.669  -2.189  -3.949  0.00  0.00     0.055 C 
ATOM      8  C   UNL d   1      -1.603  -3.388  -4.027  0.00  0.00     0.019 C 
ENDBRANCH   1   7
TORSDOF 1
ENDMDL
