MODEL 1
REMARK minimizedAffinity -5.277915
REMARK minimizedRMSD -1
REMARK  3 active torsions:
REMARK  status: ('A' for Active; 'I' for Inactive)
REMARK    1  A    between atoms: C3'_2  and  C2'_3 
REMARK    2  A    between atoms: C2'_3  and  C1'_4 
REMARK    3  A    between atoms: C1'_4  and  C1_5 
ROOT
ATOM      1  C1  N4B d   1       0.132  -0.050  -0.020  0.00  0.00    -0.075 A 
ATOM      2  C2  N4B d   1      -1.239  -0.387  -0.032  0.00  0.00     0.002 A 
ATOM      3  C3  N4B d   1      -2.053   0.013   0.999  0.00  0.00     0.002 A 
ATOM      4  C4  N4B d   1      -1.517   0.732   2.057  0.00  0.00    -0.004 A 
ATOM      5  C5  N4B d   1      -0.197   1.076   2.048  0.00  0.00     0.002 A 
ATOM      6  C6  N4B d   1       0.632   0.684   1.016  0.00  0.00     0.002 A 
ENDROOT
BRANCH   1   7
ATOM      7  C1' N4B d   1       1.079  -0.538  -1.082  0.00  0.00     0.057 C 
BRANCH   7   8
ATOM      8  C2' N4B d   1       0.397  -0.443  -2.444  0.00  0.00     0.009 C 
BRANCH   8   9
ATOM      9  C3' N4B d   1       1.376  -0.076  -3.546  0.00  0.00     0.004 C 
ATOM     10  C4' N4B d   1       0.728   0.674  -4.672  0.00  0.00     0.003 C 
ENDBRANCH   8   9
ENDBRANCH   7   8
ENDBRANCH   1   7
TORSDOF 3
ENDMDL
