MODEL 1
REMARK minimizedAffinity -0.361450523
REMARK minimizedRMSD -1
REMARK  3 active torsions:
REMARK  status: ('A' for Active; 'I' for Inactive)
REMARK    1  A    between atoms: C3'_2  and  C2'_3 
REMARK    2  A    between atoms: C2'_3  and  C1'_4 
REMARK    3  A    between atoms: C1'_4  and  C1_5 
ROOT
ATOM      1  C1  N4B d   1       0.577  -0.110   0.843  0.00  0.00    -0.075 A 
ATOM      2  C2  N4B d   1      -0.740   0.377   0.994  0.00  0.00     0.002 A 
ATOM      3  C3  N4B d   1      -1.256   0.582   2.251  0.00  0.00     0.002 A 
ATOM      4  C4  N4B d   1      -0.484   0.290   3.365  0.00  0.00    -0.004 A 
ATOM      5  C5  N4B d   1       0.796  -0.156   3.210  0.00  0.00     0.002 A 
ATOM      6  C6  N4B d   1       1.329  -0.363   1.954  0.00  0.00     0.002 A 
ENDROOT
BRANCH   1   7
ATOM      7  C1' N4B d   1       1.154  -0.431  -0.508  0.00  0.00     0.057 C 
BRANCH   7   8
ATOM      8  C2' N4B d   1       0.016  -0.637  -1.503  0.00  0.00     0.009 C 
BRANCH   8   9
ATOM      9  C3' N4B d   1       0.279   0.070  -2.822  0.00  0.00     0.004 C 
ATOM     10  C4' N4B d   1      -0.372  -0.613  -3.987  0.00  0.00     0.003 C 
ENDBRANCH   8   9
ENDBRANCH   7   8
ENDBRANCH   1   7
TORSDOF 3
ENDMDL
