MODEL 1
REMARK minimizedAffinity -3.50026107
REMARK minimizedRMSD -1
REMARK  3 active torsions:
REMARK  status: ('A' for Active; 'I' for Inactive)
REMARK    1  A    between atoms: C3'_2  and  C2'_3 
REMARK    2  A    between atoms: C2'_3  and  C1'_4 
REMARK    3  A    between atoms: C1'_4  and  C1_5 
ROOT
ATOM      1  C1  N4B d   1       0.869  -0.446   0.717  0.00  0.00    -0.075 A 
ATOM      2  C2  N4B d   1      -0.456   0.040   0.785  0.00  0.00     0.002 A 
ATOM      3  C3  N4B d   1      -1.006   0.365   2.001  0.00  0.00     0.002 A 
ATOM      4  C4  N4B d   1      -0.261   0.195   3.158  0.00  0.00    -0.004 A 
ATOM      5  C5  N4B d   1       1.026  -0.251   3.081  0.00  0.00     0.002 A 
ATOM      6  C6  N4B d   1       1.593  -0.577   1.866  0.00  0.00     0.002 A 
ENDROOT
BRANCH   1   7
ATOM      7  C1' N4B d   1       1.484  -0.895  -0.580  0.00  0.00     0.057 C 
BRANCH   7   8
ATOM      8  C2' N4B d   1       0.385  -1.056  -1.626  0.00  0.00     0.009 C 
BRANCH   8   9
ATOM      9  C3' N4B d   1       0.874  -0.710  -3.022  0.00  0.00     0.004 C 
ATOM     10  C4' N4B d   1      -0.184  -0.890  -4.070  0.00  0.00     0.003 C 
ENDBRANCH   8   9
ENDBRANCH   7   8
ENDBRANCH   1   7
TORSDOF 3
ENDMDL
