MODEL 1
REMARK minimizedAffinity -2.22626877
REMARK minimizedRMSD -1
REMARK  3 active torsions:
REMARK  status: ('A' for Active; 'I' for Inactive)
REMARK    1  A    between atoms: C3'_2  and  C2'_3 
REMARK    2  A    between atoms: C2'_3  and  C1'_4 
REMARK    3  A    between atoms: C1'_4  and  C1_5 
ROOT
ATOM      1  C1  N4B d   1      -0.513   0.565   3.124  0.00  0.00    -0.075 A 
ATOM      2  C2  N4B d   1       0.772   0.583   2.538  0.00  0.00     0.002 A 
ATOM      3  C3  N4B d   1       0.956   0.085   1.272  0.00  0.00     0.002 A 
ATOM      4  C4  N4B d   1      -0.121  -0.452   0.582  0.00  0.00    -0.004 A 
ATOM      5  C5  N4B d   1      -1.364  -0.442   1.145  0.00  0.00     0.002 A 
ATOM      6  C6  N4B d   1      -1.565   0.059   2.415  0.00  0.00     0.002 A 
ENDROOT
BRANCH   1   7
ATOM      7  C1' N4B d   1      -0.748   1.020   4.538  0.00  0.00     0.057 C 
BRANCH   7   8
ATOM      8  C2' N4B d   1       0.271   0.350   5.455  0.00  0.00     0.009 C 
BRANCH   8   9
ATOM      9  C3' N4B d   1       0.489  -1.109   5.093  0.00  0.00     0.004 C 
ATOM     10  C4' N4B d   1       1.934  -1.442   4.867  0.00  0.00     0.003 C 
ENDBRANCH   8   9
ENDBRANCH   7   8
ENDBRANCH   1   7
TORSDOF 3
ENDMDL
