MODEL 1
REMARK minimizedAffinity 0.480474442
REMARK minimizedRMSD -1
REMARK  1 active torsions:
REMARK  status: ('A' for Active; 'I' for Inactive)
REMARK    1  A    between atoms: C1_2  and  C2_3 
ROOT
ATOM      1  C2  UNL d   1       0.820  -2.342  -2.670  0.00  0.00    -0.077 A 
ATOM      2  C3  UNL d   1       1.004  -2.387  -1.281  0.00  0.00     0.002 A 
ATOM      3  C4  UNL d   1      -0.096  -2.354  -0.422  0.00  0.00     0.002 A 
ATOM      4  C5  UNL d   1      -1.386  -2.281  -0.941  0.00  0.00    -0.004 A 
ATOM      5  C6  UNL d   1      -1.580  -2.234  -2.322  0.00  0.00     0.002 A 
ATOM      6  C7  UNL d   1      -0.481  -2.265  -3.182  0.00  0.00     0.002 A 
ENDROOT
BRANCH   1   7
ATOM      7  C1  UNL d   1       2.003  -2.426  -3.600  0.00  0.00     0.055 C 
ATOM      8  C   UNL d   1       3.193  -1.651  -3.053  0.00  0.00     0.019 C 
ENDBRANCH   1   7
TORSDOF 1
ENDMDL
