MODEL 1
REMARK minimizedAffinity -2.43315983
REMARK minimizedRMSD -1
REMARK  1 active torsions:
REMARK  status: ('A' for Active; 'I' for Inactive)
REMARK    1  A    between atoms: C1_2  and  C2_3 
ROOT
ATOM      1  C2  UNL d   1      -0.193  -4.156  -2.763  0.00  0.00    -0.077 A 
ATOM      2  C3  UNL d   1      -0.595  -3.882  -1.448  0.00  0.00     0.002 A 
ATOM      3  C4  UNL d   1      -0.809  -2.566  -1.034  0.00  0.00     0.002 A 
ATOM      4  C5  UNL d   1      -0.628  -1.514  -1.930  0.00  0.00    -0.004 A 
ATOM      5  C6  UNL d   1      -0.227  -1.776  -3.239  0.00  0.00     0.002 A 
ATOM      6  C7  UNL d   1      -0.011  -3.090  -3.655  0.00  0.00     0.002 A 
ENDROOT
BRANCH   1   7
ATOM      7  C1  UNL d   1      -0.010  -5.578  -3.225  0.00  0.00     0.055 C 
ATOM      8  C   UNL d   1      -0.995  -5.933  -4.329  0.00  0.00     0.019 C 
ENDBRANCH   1   7
TORSDOF 1
ENDMDL
