MODEL 1
REMARK minimizedAffinity -1.02283347
REMARK minimizedRMSD -1
REMARK  1 active torsions:
REMARK  status: ('A' for Active; 'I' for Inactive)
REMARK    1  A    between atoms: C1_2  and  C2_3 
ROOT
ATOM      1  C2  UNL d   1      -0.396  -2.987  -0.475  0.00  0.00    -0.077 A 
ATOM      2  C3  UNL d   1      -1.737  -2.656  -0.232  0.00  0.00     0.002 A 
ATOM      3  C4  UNL d   1      -2.512  -2.069  -1.234  0.00  0.00     0.002 A 
ATOM      4  C5  UNL d   1      -1.957  -1.811  -2.485  0.00  0.00    -0.004 A 
ATOM      5  C6  UNL d   1      -0.624  -2.135  -2.736  0.00  0.00     0.002 A 
ATOM      6  C7  UNL d   1       0.152  -2.721  -1.736  0.00  0.00     0.002 A 
ENDROOT
BRANCH   1   7
ATOM      7  C1  UNL d   1       0.427  -3.665   0.589  0.00  0.00     0.055 C 
ATOM      8  C   UNL d   1       0.830  -5.070   0.164  0.00  0.00     0.019 C 
ENDBRANCH   1   7
TORSDOF 1
ENDMDL
