MODEL 1
REMARK minimizedAffinity 1.35208404
REMARK minimizedRMSD -1
REMARK  1 active torsions:
REMARK  status: ('A' for Active; 'I' for Inactive)
REMARK    1  A    between atoms: C1_2  and  C2_3 
ROOT
ATOM      1  C2  UNL d   1       5.296   5.219  -2.198  0.00  0.00    -0.077 A 
ATOM      2  C3  UNL d   1       3.919   5.377  -2.407  0.00  0.00     0.002 A 
ATOM      3  C4  UNL d   1       3.260   4.619  -3.377  0.00  0.00     0.002 A 
ATOM      4  C5  UNL d   1       3.969   3.695  -4.141  0.00  0.00    -0.004 A 
ATOM      5  C6  UNL d   1       5.339   3.532  -3.943  0.00  0.00     0.002 A 
ATOM      6  C7  UNL d   1       6.000   4.289  -2.975  0.00  0.00     0.002 A 
ENDROOT
BRANCH   1   7
ATOM      7  C1  UNL d   1       6.000   6.000  -1.119  0.00  0.00     0.055 C 
ATOM      8  C   UNL d   1       5.986   5.250   0.205  0.00  0.00     0.019 C 
ENDBRANCH   1   7
TORSDOF 1
ENDMDL
