MODEL 1
REMARK minimizedAffinity 2.5772624
REMARK minimizedRMSD -1
REMARK  1 active torsions:
REMARK  status: ('A' for Active; 'I' for Inactive)
REMARK    1  A    between atoms: C1_2  and  C2_3 
ROOT
ATOM      1  C2  UNL d   1       3.879   5.565  -3.726  0.00  0.00    -0.077 A 
ATOM      2  C3  UNL d   1       3.926   5.986  -5.063  0.00  0.00     0.002 A 
ATOM      3  C4  UNL d   1       4.974   5.586  -5.893  0.00  0.00     0.002 A 
ATOM      4  C5  UNL d   1       5.981   4.760  -5.398  0.00  0.00    -0.004 A 
ATOM      5  C6  UNL d   1       5.945   4.337  -4.070  0.00  0.00     0.002 A 
ATOM      6  C7  UNL d   1       4.898   4.737  -3.238  0.00  0.00     0.002 A 
ENDROOT
BRANCH   1   7
ATOM      7  C1  UNL d   1       2.723   5.955  -2.843  0.00  0.00     0.055 C 
ATOM      8  C   UNL d   1       1.419   5.999  -3.625  0.00  0.00     0.019 C 
ENDBRANCH   1   7
TORSDOF 1
ENDMDL
