MODEL 1
REMARK minimizedAffinity 10.3973141
REMARK minimizedRMSD -1
REMARK  1 active torsions:
REMARK  status: ('A' for Active; 'I' for Inactive)
REMARK    1  A    between atoms: C1_2  and  C2_3 
ROOT
ATOM      1  C2  UNL d   1       1.120  -1.439  -1.015  0.00  0.00    -0.077 A 
ATOM      2  C3  UNL d   1       1.795  -1.375   0.211  0.00  0.00     0.002 A 
ATOM      3  C4  UNL d   1       3.190  -1.306   0.247  0.00  0.00     0.002 A 
ATOM      4  C5  UNL d   1       3.919  -1.297  -0.940  0.00  0.00    -0.004 A 
ATOM      5  C6  UNL d   1       3.256  -1.362  -2.165  0.00  0.00     0.002 A 
ATOM      6  C7  UNL d   1       1.863  -1.432  -2.203  0.00  0.00     0.002 A 
ENDROOT
BRANCH   1   7
ATOM      7  C1  UNL d   1      -0.386  -1.464  -1.057  0.00  0.00     0.055 C 
ATOM      8  C   UNL d   1      -0.895  -1.865  -2.434  0.00  0.00     0.019 C 
ENDBRANCH   1   7
TORSDOF 1
ENDMDL
