MODEL 1
REMARK minimizedAffinity -0.607510388
REMARK minimizedRMSD -1
REMARK  1 active torsions:
REMARK  status: ('A' for Active; 'I' for Inactive)
REMARK    1  A    between atoms: C1_2  and  C2_3 
ROOT
ATOM      1  C2  UNL d   1       5.563   4.675  -3.220  0.00  0.00    -0.077 A 
ATOM      2  C3  UNL d   1       4.852   5.772  -3.727  0.00  0.00     0.002 A 
ATOM      3  C4  UNL d   1       4.416   5.780  -5.053  0.00  0.00     0.002 A 
ATOM      4  C5  UNL d   1       4.682   4.691  -5.882  0.00  0.00    -0.004 A 
ATOM      5  C6  UNL d   1       5.390   3.597  -5.387  0.00  0.00     0.002 A 
ATOM      6  C7  UNL d   1       5.828   3.588  -4.062  0.00  0.00     0.002 A 
ENDROOT
BRANCH   1   7
ATOM      7  C1  UNL d   1       5.992   4.644  -1.776  0.00  0.00     0.055 C 
ATOM      8  C   UNL d   1       5.781   5.995  -1.107  0.00  0.00     0.019 C 
ENDBRANCH   1   7
TORSDOF 1
ENDMDL
