MODEL 1
REMARK minimizedAffinity -0.114269488
REMARK minimizedRMSD -1
REMARK  1 active torsions:
REMARK  status: ('A' for Active; 'I' for Inactive)
REMARK    1  A    between atoms: C1_2  and  C2_3 
ROOT
ATOM      1  C2  UNL d   1       3.941  -2.181   2.894  0.00  0.00    -0.077 A 
ATOM      2  C3  UNL d   1       3.637  -1.315   3.953  0.00  0.00     0.002 A 
ATOM      3  C4  UNL d   1       4.111  -1.580   5.240  0.00  0.00     0.002 A 
ATOM      4  C5  UNL d   1       4.894  -2.707   5.477  0.00  0.00    -0.004 A 
ATOM      5  C6  UNL d   1       5.200  -3.576   4.430  0.00  0.00     0.002 A 
ATOM      6  C7  UNL d   1       4.726  -3.314   3.144  0.00  0.00     0.002 A 
ENDROOT
BRANCH   1   7
ATOM      7  C1  UNL d   1       3.472  -1.871   1.496  0.00  0.00     0.055 C 
ATOM      8  C   UNL d   1       4.493  -2.314   0.458  0.00  0.00     0.019 C 
ENDBRANCH   1   7
TORSDOF 1
ENDMDL
