MODEL 1
REMARK minimizedAffinity 3.60205984
REMARK minimizedRMSD -1
REMARK  1 active torsions:
REMARK  status: ('A' for Active; 'I' for Inactive)
REMARK    1  A    between atoms: C1_2  and  C2_3 
ROOT
ATOM      1  C2  UNL d   1       3.939  -3.030   4.078  0.00  0.00    -0.077 A 
ATOM      2  C3  UNL d   1       3.947  -2.010   5.040  0.00  0.00     0.002 A 
ATOM      3  C4  UNL d   1       4.962  -1.951   5.997  0.00  0.00     0.002 A 
ATOM      4  C5  UNL d   1       5.978  -2.904   5.998  0.00  0.00    -0.004 A 
ATOM      5  C6  UNL d   1       5.977  -3.923   5.046  0.00  0.00     0.002 A 
ATOM      6  C7  UNL d   1       4.963  -3.985   4.090  0.00  0.00     0.002 A 
ENDROOT
BRANCH   1   7
ATOM      7  C1  UNL d   1       2.872  -3.067   3.014  0.00  0.00     0.055 C 
ATOM      8  C   UNL d   1       2.868  -1.788   2.190  0.00  0.00     0.019 C 
ENDBRANCH   1   7
TORSDOF 1
ENDMDL
