MODEL 1
REMARK minimizedAffinity 1.58686423
REMARK minimizedRMSD -1
REMARK  1 active torsions:
REMARK  status: ('A' for Active; 'I' for Inactive)
REMARK    1  A    between atoms: C1_2  and  C2_3 
ROOT
ATOM      1  C2  UNL d   1      -0.180  -2.840  -1.598  0.00  0.00    -0.077 A 
ATOM      2  C3  UNL d   1      -0.309  -4.237  -1.605  0.00  0.00     0.002 A 
ATOM      3  C4  UNL d   1      -0.041  -4.964  -2.766  0.00  0.00     0.002 A 
ATOM      4  C5  UNL d   1       0.361  -4.306  -3.926  0.00  0.00    -0.004 A 
ATOM      5  C6  UNL d   1       0.490  -2.918  -3.929  0.00  0.00     0.002 A 
ATOM      6  C7  UNL d   1       0.221  -2.188  -2.770  0.00  0.00     0.002 A 
ENDROOT
BRANCH   1   7
ATOM      7  C1  UNL d   1      -0.421  -2.058  -0.333  0.00  0.00     0.055 C 
ATOM      8  C   UNL d   1      -0.679  -2.982   0.849  0.00  0.00     0.019 C 
ENDBRANCH   1   7
TORSDOF 1
ENDMDL
