MODEL 1
REMARK minimizedAffinity -2.91800427
REMARK minimizedRMSD -1
REMARK  1 active torsions:
REMARK  status: ('A' for Active; 'I' for Inactive)
REMARK    1  A    between atoms: C1_2  and  C2_3 
ROOT
ATOM      1  C2  UNL d   1      -0.724  -2.971  -0.643  0.00  0.00    -0.077 A 
ATOM      2  C3  UNL d   1      -0.361  -4.146  -1.316  0.00  0.00     0.002 A 
ATOM      3  C4  UNL d   1       0.217  -4.084  -2.585  0.00  0.00     0.002 A 
ATOM      4  C5  UNL d   1       0.442  -2.849  -3.190  0.00  0.00    -0.004 A 
ATOM      5  C6  UNL d   1       0.083  -1.674  -2.530  0.00  0.00     0.002 A 
ATOM      6  C7  UNL d   1      -0.497  -1.735  -1.262  0.00  0.00     0.002 A 
ENDROOT
BRANCH   1   7
ATOM      7  C1  UNL d   1      -1.303  -3.035   0.746  0.00  0.00     0.055 C 
ATOM      8  C   UNL d   1      -2.774  -2.649   0.751  0.00  0.00     0.019 C 
ENDBRANCH   1   7
TORSDOF 1
ENDMDL
