MODEL 1
REMARK minimizedAffinity 3.46318507
REMARK minimizedRMSD -1
REMARK  1 active torsions:
REMARK  status: ('A' for Active; 'I' for Inactive)
REMARK    1  A    between atoms: C1_2  and  C2_3 
ROOT
ATOM      1  C2  UNL d   1      -0.225  -1.829  -1.427  0.00  0.00    -0.077 A 
ATOM      2  C3  UNL d   1      -1.271  -2.756  -1.535  0.00  0.00     0.002 A 
ATOM      3  C4  UNL d   1      -2.088  -3.029  -0.436  0.00  0.00     0.002 A 
ATOM      4  C5  UNL d   1      -1.870  -2.378   0.776  0.00  0.00    -0.004 A 
ATOM      5  C6  UNL d   1      -0.830  -1.456   0.894  0.00  0.00     0.002 A 
ATOM      6  C7  UNL d   1      -0.012  -1.182  -0.203  0.00  0.00     0.002 A 
ENDROOT
BRANCH   1   7
ATOM      7  C1  UNL d   1       0.626  -1.495  -2.624  0.00  0.00     0.055 C 
ATOM      8  C   UNL d   1       2.033  -2.056  -2.477  0.00  0.00     0.019 C 
ENDBRANCH   1   7
TORSDOF 1
ENDMDL
