MODEL 1
REMARK minimizedAffinity -1.48168421
REMARK minimizedRMSD -1
REMARK  0 active torsions:
REMARK  status: ('A' for Active; 'I' for Inactive)
ROOT
ATOM      1  C1  DEN d   1      -1.096   5.952  -5.402  0.00  0.00     0.130 A 
ATOM      2  C2  DEN d   1       0.176   5.978  -4.685  0.00  0.00    -0.031 A 
ATOM      3  C3  DEN d   1      -0.115   6.000  -3.238  0.00  0.00     0.027 A 
ATOM      4  C4  DEN d   1      -2.401   5.991  -2.043  0.00  0.00     0.027 A 
ATOM      5  C5  DEN d   1      -3.765   5.984  -2.230  0.00  0.00    -0.003 A 
ATOM      6  C6  DEN d   1      -4.331   6.000  -3.477  0.00  0.00     0.001 A 
ATOM      7  C7  DEN d   1      -3.529   5.978  -4.587  0.00  0.00     0.017 A 
ATOM      8  C8  DEN d   1      -2.152   5.993  -4.406  0.00  0.00    -0.094 A 
ATOM      9  C9  DEN d   1      -1.599   5.964  -3.137  0.00  0.00    -0.072 A 
ENDROOT
TORSDOF 0
ENDMDL
