MODEL 1
REMARK minimizedAffinity -1.81985569
REMARK minimizedRMSD -1
REMARK  0 active torsions:
REMARK  status: ('A' for Active; 'I' for Inactive)
ROOT
ATOM      1  C1  DEN d   1       0.160   6.000  -2.483  0.00  0.00     0.130 A 
ATOM      2  C2  DEN d   1      -1.201   5.996  -3.012  0.00  0.00    -0.031 A 
ATOM      3  C3  DEN d   1      -1.118   5.948  -4.485  0.00  0.00     0.027 A 
ATOM      4  C4  DEN d   1       0.975   5.876  -5.991  0.00  0.00     0.027 A 
ATOM      5  C5  DEN d   1       2.352   5.874  -6.000  0.00  0.00    -0.003 A 
ATOM      6  C6  DEN d   1       3.089   5.947  -4.848  0.00  0.00     0.001 A 
ATOM      7  C7  DEN d   1       2.453   5.980  -3.635  0.00  0.00     0.017 A 
ATOM      8  C8  DEN d   1       1.064   5.990  -3.619  0.00  0.00    -0.094 A 
ATOM      9  C9  DEN d   1       0.337   5.903  -4.794  0.00  0.00    -0.072 A 
ENDROOT
TORSDOF 0
ENDMDL
