MODEL 1
REMARK minimizedAffinity 1.18166173
REMARK minimizedRMSD -1
REMARK  0 active torsions:
REMARK  status: ('A' for Active; 'I' for Inactive)
ROOT
ATOM      1  C1  DEN d   1      -3.637   5.999  -4.449  0.00  0.00     0.130 A 
ATOM      2  C2  DEN d   1      -4.007   5.964  -3.037  0.00  0.00    -0.031 A 
ATOM      3  C3  DEN d   1      -2.765   5.949  -2.239  0.00  0.00     0.027 A 
ATOM      4  C4  DEN d   1      -0.316   5.981  -3.048  0.00  0.00     0.027 A 
ATOM      5  C5  DEN d   1       0.499   5.999  -4.158  0.00  0.00    -0.003 A 
ATOM      6  C6  DEN d   1      -0.003   5.984  -5.433  0.00  0.00     0.001 A 
ATOM      7  C7  DEN d   1      -1.358   5.995  -5.629  0.00  0.00     0.017 A 
ATOM      8  C8  DEN d   1      -2.187   5.970  -4.514  0.00  0.00    -0.094 A 
ATOM      9  C9  DEN d   1      -1.660   5.998  -3.234  0.00  0.00    -0.072 A 
ENDROOT
TORSDOF 0
ENDMDL
