MODEL 1
REMARK minimizedAffinity -0.729823112
REMARK minimizedRMSD -1
REMARK  0 active torsions:
REMARK  status: ('A' for Active; 'I' for Inactive)
ROOT
ATOM      1  C1  DEN d   1      -1.418  -2.941  -3.689  0.00  0.00     0.130 A 
ATOM      2  C2  DEN d   1      -2.399  -2.086  -4.351  0.00  0.00    -0.031 A 
ATOM      3  C3  DEN d   1      -1.666  -1.096  -5.165  0.00  0.00     0.027 A 
ATOM      4  C4  DEN d   1       0.879  -0.808  -5.468  0.00  0.00     0.027 A 
ATOM      5  C5  DEN d   1       2.115  -1.291  -5.098  0.00  0.00    -0.003 A 
ATOM      6  C6  DEN d   1       2.260  -2.327  -4.214  0.00  0.00     0.001 A 
ATOM      7  C7  DEN d   1       1.148  -2.945  -3.704  0.00  0.00     0.017 A 
ATOM      8  C8  DEN d   1      -0.101  -2.459  -4.066  0.00  0.00    -0.094 A 
ATOM      9  C9  DEN d   1      -0.227  -1.418  -4.971  0.00  0.00    -0.072 A 
ENDROOT
TORSDOF 0
ENDMDL
