MODEL 1
REMARK minimizedAffinity 5.04095411
REMARK minimizedRMSD -1
REMARK  0 active torsions:
REMARK  status: ('A' for Active; 'I' for Inactive)
ROOT
ATOM      1  C1  DEN d   1       0.964  -2.748  -3.759  0.00  0.00     0.130 A 
ATOM      2  C2  DEN d   1       2.183  -2.097  -4.233  0.00  0.00    -0.031 A 
ATOM      3  C3  DEN d   1       1.792  -0.885  -4.981  0.00  0.00     0.027 A 
ATOM      4  C4  DEN d   1      -0.569   0.046  -5.443  0.00  0.00     0.027 A 
ATOM      5  C5  DEN d   1      -1.916  -0.167  -5.252  0.00  0.00    -0.003 A 
ATOM      6  C6  DEN d   1      -2.395  -1.263  -4.585  0.00  0.00     0.001 A 
ATOM      7  C7  DEN d   1      -1.518  -2.166  -4.045  0.00  0.00     0.017 A 
ATOM      8  C8  DEN d   1      -0.158  -1.963  -4.240  0.00  0.00    -0.094 A 
ATOM      9  C9  DEN d   1       0.307  -0.842  -4.906  0.00  0.00    -0.072 A 
ENDROOT
TORSDOF 0
ENDMDL
