MODEL 1
REMARK minimizedAffinity -0.586818635
REMARK minimizedRMSD -1
REMARK  0 active torsions:
REMARK  status: ('A' for Active; 'I' for Inactive)
ROOT
ATOM      1  C1  DEN d   1       0.006   5.960  -5.316  0.00  0.00     0.130 A 
ATOM      2  C2  DEN d   1       1.370   5.984  -4.794  0.00  0.00    -0.031 A 
ATOM      3  C3  DEN d   1       1.294   6.000  -3.319  0.00  0.00     0.027 A 
ATOM      4  C4  DEN d   1      -0.791   5.985  -1.802  0.00  0.00     0.027 A 
ATOM      5  C5  DEN d   1      -2.168   5.979  -1.786  0.00  0.00    -0.003 A 
ATOM      6  C6  DEN d   1      -2.911   6.000  -2.937  0.00  0.00     0.001 A 
ATOM      7  C7  DEN d   1      -2.280   5.982  -4.153  0.00  0.00     0.017 A 
ATOM      8  C8  DEN d   1      -0.892   5.997  -4.176  0.00  0.00    -0.094 A 
ATOM      9  C9  DEN d   1      -0.159   5.963  -3.002  0.00  0.00    -0.072 A 
ENDROOT
TORSDOF 0
ENDMDL
