MODEL 1
REMARK minimizedAffinity 0.350011885
REMARK minimizedRMSD -1
REMARK  0 active torsions:
REMARK  status: ('A' for Active; 'I' for Inactive)
ROOT
ATOM      1  C1  DEN d   1      -0.284   5.964  -5.771  0.00  0.00     0.130 A 
ATOM      2  C2  DEN d   1       1.161   5.987  -5.564  0.00  0.00    -0.031 A 
ATOM      3  C3  DEN d   1       1.414   6.000  -4.109  0.00  0.00     0.027 A 
ATOM      4  C4  DEN d   1      -0.283   5.981  -2.167  0.00  0.00     0.027 A 
ATOM      5  C5  DEN d   1      -1.623   5.975  -1.847  0.00  0.00    -0.003 A 
ATOM      6  C6  DEN d   1      -2.602   5.998  -2.804  0.00  0.00     0.001 A 
ATOM      7  C7  DEN d   1      -2.257   5.984  -4.130  0.00  0.00     0.017 A 
ATOM      8  C8  DEN d   1      -0.908   5.998  -4.460  0.00  0.00    -0.094 A 
ATOM      9  C9  DEN d   1       0.067   5.962  -3.478  0.00  0.00    -0.072 A 
ENDROOT
TORSDOF 0
ENDMDL
