MODEL 1
REMARK minimizedAffinity 12.2652903
REMARK minimizedRMSD -1
REMARK  0 active torsions:
REMARK  status: ('A' for Active; 'I' for Inactive)
ROOT
ATOM      1  C1  DEN d   1      -3.168  -2.792  -4.502  0.00  0.00     0.130 A 
ATOM      2  C2  DEN d   1      -2.241  -1.669  -4.612  0.00  0.00    -0.031 A 
ATOM      3  C3  DEN d   1      -2.207  -0.976  -3.309  0.00  0.00     0.027 A 
ATOM      4  C4  DEN d   1      -3.489  -1.531  -1.141  0.00  0.00     0.027 A 
ATOM      5  C5  DEN d   1      -4.403  -2.385  -0.565  0.00  0.00    -0.003 A 
ATOM      6  C6  DEN d   1      -4.990  -3.406  -1.265  0.00  0.00     0.001 A 
ATOM      7  C7  DEN d   1      -4.635  -3.626  -2.569  0.00  0.00     0.017 A 
ATOM      8  C8  DEN d   1      -3.720  -2.764  -3.159  0.00  0.00    -0.094 A 
ATOM      9  C9  DEN d   1      -3.129  -1.746  -2.432  0.00  0.00    -0.072 A 
ENDROOT
TORSDOF 0
ENDMDL
