MODEL 1
REMARK minimizedAffinity 9.38166237
REMARK minimizedRMSD -1
REMARK  0 active torsions:
REMARK  status: ('A' for Active; 'I' for Inactive)
ROOT
ATOM      1  C1  DEN d   1       1.456   5.369  -3.106  0.00  0.00     0.130 A 
ATOM      2  C2  DEN d   1       0.391   5.696  -4.050  0.00  0.00    -0.031 A 
ATOM      3  C3  DEN d   1       1.015   6.000  -5.354  0.00  0.00     0.027 A 
ATOM      4  C4  DEN d   1       3.512   5.991  -6.000  0.00  0.00     0.027 A 
ATOM      5  C5  DEN d   1       4.791   5.787  -5.533  0.00  0.00    -0.003 A 
ATOM      6  C6  DEN d   1       5.049   5.466  -4.226  0.00  0.00     0.001 A 
ATOM      7  C7  DEN d   1       4.009   5.294  -3.352  0.00  0.00     0.017 A 
ATOM      8  C8  DEN d   1       2.716   5.505  -3.814  0.00  0.00    -0.094 A 
ATOM      9  C9  DEN d   1       2.476   5.818  -5.141  0.00  0.00    -0.072 A 
ENDROOT
TORSDOF 0
ENDMDL
