MODEL 1
REMARK minimizedAffinity -2.727983
REMARK minimizedRMSD -1
REMARK  0 active torsions:
REMARK  status: ('A' for Active; 'I' for Inactive)
ROOT
ATOM      1  C1  DEN d   1       1.948   4.543  -4.097  0.00  0.00     0.130 A 
ATOM      2  C2  DEN d   1       1.142   5.262  -5.081  0.00  0.00    -0.031 A 
ATOM      3  C3  DEN d   1       2.062   5.962  -6.000  0.00  0.00     0.027 A 
ATOM      4  C4  DEN d   1       4.641   5.999  -5.998  0.00  0.00     0.027 A 
ATOM      5  C5  DEN d   1       5.770   5.548  -5.350  0.00  0.00    -0.003 A 
ATOM      6  C6  DEN d   1       5.704   4.766  -4.228  0.00  0.00     0.001 A 
ATOM      7  C7  DEN d   1       4.483   4.372  -3.746  0.00  0.00     0.017 A 
ATOM      8  C8  DEN d   1       3.341   4.828  -4.390  0.00  0.00    -0.094 A 
ATOM      9  C9  DEN d   1       3.429   5.609  -5.530  0.00  0.00    -0.072 A 
ENDROOT
TORSDOF 0
ENDMDL
