MODEL 1
REMARK minimizedAffinity 4.69029427
REMARK minimizedRMSD -1
REMARK  0 active torsions:
REMARK  status: ('A' for Active; 'I' for Inactive)
ROOT
ATOM      1  C1  DEN d   1       1.873   4.109  -4.416  0.00  0.00     0.130 A 
ATOM      2  C2  DEN d   1       1.228   5.071  -5.305  0.00  0.00    -0.031 A 
ATOM      3  C3  DEN d   1       2.268   5.982  -5.824  0.00  0.00     0.027 A 
ATOM      4  C4  DEN d   1       4.802   5.994  -5.341  0.00  0.00     0.027 A 
ATOM      5  C5  DEN d   1       5.814   5.377  -4.639  0.00  0.00    -0.003 A 
ATOM      6  C6  DEN d   1       5.580   4.324  -3.794  0.00  0.00     0.001 A 
ATOM      7  C7  DEN d   1       4.310   3.827  -3.664  0.00  0.00     0.017 A 
ATOM      8  C8  DEN d   1       3.284   4.449  -4.363  0.00  0.00    -0.094 A 
ATOM      9  C9  DEN d   1       3.542   5.504  -5.222  0.00  0.00    -0.072 A 
ENDROOT
TORSDOF 0
ENDMDL
