MODEL 1
REMARK minimizedAffinity 8.23291874
REMARK minimizedRMSD -1
REMARK  0 active torsions:
REMARK  status: ('A' for Active; 'I' for Inactive)
ROOT
ATOM      1  C1  DEN d   1      -0.097  -0.463   0.046  0.00  0.00     0.130 A 
ATOM      2  C2  DEN d   1      -0.088  -0.843   1.456  0.00  0.00    -0.031 A 
ATOM      3  C3  DEN d   1       0.710   0.158   2.193  0.00  0.00     0.027 A 
ATOM      4  C4  DEN d   1       1.921   2.249   1.294  0.00  0.00     0.027 A 
ATOM      5  C5  DEN d   1       2.210   2.980   0.163  0.00  0.00    -0.003 A 
ATOM      6  C6  DEN d   1       1.781   2.599  -1.081  0.00  0.00     0.001 A 
ATOM      7  C7  DEN d   1       1.002   1.481  -1.218  0.00  0.00     0.017 A 
ATOM      8  C8  DEN d   1       0.714   0.735  -0.083  0.00  0.00    -0.094 A 
ATOM      9  C9  DEN d   1       1.146   1.143   1.167  0.00  0.00    -0.072 A 
ENDROOT
TORSDOF 0
ENDMDL
