MODEL 1
REMARK minimizedAffinity -0.307237357
REMARK minimizedRMSD -1
REMARK  0 active torsions:
REMARK  status: ('A' for Active; 'I' for Inactive)
ROOT
ATOM      1  C1  DEN d   1      -0.460   4.745  -1.844  0.00  0.00     0.130 A 
ATOM      2  C2  DEN d   1      -1.342   4.866  -0.686  0.00  0.00    -0.031 A 
ATOM      3  C3  DEN d   1      -2.652   5.357  -1.159  0.00  0.00     0.027 A 
ATOM      4  C4  DEN d   1      -3.398   5.932  -3.560  0.00  0.00     0.027 A 
ATOM      5  C5  DEN d   1      -2.994   6.000  -4.875  0.00  0.00    -0.003 A 
ATOM      6  C6  DEN d   1      -1.718   5.689  -5.264  0.00  0.00     0.001 A 
ATOM      7  C7  DEN d   1      -0.812   5.252  -4.334  0.00  0.00     0.017 A 
ATOM      8  C8  DEN d   1      -1.210   5.189  -3.005  0.00  0.00    -0.094 A 
ATOM      9  C9  DEN d   1      -2.508   5.496  -2.633  0.00  0.00    -0.072 A 
ENDROOT
TORSDOF 0
ENDMDL
