MODEL 1
REMARK minimizedAffinity -1.30050838
REMARK minimizedRMSD -1
REMARK  0 active torsions:
REMARK  status: ('A' for Active; 'I' for Inactive)
ROOT
ATOM      1  C1  DEN d   1      -1.678   5.971  -2.410  0.00  0.00     0.130 A 
ATOM      2  C2  DEN d   1      -3.017   5.993  -2.992  0.00  0.00    -0.031 A 
ATOM      3  C3  DEN d   1      -2.876   6.000  -4.462  0.00  0.00     0.027 A 
ATOM      4  C4  DEN d   1      -0.726   5.974  -5.886  0.00  0.00     0.027 A 
ATOM      5  C5  DEN d   1       0.651   5.966  -5.840  0.00  0.00    -0.003 A 
ATOM      6  C6  DEN d   1       1.342   5.993  -4.657  0.00  0.00     0.001 A 
ATOM      7  C7  DEN d   1       0.658   5.984  -3.471  0.00  0.00     0.017 A 
ATOM      8  C8  DEN d   1      -0.730   6.000  -3.509  0.00  0.00    -0.094 A 
ATOM      9  C9  DEN d   1      -1.410   5.960  -4.714  0.00  0.00    -0.072 A 
ENDROOT
TORSDOF 0
ENDMDL
