MODEL 1
REMARK minimizedAffinity -4.25314999
REMARK minimizedRMSD -1
REMARK  1 active torsions:
REMARK  status: ('A' for Active; 'I' for Inactive)
REMARK    1  A    between atoms: C1_2  and  C2_3 
ROOT
ATOM      1  C2  UNL d   1       0.173   0.253  -1.399  0.00  0.00    -0.076 A 
ATOM      2  C3  UNL d   1      -0.848   1.210  -1.264  0.00  0.00     0.004 A 
ATOM      3  C4  UNL d   1      -1.649   1.247  -0.124  0.00  0.00    -0.003 A 
ATOM      4  C5  UNL d   1      -1.442   0.328   0.900  0.00  0.00     0.000 A 
ATOM      5  C6  UNL d   1      -0.422  -0.616   0.789  0.00  0.00     0.000 A 
ATOM      6  C7  UNL d   1       0.405  -0.657  -0.346  0.00  0.00    -0.073 A 
ATOM      7  C8  UNL d   1       1.486  -1.701  -0.415  0.00  0.00     0.078 C 
ENDROOT
BRANCH   1   8
ATOM      8  C1  UNL d   1       0.992   0.244  -2.670  0.00  0.00     0.053 C 
ATOM      9  C   UNL d   1       0.153   0.529  -3.906  0.00  0.00     0.018 C 
ENDBRANCH   1   8
TORSDOF 1
ENDMDL
