MODEL 1
REMARK minimizedAffinity 1.38305819
REMARK minimizedRMSD -1
REMARK  1 active torsions:
REMARK  status: ('A' for Active; 'I' for Inactive)
REMARK    1  A    between atoms: C1_2  and  C2_3 
ROOT
ATOM      1  C2  UNL d   1       0.093   0.065  -1.667  0.00  0.00    -0.076 A 
ATOM      2  C3  UNL d   1      -1.063   0.849  -1.820  0.00  0.00     0.004 A 
ATOM      3  C4  UNL d   1      -1.963   1.013  -0.768  0.00  0.00    -0.003 A 
ATOM      4  C5  UNL d   1      -1.721   0.394   0.453  0.00  0.00     0.000 A 
ATOM      5  C6  UNL d   1      -0.570  -0.373   0.628  0.00  0.00     0.000 A 
ATOM      6  C7  UNL d   1       0.356  -0.535  -0.417  0.00  0.00    -0.073 A 
ATOM      7  C8  UNL d   1       1.577  -1.379  -0.175  0.00  0.00     0.078 C 
ENDROOT
BRANCH   1   8
ATOM      8  C1  UNL d   1       1.019  -0.099  -2.851  0.00  0.00     0.053 C 
ATOM      9  C   UNL d   1       0.268  -0.193  -4.170  0.00  0.00     0.018 C 
ENDBRANCH   1   8
TORSDOF 1
ENDMDL
