MODEL 1
REMARK minimizedAffinity -4.1254921
REMARK minimizedRMSD -1
REMARK  1 active torsions:
REMARK  status: ('A' for Active; 'I' for Inactive)
REMARK    1  A    between atoms: C1_2  and  C2_3 
ROOT
ATOM      1  C2  UNL d   1       0.330   0.641  -1.168  0.00  0.00    -0.076 A 
ATOM      2  C3  UNL d   1      -0.455   1.790  -0.966  0.00  0.00     0.004 A 
ATOM      3  C4  UNL d   1      -1.539   1.773  -0.090  0.00  0.00    -0.003 A 
ATOM      4  C5  UNL d   1      -1.856   0.607   0.598  0.00  0.00     0.000 A 
ATOM      5  C6  UNL d   1      -1.078  -0.537   0.422  0.00  0.00     0.000 A 
ATOM      6  C7  UNL d   1       0.028  -0.532  -0.445  0.00  0.00    -0.073 A 
ATOM      7  C8  UNL d   1       0.829  -1.796  -0.600  0.00  0.00     0.078 C 
ENDROOT
BRANCH   1   8
ATOM      8  C1  UNL d   1       1.477   0.712  -2.151  0.00  0.00     0.053 C 
ATOM      9  C   UNL d   1       1.033   0.462  -3.584  0.00  0.00     0.018 C 
ENDBRANCH   1   8
TORSDOF 1
ENDMDL
