MODEL 1
REMARK minimizedAffinity -2.32326126
REMARK minimizedRMSD -1
REMARK  1 active torsions:
REMARK  status: ('A' for Active; 'I' for Inactive)
REMARK    1  A    between atoms: C1_2  and  C2_3 
ROOT
ATOM      1  C2  UNL d   1       0.405  -0.495   1.341  0.00  0.00    -0.076 A 
ATOM      2  C3  UNL d   1       1.712  -0.966   1.560  0.00  0.00     0.004 A 
ATOM      3  C4  UNL d   1       2.214  -1.112   2.852  0.00  0.00    -0.003 A 
ATOM      4  C5  UNL d   1       1.419  -0.789   3.946  0.00  0.00     0.000 A 
ATOM      5  C6  UNL d   1       0.115  -0.337   3.748  0.00  0.00     0.000 A 
ATOM      6  C7  UNL d   1      -0.413  -0.200   2.452  0.00  0.00    -0.073 A 
ATOM      7  C8  UNL d   1      -1.824   0.297   2.297  0.00  0.00     0.078 C 
ENDROOT
BRANCH   1   8
ATOM      8  C1  UNL d   1      -0.076  -0.332  -0.083  0.00  0.00     0.053 C 
ATOM      9  C   UNL d   1      -0.791  -1.570  -0.602  0.00  0.00     0.018 C 
ENDBRANCH   1   8
TORSDOF 1
ENDMDL
