MODEL 1
REMARK minimizedAffinity -0.361352324
REMARK minimizedRMSD -1
REMARK  1 active torsions:
REMARK  status: ('A' for Active; 'I' for Inactive)
REMARK    1  A    between atoms: C1_2  and  C2_3 
ROOT
ATOM      1  C2  UNL d   1       0.113  -0.262  -1.762  0.00  0.00    -0.076 A 
ATOM      2  C3  UNL d   1      -0.533  -0.613  -2.960  0.00  0.00     0.004 A 
ATOM      3  C4  UNL d   1       0.062  -0.362  -4.196  0.00  0.00    -0.003 A 
ATOM      4  C5  UNL d   1       1.313   0.242  -4.253  0.00  0.00     0.000 A 
ATOM      5  C6  UNL d   1       1.976   0.581  -3.074  0.00  0.00     0.000 A 
ATOM      6  C7  UNL d   1       1.397   0.320  -1.820  0.00  0.00    -0.073 A 
ATOM      7  C8  UNL d   1       2.154   0.712  -0.581  0.00  0.00     0.078 C 
ENDROOT
BRANCH   1   8
ATOM      8  C1  UNL d   1      -0.592  -0.533  -0.453  0.00  0.00     0.053 C 
ATOM      9  C   UNL d   1      -1.885   0.255  -0.313  0.00  0.00     0.018 C 
ENDBRANCH   1   8
TORSDOF 1
ENDMDL
