MODEL 1
REMARK minimizedAffinity -3.30534601
REMARK minimizedRMSD -1
REMARK  1 active torsions:
REMARK  status: ('A' for Active; 'I' for Inactive)
REMARK    1  A    between atoms: C1_2  and  C2_3 
ROOT
ATOM      1  C2  UNL d   1       0.066   0.205  -1.396  0.00  0.00    -0.076 A 
ATOM      2  C3  UNL d   1      -0.439   1.203  -2.248  0.00  0.00     0.004 A 
ATOM      3  C4  UNL d   1      -0.051   1.268  -3.586  0.00  0.00    -0.003 A 
ATOM      4  C5  UNL d   1       0.847   0.335  -4.093  0.00  0.00     0.000 A 
ATOM      5  C6  UNL d   1       1.343  -0.673  -3.266  0.00  0.00     0.000 A 
ATOM      6  C7  UNL d   1       0.950  -0.761  -1.920  0.00  0.00    -0.073 A 
ATOM      7  C8  UNL d   1       1.522  -1.865  -1.072  0.00  0.00     0.078 C 
ENDROOT
BRANCH   1   8
ATOM      8  C1  UNL d   1      -0.369   0.202   0.052  0.00  0.00     0.053 C 
ATOM      9  C   UNL d   1      -1.572   1.099   0.301  0.00  0.00     0.018 C 
ENDBRANCH   1   8
TORSDOF 1
ENDMDL
