MODEL 1
REMARK minimizedAffinity -4.9168148
REMARK minimizedRMSD -1
REMARK  1 active torsions:
REMARK  status: ('A' for Active; 'I' for Inactive)
REMARK    1  A    between atoms: C1_2  and  C2_3 
ROOT
ATOM      1  C2  UNL d   1       0.155  -0.149   1.215  0.00  0.00    -0.076 A 
ATOM      2  C3  UNL d   1       1.432  -0.727   1.324  0.00  0.00     0.004 A 
ATOM      3  C4  UNL d   1       2.079  -0.812   2.556  0.00  0.00    -0.003 A 
ATOM      4  C5  UNL d   1       1.459  -0.319   3.699  0.00  0.00     0.000 A 
ATOM      5  C6  UNL d   1       0.185   0.242   3.613  0.00  0.00     0.000 A 
ATOM      6  C7  UNL d   1      -0.487   0.320   2.381  0.00  0.00    -0.073 A 
ATOM      7  C8  UNL d   1      -1.857   0.941   2.345  0.00  0.00     0.078 C 
ENDROOT
BRANCH   1   8
ATOM      8  C1  UNL d   1      -0.486  -0.060  -0.151  0.00  0.00     0.053 C 
ATOM      9  C   UNL d   1       0.292  -0.825  -1.211  0.00  0.00     0.018 C 
ENDBRANCH   1   8
TORSDOF 1
ENDMDL
