MODEL 1
REMARK minimizedAffinity -4.50452805
REMARK minimizedRMSD -1
REMARK  1 active torsions:
REMARK  status: ('A' for Active; 'I' for Inactive)
REMARK    1  A    between atoms: C1_2  and  C2_3 
ROOT
ATOM      1  C2  UNL d   1       0.137  -0.400   1.601  0.00  0.00    -0.076 A 
ATOM      2  C3  UNL d   1      -0.852   0.337   2.274  0.00  0.00     0.004 A 
ATOM      3  C4  UNL d   1      -2.036   0.701   1.635  0.00  0.00    -0.003 A 
ATOM      4  C5  UNL d   1      -2.251   0.331   0.312  0.00  0.00     0.000 A 
ATOM      5  C6  UNL d   1      -1.289  -0.416  -0.366  0.00  0.00     0.000 A 
ATOM      6  C7  UNL d   1      -0.096  -0.804   0.269  0.00  0.00    -0.073 A 
ATOM      7  C8  UNL d   1       0.910  -1.605  -0.512  0.00  0.00     0.078 C 
ENDROOT
BRANCH   1   8
ATOM      8  C1  UNL d   1       1.413  -0.742   2.337  0.00  0.00     0.053 C 
ATOM      9  C   UNL d   1       1.183  -0.984   3.820  0.00  0.00     0.018 C 
ENDBRANCH   1   8
TORSDOF 1
ENDMDL
