MODEL 1
REMARK minimizedAffinity -4.43161011
REMARK minimizedRMSD -1
REMARK  1 active torsions:
REMARK  status: ('A' for Active; 'I' for Inactive)
REMARK    1  A    between atoms: C1_2  and  C2_3 
ROOT
ATOM      1  C2  UNL d   1      -0.120  -0.565   0.397  0.00  0.00    -0.076 A 
ATOM      2  C3  UNL d   1      -1.272   0.078   0.882  0.00  0.00     0.004 A 
ATOM      3  C4  UNL d   1      -1.400   0.397   2.233  0.00  0.00    -0.003 A 
ATOM      4  C5  UNL d   1      -0.377   0.080   3.120  0.00  0.00     0.000 A 
ATOM      5  C6  UNL d   1       0.780  -0.542   2.653  0.00  0.00     0.000 A 
ATOM      6  C7  UNL d   1       0.932  -0.856   1.292  0.00  0.00    -0.073 A 
ATOM      7  C8  UNL d   1       2.199  -1.532   0.844  0.00  0.00     0.078 C 
ENDROOT
BRANCH   1   8
ATOM      8  C1  UNL d   1      -0.049  -0.911  -1.073  0.00  0.00     0.053 C 
ATOM      9  C   UNL d   1       0.314   0.286  -1.937  0.00  0.00     0.018 C 
ENDBRANCH   1   8
TORSDOF 1
ENDMDL
