MODEL 1
REMARK minimizedAffinity -1.76115203
REMARK minimizedRMSD -1
REMARK  0 active torsions:
REMARK  status: ('A' for Active; 'I' for Inactive)
ROOT
ATOM      1  C   UNL d   1       1.069   3.031   1.277  0.00  0.00     0.023 A 
ATOM      2  C1  UNL d   1       1.490   2.705  -0.012  0.00  0.00     0.003 A 
ATOM      3  C2  UNL d   1       1.210   1.443  -0.542  0.00  0.00     0.048 A 
ATOM      4  C3  UNL d   1       0.506   0.514   0.223  0.00  0.00     0.023 A 
ATOM      5  C4  UNL d   1       0.082   0.836   1.513  0.00  0.00     0.048 A 
ATOM      6  C5  UNL d   1       0.365   2.098   2.038  0.00  0.00     0.003 A 
ATOM      7  I   UNL d   1       0.087  -1.364  -0.563  0.00  0.00    -0.146 I 
ENDROOT
TORSDOF 0
ENDMDL
