MODEL 1
REMARK minimizedAffinity -0.903947055
REMARK minimizedRMSD -1
REMARK  0 active torsions:
REMARK  status: ('A' for Active; 'I' for Inactive)
ROOT
ATOM      1  C   UNL d   1       1.149   2.648   0.418  0.00  0.00     0.023 A 
ATOM      2  C1  UNL d   1       1.155   2.634   1.813  0.00  0.00     0.003 A 
ATOM      3  C2  UNL d   1       0.426   1.666   2.506  0.00  0.00     0.048 A 
ATOM      4  C3  UNL d   1      -0.307   0.714   1.798  0.00  0.00     0.023 A 
ATOM      5  C4  UNL d   1      -0.316   0.724   0.402  0.00  0.00     0.048 A 
ATOM      6  C5  UNL d   1       0.415   1.694  -0.286  0.00  0.00     0.003 A 
ATOM      7  I   UNL d   1      -1.394  -0.727   2.827  0.00  0.00    -0.146 I 
ENDROOT
TORSDOF 0
ENDMDL
