MODEL 1
REMARK minimizedAffinity -3.00300956
REMARK minimizedRMSD -1
REMARK  0 active torsions:
REMARK  status: ('A' for Active; 'I' for Inactive)
ROOT
ATOM      1  C   UNL d   1       0.711   1.141   1.221  0.00  0.00     0.023 A 
ATOM      2  C1  UNL d   1       0.842   1.478  -0.126  0.00  0.00     0.003 A 
ATOM      3  C2  UNL d   1       0.201   0.713  -1.104  0.00  0.00     0.048 A 
ATOM      4  C3  UNL d   1      -0.569  -0.386  -0.727  0.00  0.00     0.023 A 
ATOM      5  C4  UNL d   1      -0.704  -0.727   0.620  0.00  0.00     0.048 A 
ATOM      6  C5  UNL d   1      -0.061   0.040   1.593  0.00  0.00     0.003 A 
ATOM      7  I   UNL d   1      -1.523  -1.525  -2.181  0.00  0.00    -0.146 I 
ENDROOT
TORSDOF 0
ENDMDL
