MODEL 1
REMARK minimizedAffinity -2.46881056
REMARK minimizedRMSD -1
REMARK  0 active torsions:
REMARK  status: ('A' for Active; 'I' for Inactive)
ROOT
ATOM      1  C   UNL d   1       1.449   2.445   1.616  0.00  0.00     0.023 A 
ATOM      2  C1  UNL d   1       0.714   1.430   2.230  0.00  0.00     0.003 A 
ATOM      3  C2  UNL d   1       0.075   0.462   1.453  0.00  0.00     0.048 A 
ATOM      4  C3  UNL d   1       0.174   0.514   0.063  0.00  0.00     0.023 A 
ATOM      5  C4  UNL d   1       0.908   1.528  -0.555  0.00  0.00     0.048 A 
ATOM      6  C5  UNL d   1       1.545   2.494   0.226  0.00  0.00     0.003 A 
ATOM      7  I   UNL d   1      -0.777  -0.925  -1.095  0.00  0.00    -0.146 I 
ENDROOT
TORSDOF 0
ENDMDL
