MODEL 1
REMARK minimizedAffinity -2.99316645
REMARK minimizedRMSD -1
REMARK  0 active torsions:
REMARK  status: ('A' for Active; 'I' for Inactive)
ROOT
ATOM      1  C   UNL d   1       1.715   1.410   3.870  0.00  0.00     0.023 A 
ATOM      2  C1  UNL d   1       0.689   1.904   3.065  0.00  0.00     0.003 A 
ATOM      3  C2  UNL d   1       0.811   1.867   1.675  0.00  0.00     0.048 A 
ATOM      4  C3  UNL d   1       1.962   1.333   1.096  0.00  0.00     0.023 A 
ATOM      5  C4  UNL d   1       2.991   0.836   1.897  0.00  0.00     0.048 A 
ATOM      6  C5  UNL d   1       2.865   0.877   3.287  0.00  0.00     0.003 A 
ATOM      7  I   UNL d   1       2.146   1.276  -0.974  0.00  0.00    -0.146 I 
ENDROOT
TORSDOF 0
ENDMDL
