MODEL 1
REMARK minimizedAffinity 0.641144574
REMARK minimizedRMSD -1
REMARK  0 active torsions:
REMARK  status: ('A' for Active; 'I' for Inactive)
ROOT
ATOM      1  C   UNL d   1       2.210   1.594  -0.433  0.00  0.00     0.023 A 
ATOM      2  C1  UNL d   1       1.709   0.293  -0.373  0.00  0.00     0.003 A 
ATOM      3  C2  UNL d   1       0.637  -0.005   0.472  0.00  0.00     0.048 A 
ATOM      4  C3  UNL d   1       0.071   1.002   1.252  0.00  0.00     0.023 A 
ATOM      5  C4  UNL d   1       0.569   2.305   1.194  0.00  0.00     0.048 A 
ATOM      6  C5  UNL d   1       1.641   2.598   0.349  0.00  0.00     0.003 A 
ATOM      7  I   UNL d   1      -1.523   0.561   2.510  0.00  0.00    -0.146 I 
ENDROOT
TORSDOF 0
ENDMDL
