MODEL 1
REMARK minimizedAffinity -0.101923347
REMARK minimizedRMSD -1
REMARK  0 active torsions:
REMARK  status: ('A' for Active; 'I' for Inactive)
ROOT
ATOM      1  C   UNL d   1       2.721   1.705  -0.803  0.00  0.00     0.023 A 
ATOM      2  C1  UNL d   1       1.456   2.250  -0.579  0.00  0.00     0.003 A 
ATOM      3  C2  UNL d   1       0.353   1.411  -0.407  0.00  0.00     0.048 A 
ATOM      4  C3  UNL d   1       0.522   0.028  -0.458  0.00  0.00     0.023 A 
ATOM      5  C4  UNL d   1       1.785  -0.522  -0.681  0.00  0.00     0.048 A 
ATOM      6  C5  UNL d   1       2.885   0.321  -0.853  0.00  0.00     0.003 A 
ATOM      7  I   UNL d   1      -1.118  -1.222  -0.202  0.00  0.00    -0.146 I 
ENDROOT
TORSDOF 0
ENDMDL
