MODEL 1
REMARK minimizedAffinity -2.2986052
REMARK minimizedRMSD -1
REMARK  0 active torsions:
REMARK  status: ('A' for Active; 'I' for Inactive)
ROOT
ATOM      1  C   UNL d   1       0.983   2.352   1.666  0.00  0.00     0.023 A 
ATOM      2  C1  UNL d   1       1.656   1.857   0.548  0.00  0.00     0.003 A 
ATOM      3  C2  UNL d   1       1.059   0.883  -0.254  0.00  0.00     0.048 A 
ATOM      4  C3  UNL d   1      -0.212   0.407   0.067  0.00  0.00     0.023 A 
ATOM      5  C4  UNL d   1      -0.890   0.899   1.184  0.00  0.00     0.048 A 
ATOM      6  C5  UNL d   1      -0.288   1.873   1.983  0.00  0.00     0.003 A 
ATOM      7  I   UNL d   1      -1.104  -1.043  -1.125  0.00  0.00    -0.146 I 
ENDROOT
TORSDOF 0
ENDMDL
