MODEL 1
REMARK minimizedAffinity -1.38501894
REMARK minimizedRMSD -1
REMARK  0 active torsions:
REMARK  status: ('A' for Active; 'I' for Inactive)
ROOT
ATOM      1  C   UNL d   1      -1.282  -1.539  -1.880  0.00  0.00     0.023 A 
ATOM      2  C1  UNL d   1      -1.354  -0.171  -2.147  0.00  0.00     0.003 A 
ATOM      3  C2  UNL d   1      -0.902   0.751  -1.201  0.00  0.00     0.048 A 
ATOM      4  C3  UNL d   1      -0.378   0.299   0.010  0.00  0.00     0.023 A 
ATOM      5  C4  UNL d   1      -0.302  -1.068   0.281  0.00  0.00     0.048 A 
ATOM      6  C5  UNL d   1      -0.756  -1.987  -0.668  0.00  0.00     0.003 A 
ATOM      7  I   UNL d   1       0.296   1.670   1.419  0.00  0.00    -0.146 I 
ENDROOT
TORSDOF 0
ENDMDL
