MODEL 1
REMARK minimizedAffinity -4.85118961
REMARK minimizedRMSD -1
REMARK  0 active torsions:
REMARK  status: ('A' for Active; 'I' for Inactive)
ROOT
ATOM      1  C   UNL d   1       1.075   2.661   1.139  0.00  0.00     0.023 A 
ATOM      2  C1  UNL d   1       1.673   2.035   0.044  0.00  0.00     0.003 A 
ATOM      3  C2  UNL d   1       1.205   0.795  -0.393  0.00  0.00     0.048 A 
ATOM      4  C3  UNL d   1       0.139   0.186   0.267  0.00  0.00     0.023 A 
ATOM      5  C4  UNL d   1      -0.463   0.808   1.362  0.00  0.00     0.048 A 
ATOM      6  C5  UNL d   1       0.009   2.049   1.797  0.00  0.00     0.003 A 
ATOM      7  I   UNL d   1      -0.560  -1.661  -0.382  0.00  0.00    -0.146 I 
ENDROOT
TORSDOF 0
ENDMDL
