MODEL 1
REMARK minimizedAffinity -3.36429763
REMARK minimizedRMSD -1
REMARK  0 active torsions:
REMARK  status: ('A' for Active; 'I' for Inactive)
ROOT
ATOM      1  C   UNL d   1       1.550   3.057   1.137  0.00  0.00     0.023 A 
ATOM      2  C1  UNL d   1       1.793   2.582  -0.151  0.00  0.00     0.003 A 
ATOM      3  C2  UNL d   1       1.345   1.313  -0.525  0.00  0.00     0.048 A 
ATOM      4  C3  UNL d   1       0.652   0.526   0.395  0.00  0.00     0.023 A 
ATOM      5  C4  UNL d   1       0.406   0.998   1.685  0.00  0.00     0.048 A 
ATOM      6  C5  UNL d   1       0.857   2.267   2.054  0.00  0.00     0.003 A 
ATOM      7  I   UNL d   1      -0.017  -1.362  -0.159  0.00  0.00    -0.146 I 
ENDROOT
TORSDOF 0
ENDMDL
