MODEL 1
REMARK minimizedAffinity -3.89814949
REMARK minimizedRMSD -1
REMARK  0 active torsions:
REMARK  status: ('A' for Active; 'I' for Inactive)
ROOT
ATOM      1  C   UNL d   1      -0.676  -1.587   0.060  0.00  0.00     0.023 A 
ATOM      2  C1  UNL d   1       0.565  -1.169  -0.421  0.00  0.00     0.003 A 
ATOM      3  C2  UNL d   1       1.044   0.104  -0.107  0.00  0.00     0.048 A 
ATOM      4  C3  UNL d   1       0.278   0.954   0.689  0.00  0.00     0.023 A 
ATOM      5  C4  UNL d   1      -0.964   0.540   1.174  0.00  0.00     0.048 A 
ATOM      6  C5  UNL d   1      -1.439  -0.733   0.856  0.00  0.00     0.003 A 
ATOM      7  I   UNL d   1       0.989   2.850   1.158  0.00  0.00    -0.146 I 
ENDROOT
TORSDOF 0
ENDMDL
