MODEL 1
REMARK minimizedAffinity -2.6463635
REMARK minimizedRMSD -1
REMARK  0 active torsions:
REMARK  status: ('A' for Active; 'I' for Inactive)
ROOT
ATOM      1  C   UNL d   1      -0.636   1.394   1.817  0.00  0.00     0.023 A 
ATOM      2  C1  UNL d   1       0.327   2.220   1.238  0.00  0.00     0.003 A 
ATOM      3  C2  UNL d   1       1.372   1.665   0.496  0.00  0.00     0.048 A 
ATOM      4  C3  UNL d   1       1.447   0.281   0.336  0.00  0.00     0.023 A 
ATOM      5  C4  UNL d   1       0.485  -0.550   0.913  0.00  0.00     0.048 A 
ATOM      6  C5  UNL d   1      -0.557   0.010   1.654  0.00  0.00     0.003 A 
ATOM      7  I   UNL d   1       3.000  -0.548  -0.768  0.00  0.00    -0.146 I 
ENDROOT
TORSDOF 0
ENDMDL
