MODEL 1
REMARK minimizedAffinity -4.34598637
REMARK minimizedRMSD -1
REMARK  0 active torsions:
REMARK  status: ('A' for Active; 'I' for Inactive)
ROOT
ATOM      1  C   UNL d   1      -0.442   0.713  -0.448  0.00  0.00     0.078 C 
ATOM      2  C1  UNL d   1       0.265  -0.435   0.208  0.00  0.00    -0.077 A 
ATOM      3  C2  UNL d   1      -0.412  -1.294   1.083  0.00  0.00    -0.001 A 
ATOM      4  C3  UNL d   1       0.261  -2.352   1.695  0.00  0.00     0.003 A 
ATOM      5  C4  UNL d   1       1.614  -2.562   1.439  0.00  0.00    -0.005 A 
ATOM      6  C5  UNL d   1       2.297  -1.711   0.572  0.00  0.00     0.003 A 
ATOM      7  C6  UNL d   1       1.626  -0.652  -0.041  0.00  0.00    -0.001 A 
ENDROOT
TORSDOF 0
ENDMDL
