MODEL 1
REMARK minimizedAffinity -5.82137871
REMARK minimizedRMSD -1
REMARK  0 active torsions:
REMARK  status: ('A' for Active; 'I' for Inactive)
ROOT
ATOM      1  C   UNL d   1      -0.689   0.637   0.088  0.00  0.00     0.078 C 
ATOM      2  C1  UNL d   1      -0.276  -0.535   0.929  0.00  0.00    -0.077 A 
ATOM      3  C2  UNL d   1      -0.963  -0.855   2.107  0.00  0.00    -0.001 A 
ATOM      4  C3  UNL d   1      -0.562  -1.942   2.884  0.00  0.00     0.003 A 
ATOM      5  C4  UNL d   1       0.527  -2.718   2.493  0.00  0.00    -0.005 A 
ATOM      6  C5  UNL d   1       1.218  -2.407   1.323  0.00  0.00     0.003 A 
ATOM      7  C6  UNL d   1       0.818  -1.319   0.545  0.00  0.00    -0.001 A 
ENDROOT
TORSDOF 0
ENDMDL
