MODEL 1
REMARK minimizedAffinity -5.05378103
REMARK minimizedRMSD -1
REMARK  0 active torsions:
REMARK  status: ('A' for Active; 'I' for Inactive)
ROOT
ATOM      1  C   UNL d   1       0.275   4.503  -3.366  0.00  0.00     0.078 C 
ATOM      2  C1  UNL d   1      -0.610   3.305  -3.187  0.00  0.00    -0.077 A 
ATOM      3  C2  UNL d   1      -0.890   2.449  -4.259  0.00  0.00    -0.001 A 
ATOM      4  C3  UNL d   1      -1.723   1.344  -4.081  0.00  0.00     0.003 A 
ATOM      5  C4  UNL d   1      -2.284   1.085  -2.832  0.00  0.00    -0.005 A 
ATOM      6  C5  UNL d   1      -2.013   1.932  -1.760  0.00  0.00     0.003 A 
ATOM      7  C6  UNL d   1      -1.180   3.038  -1.936  0.00  0.00    -0.001 A 
ENDROOT
TORSDOF 0
ENDMDL
