MODEL 1
REMARK minimizedAffinity -4.42816401
REMARK minimizedRMSD -1
REMARK  0 active torsions:
REMARK  status: ('A' for Active; 'I' for Inactive)
ROOT
ATOM      1  C   UNL d   1       1.587  -2.628   1.022  0.00  0.00     0.078 C 
ATOM      2  C1  UNL d   1       0.886  -1.370   0.602  0.00  0.00    -0.077 A 
ATOM      3  C2  UNL d   1      -0.412  -1.087   1.042  0.00  0.00    -0.001 A 
ATOM      4  C3  UNL d   1      -1.056   0.083   0.635  0.00  0.00     0.003 A 
ATOM      5  C4  UNL d   1      -0.409   0.978  -0.215  0.00  0.00    -0.005 A 
ATOM      6  C5  UNL d   1       0.882   0.703  -0.660  0.00  0.00     0.003 A 
ATOM      7  C6  UNL d   1       1.527  -0.466  -0.254  0.00  0.00    -0.001 A 
ENDROOT
TORSDOF 0
ENDMDL
