MODEL 1
REMARK minimizedAffinity -5.45794821
REMARK minimizedRMSD -1
REMARK  0 active torsions:
REMARK  status: ('A' for Active; 'I' for Inactive)
ROOT
ATOM      1  C   UNL d   1       0.763   5.567  -4.082  0.00  0.00     0.078 C 
ATOM      2  C1  UNL d   1       0.034   4.270  -3.896  0.00  0.00    -0.077 A 
ATOM      3  C2  UNL d   1      -0.239   3.433  -4.986  0.00  0.00    -0.001 A 
ATOM      4  C3  UNL d   1      -0.927   2.233  -4.799  0.00  0.00     0.003 A 
ATOM      5  C4  UNL d   1      -1.349   1.859  -3.525  0.00  0.00    -0.005 A 
ATOM      6  C5  UNL d   1      -1.084   2.686  -2.435  0.00  0.00     0.003 A 
ATOM      7  C6  UNL d   1      -0.396   3.887  -2.620  0.00  0.00    -0.001 A 
ENDROOT
TORSDOF 0
ENDMDL
