MODEL 1
REMARK minimizedAffinity -5.27589893
REMARK minimizedRMSD -1
REMARK  0 active torsions:
REMARK  status: ('A' for Active; 'I' for Inactive)
ROOT
ATOM      1  C   UNL d   1       0.202   3.922  -4.772  0.00  0.00     0.078 C 
ATOM      2  C1  UNL d   1      -0.723   3.125  -3.901  0.00  0.00    -0.077 A 
ATOM      3  C2  UNL d   1      -1.872   2.524  -4.429  0.00  0.00    -0.001 A 
ATOM      4  C3  UNL d   1      -2.728   1.793  -3.604  0.00  0.00     0.003 A 
ATOM      5  C4  UNL d   1      -2.445   1.658  -2.246  0.00  0.00    -0.005 A 
ATOM      6  C5  UNL d   1      -1.305   2.255  -1.712  0.00  0.00     0.003 A 
ATOM      7  C6  UNL d   1      -0.448   2.986  -2.535  0.00  0.00    -0.001 A 
ENDROOT
TORSDOF 0
ENDMDL
