MODEL 1
REMARK minimizedAffinity -4.56725597
REMARK minimizedRMSD -1
REMARK  0 active torsions:
REMARK  status: ('A' for Active; 'I' for Inactive)
ROOT
ATOM      1  C   UNL d   1       0.169   3.252  -4.696  0.00  0.00     0.078 C 
ATOM      2  C1  UNL d   1      -0.764   2.485  -3.807  0.00  0.00    -0.077 A 
ATOM      3  C2  UNL d   1      -1.910   1.868  -4.325  0.00  0.00    -0.001 A 
ATOM      4  C3  UNL d   1      -2.774   1.165  -3.484  0.00  0.00     0.003 A 
ATOM      5  C4  UNL d   1      -2.503   1.074  -2.121  0.00  0.00    -0.005 A 
ATOM      6  C5  UNL d   1      -1.367   1.686  -1.596  0.00  0.00     0.003 A 
ATOM      7  C6  UNL d   1      -0.501   2.390  -2.435  0.00  0.00    -0.001 A 
ENDROOT
TORSDOF 0
ENDMDL
