MODEL 1
REMARK minimizedAffinity -3.19084263
REMARK minimizedRMSD -1
REMARK  0 active torsions:
REMARK  status: ('A' for Active; 'I' for Inactive)
ROOT
ATOM      1  C   UNL d   1       0.031   4.388  -3.915  0.00  0.00     0.078 C 
ATOM      2  C1  UNL d   1      -0.855   3.337  -3.315  0.00  0.00    -0.077 A 
ATOM      3  C2  UNL d   1      -0.495   2.679  -2.133  0.00  0.00    -0.001 A 
ATOM      4  C3  UNL d   1      -1.324   1.696  -1.591  0.00  0.00     0.003 A 
ATOM      5  C4  UNL d   1      -2.519   1.361  -2.225  0.00  0.00    -0.005 A 
ATOM      6  C5  UNL d   1      -2.884   2.008  -3.403  0.00  0.00     0.003 A 
ATOM      7  C6  UNL d   1      -2.056   2.992  -3.947  0.00  0.00    -0.001 A 
ENDROOT
TORSDOF 0
ENDMDL
