MODEL 1
REMARK minimizedAffinity -4.99654818
REMARK minimizedRMSD -1
REMARK  0 active torsions:
REMARK  status: ('A' for Active; 'I' for Inactive)
ROOT
ATOM      1  C   UNL d   1       0.310   3.614  -4.428  0.00  0.00     0.078 C 
ATOM      2  C1  UNL d   1      -0.534   2.721  -3.569  0.00  0.00    -0.077 A 
ATOM      3  C2  UNL d   1      -1.660   2.073  -4.091  0.00  0.00    -0.001 A 
ATOM      4  C3  UNL d   1      -2.443   1.252  -3.277  0.00  0.00     0.003 A 
ATOM      5  C4  UNL d   1      -2.109   1.073  -1.936  0.00  0.00    -0.005 A 
ATOM      6  C5  UNL d   1      -0.991   1.715  -1.407  0.00  0.00     0.003 A 
ATOM      7  C6  UNL d   1      -0.208   2.537  -2.219  0.00  0.00    -0.001 A 
ENDROOT
TORSDOF 0
ENDMDL
