MODEL 1
REMARK minimizedAffinity -5.7987957
REMARK minimizedRMSD -1
REMARK  0 active torsions:
REMARK  status: ('A' for Active; 'I' for Inactive)
ROOT
ATOM      1  C   UNL d   1      -2.495   1.512  -2.204  0.00  0.00     0.078 C 
ATOM      2  C1  UNL d   1      -1.638   2.509  -2.925  0.00  0.00    -0.077 A 
ATOM      3  C2  UNL d   1      -1.737   2.676  -4.312  0.00  0.00    -0.001 A 
ATOM      4  C3  UNL d   1      -0.927   3.600  -4.972  0.00  0.00     0.003 A 
ATOM      5  C4  UNL d   1      -0.009   4.365  -4.254  0.00  0.00    -0.005 A 
ATOM      6  C5  UNL d   1       0.098   4.205  -2.874  0.00  0.00     0.003 A 
ATOM      7  C6  UNL d   1      -0.712   3.281  -2.212  0.00  0.00    -0.001 A 
ENDROOT
TORSDOF 0
ENDMDL
