MODEL 1
REMARK minimizedAffinity -4.35658741
REMARK minimizedRMSD -1
REMARK  0 active torsions:
REMARK  status: ('A' for Active; 'I' for Inactive)
ROOT
ATOM      1  C   UNL d   1       1.469   5.839  -4.449  0.00  0.00     0.078 C 
ATOM      2  C1  UNL d   1       0.666   4.613  -4.132  0.00  0.00    -0.077 A 
ATOM      3  C2  UNL d   1       0.010   3.899  -5.142  0.00  0.00    -0.001 A 
ATOM      4  C3  UNL d   1      -0.742   2.765  -4.831  0.00  0.00     0.003 A 
ATOM      5  C4  UNL d   1      -0.847   2.336  -3.510  0.00  0.00    -0.005 A 
ATOM      6  C5  UNL d   1      -0.200   3.041  -2.497  0.00  0.00     0.003 A 
ATOM      7  C6  UNL d   1       0.553   4.175  -2.806  0.00  0.00    -0.001 A 
ENDROOT
TORSDOF 0
ENDMDL
