MODEL 1
REMARK minimizedAffinity -3.37544775
REMARK minimizedRMSD -1
REMARK  0 active torsions:
REMARK  status: ('A' for Active; 'I' for Inactive)
ROOT
ATOM      1  C   UNL d   1      -0.787  -1.133   3.391  0.00  0.00     0.078 C 
ATOM      2  C1  UNL d   1       0.098  -0.963   2.193  0.00  0.00    -0.077 A 
ATOM      3  C2  UNL d   1      -0.230  -0.058   1.176  0.00  0.00    -0.001 A 
ATOM      4  C3  UNL d   1       0.598   0.083   0.062  0.00  0.00     0.003 A 
ATOM      5  C4  UNL d   1       1.760  -0.679  -0.047  0.00  0.00    -0.005 A 
ATOM      6  C5  UNL d   1       2.094  -1.583   0.959  0.00  0.00     0.003 A 
ATOM      7  C6  UNL d   1       1.267  -1.726   2.074  0.00  0.00    -0.001 A 
ENDROOT
TORSDOF 0
ENDMDL
