MODEL 1
REMARK minimizedAffinity -2.41643453
REMARK minimizedRMSD -1
REMARK  0 active torsions:
REMARK  status: ('A' for Active; 'I' for Inactive)
ROOT
ATOM      1  C   UNL d   1      -1.380   0.147   1.670  0.00  0.00     0.078 C 
ATOM      2  C1  UNL d   1      -0.017  -0.205   1.155  0.00  0.00    -0.077 A 
ATOM      3  C2  UNL d   1       0.787  -1.139   1.820  0.00  0.00    -0.001 A 
ATOM      4  C3  UNL d   1       2.058  -1.449   1.334  0.00  0.00     0.003 A 
ATOM      5  C4  UNL d   1       2.537  -0.831   0.181  0.00  0.00    -0.005 A 
ATOM      6  C5  UNL d   1       1.745   0.101  -0.487  0.00  0.00     0.003 A 
ATOM      7  C6  UNL d   1       0.474   0.413  -0.002  0.00  0.00    -0.001 A 
ENDROOT
TORSDOF 0
ENDMDL
