MODEL 1
REMARK minimizedAffinity -3.28334522
REMARK minimizedRMSD -1
REMARK  0 active torsions:
REMARK  status: ('A' for Active; 'I' for Inactive)
ROOT
ATOM      1  C   UNL d   1      -0.694   0.660   0.067  0.00  0.00     0.078 C 
ATOM      2  C1  UNL d   1      -1.205   1.077  -1.280  0.00  0.00    -0.077 A 
ATOM      3  C2  UNL d   1      -2.499   0.742  -1.697  0.00  0.00    -0.001 A 
ATOM      4  C3  UNL d   1      -2.958   1.128  -2.957  0.00  0.00     0.003 A 
ATOM      5  C4  UNL d   1      -2.128   1.851  -3.812  0.00  0.00    -0.005 A 
ATOM      6  C5  UNL d   1      -0.838   2.188  -3.407  0.00  0.00     0.003 A 
ATOM      7  C6  UNL d   1      -0.378   1.802  -2.147  0.00  0.00    -0.001 A 
ENDROOT
TORSDOF 0
ENDMDL
