MODEL 1
REMARK minimizedAffinity 4.81546736
REMARK minimizedRMSD -1
REMARK  0 active torsions:
REMARK  status: ('A' for Active; 'I' for Inactive)
ROOT
ATOM      1  C   UNL d   1       0.244  -2.624  -0.006  0.00  0.00     0.077 C 
ATOM      2  C1  UNL d   1       1.726  -2.836  -0.096  0.00  0.00    -0.074 A 
ATOM      3  C2  UNL d   1       2.612  -1.756  -0.041  0.00  0.00    -0.005 A 
ATOM      4  C3  UNL d   1       3.988  -1.970  -0.117  0.00  0.00     0.006 A 
ATOM      5  C4  UNL d   1       4.492  -3.265  -0.248  0.00  0.00    -0.005 A 
ATOM      6  C5  UNL d   1       3.621  -4.358  -0.305  0.00  0.00    -0.074 A 
ATOM      7  C6  UNL d   1       4.146  -5.757  -0.436  0.00  0.00     0.077 C 
ATOM      8  C7  UNL d   1       2.240  -4.135  -0.221  0.00  0.00    -0.001 A 
ENDROOT
TORSDOF 0
ENDMDL
