MODEL 1
REMARK minimizedAffinity 2.15784883
REMARK minimizedRMSD -1
REMARK  0 active torsions:
REMARK  status: ('A' for Active; 'I' for Inactive)
ROOT
ATOM      1  C   UNL d   1       3.869  -0.802   2.082  0.00  0.00     0.077 C 
ATOM      2  C1  UNL d   1       2.391  -0.803   1.828  0.00  0.00    -0.074 A 
ATOM      3  C2  UNL d   1       1.485  -0.526   2.857  0.00  0.00    -0.005 A 
ATOM      4  C3  UNL d   1       0.113  -0.521   2.603  0.00  0.00     0.006 A 
ATOM      5  C4  UNL d   1      -0.365  -0.791   1.320  0.00  0.00    -0.005 A 
ATOM      6  C5  UNL d   1       0.526  -1.069   0.279  0.00  0.00    -0.074 A 
ATOM      7  C6  UNL d   1       0.028  -1.352  -1.107  0.00  0.00     0.077 C 
ATOM      8  C7  UNL d   1       1.903  -1.066   0.540  0.00  0.00    -0.001 A 
ENDROOT
TORSDOF 0
ENDMDL
