MODEL 1
REMARK minimizedAffinity -0.283068001
REMARK minimizedRMSD -1
REMARK  0 active torsions:
REMARK  status: ('A' for Active; 'I' for Inactive)
ROOT
ATOM      1  C   UNL d   1       2.382   0.328   1.086  0.00  0.00     0.077 C 
ATOM      2  C1  UNL d   1       1.619  -0.903   0.697  0.00  0.00    -0.074 A 
ATOM      3  C2  UNL d   1       2.268  -1.995   0.111  0.00  0.00    -0.005 A 
ATOM      4  C3  UNL d   1       1.547  -3.137  -0.237  0.00  0.00     0.006 A 
ATOM      5  C4  UNL d   1       0.173  -3.199  -0.003  0.00  0.00    -0.005 A 
ATOM      6  C5  UNL d   1      -0.492  -2.118   0.583  0.00  0.00    -0.074 A 
ATOM      7  C6  UNL d   1      -1.967  -2.172   0.851  0.00  0.00     0.077 C 
ATOM      8  C7  UNL d   1       0.240  -0.976   0.936  0.00  0.00    -0.001 A 
ENDROOT
TORSDOF 0
ENDMDL
