MODEL 1
REMARK minimizedAffinity -1.50712442
REMARK minimizedRMSD -1
REMARK  0 active torsions:
REMARK  status: ('A' for Active; 'I' for Inactive)
ROOT
ATOM      1  C   UNL d   1       3.007   5.235   2.488  0.00  0.00     0.077 C 
ATOM      2  C1  UNL d   1       3.946   5.257   1.318  0.00  0.00    -0.074 A 
ATOM      3  C2  UNL d   1       5.131   5.997   1.362  0.00  0.00    -0.005 A 
ATOM      4  C3  UNL d   1       5.999   6.000   0.270  0.00  0.00     0.006 A 
ATOM      5  C4  UNL d   1       5.691   5.263  -0.875  0.00  0.00    -0.005 A 
ATOM      6  C5  UNL d   1       4.510   4.516  -0.936  0.00  0.00    -0.074 A 
ATOM      7  C6  UNL d   1       4.168   3.712  -2.155  0.00  0.00     0.077 C 
ATOM      8  C7  UNL d   1       3.646   4.513   0.168  0.00  0.00    -0.001 A 
ENDROOT
TORSDOF 0
ENDMDL
