MODEL 1
REMARK minimizedAffinity -1.4890238
REMARK minimizedRMSD -1
REMARK  0 active torsions:
REMARK  status: ('A' for Active; 'I' for Inactive)
ROOT
ATOM      1  C   UNL d   1       4.393   5.249   2.996  0.00  0.00     0.077 C 
ATOM      2  C1  UNL d   1       4.125   5.400   1.529  0.00  0.00    -0.074 A 
ATOM      3  C2  UNL d   1       2.885   5.855   1.067  0.00  0.00    -0.005 A 
ATOM      4  C3  UNL d   1       2.654   6.000  -0.301  0.00  0.00     0.006 A 
ATOM      5  C4  UNL d   1       3.658   5.692  -1.220  0.00  0.00    -0.005 A 
ATOM      6  C5  UNL d   1       4.904   5.237  -0.777  0.00  0.00    -0.074 A 
ATOM      7  C6  UNL d   1       5.997   4.911  -1.750  0.00  0.00     0.077 C 
ATOM      8  C7  UNL d   1       5.131   5.100   0.600  0.00  0.00    -0.001 A 
ENDROOT
TORSDOF 0
ENDMDL
