MODEL 1
REMARK minimizedAffinity 0.655373693
REMARK minimizedRMSD -1
REMARK  0 active torsions:
REMARK  status: ('A' for Active; 'I' for Inactive)
ROOT
ATOM      1  C   UNL d   1       2.249   6.000   1.892  0.00  0.00     0.077 C 
ATOM      2  C1  UNL d   1       3.450   5.446   1.185  0.00  0.00    -0.074 A 
ATOM      3  C2  UNL d   1       4.719   6.000   1.381  0.00  0.00    -0.005 A 
ATOM      4  C3  UNL d   1       5.828   5.468   0.724  0.00  0.00     0.006 A 
ATOM      5  C4  UNL d   1       5.680   4.378  -0.135  0.00  0.00    -0.005 A 
ATOM      6  C5  UNL d   1       4.419   3.810  -0.343  0.00  0.00    -0.074 A 
ATOM      7  C6  UNL d   1       4.244   2.633  -1.256  0.00  0.00     0.077 C 
ATOM      8  C7  UNL d   1       3.310   4.346   0.326  0.00  0.00    -0.001 A 
ENDROOT
TORSDOF 0
ENDMDL
