MODEL 1
REMARK minimizedAffinity 4.79389763
REMARK minimizedRMSD -1
REMARK  0 active torsions:
REMARK  status: ('A' for Active; 'I' for Inactive)
ROOT
ATOM      1  C   UNL d   1       1.730   3.644  -4.915  0.00  0.00     0.077 C 
ATOM      2  C1  UNL d   1       2.534   3.008  -3.820  0.00  0.00    -0.074 A 
ATOM      3  C2  UNL d   1       2.780   1.631  -3.816  0.00  0.00    -0.005 A 
ATOM      4  C3  UNL d   1       3.538   1.056  -2.796  0.00  0.00     0.006 A 
ATOM      5  C4  UNL d   1       4.056   1.850  -1.772  0.00  0.00    -0.005 A 
ATOM      6  C5  UNL d   1       3.821   3.228  -1.760  0.00  0.00    -0.074 A 
ATOM      7  C6  UNL d   1       4.379   4.097  -0.673  0.00  0.00     0.077 C 
ATOM      8  C7  UNL d   1       3.065   3.800  -2.793  0.00  0.00    -0.001 A 
ENDROOT
TORSDOF 0
ENDMDL
