MODEL 1
REMARK minimizedAffinity -5.61650848
REMARK minimizedRMSD -1
REMARK  0 active torsions:
REMARK  status: ('A' for Active; 'I' for Inactive)
ROOT
ATOM      1  C   UNL d   1      -0.912  -3.027  -0.184  0.00  0.00     0.077 C 
ATOM      2  C1  UNL d   1      -1.127  -1.695   0.470  0.00  0.00    -0.074 A 
ATOM      3  C2  UNL d   1      -0.200  -1.186   1.386  0.00  0.00    -0.005 A 
ATOM      4  C3  UNL d   1      -0.409   0.059   1.979  0.00  0.00     0.006 A 
ATOM      5  C4  UNL d   1      -1.545   0.806   1.664  0.00  0.00    -0.005 A 
ATOM      6  C5  UNL d   1      -2.482   0.314   0.750  0.00  0.00    -0.074 A 
ATOM      7  C6  UNL d   1      -3.703   1.108   0.393  0.00  0.00     0.077 C 
ATOM      8  C7  UNL d   1      -2.261  -0.935   0.153  0.00  0.00    -0.001 A 
ENDROOT
TORSDOF 0
ENDMDL
