MODEL 1
REMARK minimizedAffinity -2.93806291
REMARK minimizedRMSD -1
REMARK  0 active torsions:
REMARK  status: ('A' for Active; 'I' for Inactive)
ROOT
ATOM      1  C   UNL d   1      -0.024  -0.251   2.097  0.00  0.00     0.077 C 
ATOM      2  C1  UNL d   1       0.584  -1.324   1.243  0.00  0.00    -0.074 A 
ATOM      3  C2  UNL d   1      -0.157  -2.448   0.865  0.00  0.00    -0.005 A 
ATOM      4  C3  UNL d   1       0.420  -3.432   0.062  0.00  0.00     0.006 A 
ATOM      5  C4  UNL d   1       1.740  -3.303  -0.370  0.00  0.00    -0.005 A 
ATOM      6  C5  UNL d   1       2.496  -2.185  -0.003  0.00  0.00    -0.074 A 
ATOM      7  C6  UNL d   1       3.913  -2.025  -0.466  0.00  0.00     0.077 C 
ATOM      8  C7  UNL d   1       1.908  -1.197   0.798  0.00  0.00    -0.001 A 
ENDROOT
TORSDOF 0
ENDMDL
