MODEL 1
REMARK minimizedAffinity 0.762119114
REMARK minimizedRMSD -1
REMARK  0 active torsions:
REMARK  status: ('A' for Active; 'I' for Inactive)
ROOT
ATOM      1  C   UNL d   1       1.369  -0.073   1.551  0.00  0.00     0.077 C 
ATOM      2  C1  UNL d   1       1.251  -1.396   0.855  0.00  0.00    -0.074 A 
ATOM      3  C2  UNL d   1       0.068  -1.765   0.206  0.00  0.00    -0.005 A 
ATOM      4  C3  UNL d   1      -0.023  -2.995  -0.445  0.00  0.00     0.006 A 
ATOM      5  C4  UNL d   1       1.065  -3.867  -0.454  0.00  0.00    -0.005 A 
ATOM      6  C5  UNL d   1       2.256  -3.516   0.188  0.00  0.00    -0.074 A 
ATOM      7  C6  UNL d   1       3.439  -4.438   0.180  0.00  0.00     0.077 C 
ATOM      8  C7  UNL d   1       2.343  -2.275   0.835  0.00  0.00    -0.001 A 
ENDROOT
TORSDOF 0
ENDMDL
