MODEL 1
REMARK minimizedAffinity 0.869166493
REMARK minimizedRMSD -1
REMARK  0 active torsions:
REMARK  status: ('A' for Active; 'I' for Inactive)
ROOT
ATOM      1  C   UNL d   1       1.138  -0.164   3.651  0.00  0.00     0.077 C 
ATOM      2  C1  UNL d   1       0.661  -0.826   2.393  0.00  0.00    -0.074 A 
ATOM      3  C2  UNL d   1      -0.299  -0.216   1.580  0.00  0.00    -0.005 A 
ATOM      4  C3  UNL d   1      -0.726  -0.839   0.407  0.00  0.00     0.006 A 
ATOM      5  C4  UNL d   1      -0.199  -2.077   0.037  0.00  0.00    -0.005 A 
ATOM      6  C5  UNL d   1       0.762  -2.702   0.838  0.00  0.00    -0.074 A 
ATOM      7  C6  UNL d   1       1.346  -4.028   0.450  0.00  0.00     0.077 C 
ATOM      8  C7  UNL d   1       1.191  -2.066   2.011  0.00  0.00    -0.001 A 
ENDROOT
TORSDOF 0
ENDMDL
