MODEL 1
REMARK minimizedAffinity 5.30324984
REMARK minimizedRMSD -1
REMARK  0 active torsions:
REMARK  status: ('A' for Active; 'I' for Inactive)
ROOT
ATOM      1  C   UNL d   1       1.497  -4.413   0.235  0.00  0.00     0.077 C 
ATOM      2  C1  UNL d   1       1.055  -3.026   0.599  0.00  0.00    -0.074 A 
ATOM      3  C2  UNL d   1      -0.238  -2.785   1.073  0.00  0.00    -0.005 A 
ATOM      4  C3  UNL d   1      -0.632  -1.492   1.416  0.00  0.00     0.006 A 
ATOM      5  C4  UNL d   1       0.263  -0.428   1.289  0.00  0.00    -0.005 A 
ATOM      6  C5  UNL d   1       1.561  -0.650   0.817  0.00  0.00    -0.074 A 
ATOM      7  C6  UNL d   1       2.537   0.480   0.684  0.00  0.00     0.077 C 
ATOM      8  C7  UNL d   1       1.950  -1.954   0.481  0.00  0.00    -0.001 A 
ENDROOT
TORSDOF 0
ENDMDL
