MODEL 1
REMARK minimizedAffinity 1.23112416
REMARK minimizedRMSD -1
REMARK  2 active torsions:
REMARK  status: ('A' for Active; 'I' for Inactive)
REMARK    1  A    between atoms: C1_2  and  C2_3 
REMARK    2  A    between atoms: C2_3  and  C3_4 
ROOT
ATOM      1  C3  UNL d   1       0.332   0.162   0.174  0.00  0.00    -0.075 A 
ATOM      2  C4  UNL d   1       1.050  -1.015   0.429  0.00  0.00     0.002 A 
ATOM      3  C5  UNL d   1       0.969  -1.638   1.675  0.00  0.00     0.002 A 
ATOM      4  C6  UNL d   1       0.179  -1.088   2.682  0.00  0.00    -0.004 A 
ATOM      5  C7  UNL d   1      -0.526   0.090   2.445  0.00  0.00     0.002 A 
ATOM      6  C8  UNL d   1      -0.450   0.713   1.198  0.00  0.00     0.002 A 
ENDROOT
BRANCH   1   7
ATOM      7  C2  UNL d   1       0.393   0.826  -1.181  0.00  0.00     0.056 C 
BRANCH   7   8
ATOM      8  C1  UNL d   1      -0.904   1.532  -1.588  0.00  0.00     0.007 C 
ATOM      9  C   UNL d   1      -0.670   2.782  -2.427  0.00  0.00     0.009 C 
ENDBRANCH   7   8
ENDBRANCH   1   7
TORSDOF 2
ENDMDL
