MODEL 1
REMARK minimizedAffinity -6.37680578
REMARK minimizedRMSD -1
REMARK  2 active torsions:
REMARK  status: ('A' for Active; 'I' for Inactive)
REMARK    1  A    between atoms: C1_2  and  C2_3 
REMARK    2  A    between atoms: C2_3  and  C3_4 
ROOT
ATOM      1  C3  UNL d   1       0.550   0.064   0.631  0.00  0.00    -0.075 A 
ATOM      2  C4  UNL d   1       1.562  -0.841   0.278  0.00  0.00     0.002 A 
ATOM      3  C5  UNL d   1       2.087  -1.722   1.224  0.00  0.00     0.002 A 
ATOM      4  C6  UNL d   1       1.615  -1.703   2.535  0.00  0.00    -0.004 A 
ATOM      5  C7  UNL d   1       0.622  -0.797   2.901  0.00  0.00     0.002 A 
ATOM      6  C8  UNL d   1       0.092   0.082   1.955  0.00  0.00     0.002 A 
ENDROOT
BRANCH   1   7
ATOM      7  C2  UNL d   1      -0.042   0.999  -0.396  0.00  0.00     0.056 C 
BRANCH   7   8
ATOM      8  C1  UNL d   1      -0.407   0.321  -1.721  0.00  0.00     0.007 C 
ATOM      9  C   UNL d   1      -1.286   1.185  -2.615  0.00  0.00     0.009 C 
ENDBRANCH   7   8
ENDBRANCH   1   7
TORSDOF 2
ENDMDL
