MODEL 1
REMARK minimizedAffinity -2.95502114
REMARK minimizedRMSD -1
REMARK  2 active torsions:
REMARK  status: ('A' for Active; 'I' for Inactive)
REMARK    1  A    between atoms: C1_2  and  C2_3 
REMARK    2  A    between atoms: C2_3  and  C3_4 
ROOT
ATOM      1  C3  UNL d   1       0.313  -0.711   0.273  0.00  0.00    -0.075 A 
ATOM      2  C4  UNL d   1      -0.275  -0.640   1.544  0.00  0.00     0.002 A 
ATOM      3  C5  UNL d   1       0.248  -1.375   2.608  0.00  0.00     0.002 A 
ATOM      4  C6  UNL d   1       1.355  -2.198   2.413  0.00  0.00    -0.004 A 
ATOM      5  C7  UNL d   1       1.936  -2.290   1.150  0.00  0.00     0.002 A 
ATOM      6  C8  UNL d   1       1.418  -1.551   0.085  0.00  0.00     0.002 A 
ENDROOT
BRANCH   1   7
ATOM      7  C2  UNL d   1      -0.230   0.105  -0.876  0.00  0.00     0.056 C 
BRANCH   7   8
ATOM      8  C1  UNL d   1       0.195   1.577  -0.851  0.00  0.00     0.007 C 
ATOM      9  C   UNL d   1      -0.075   2.303  -2.162  0.00  0.00     0.009 C 
ENDBRANCH   7   8
ENDBRANCH   1   7
TORSDOF 2
ENDMDL
