MODEL 1
REMARK minimizedAffinity -3.68323016
REMARK minimizedRMSD -1
REMARK  2 active torsions:
REMARK  status: ('A' for Active; 'I' for Inactive)
REMARK    1  A    between atoms: C1_2  and  C2_3 
REMARK    2  A    between atoms: C2_3  and  C3_4 
ROOT
ATOM      1  C3  UNL d   1      -0.438   0.180  -0.532  0.00  0.00    -0.075 A 
ATOM      2  C4  UNL d   1       0.555  -0.569   0.117  0.00  0.00     0.002 A 
ATOM      3  C5  UNL d   1       0.510  -0.758   1.499  0.00  0.00     0.002 A 
ATOM      4  C6  UNL d   1      -0.519  -0.194   2.249  0.00  0.00    -0.004 A 
ATOM      5  C7  UNL d   1      -1.502   0.565   1.617  0.00  0.00     0.002 A 
ATOM      6  C8  UNL d   1      -1.462   0.752   0.235  0.00  0.00     0.002 A 
ENDROOT
BRANCH   1   7
ATOM      7  C2  UNL d   1      -0.412   0.364  -2.030  0.00  0.00     0.056 C 
BRANCH   7   8
ATOM      8  C1  UNL d   1      -1.221   1.567  -2.525  0.00  0.00     0.007 C 
ATOM      9  C   UNL d   1      -0.351   2.749  -2.932  0.00  0.00     0.009 C 
ENDBRANCH   7   8
ENDBRANCH   1   7
TORSDOF 2
ENDMDL
