MODEL 1
REMARK minimizedAffinity -2.34677672
REMARK minimizedRMSD -1
REMARK  2 active torsions:
REMARK  status: ('A' for Active; 'I' for Inactive)
REMARK    1  A    between atoms: C1_2  and  C2_3 
REMARK    2  A    between atoms: C2_3  and  C3_4 
ROOT
ATOM      1  C3  UNL d   1      -0.574   0.136  -0.866  0.00  0.00    -0.075 A 
ATOM      2  C4  UNL d   1       0.339  -0.926  -0.804  0.00  0.00     0.002 A 
ATOM      3  C5  UNL d   1       0.653  -1.520   0.419  0.00  0.00     0.002 A 
ATOM      4  C6  UNL d   1       0.066  -1.054   1.593  0.00  0.00    -0.004 A 
ATOM      5  C7  UNL d   1      -0.831   0.011   1.545  0.00  0.00     0.002 A 
ATOM      6  C8  UNL d   1      -1.149   0.605   0.323  0.00  0.00     0.002 A 
ENDROOT
BRANCH   1   7
ATOM      7  C2  UNL d   1      -0.940   0.764  -2.190  0.00  0.00     0.056 C 
BRANCH   7   8
ATOM      8  C1  UNL d   1      -0.992   2.295  -2.161  0.00  0.00     0.007 C 
ATOM      9  C   UNL d   1      -0.051   2.947  -3.165  0.00  0.00     0.009 C 
ENDBRANCH   7   8
ENDBRANCH   1   7
TORSDOF 2
ENDMDL
