MODEL 1
REMARK minimizedAffinity -5.81145191
REMARK minimizedRMSD -1
REMARK  2 active torsions:
REMARK  status: ('A' for Active; 'I' for Inactive)
REMARK    1  A    between atoms: C1_2  and  C2_3 
REMARK    2  A    between atoms: C2_3  and  C3_4 
ROOT
ATOM      1  C3  UNL d   1       0.372   0.554   0.090  0.00  0.00    -0.075 A 
ATOM      2  C4  UNL d   1      -0.511   0.273   1.143  0.00  0.00     0.002 A 
ATOM      3  C5  UNL d   1      -0.036  -0.257   2.343  0.00  0.00     0.002 A 
ATOM      4  C6  UNL d   1       1.323  -0.521   2.502  0.00  0.00    -0.004 A 
ATOM      5  C7  UNL d   1       2.206  -0.261   1.457  0.00  0.00     0.002 A 
ATOM      6  C8  UNL d   1       1.734   0.273   0.256  0.00  0.00     0.002 A 
ENDROOT
BRANCH   1   7
ATOM      7  C2  UNL d   1      -0.132   1.155  -1.200  0.00  0.00     0.056 C 
BRANCH   7   8
ATOM      8  C1  UNL d   1       0.437   2.545  -1.505  0.00  0.00     0.007 C 
ATOM      9  C   UNL d   1      -0.632   3.562  -1.883  0.00  0.00     0.009 C 
ENDBRANCH   7   8
ENDBRANCH   1   7
TORSDOF 2
ENDMDL
