MODEL 1
REMARK minimizedAffinity 1.43913245
REMARK minimizedRMSD -1
REMARK  0 active torsions:
REMARK  status: ('A' for Active; 'I' for Inactive)
ROOT
ATOM      1  C   UNL d   1       1.166  -5.997  -5.267  0.00  0.00     0.020 A 
ATOM      2  C1  UNL d   1      -0.048  -5.995  -5.951  0.00  0.00     0.020 A 
ATOM      3  C2  UNL d   1      -1.250  -5.993  -5.241  0.00  0.00     0.034 A 
ATOM      4  C3  UNL d   1      -1.241  -5.994  -3.841  0.00  0.00     0.017 A 
ATOM      5  C4  UNL d   1      -0.021  -5.997  -3.155  0.00  0.00     0.017 A 
ATOM      6  C5  UNL d   1       1.180  -5.998  -3.871  0.00  0.00     0.034 A 
ATOM      7 Cl   UNL d   1       0.072  -5.998  -1.429  0.00  0.00    -0.070 Cl
ATOM      8 Cl1  UNL d   1      -2.765  -5.992  -3.027  0.00  0.00    -0.070 Cl
ENDROOT
TORSDOF 0
ENDMDL
