MODEL 1
REMARK minimizedAffinity -0.375899851
REMARK minimizedRMSD -1
REMARK  0 active torsions:
REMARK  status: ('A' for Active; 'I' for Inactive)
ROOT
ATOM      1  C   UNL d   1      -3.057  -5.983  -4.016  0.00  0.00     0.020 A 
ATOM      2  C1  UNL d   1      -2.712  -5.990  -2.665  0.00  0.00     0.020 A 
ATOM      3  C2  UNL d   1      -1.368  -5.993  -2.288  0.00  0.00     0.034 A 
ATOM      4  C3  UNL d   1      -0.363  -5.990  -3.262  0.00  0.00     0.017 A 
ATOM      5  C4  UNL d   1      -0.710  -5.984  -4.618  0.00  0.00     0.017 A 
ATOM      6  C5  UNL d   1      -2.058  -5.980  -4.990  0.00  0.00     0.034 A 
ATOM      7 Cl   UNL d   1       0.473  -5.979  -5.878  0.00  0.00    -0.070 Cl
ATOM      8 Cl1  UNL d   1       1.279  -5.995  -2.724  0.00  0.00    -0.070 Cl
ENDROOT
TORSDOF 0
ENDMDL
