MODEL 1
REMARK minimizedAffinity 0.00499414839
REMARK minimizedRMSD -1
REMARK  0 active torsions:
REMARK  status: ('A' for Active; 'I' for Inactive)
ROOT
ATOM      1  C   UNL d   1      -2.157  -5.995  -5.451  0.00  0.00     0.020 A 
ATOM      2  C1  UNL d   1      -2.403  -6.000  -4.079  0.00  0.00     0.020 A 
ATOM      3  C2  UNL d   1      -1.336  -5.999  -3.178  0.00  0.00     0.034 A 
ATOM      4  C3  UNL d   1      -0.017  -5.994  -3.649  0.00  0.00     0.017 A 
ATOM      5  C4  UNL d   1       0.229  -5.989  -5.027  0.00  0.00     0.017 A 
ATOM      6  C5  UNL d   1      -0.844  -5.989  -5.924  0.00  0.00     0.034 A 
ATOM      7 Cl   UNL d   1       1.828  -5.982  -5.683  0.00  0.00    -0.070 Cl
ATOM      8 Cl1  UNL d   1       1.254  -5.993  -2.478  0.00  0.00    -0.070 Cl
ENDROOT
TORSDOF 0
ENDMDL
