MODEL 1
REMARK minimizedAffinity 7.99019957
REMARK minimizedRMSD -1
REMARK  0 active torsions:
REMARK  status: ('A' for Active; 'I' for Inactive)
ROOT
ATOM      1  C   UNL d   1      -0.352  -5.960  -5.998  0.00  0.00     0.020 A 
ATOM      2  C1  UNL d   1       0.981  -5.960  -5.590  0.00  0.00     0.020 A 
ATOM      3  C2  UNL d   1       1.295  -5.973  -4.229  0.00  0.00     0.034 A 
ATOM      4  C3  UNL d   1       0.274  -5.985  -3.271  0.00  0.00     0.017 A 
ATOM      5  C4  UNL d   1      -1.064  -5.984  -3.682  0.00  0.00     0.017 A 
ATOM      6  C5  UNL d   1      -1.372  -5.972  -5.046  0.00  0.00     0.034 A 
ATOM      7 Cl   UNL d   1      -2.378  -5.999  -2.560  0.00  0.00    -0.070 Cl
ATOM      8 Cl1  UNL d   1       0.734  -6.000  -1.606  0.00  0.00    -0.070 Cl
ENDROOT
TORSDOF 0
ENDMDL
