MODEL 1
REMARK minimizedAffinity 3.04349089
REMARK minimizedRMSD -1
REMARK  0 active torsions:
REMARK  status: ('A' for Active; 'I' for Inactive)
ROOT
ATOM      1  C   UNL d   1      -1.798  -5.983  -4.836  0.00  0.00     0.020 A 
ATOM      2  C1  UNL d   1      -0.949  -5.994  -5.942  0.00  0.00     0.020 A 
ATOM      3  C2  UNL d   1       0.436  -5.999  -5.759  0.00  0.00     0.034 A 
ATOM      4  C3  UNL d   1       0.975  -5.992  -4.467  0.00  0.00     0.017 A 
ATOM      5  C4  UNL d   1       0.121  -5.981  -3.358  0.00  0.00     0.017 A 
ATOM      6  C5  UNL d   1      -1.264  -5.976  -3.547  0.00  0.00     0.034 A 
ATOM      7 Cl   UNL d   1       0.712  -5.973  -1.734  0.00  0.00    -0.070 Cl
ATOM      8 Cl1  UNL d   1       2.696  -5.999  -4.315  0.00  0.00    -0.070 Cl
ENDROOT
TORSDOF 0
ENDMDL
