MODEL 1
REMARK minimizedAffinity 2.21554255
REMARK minimizedRMSD -1
REMARK  0 active torsions:
REMARK  status: ('A' for Active; 'I' for Inactive)
ROOT
ATOM      1  C   UNL d   1      -0.817  -5.994  -5.946  0.00  0.00     0.020 A 
ATOM      2  C1  UNL d   1       0.489  -5.994  -5.458  0.00  0.00     0.020 A 
ATOM      3  C2  UNL d   1       0.720  -5.995  -4.081  0.00  0.00     0.034 A 
ATOM      4  C3  UNL d   1      -0.357  -5.996  -3.186  0.00  0.00     0.017 A 
ATOM      5  C4  UNL d   1      -1.668  -5.996  -3.677  0.00  0.00     0.017 A 
ATOM      6  C5  UNL d   1      -1.893  -5.995  -5.057  0.00  0.00     0.034 A 
ATOM      7 Cl   UNL d   1      -3.047  -5.997  -2.636  0.00  0.00    -0.070 Cl
ATOM      8 Cl1  UNL d   1       0.002  -5.998  -1.496  0.00  0.00    -0.070 Cl
ENDROOT
TORSDOF 0
ENDMDL
