MODEL 1
REMARK minimizedAffinity 1.50293899
REMARK minimizedRMSD -1
REMARK  0 active torsions:
REMARK  status: ('A' for Active; 'I' for Inactive)
ROOT
ATOM      1  C   UNL d   1      -4.880  -5.994  -3.180  0.00  0.00     0.020 A 
ATOM      2  C1  UNL d   1      -5.945  -5.995  -2.280  0.00  0.00     0.020 A 
ATOM      3  C2  UNL d   1      -5.697  -5.997  -0.906  0.00  0.00     0.034 A 
ATOM      4  C3  UNL d   1      -4.382  -5.998  -0.428  0.00  0.00     0.017 A 
ATOM      5  C4  UNL d   1      -3.314  -5.997  -1.332  0.00  0.00     0.017 A 
ATOM      6  C5  UNL d   1      -3.568  -5.995  -2.707  0.00  0.00     0.034 A 
ATOM      7 Cl   UNL d   1      -1.664  -5.997  -0.818  0.00  0.00    -0.070 Cl
ATOM      8 Cl1  UNL d   1      -4.149  -6.000   1.285  0.00  0.00    -0.070 Cl
ENDROOT
TORSDOF 0
ENDMDL
