MODEL 1
REMARK minimizedAffinity 4.52121735
REMARK minimizedRMSD -1
REMARK  0 active torsions:
REMARK  status: ('A' for Active; 'I' for Inactive)
ROOT
ATOM      1  C   UNL d   1      -0.425  -5.981  -5.990  0.00  0.00     0.020 A 
ATOM      2  C1  UNL d   1       0.640  -5.980  -5.091  0.00  0.00     0.020 A 
ATOM      3  C2  UNL d   1       0.393  -5.985  -3.716  0.00  0.00     0.034 A 
ATOM      4  C3  UNL d   1      -0.922  -5.991  -3.237  0.00  0.00     0.017 A 
ATOM      5  C4  UNL d   1      -1.991  -5.992  -4.141  0.00  0.00     0.017 A 
ATOM      6  C5  UNL d   1      -1.738  -5.987  -5.516  0.00  0.00     0.034 A 
ATOM      7 Cl   UNL d   1      -3.640  -5.999  -3.625  0.00  0.00    -0.070 Cl
ATOM      8 Cl1  UNL d   1      -1.153  -5.997  -1.525  0.00  0.00    -0.070 Cl
ENDROOT
TORSDOF 0
ENDMDL
