MODEL 1
REMARK minimizedAffinity 0.571771562
REMARK minimizedRMSD -1
REMARK  0 active torsions:
REMARK  status: ('A' for Active; 'I' for Inactive)
ROOT
ATOM      1  C   UNL d   1       1.065   1.076   0.000  0.00  0.00     0.020 A 
ATOM      2  C1  UNL d   1       2.307   0.443   0.032  0.00  0.00     0.020 A 
ATOM      3  C2  UNL d   1       2.384  -0.933   0.256  0.00  0.00     0.034 A 
ATOM      4  C3  UNL d   1       1.217  -1.681   0.449  0.00  0.00     0.017 A 
ATOM      5  C4  UNL d   1      -0.030  -1.045   0.416  0.00  0.00     0.017 A 
ATOM      6  C5  UNL d   1      -0.101   0.333   0.192  0.00  0.00     0.034 A 
ATOM      7 Cl   UNL d   1      -1.513  -1.901   0.645  0.00  0.00    -0.070 Cl
ATOM      8 Cl1  UNL d   1       1.386  -3.379   0.720  0.00  0.00    -0.070 Cl
ENDROOT
TORSDOF 0
ENDMDL
