MODEL 1
REMARK minimizedAffinity 7.92049742
REMARK minimizedRMSD -1
REMARK  0 active torsions:
REMARK  status: ('A' for Active; 'I' for Inactive)
ROOT
ATOM      1  C   UNL d   1       5.484   3.597  -1.941  0.00  0.00     0.020 A 
ATOM      2  C1  UNL d   1       4.656   3.847  -0.848  0.00  0.00     0.020 A 
ATOM      3  C2  UNL d   1       3.886   2.816  -0.306  0.00  0.00     0.034 A 
ATOM      4  C3  UNL d   1       3.942   1.530  -0.857  0.00  0.00     0.017 A 
ATOM      5  C4  UNL d   1       4.773   1.281  -1.955  0.00  0.00     0.017 A 
ATOM      6  C5  UNL d   1       5.542   2.317  -2.493  0.00  0.00     0.034 A 
ATOM      7 Cl   UNL d   1       4.896  -0.279  -2.689  0.00  0.00    -0.070 Cl
ATOM      8 Cl1  UNL d   1       2.963   0.303  -0.136  0.00  0.00    -0.070 Cl
ENDROOT
TORSDOF 0
ENDMDL
