MODEL 1
REMARK minimizedAffinity 5.10529661
REMARK minimizedRMSD -1
REMARK  0 active torsions:
REMARK  status: ('A' for Active; 'I' for Inactive)
ROOT
ATOM      1  C   UNL d   1       0.318  -2.917   1.170  0.00  0.00     0.020 A 
ATOM      2  C1  UNL d   1      -0.654  -2.027   0.717  0.00  0.00     0.020 A 
ATOM      3  C2  UNL d   1      -0.285  -0.754   0.277  0.00  0.00     0.034 A 
ATOM      4  C3  UNL d   1       1.060  -0.367   0.290  0.00  0.00     0.017 A 
ATOM      5  C4  UNL d   1       2.036  -1.261   0.745  0.00  0.00     0.017 A 
ATOM      6  C5  UNL d   1       1.660  -2.535   1.184  0.00  0.00     0.034 A 
ATOM      7 Cl   UNL d   1       3.715  -0.856   0.790  0.00  0.00    -0.070 Cl
ATOM      8 Cl1  UNL d   1       1.444   1.222  -0.269  0.00  0.00    -0.070 Cl
ENDROOT
TORSDOF 0
ENDMDL
