MODEL 1
REMARK minimizedAffinity 0.873578906
REMARK minimizedRMSD -1
REMARK  0 active torsions:
REMARK  status: ('A' for Active; 'I' for Inactive)
ROOT
ATOM      1  C   UNL d   1      -0.334  -3.528   0.998  0.00  0.00     0.020 A 
ATOM      2  C1  UNL d   1      -1.195  -2.720   0.256  0.00  0.00     0.020 A 
ATOM      3  C2  UNL d   1      -0.828  -1.409  -0.054  0.00  0.00     0.034 A 
ATOM      4  C3  UNL d   1       0.402  -0.901   0.378  0.00  0.00     0.017 A 
ATOM      5  C4  UNL d   1       1.266  -1.712   1.123  0.00  0.00     0.017 A 
ATOM      6  C5  UNL d   1       0.894  -3.024   1.431  0.00  0.00     0.034 A 
ATOM      7 Cl   UNL d   1       2.801  -1.156   1.691  0.00  0.00    -0.070 Cl
ATOM      8 Cl1  UNL d   1       0.791   0.729  -0.042  0.00  0.00    -0.070 Cl
ENDROOT
TORSDOF 0
ENDMDL
