MODEL 1
REMARK minimizedAffinity -0.760504305
REMARK minimizedRMSD -1
REMARK  0 active torsions:
REMARK  status: ('A' for Active; 'I' for Inactive)
ROOT
ATOM      1  C   UNL d   1       0.668  -3.239   1.258  0.00  0.00     0.020 A 
ATOM      2  C1  UNL d   1      -0.420  -2.495   0.804  0.00  0.00     0.020 A 
ATOM      3  C2  UNL d   1      -0.265  -1.138   0.511  0.00  0.00     0.034 A 
ATOM      4  C3  UNL d   1       0.982  -0.522   0.670  0.00  0.00     0.017 A 
ATOM      5  C4  UNL d   1       2.074  -1.270   1.126  0.00  0.00     0.017 A 
ATOM      6  C5  UNL d   1       1.912  -2.628   1.419  0.00  0.00     0.034 A 
ATOM      7 Cl   UNL d   1       3.642  -0.579   1.348  0.00  0.00    -0.070 Cl
ATOM      8 Cl1  UNL d   1       1.102   1.159   0.288  0.00  0.00    -0.070 Cl
ENDROOT
TORSDOF 0
ENDMDL
