MODEL 1
REMARK minimizedAffinity 1.00926387
REMARK minimizedRMSD -1
REMARK  0 active torsions:
REMARK  status: ('A' for Active; 'I' for Inactive)
ROOT
ATOM      1  C   UNL d   1       0.198  -3.341   0.758  0.00  0.00     0.020 A 
ATOM      2  C1  UNL d   1      -0.983  -2.614   0.614  0.00  0.00     0.020 A 
ATOM      3  C2  UNL d   1      -0.948  -1.218   0.619  0.00  0.00     0.034 A 
ATOM      4  C3  UNL d   1       0.270  -0.545   0.768  0.00  0.00     0.017 A 
ATOM      5  C4  UNL d   1       1.455  -1.276   0.912  0.00  0.00     0.017 A 
ATOM      6  C5  UNL d   1       1.414  -2.674   0.906  0.00  0.00     0.034 A 
ATOM      7 Cl   UNL d   1       2.996  -0.517   1.101  0.00  0.00    -0.070 Cl
ATOM      8 Cl1  UNL d   1       0.240   1.183   0.764  0.00  0.00    -0.070 Cl
ENDROOT
TORSDOF 0
ENDMDL
