MODEL 1
REMARK minimizedAffinity 1.67178929
REMARK minimizedRMSD -1
REMARK  0 active torsions:
REMARK  status: ('A' for Active; 'I' for Inactive)
ROOT
ATOM      1  C   UNL d   1       1.538  -5.375  -5.251  0.00  0.00     0.020 A 
ATOM      2  C1  UNL d   1       0.448  -5.819  -5.999  0.00  0.00     0.020 A 
ATOM      3  C2  UNL d   1      -0.793  -5.999  -5.387  0.00  0.00     0.034 A 
ATOM      4  C3  UNL d   1      -0.949  -5.735  -4.021  0.00  0.00     0.017 A 
ATOM      5  C4  UNL d   1       0.145  -5.290  -3.270  0.00  0.00     0.017 A 
ATOM      6  C5  UNL d   1       1.386  -5.111  -3.889  0.00  0.00     0.034 A 
ATOM      7 Cl   UNL d   1       0.030  -4.943  -1.581  0.00  0.00    -0.070 Cl
ATOM      8 Cl1  UNL d   1      -2.513  -5.980  -3.329  0.00  0.00    -0.070 Cl
ENDROOT
TORSDOF 0
ENDMDL
