MODEL 1
REMARK minimizedAffinity -3.11779714
REMARK minimizedRMSD -1
REMARK  0 active torsions:
REMARK  status: ('A' for Active; 'I' for Inactive)
ROOT
ATOM      1  C   UNL d   1      -0.015  -5.243  -5.792  0.00  0.00     0.020 A 
ATOM      2  C1  UNL d   1      -1.394  -5.243  -5.999  0.00  0.00     0.020 A 
ATOM      3  C2  UNL d   1      -2.260  -5.479  -4.929  0.00  0.00     0.034 A 
ATOM      4  C3  UNL d   1      -1.748  -5.716  -3.648  0.00  0.00     0.017 A 
ATOM      5  C4  UNL d   1      -0.364  -5.715  -3.442  0.00  0.00     0.017 A 
ATOM      6  C5  UNL d   1       0.499  -5.479  -4.516  0.00  0.00     0.034 A 
ATOM      7 Cl   UNL d   1       0.342  -6.000  -1.890  0.00  0.00    -0.070 Cl
ATOM      8 Cl1  UNL d   1      -2.878  -6.000  -2.372  0.00  0.00    -0.070 Cl
ENDROOT
TORSDOF 0
ENDMDL
