MODEL 1
REMARK minimizedAffinity 0.0641251504
REMARK minimizedRMSD -1
REMARK  0 active torsions:
REMARK  status: ('A' for Active; 'I' for Inactive)
ROOT
ATOM      1  C   UNL d   1       1.313  -5.956  -5.375  0.00  0.00     0.020 A 
ATOM      2  C1  UNL d   1       0.067  -5.997  -6.000  0.00  0.00     0.020 A 
ATOM      3  C2  UNL d   1      -1.099  -6.000  -5.232  0.00  0.00     0.034 A 
ATOM      4  C3  UNL d   1      -1.023  -5.962  -3.835  0.00  0.00     0.017 A 
ATOM      5  C4  UNL d   1       0.228  -5.920  -3.209  0.00  0.00     0.017 A 
ATOM      6  C5  UNL d   1       1.393  -5.917  -3.982  0.00  0.00     0.034 A 
ATOM      7 Cl   UNL d   1       0.403  -5.871  -1.490  0.00  0.00    -0.070 Cl
ATOM      8 Cl1  UNL d   1      -2.506  -5.967  -2.949  0.00  0.00    -0.070 Cl
ENDROOT
TORSDOF 0
ENDMDL
