MODEL 1
REMARK minimizedAffinity 3.05605936
REMARK minimizedRMSD -1
REMARK  0 active torsions:
REMARK  status: ('A' for Active; 'I' for Inactive)
ROOT
ATOM      1  C   UNL d   1      -0.895  -6.000  -5.022  0.00  0.00     0.020 A 
ATOM      2  C1  UNL d   1       0.097  -5.923  -5.998  0.00  0.00     0.020 A 
ATOM      3  C2  UNL d   1       1.422  -5.678  -5.630  0.00  0.00     0.034 A 
ATOM      4  C3  UNL d   1       1.757  -5.508  -4.282  0.00  0.00     0.017 A 
ATOM      5  C4  UNL d   1       0.760  -5.585  -3.302  0.00  0.00     0.017 A 
ATOM      6  C5  UNL d   1      -0.564  -5.831  -3.677  0.00  0.00     0.034 A 
ATOM      7 Cl   UNL d   1       1.097  -5.387  -1.619  0.00  0.00    -0.070 Cl
ATOM      8 Cl1  UNL d   1       3.415  -5.208  -3.898  0.00  0.00    -0.070 Cl
ENDROOT
TORSDOF 0
ENDMDL
