MODEL 1
REMARK minimizedAffinity -1.20192218
REMARK minimizedRMSD -1
REMARK  0 active torsions:
REMARK  status: ('A' for Active; 'I' for Inactive)
ROOT
ATOM      1  C   UNL d   1       0.715  -5.271  -1.403  0.00  0.00     0.020 A 
ATOM      2  C1  UNL d   1       1.791  -5.271  -2.290  0.00  0.00     0.020 A 
ATOM      3  C2  UNL d   1       1.574  -5.499  -3.651  0.00  0.00     0.034 A 
ATOM      4  C3  UNL d   1       0.278  -5.726  -4.128  0.00  0.00     0.017 A 
ATOM      5  C4  UNL d   1      -0.801  -5.725  -3.237  0.00  0.00     0.017 A 
ATOM      6  C5  UNL d   1      -0.578  -5.497  -1.876  0.00  0.00     0.034 A 
ATOM      7 Cl   UNL d   1      -2.428  -5.998  -3.752  0.00  0.00    -0.070 Cl
ATOM      8 Cl1  UNL d   1       0.083  -6.000  -5.823  0.00  0.00    -0.070 Cl
ENDROOT
TORSDOF 0
ENDMDL
