MODEL 1
REMARK minimizedAffinity 5.362432
REMARK minimizedRMSD -1
REMARK  0 active torsions:
REMARK  status: ('A' for Active; 'I' for Inactive)
ROOT
ATOM      1  C   UNL d   1       1.317  -5.999  -5.436  0.00  0.00     0.020 A 
ATOM      2  C1  UNL d   1      -0.007  -5.996  -5.873  0.00  0.00     0.020 A 
ATOM      3  C2  UNL d   1      -1.049  -5.994  -4.944  0.00  0.00     0.034 A 
ATOM      4  C3  UNL d   1      -0.769  -5.995  -3.573  0.00  0.00     0.017 A 
ATOM      5  C4  UNL d   1       0.560  -5.998  -3.135  0.00  0.00     0.017 A 
ATOM      6  C5  UNL d   1       1.600  -6.000  -4.070  0.00  0.00     0.034 A 
ATOM      7 Cl   UNL d   1       0.984  -6.000  -1.459  0.00  0.00    -0.070 Cl
ATOM      8 Cl1  UNL d   1      -2.107  -5.993  -2.480  0.00  0.00    -0.070 Cl
ENDROOT
TORSDOF 0
ENDMDL
