MODEL 1
REMARK minimizedAffinity 4.92926025
REMARK minimizedRMSD -1
REMARK  0 active torsions:
REMARK  status: ('A' for Active; 'I' for Inactive)
ROOT
ATOM      1  C   UNL d   1      -2.405  -4.120  -4.474  0.00  0.00     0.124 A 
ATOM      2  C1  UNL d   1      -2.326  -2.950  -5.217  0.00  0.00     0.062 A 
ATOM      3  C2  UNL d   1      -3.351  -2.010  -5.153  0.00  0.00     0.162 A 
ATOM      4  C3  UNL d   1      -4.463  -2.236  -4.342  0.00  0.00    -0.034 A 
ATOM      5  C4  UNL d   1      -4.535  -3.415  -3.598  0.00  0.00     0.162 A 
ATOM      6  C5  UNL d   1      -3.508  -4.351  -3.666  0.00  0.00     0.062 A 
ATOM      7  F   UNL d   1      -3.586  -5.481  -2.947  0.00  0.00    -0.097 F 
ATOM      8  F1  UNL d   1      -5.590  -3.664  -2.808  0.00  0.00    -0.096 F 
ATOM      9  I   UNL d   1      -5.997  -0.833  -4.243  0.00  0.00    -0.060 I 
ATOM     10  F2  UNL d   1      -3.248  -0.889  -5.882  0.00  0.00    -0.096 F 
ATOM     11  F3  UNL d   1      -1.261  -2.725  -6.000  0.00  0.00    -0.097 F 
ATOM     12  F4  UNL d   1      -1.418  -5.023  -4.539  0.00  0.00    -0.092 F 
ENDROOT
TORSDOF 0
ENDMDL
