MODEL 1
REMARK minimizedAffinity 5.70562506
REMARK minimizedRMSD -1
REMARK  0 active torsions:
REMARK  status: ('A' for Active; 'I' for Inactive)
ROOT
ATOM      1  C   UNL d   1      -1.553  -4.244  -3.695  0.00  0.00     0.124 A 
ATOM      2  C1  UNL d   1      -2.031  -3.157  -2.976  0.00  0.00     0.062 A 
ATOM      3  C2  UNL d   1      -3.279  -2.617  -3.271  0.00  0.00     0.162 A 
ATOM      4  C3  UNL d   1      -4.060  -3.163  -4.290  0.00  0.00    -0.034 A 
ATOM      5  C4  UNL d   1      -3.572  -4.256  -5.009  0.00  0.00     0.162 A 
ATOM      6  C5  UNL d   1      -2.324  -4.792  -4.710  0.00  0.00     0.062 A 
ATOM      7  F   UNL d   1      -1.864  -5.843  -5.405  0.00  0.00    -0.097 F 
ATOM      8  F1  UNL d   1      -4.296  -4.807  -5.994  0.00  0.00    -0.096 F 
ATOM      9  I   UNL d   1      -5.927  -2.359  -4.734  0.00  0.00    -0.060 I 
ATOM     10  F2  UNL d   1      -3.716  -1.566  -2.561  0.00  0.00    -0.096 F 
ATOM     11  F3  UNL d   1      -1.288  -2.624  -1.995  0.00  0.00    -0.097 F 
ATOM     12  F4  UNL d   1      -0.351  -4.761  -3.409  0.00  0.00    -0.092 F 
ENDROOT
TORSDOF 0
ENDMDL
