MODEL 1
REMARK minimizedAffinity 6.68908644
REMARK minimizedRMSD -1
REMARK  0 active torsions:
REMARK  status: ('A' for Active; 'I' for Inactive)
ROOT
ATOM      1  C   UNL d   1      -4.126  -2.028  -3.156  0.00  0.00     0.124 A 
ATOM      2  C1  UNL d   1      -5.047  -2.098  -4.193  0.00  0.00     0.062 A 
ATOM      3  C2  UNL d   1      -5.100  -3.227  -5.006  0.00  0.00     0.162 A 
ATOM      4  C3  UNL d   1      -4.231  -4.295  -4.786  0.00  0.00    -0.034 A 
ATOM      5  C4  UNL d   1      -3.307  -4.216  -3.742  0.00  0.00     0.162 A 
ATOM      6  C5  UNL d   1      -3.257  -3.086  -2.932  0.00  0.00     0.062 A 
ATOM      7  F   UNL d   1      -2.367  -3.020  -1.931  0.00  0.00    -0.097 F 
ATOM      8  F1  UNL d   1      -2.456  -5.225  -3.503  0.00  0.00    -0.096 F 
ATOM      9  I   UNL d   1      -4.307  -5.984  -6.000  0.00  0.00    -0.060 I 
ATOM     10  F2  UNL d   1      -6.000  -3.267  -6.000  0.00  0.00    -0.096 F 
ATOM     11  F3  UNL d   1      -5.887  -1.076  -4.412  0.00  0.00    -0.097 F 
ATOM     12  F4  UNL d   1      -4.076  -0.941  -2.376  0.00  0.00    -0.092 F 
ENDROOT
TORSDOF 0
ENDMDL
