MODEL 1
REMARK minimizedAffinity 7.2124114
REMARK minimizedRMSD -1
REMARK  0 active torsions:
REMARK  status: ('A' for Active; 'I' for Inactive)
ROOT
ATOM      1  C   UNL d   1      -4.507  -2.031  -2.818  0.00  0.00     0.124 A 
ATOM      2  C1  UNL d   1      -3.747  -3.164  -2.561  0.00  0.00     0.062 A 
ATOM      3  C2  UNL d   1      -3.742  -4.223  -3.464  0.00  0.00     0.162 A 
ATOM      4  C3  UNL d   1      -4.498  -4.154  -4.634  0.00  0.00    -0.034 A 
ATOM      5  C4  UNL d   1      -5.261  -3.012  -4.885  0.00  0.00     0.162 A 
ATOM      6  C5  UNL d   1      -5.263  -1.957  -3.979  0.00  0.00     0.062 A 
ATOM      7  F   UNL d   1      -5.998  -0.863  -4.229  0.00  0.00    -0.097 F 
ATOM      8  F1  UNL d   1      -6.000  -2.913  -6.000  0.00  0.00    -0.096 F 
ATOM      9  I   UNL d   1      -4.493  -5.736  -5.986  0.00  0.00    -0.060 I 
ATOM     10  F2  UNL d   1      -2.998  -5.305  -3.190  0.00  0.00    -0.096 F 
ATOM     11  F3  UNL d   1      -3.017  -3.239  -1.439  0.00  0.00    -0.097 F 
ATOM     12  F4  UNL d   1      -4.511  -1.014  -1.947  0.00  0.00    -0.092 F 
ENDROOT
TORSDOF 0
ENDMDL
