MODEL 1
REMARK minimizedAffinity 13.0728226
REMARK minimizedRMSD -1
REMARK  0 active torsions:
REMARK  status: ('A' for Active; 'I' for Inactive)
ROOT
ATOM      1  C   UNL d   1      -4.491  -2.229  -2.817  0.00  0.00     0.124 A 
ATOM      2  C1  UNL d   1      -3.720  -3.357  -2.569  0.00  0.00     0.062 A 
ATOM      3  C2  UNL d   1      -3.712  -4.412  -3.476  0.00  0.00     0.162 A 
ATOM      4  C3  UNL d   1      -4.477  -4.345  -4.641  0.00  0.00    -0.034 A 
ATOM      5  C4  UNL d   1      -5.250  -3.208  -4.883  0.00  0.00     0.162 A 
ATOM      6  C5  UNL d   1      -5.254  -2.156  -3.973  0.00  0.00     0.062 A 
ATOM      7  F   UNL d   1      -5.999  -1.067  -4.214  0.00  0.00    -0.097 F 
ATOM      8  F1  UNL d   1      -5.996  -3.110  -5.993  0.00  0.00    -0.096 F 
ATOM      9  I   UNL d   1      -4.467  -5.921  -6.000  0.00  0.00    -0.060 I 
ATOM     10  F2  UNL d   1      -2.958  -5.489  -3.211  0.00  0.00    -0.096 F 
ATOM     11  F3  UNL d   1      -2.982  -3.430  -1.452  0.00  0.00    -0.097 F 
ATOM     12  F4  UNL d   1      -4.497  -1.215  -1.942  0.00  0.00    -0.092 F 
ENDROOT
TORSDOF 0
ENDMDL
