MODEL 1
REMARK minimizedAffinity 12.1248436
REMARK minimizedRMSD -1
REMARK  0 active torsions:
REMARK  status: ('A' for Active; 'I' for Inactive)
ROOT
ATOM      1  C   UNL d   1      -4.268  -2.237  -2.930  0.00  0.00     0.124 A 
ATOM      2  C1  UNL d   1      -5.083  -2.134  -4.049  0.00  0.00     0.062 A 
ATOM      3  C2  UNL d   1      -5.205  -3.207  -4.927  0.00  0.00     0.162 A 
ATOM      4  C3  UNL d   1      -4.511  -4.393  -4.689  0.00  0.00    -0.034 A 
ATOM      5  C4  UNL d   1      -3.693  -4.489  -3.562  0.00  0.00     0.162 A 
ATOM      6  C5  UNL d   1      -3.574  -3.414  -2.688  0.00  0.00     0.062 A 
ATOM      7  F   UNL d   1      -2.786  -3.515  -1.608  0.00  0.00    -0.097 F 
ATOM      8  F1  UNL d   1      -3.012  -5.615  -3.304  0.00  0.00    -0.096 F 
ATOM      9  I   UNL d   1      -4.692  -6.000  -6.000  0.00  0.00    -0.060 I 
ATOM     10  F2  UNL d   1      -6.000  -3.079  -6.000  0.00  0.00    -0.096 F 
ATOM     11  F3  UNL d   1      -5.754  -0.997  -4.285  0.00  0.00    -0.097 F 
ATOM     12  F4  UNL d   1      -4.151  -1.202  -2.087  0.00  0.00    -0.092 F 
ENDROOT
TORSDOF 0
ENDMDL
