MODEL 1
REMARK minimizedAffinity 13.1719036
REMARK minimizedRMSD -1
REMARK  0 active torsions:
REMARK  status: ('A' for Active; 'I' for Inactive)
ROOT
ATOM      1  C   UNL d   1      -0.955  -0.279   0.646  0.00  0.00     0.124 A 
ATOM      2  C1  UNL d   1      -0.135   0.823   0.447  0.00  0.00     0.062 A 
ATOM      3  C2  UNL d   1       1.226   0.743   0.729  0.00  0.00     0.162 A 
ATOM      4  C3  UNL d   1       1.776  -0.444   1.212  0.00  0.00    -0.034 A 
ATOM      5  C4  UNL d   1       0.945  -1.548   1.411  0.00  0.00     0.162 A 
ATOM      6  C5  UNL d   1      -0.415  -1.463   1.128  0.00  0.00     0.062 A 
ATOM      7  F   UNL d   1      -1.205  -2.529   1.322  0.00  0.00    -0.097 F 
ATOM      8  F1  UNL d   1       1.440  -2.705   1.875  0.00  0.00    -0.096 F 
ATOM      9  I   UNL d   1       3.810  -0.568   1.635  0.00  0.00    -0.060 I 
ATOM     10  F2  UNL d   1       1.995   1.823   0.526  0.00  0.00    -0.096 F 
ATOM     11  F3  UNL d   1      -0.654   1.968  -0.018  0.00  0.00    -0.097 F 
ATOM     12  F4  UNL d   1      -2.264  -0.199   0.375  0.00  0.00    -0.092 F 
ENDROOT
TORSDOF 0
ENDMDL
