MODEL 1
REMARK minimizedAffinity 11.0903931
REMARK minimizedRMSD -1
REMARK  0 active torsions:
REMARK  status: ('A' for Active; 'I' for Inactive)
ROOT
ATOM      1  C   UNL d   1      -4.490  -2.297  -2.826  0.00  0.00     0.124 A 
ATOM      2  C1  UNL d   1      -5.254  -2.227  -3.983  0.00  0.00     0.062 A 
ATOM      3  C2  UNL d   1      -5.250  -3.282  -4.890  0.00  0.00     0.162 A 
ATOM      4  C3  UNL d   1      -4.480  -4.419  -4.644  0.00  0.00    -0.034 A 
ATOM      5  C4  UNL d   1      -3.713  -4.482  -3.479  0.00  0.00     0.162 A 
ATOM      6  C5  UNL d   1      -3.720  -3.425  -2.575  0.00  0.00     0.062 A 
ATOM      7  F   UNL d   1      -2.982  -3.495  -1.459  0.00  0.00    -0.097 F 
ATOM      8  F1  UNL d   1      -2.961  -5.560  -3.211  0.00  0.00    -0.096 F 
ATOM      9  I   UNL d   1      -4.471  -5.999  -5.998  0.00  0.00    -0.060 I 
ATOM     10  F2  UNL d   1      -5.998  -3.186  -6.000  0.00  0.00    -0.096 F 
ATOM     11  F3  UNL d   1      -5.997  -1.138  -4.228  0.00  0.00    -0.097 F 
ATOM     12  F4  UNL d   1      -4.495  -1.280  -1.955  0.00  0.00    -0.092 F 
ENDROOT
TORSDOF 0
ENDMDL
