MODEL 1
REMARK minimizedAffinity 4.95575428
REMARK minimizedRMSD -1
REMARK  0 active torsions:
REMARK  status: ('A' for Active; 'I' for Inactive)
ROOT
ATOM      1  C   UNL d   1      -2.372  -4.780  -4.257  0.00  0.00     0.124 A 
ATOM      2  C1  UNL d   1      -3.440  -4.942  -5.129  0.00  0.00     0.062 A 
ATOM      3  C2  UNL d   1      -4.477  -4.014  -5.146  0.00  0.00     0.162 A 
ATOM      4  C3  UNL d   1      -4.451  -2.914  -4.288  0.00  0.00    -0.034 A 
ATOM      5  C4  UNL d   1      -3.374  -2.758  -3.413  0.00  0.00     0.162 A 
ATOM      6  C5  UNL d   1      -2.340  -3.689  -3.400  0.00  0.00     0.062 A 
ATOM      7  F   UNL d   1      -1.310  -3.531  -2.557  0.00  0.00    -0.097 F 
ATOM      8  F1  UNL d   1      -3.318  -1.713  -2.576  0.00  0.00    -0.096 F 
ATOM      9  I   UNL d   1      -6.000  -1.524  -4.311  0.00  0.00    -0.060 I 
ATOM     10  F2  UNL d   1      -5.496  -4.196  -5.999  0.00  0.00    -0.096 F 
ATOM     11  F3  UNL d   1      -3.473  -5.996  -5.957  0.00  0.00    -0.097 F 
ATOM     12  F4  UNL d   1      -1.376  -5.675  -4.242  0.00  0.00    -0.092 F 
ENDROOT
TORSDOF 0
ENDMDL
