MODEL 1
REMARK minimizedAffinity 3.12322259
REMARK minimizedRMSD -1
REMARK  0 active torsions:
REMARK  status: ('A' for Active; 'I' for Inactive)
ROOT
ATOM      1  C   UNL d   1      -2.645  -5.049  -3.663  0.00  0.00     0.124 A 
ATOM      2  C1  UNL d   1      -2.382  -4.074  -4.615  0.00  0.00     0.062 A 
ATOM      3  C2  UNL d   1      -3.338  -3.106  -4.909  0.00  0.00     0.162 A 
ATOM      4  C3  UNL d   1      -4.567  -3.108  -4.250  0.00  0.00    -0.034 A 
ATOM      5  C4  UNL d   1      -4.825  -4.093  -3.295  0.00  0.00     0.162 A 
ATOM      6  C5  UNL d   1      -3.866  -5.058  -3.004  0.00  0.00     0.062 A 
ATOM      7  F   UNL d   1      -4.123  -5.999  -2.084  0.00  0.00    -0.097 F 
ATOM      8  F1  UNL d   1      -5.997  -4.124  -2.642  0.00  0.00    -0.096 F 
ATOM      9  I   UNL d   1      -6.000  -1.663  -4.687  0.00  0.00    -0.060 I 
ATOM     10  F2  UNL d   1      -3.056  -2.176  -5.834  0.00  0.00    -0.096 F 
ATOM     11  F3  UNL d   1      -1.203  -4.063  -5.254  0.00  0.00    -0.097 F 
ATOM     12  F4  UNL d   1      -1.724  -5.979  -3.383  0.00  0.00    -0.092 F 
ENDROOT
TORSDOF 0
ENDMDL
