MODEL 1
REMARK minimizedAffinity 12.3063211
REMARK minimizedRMSD -1
REMARK  0 active torsions:
REMARK  status: ('A' for Active; 'I' for Inactive)
ROOT
ATOM      1  C   UNL d   1      -3.819  -4.659  -4.923  0.00  0.00     0.124 A 
ATOM      2  C1  UNL d   1      -4.919  -3.956  -4.449  0.00  0.00     0.062 A 
ATOM      3  C2  UNL d   1      -4.912  -2.564  -4.448  0.00  0.00     0.162 A 
ATOM      4  C3  UNL d   1      -3.802  -1.865  -4.923  0.00  0.00    -0.034 A 
ATOM      5  C4  UNL d   1      -2.700  -2.579  -5.396  0.00  0.00     0.162 A 
ATOM      6  C5  UNL d   1      -2.711  -3.970  -5.396  0.00  0.00     0.062 A 
ATOM      7  F   UNL d   1      -1.648  -4.647  -5.853  0.00  0.00    -0.097 F 
ATOM      8  F1  UNL d   1      -1.616  -1.938  -5.860  0.00  0.00    -0.096 F 
ATOM      9  I   UNL d   1      -3.789   0.216  -4.922  0.00  0.00    -0.060 I 
ATOM     10  F2  UNL d   1      -5.988  -1.911  -3.985  0.00  0.00    -0.096 F 
ATOM     11  F3  UNL d   1      -5.990  -4.619  -3.991  0.00  0.00    -0.097 F 
ATOM     12  F4  UNL d   1      -3.828  -5.998  -4.922  0.00  0.00    -0.092 F 
ENDROOT
TORSDOF 0
ENDMDL
