MODEL 1
REMARK minimizedAffinity 17.0598106
REMARK minimizedRMSD -1
REMARK  0 active torsions:
REMARK  status: ('A' for Active; 'I' for Inactive)
ROOT
ATOM      1  C   UNL d   1      -2.161  -4.018  -2.883  0.00  0.00     0.124 A 
ATOM      2  C1  UNL d   1      -3.443  -3.518  -2.696  0.00  0.00     0.062 A 
ATOM      3  C2  UNL d   1      -4.461  -3.851  -3.585  0.00  0.00     0.162 A 
ATOM      4  C3  UNL d   1      -4.202  -4.691  -4.669  0.00  0.00    -0.034 A 
ATOM      5  C4  UNL d   1      -2.910  -5.189  -4.850  0.00  0.00     0.162 A 
ATOM      6  C5  UNL d   1      -1.897  -4.853  -3.959  0.00  0.00     0.062 A 
ATOM      7  F   UNL d   1      -0.659  -5.337  -4.141  0.00  0.00    -0.097 F 
ATOM      8  F1  UNL d   1      -2.627  -5.999  -5.881  0.00  0.00    -0.096 F 
ATOM      9  I   UNL d   1      -5.721  -5.192  -6.000  0.00  0.00    -0.060 I 
ATOM     10  F2  UNL d   1      -5.689  -3.354  -3.380  0.00  0.00    -0.096 F 
ATOM     11  F3  UNL d   1      -3.701  -2.710  -1.657  0.00  0.00    -0.097 F 
ATOM     12  F4  UNL d   1      -1.184  -3.695  -2.027  0.00  0.00    -0.092 F 
ENDROOT
TORSDOF 0
ENDMDL
