MODEL 1
REMARK minimizedAffinity 6.30762434
REMARK minimizedRMSD -1
REMARK  0 active torsions:
REMARK  status: ('A' for Active; 'I' for Inactive)
ROOT
ATOM      1  C   UNL d   1      -3.001  -4.886  -4.211  0.00  0.00     0.124 A 
ATOM      2  C1  UNL d   1      -4.089  -4.915  -5.072  0.00  0.00     0.062 A 
ATOM      3  C2  UNL d   1      -4.945  -3.821  -5.154  0.00  0.00     0.162 A 
ATOM      4  C3  UNL d   1      -4.717  -2.688  -4.373  0.00  0.00    -0.034 A 
ATOM      5  C4  UNL d   1      -3.621  -2.667  -3.508  0.00  0.00     0.162 A 
ATOM      6  C5  UNL d   1      -2.768  -3.763  -3.430  0.00  0.00     0.062 A 
ATOM      7  F   UNL d   1      -1.717  -3.733  -2.597  0.00  0.00    -0.097 F 
ATOM      8  F1  UNL d   1      -3.373  -1.594  -2.743  0.00  0.00    -0.096 F 
ATOM      9  I   UNL d   1      -5.996  -1.051  -4.493  0.00  0.00    -0.060 I 
ATOM     10  F2  UNL d   1      -5.989  -3.877  -5.995  0.00  0.00    -0.096 F 
ATOM     11  F3  UNL d   1      -4.316  -6.000  -5.827  0.00  0.00    -0.097 F 
ATOM     12  F4  UNL d   1      -2.178  -5.941  -4.133  0.00  0.00    -0.092 F 
ENDROOT
TORSDOF 0
ENDMDL
