MODEL 1
REMARK minimizedAffinity 12.7028027
REMARK minimizedRMSD -1
REMARK  0 active torsions:
REMARK  status: ('A' for Active; 'I' for Inactive)
ROOT
ATOM      1  C   UNL d   1      -2.566  -0.604   0.623  0.00  0.00     0.124 A 
ATOM      2  C1  UNL d   1      -1.472   0.240   0.487  0.00  0.00     0.062 A 
ATOM      3  C2  UNL d   1      -0.198  -0.205   0.826  0.00  0.00     0.162 A 
ATOM      4  C3  UNL d   1      -0.010  -1.502   1.304  0.00  0.00    -0.034 A 
ATOM      5  C4  UNL d   1      -1.115  -2.345   1.438  0.00  0.00     0.162 A 
ATOM      6  C5  UNL d   1      -2.386  -1.895   1.098  0.00  0.00     0.062 A 
ATOM      7  F   UNL d   1      -3.442  -2.712   1.230  0.00  0.00    -0.097 F 
ATOM      8  F1  UNL d   1      -0.969  -3.598   1.895  0.00  0.00    -0.096 F 
ATOM      9  I   UNL d   1       1.894  -2.172   1.812  0.00  0.00    -0.060 I 
ATOM     10  F2  UNL d   1       0.841   0.632   0.685  0.00  0.00    -0.096 F 
ATOM     11  F3  UNL d   1      -1.643   1.489   0.029  0.00  0.00    -0.097 F 
ATOM     12  F4  UNL d   1      -3.791  -0.172   0.297  0.00  0.00    -0.092 F 
ENDROOT
TORSDOF 0
ENDMDL
