MODEL 1
REMARK minimizedAffinity 3.39930725
REMARK minimizedRMSD -1
REMARK  0 active torsions:
REMARK  status: ('A' for Active; 'I' for Inactive)
ROOT
ATOM      1  C   UNL d   1      -3.450  -4.499  -3.117  0.00  0.00     0.124 A 
ATOM      2  C1  UNL d   1      -4.175  -4.762  -4.271  0.00  0.00     0.062 A 
ATOM      3  C2  UNL d   1      -4.904  -3.748  -4.886  0.00  0.00     0.162 A 
ATOM      4  C3  UNL d   1      -4.910  -2.461  -4.348  0.00  0.00    -0.034 A 
ATOM      5  C4  UNL d   1      -4.180  -2.204  -3.187  0.00  0.00     0.162 A 
ATOM      6  C5  UNL d   1      -3.453  -3.221  -2.576  0.00  0.00     0.062 A 
ATOM      7  F   UNL d   1      -2.753  -2.966  -1.461  0.00  0.00    -0.097 F 
ATOM      8  F1  UNL d   1      -4.164  -0.978  -2.643  0.00  0.00    -0.096 F 
ATOM      9  I   UNL d   1      -5.998  -0.942  -5.265  0.00  0.00    -0.060 I 
ATOM     10  F2  UNL d   1      -5.595  -4.030  -6.000  0.00  0.00    -0.096 F 
ATOM     11  F3  UNL d   1      -4.175  -5.996  -4.795  0.00  0.00    -0.097 F 
ATOM     12  F4  UNL d   1      -2.751  -5.477  -2.526  0.00  0.00    -0.092 F 
ENDROOT
TORSDOF 0
ENDMDL
