MODEL 1
REMARK minimizedAffinity 6.06834936
REMARK minimizedRMSD -1
REMARK  0 active torsions:
REMARK  status: ('A' for Active; 'I' for Inactive)
ROOT
ATOM      1  C   UNL d   1      -4.523  -2.214  -2.775  0.00  0.00     0.124 A 
ATOM      2  C1  UNL d   1      -3.755  -3.341  -2.520  0.00  0.00     0.062 A 
ATOM      3  C2  UNL d   1      -3.719  -4.386  -3.439  0.00  0.00     0.162 A 
ATOM      4  C3  UNL d   1      -4.453  -4.307  -4.623  0.00  0.00    -0.034 A 
ATOM      5  C4  UNL d   1      -5.224  -3.171  -4.871  0.00  0.00     0.162 A 
ATOM      6  C5  UNL d   1      -5.257  -2.129  -3.949  0.00  0.00     0.062 A 
ATOM      7  F   UNL d   1      -6.000  -1.041  -4.197  0.00  0.00    -0.097 F 
ATOM      8  F1  UNL d   1      -5.942  -3.062  -5.999  0.00  0.00    -0.096 F 
ATOM      9  I   UNL d   1      -4.402  -5.867  -6.000  0.00  0.00    -0.060 I 
ATOM     10  F2  UNL d   1      -2.968  -5.463  -3.167  0.00  0.00    -0.096 F 
ATOM     11  F3  UNL d   1      -3.046  -3.426  -1.385  0.00  0.00    -0.097 F 
ATOM     12  F4  UNL d   1      -4.557  -1.211  -1.888  0.00  0.00    -0.092 F 
ENDROOT
TORSDOF 0
ENDMDL
