MODEL 1
REMARK minimizedAffinity 0.181664005
REMARK minimizedRMSD -1
REMARK  0 active torsions:
REMARK  status: ('A' for Active; 'I' for Inactive)
ROOT
ATOM      1  C   UNL d   1       2.056   5.555  -5.954  0.00  0.00     0.020 A 
ATOM      2  C1  UNL d   1       1.735   4.399  -5.245  0.00  0.00     0.020 A 
ATOM      3  C2  UNL d   1       2.735   3.686  -4.580  0.00  0.00     0.034 A 
ATOM      4  C3  UNL d   1       4.062   4.129  -4.624  0.00  0.00     0.017 A 
ATOM      5  C4  UNL d   1       4.384   5.290  -5.336  0.00  0.00     0.017 A 
ATOM      6  C5  UNL d   1       3.378   6.000  -6.000  0.00  0.00     0.034 A 
ATOM      7 Cl   UNL d   1       5.998   5.899  -5.436  0.00  0.00    -0.070 Cl
ATOM      8 Cl1  UNL d   1       5.248   3.199  -3.779  0.00  0.00    -0.070 Cl
ENDROOT
TORSDOF 0
ENDMDL
