MODEL 1
REMARK minimizedAffinity 3.58647346
REMARK minimizedRMSD -1
REMARK  0 active torsions:
REMARK  status: ('A' for Active; 'I' for Inactive)
ROOT
ATOM      1  C   UNL d   1       2.845   2.388  -4.380  0.00  0.00     0.020 A 
ATOM      2  C1  UNL d   1       4.197   2.373  -4.041  0.00  0.00     0.020 A 
ATOM      3  C2  UNL d   1       4.995   3.489  -4.305  0.00  0.00     0.034 A 
ATOM      4  C3  UNL d   1       4.441   4.623  -4.909  0.00  0.00     0.017 A 
ATOM      5  C4  UNL d   1       3.084   4.637  -5.249  0.00  0.00     0.017 A 
ATOM      6  C5  UNL d   1       2.289   3.517  -4.983  0.00  0.00     0.034 A 
ATOM      7 Cl   UNL d   1       2.329   6.000  -5.998  0.00  0.00    -0.070 Cl
ATOM      8 Cl1  UNL d   1       5.486   5.967  -5.205  0.00  0.00    -0.070 Cl
ENDROOT
TORSDOF 0
ENDMDL
