MODEL 1
REMARK minimizedAffinity 1.92181647
REMARK minimizedRMSD -1
REMARK  0 active torsions:
REMARK  status: ('A' for Active; 'I' for Inactive)
ROOT
ATOM      1  C   UNL d   1       1.456   4.923  -5.436  0.00  0.00     0.020 A 
ATOM      2  C1  UNL d   1       2.175   5.992  -5.969  0.00  0.00     0.020 A 
ATOM      3  C2  UNL d   1       3.569   6.000  -5.898  0.00  0.00     0.034 A 
ATOM      4  C3  UNL d   1       4.249   4.936  -5.294  0.00  0.00     0.017 A 
ATOM      5  C4  UNL d   1       3.527   3.863  -4.760  0.00  0.00     0.017 A 
ATOM      6  C5  UNL d   1       2.130   3.860  -4.833  0.00  0.00     0.034 A 
ATOM      7 Cl   UNL d   1       4.296   2.515  -3.999  0.00  0.00    -0.070 Cl
ATOM      8 Cl1  UNL d   1       5.975   5.011  -5.243  0.00  0.00    -0.070 Cl
ENDROOT
TORSDOF 0
ENDMDL
