MODEL 1
REMARK minimizedAffinity 10.2722263
REMARK minimizedRMSD -1
REMARK  0 active torsions:
REMARK  status: ('A' for Active; 'I' for Inactive)
ROOT
ATOM      1  C   UNL d   1       3.127   5.128  -5.573  0.00  0.00     0.020 A 
ATOM      2  C1  UNL d   1       2.696   5.704  -4.379  0.00  0.00     0.020 A 
ATOM      3  C2  UNL d   1       2.727   4.964  -3.195  0.00  0.00     0.034 A 
ATOM      4  C3  UNL d   1       3.189   3.642  -3.203  0.00  0.00     0.017 A 
ATOM      5  C4  UNL d   1       3.621   3.065  -4.403  0.00  0.00     0.017 A 
ATOM      6  C5  UNL d   1       3.588   3.811  -5.585  0.00  0.00     0.034 A 
ATOM      7 Cl   UNL d   1       4.204   1.440  -4.492  0.00  0.00    -0.070 Cl
ATOM      8 Cl1  UNL d   1       3.199   2.786  -1.703  0.00  0.00    -0.070 Cl
ENDROOT
TORSDOF 0
ENDMDL
