MODEL 1
REMARK minimizedAffinity 3.741184
REMARK minimizedRMSD -1
REMARK  0 active torsions:
REMARK  status: ('A' for Active; 'I' for Inactive)
ROOT
ATOM      1  C   UNL d   1       4.247   2.766  -3.807  0.00  0.00     0.020 A 
ATOM      2  C1  UNL d   1       2.852   2.782  -3.807  0.00  0.00     0.020 A 
ATOM      3  C2  UNL d   1       2.166   3.788  -4.490  0.00  0.00     0.034 A 
ATOM      4  C3  UNL d   1       2.873   4.782  -5.176  0.00  0.00     0.017 A 
ATOM      5  C4  UNL d   1       4.273   4.764  -5.175  0.00  0.00     0.017 A 
ATOM      6  C5  UNL d   1       4.955   3.755  -4.490  0.00  0.00     0.034 A 
ATOM      7 Cl   UNL d   1       5.215   5.956  -5.999  0.00  0.00    -0.070 Cl
ATOM      8 Cl1  UNL d   1       1.960   5.995  -6.000  0.00  0.00    -0.070 Cl
ENDROOT
TORSDOF 0
ENDMDL
