MODEL 1
REMARK minimizedAffinity 1.42270339
REMARK minimizedRMSD -1
REMARK  0 active torsions:
REMARK  status: ('A' for Active; 'I' for Inactive)
ROOT
ATOM      1  C   UNL d   1      -3.830   2.020   3.721  0.00  0.00     0.020 A 
ATOM      2  C1  UNL d   1      -4.325   0.717   3.723  0.00  0.00     0.020 A 
ATOM      3  C2  UNL d   1      -3.507  -0.341   3.318  0.00  0.00     0.034 A 
ATOM      4  C3  UNL d   1      -2.191  -0.096   2.910  0.00  0.00     0.017 A 
ATOM      5  C4  UNL d   1      -1.695   1.213   2.909  0.00  0.00     0.017 A 
ATOM      6  C5  UNL d   1      -2.518   2.268   3.315  0.00  0.00     0.034 A 
ATOM      7 Cl   UNL d   1      -0.082   1.593   2.419  0.00  0.00    -0.070 Cl
ATOM      8 Cl1  UNL d   1      -1.236  -1.451   2.423  0.00  0.00    -0.070 Cl
ENDROOT
TORSDOF 0
ENDMDL
