MODEL 1
REMARK minimizedAffinity 5.09533978
REMARK minimizedRMSD -1
REMARK  0 active torsions:
REMARK  status: ('A' for Active; 'I' for Inactive)
ROOT
ATOM      1  C   UNL d   1      -4.293   0.757   3.994  0.00  0.00     0.020 A 
ATOM      2  C1  UNL d   1      -3.996   2.112   3.854  0.00  0.00     0.020 A 
ATOM      3  C2  UNL d   1      -2.824   2.506   3.206  0.00  0.00     0.034 A 
ATOM      4  C3  UNL d   1      -1.944   1.545   2.696  0.00  0.00     0.017 A 
ATOM      5  C4  UNL d   1      -2.243   0.185   2.837  0.00  0.00     0.017 A 
ATOM      6  C5  UNL d   1      -3.418  -0.205   3.487  0.00  0.00     0.034 A 
ATOM      7 Cl   UNL d   1      -1.206  -1.060   2.234  0.00  0.00    -0.070 Cl
ATOM      8 Cl1  UNL d   1      -0.512   2.104   1.907  0.00  0.00    -0.070 Cl
ENDROOT
TORSDOF 0
ENDMDL
