MODEL 1
REMARK minimizedAffinity 7.16127014
REMARK minimizedRMSD -1
REMARK  0 active torsions:
REMARK  status: ('A' for Active; 'I' for Inactive)
ROOT
ATOM      1  C   UNL d   1      -5.214   1.510   6.000  0.00  0.00     0.020 A 
ATOM      2  C1  UNL d   1      -4.719   2.813   5.974  0.00  0.00     0.020 A 
ATOM      3  C2  UNL d   1      -3.745   3.172   5.039  0.00  0.00     0.034 A 
ATOM      4  C3  UNL d   1      -3.264   2.226   4.126  0.00  0.00     0.017 A 
ATOM      5  C4  UNL d   1      -3.761   0.918   4.153  0.00  0.00     0.017 A 
ATOM      6  C5  UNL d   1      -4.736   0.565   5.091  0.00  0.00     0.034 A 
ATOM      7 Cl   UNL d   1      -3.216  -0.304   3.059  0.00  0.00    -0.070 Cl
ATOM      8 Cl1  UNL d   1      -2.060   2.739   2.997  0.00  0.00    -0.070 Cl
ENDROOT
TORSDOF 0
ENDMDL
