MODEL 1
REMARK minimizedAffinity 12.6543999
REMARK minimizedRMSD -1
REMARK  0 active torsions:
REMARK  status: ('A' for Active; 'I' for Inactive)
ROOT
ATOM      1  C   UNL d   1       3.726   5.772  -4.635  0.00  0.00     0.020 A 
ATOM      2  C1  UNL d   1       4.694   4.923  -5.170  0.00  0.00     0.020 A 
ATOM      3  C2  UNL d   1       4.536   3.539  -5.077  0.00  0.00     0.034 A 
ATOM      4  C3  UNL d   1       3.408   2.999  -4.447  0.00  0.00     0.017 A 
ATOM      5  C4  UNL d   1       2.438   3.853  -3.910  0.00  0.00     0.017 A 
ATOM      6  C5  UNL d   1       2.600   5.238  -4.006  0.00  0.00     0.034 A 
ATOM      7 Cl   UNL d   1       1.019   3.261  -3.119  0.00  0.00    -0.070 Cl
ATOM      8 Cl1  UNL d   1       3.278   1.278  -4.368  0.00  0.00    -0.070 Cl
ENDROOT
TORSDOF 0
ENDMDL
