MODEL 1
REMARK minimizedAffinity 4.34114265
REMARK minimizedRMSD -1
REMARK  0 active torsions:
REMARK  status: ('A' for Active; 'I' for Inactive)
ROOT
ATOM      1  C   UNL d   1      -0.487   1.221   2.232  0.00  0.00     0.020 A 
ATOM      2  C1  UNL d   1      -1.102   2.460   2.406  0.00  0.00     0.020 A 
ATOM      3  C2  UNL d   1      -2.368   2.535   2.992  0.00  0.00     0.034 A 
ATOM      4  C3  UNL d   1      -3.022   1.369   3.406  0.00  0.00     0.017 A 
ATOM      5  C4  UNL d   1      -2.403   0.126   3.231  0.00  0.00     0.017 A 
ATOM      6  C5  UNL d   1      -1.136   0.056   2.644  0.00  0.00     0.034 A 
ATOM      7 Cl   UNL d   1      -3.148  -1.357   3.717  0.00  0.00    -0.070 Cl
ATOM      8 Cl1  UNL d   1      -4.585   1.536   4.123  0.00  0.00    -0.070 Cl
ENDROOT
TORSDOF 0
ENDMDL
