MODEL 1
REMARK minimizedAffinity 9.2733202
REMARK minimizedRMSD -1
REMARK  0 active torsions:
REMARK  status: ('A' for Active; 'I' for Inactive)
ROOT
ATOM      1  C   UNL d   1       0.143   2.639   1.997  0.00  0.00     0.020 A 
ATOM      2  C1  UNL d   1      -1.231   2.859   1.908  0.00  0.00     0.020 A 
ATOM      3  C2  UNL d   1      -2.124   1.892   2.375  0.00  0.00     0.034 A 
ATOM      4  C3  UNL d   1      -1.645   0.701   2.932  0.00  0.00     0.017 A 
ATOM      5  C4  UNL d   1      -0.265   0.482   3.021  0.00  0.00     0.017 A 
ATOM      6  C5  UNL d   1       0.625   1.453   2.553  0.00  0.00     0.034 A 
ATOM      7 Cl   UNL d   1       0.402  -0.963   3.697  0.00  0.00    -0.070 Cl
ATOM      8 Cl1  UNL d   1      -2.806  -0.450   3.489  0.00  0.00    -0.070 Cl
ENDROOT
TORSDOF 0
ENDMDL
