MODEL 1
REMARK minimizedAffinity 4.99306202
REMARK minimizedRMSD -1
REMARK  0 active torsions:
REMARK  status: ('A' for Active; 'I' for Inactive)
ROOT
ATOM      1  C   UNL d   1      -2.743  -1.738   3.055  0.00  0.00     0.020 A 
ATOM      2  C1  UNL d   1      -1.524  -1.567   2.399  0.00  0.00     0.020 A 
ATOM      3  C2  UNL d   1      -1.052  -0.282   2.127  0.00  0.00     0.034 A 
ATOM      4  C3  UNL d   1      -1.798   0.838   2.510  0.00  0.00     0.017 A 
ATOM      5  C4  UNL d   1      -3.021   0.666   3.169  0.00  0.00     0.017 A 
ATOM      6  C5  UNL d   1      -3.490  -0.624   3.439  0.00  0.00     0.034 A 
ATOM      7 Cl   UNL d   1      -3.999   1.999   3.673  0.00  0.00    -0.070 Cl
ATOM      8 Cl1  UNL d   1      -1.154   2.398   2.142  0.00  0.00    -0.070 Cl
ENDROOT
TORSDOF 0
ENDMDL
