MODEL 1
REMARK minimizedAffinity 2.09325671
REMARK minimizedRMSD -1
REMARK  0 active torsions:
REMARK  status: ('A' for Active; 'I' for Inactive)
ROOT
ATOM      1  C   UNL d   1      -2.639   1.540   2.599  0.00  0.00     0.020 A 
ATOM      2  C1  UNL d   1      -2.425   0.231   3.029  0.00  0.00     0.020 A 
ATOM      3  C2  UNL d   1      -1.134  -0.301   3.032  0.00  0.00     0.034 A 
ATOM      4  C3  UNL d   1      -0.051   0.476   2.606  0.00  0.00     0.017 A 
ATOM      5  C4  UNL d   1      -0.266   1.791   2.175  0.00  0.00     0.017 A 
ATOM      6  C5  UNL d   1      -1.561   2.318   2.174  0.00  0.00     0.034 A 
ATOM      7 Cl   UNL d   1       1.020   2.811   1.634  0.00  0.00    -0.070 Cl
ATOM      8 Cl1  UNL d   1       1.518  -0.246   2.637  0.00  0.00    -0.070 Cl
ENDROOT
TORSDOF 0
ENDMDL
