MODEL 1
REMARK minimizedAffinity 4.63364506
REMARK minimizedRMSD -1
REMARK  0 active torsions:
REMARK  status: ('A' for Active; 'I' for Inactive)
ROOT
ATOM      1  C   UNL d   1      -0.253   1.859   2.900  0.00  0.00     0.020 A 
ATOM      2  C1  UNL d   1      -0.030   2.681   1.796  0.00  0.00     0.020 A 
ATOM      3  C2  UNL d   1      -1.092   3.386   1.225  0.00  0.00     0.034 A 
ATOM      4  C3  UNL d   1      -2.381   3.271   1.758  0.00  0.00     0.017 A 
ATOM      5  C4  UNL d   1      -2.603   2.445   2.866  0.00  0.00     0.017 A 
ATOM      6  C5  UNL d   1      -1.537   1.742   3.434  0.00  0.00     0.034 A 
ATOM      7 Cl   UNL d   1      -4.166   2.252   3.580  0.00  0.00    -0.070 Cl
ATOM      8 Cl1  UNL d   1      -3.647   4.171   1.002  0.00  0.00    -0.070 Cl
ENDROOT
TORSDOF 0
ENDMDL
