MODEL 1
REMARK minimizedAffinity 5.7526412
REMARK minimizedRMSD -1
REMARK  0 active torsions:
REMARK  status: ('A' for Active; 'I' for Inactive)
ROOT
ATOM      1  C   UNL d   1       4.121  -0.379   3.058  0.00  0.00     0.020 A 
ATOM      2  C1  UNL d   1       2.774  -0.536   2.734  0.00  0.00     0.020 A 
ATOM      3  C2  UNL d   1       2.405  -0.880   1.432  0.00  0.00     0.034 A 
ATOM      4  C3  UNL d   1       3.384  -1.066   0.449  0.00  0.00     0.017 A 
ATOM      5  C4  UNL d   1       4.735  -0.908   0.775  0.00  0.00     0.017 A 
ATOM      6  C5  UNL d   1       5.099  -0.564   2.081  0.00  0.00     0.034 A 
ATOM      7 Cl   UNL d   1       6.000  -1.122  -0.384  0.00  0.00    -0.070 Cl
ATOM      8 Cl1  UNL d   1       2.855  -1.490  -1.141  0.00  0.00    -0.070 Cl
ENDROOT
TORSDOF 0
ENDMDL
