MODEL 1
REMARK minimizedAffinity 6.90529919
REMARK minimizedRMSD -1
REMARK  0 active torsions:
REMARK  status: ('A' for Active; 'I' for Inactive)
ROOT
ATOM      1  C   UNL d   1      -1.673   3.020   2.539  0.00  0.00     0.020 A 
ATOM      2  C1  UNL d   1      -1.336   1.728   2.137  0.00  0.00     0.020 A 
ATOM      3  C2  UNL d   1      -2.127   0.646   2.528  0.00  0.00     0.034 A 
ATOM      4  C3  UNL d   1      -3.260   0.854   3.323  0.00  0.00     0.017 A 
ATOM      5  C4  UNL d   1      -3.598   2.151   3.726  0.00  0.00     0.017 A 
ATOM      6  C5  UNL d   1      -2.802   3.231   3.332  0.00  0.00     0.034 A 
ATOM      7 Cl   UNL d   1      -4.980   2.486   4.708  0.00  0.00    -0.070 Cl
ATOM      8 Cl1  UNL d   1      -4.193  -0.530   3.769  0.00  0.00    -0.070 Cl
ENDROOT
TORSDOF 0
ENDMDL
