MODEL 1
REMARK minimizedAffinity 3.61416173
REMARK minimizedRMSD -1
REMARK  0 active torsions:
REMARK  status: ('A' for Active; 'I' for Inactive)
ROOT
ATOM      1  C   UNL d   1       3.736   1.127   0.005  0.00  0.00     0.020 A 
ATOM      2  C1  UNL d   1       3.411   0.018   0.784  0.00  0.00     0.020 A 
ATOM      3  C2  UNL d   1       2.784  -1.086   0.202  0.00  0.00     0.034 A 
ATOM      4  C3  UNL d   1       2.480  -1.082  -1.164  0.00  0.00     0.017 A 
ATOM      5  C4  UNL d   1       2.807   0.031  -1.946  0.00  0.00     0.017 A 
ATOM      6  C5  UNL d   1       3.435   1.133  -1.358  0.00  0.00     0.034 A 
ATOM      7 Cl   UNL d   1       2.463   0.109  -3.638  0.00  0.00    -0.070 Cl
ATOM      8 Cl1  UNL d   1       1.704  -2.481  -1.818  0.00  0.00    -0.070 Cl
ENDROOT
TORSDOF 0
ENDMDL
