MODEL 1
REMARK minimizedAffinity -0.527639806
REMARK minimizedRMSD -1
REMARK  1 active torsions:
REMARK  status: ('A' for Active; 'I' for Inactive)
REMARK    1  A    between atoms: C1_2  and  C2_3 
ROOT
ATOM      1  C2  UNL d   1      -0.617   0.610  -1.351  0.00  0.00    -0.081 A 
ATOM      2  C3  UNL d   1      -0.414   0.519   0.032  0.00  0.00     0.006 A 
ATOM      3  C4  UNL d   1       0.773  -0.016   0.539  0.00  0.00     0.002 A 
ATOM      4  C5  UNL d   1       1.779  -0.459  -0.327  0.00  0.00    -0.080 A 
ATOM      5  C6  UNL d   1       3.070  -1.007   0.204  0.00  0.00     0.076 C 
ATOM      6  C7  UNL d   1       1.568  -0.384  -1.708  0.00  0.00     0.002 A 
ATOM      7  C8  UNL d   1       0.381   0.149  -2.215  0.00  0.00     0.006 A 
ENDROOT
BRANCH   1   8
ATOM      8  C1  UNL d   1      -1.869   1.245  -1.900  0.00  0.00     0.054 C 
ATOM      9  C   UNL d   1      -1.632   2.702  -2.275  0.00  0.00     0.018 C 
ENDBRANCH   1   8
TORSDOF 1
ENDMDL
