MODEL 1
REMARK minimizedAffinity -2.15999389
REMARK minimizedRMSD -1
REMARK  1 active torsions:
REMARK  status: ('A' for Active; 'I' for Inactive)
REMARK    1  A    between atoms: C1_2  and  C2_3 
ROOT
ATOM      1  C2  UNL d   1      -0.189   0.370  -1.604  0.00  0.00    -0.081 A 
ATOM      2  C3  UNL d   1      -0.646   0.871  -0.378  0.00  0.00     0.006 A 
ATOM      3  C4  UNL d   1      -0.032   0.488   0.816  0.00  0.00     0.002 A 
ATOM      4  C5  UNL d   1       1.054  -0.395   0.805  0.00  0.00    -0.080 A 
ATOM      5  C6  UNL d   1       1.741  -0.790   2.078  0.00  0.00     0.076 C 
ATOM      6  C7  UNL d   1       1.499  -0.908  -0.417  0.00  0.00     0.002 A 
ATOM      7  C8  UNL d   1       0.885  -0.526  -1.612  0.00  0.00     0.006 A 
ENDROOT
BRANCH   1   8
ATOM      8  C1  UNL d   1      -0.808   0.832  -2.898  0.00  0.00     0.054 C 
ATOM      9  C   UNL d   1      -0.878   2.350  -2.968  0.00  0.00     0.018 C 
ENDBRANCH   1   8
TORSDOF 1
ENDMDL
