MODEL 1
REMARK minimizedAffinity 1.46839094
REMARK minimizedRMSD -1
REMARK  1 active torsions:
REMARK  status: ('A' for Active; 'I' for Inactive)
REMARK    1  A    between atoms: C1_2  and  C2_3 
ROOT
ATOM      1  C2  UNL d   1       1.758  -0.988   1.907  0.00  0.00    -0.081 A 
ATOM      2  C3  UNL d   1       2.943  -1.111   1.170  0.00  0.00     0.006 A 
ATOM      3  C4  UNL d   1       2.900  -1.328  -0.209  0.00  0.00     0.002 A 
ATOM      4  C5  UNL d   1       1.673  -1.418  -0.876  0.00  0.00    -0.080 A 
ATOM      5  C6  UNL d   1       1.614  -1.621  -2.360  0.00  0.00     0.076 C 
ATOM      6  C7  UNL d   1       0.490  -1.312  -0.137  0.00  0.00     0.002 A 
ATOM      7  C8  UNL d   1       0.532  -1.096   1.242  0.00  0.00     0.006 A 
ENDROOT
BRANCH   1   8
ATOM      8  C1  UNL d   1       1.801  -0.689   3.383  0.00  0.00     0.054 C 
ATOM      9  C   UNL d   1       1.347   0.735   3.673  0.00  0.00     0.018 C 
ENDBRANCH   1   8
TORSDOF 1
ENDMDL
