MODEL 1
REMARK minimizedAffinity -2.34594512
REMARK minimizedRMSD -1
REMARK  1 active torsions:
REMARK  status: ('A' for Active; 'I' for Inactive)
REMARK    1  A    between atoms: C1_2  and  C2_3 
ROOT
ATOM      1  C2  UNL d   1      -0.560   0.336  -0.977  0.00  0.00    -0.081 A 
ATOM      2  C3  UNL d   1       0.612  -0.431  -0.943  0.00  0.00     0.006 A 
ATOM      3  C4  UNL d   1       0.964  -1.135   0.211  0.00  0.00     0.002 A 
ATOM      4  C5  UNL d   1       0.148  -1.090   1.346  0.00  0.00    -0.080 A 
ATOM      5  C6  UNL d   1       0.499  -1.866   2.581  0.00  0.00     0.076 C 
ATOM      6  C7  UNL d   1      -1.013  -0.310   1.318  0.00  0.00     0.002 A 
ATOM      7  C8  UNL d   1      -1.366   0.394   0.165  0.00  0.00     0.006 A 
ENDROOT
BRANCH   1   8
ATOM      8  C1  UNL d   1      -0.976   1.044  -2.241  0.00  0.00     0.054 C 
ATOM      9  C   UNL d   1      -0.480   2.483  -2.258  0.00  0.00     0.018 C 
ENDBRANCH   1   8
TORSDOF 1
ENDMDL
