MODEL 1
REMARK minimizedAffinity 4.91485119
REMARK minimizedRMSD -1
REMARK  1 active torsions:
REMARK  status: ('A' for Active; 'I' for Inactive)
REMARK    1  A    between atoms: C3_4  and  O_7 
ROOT
ATOM      1  C   UNL d   1      -3.410  -4.627  -5.999  0.00  0.00    -0.033 A 
ATOM      2  C1  UNL d   1      -2.640  -3.462  -5.999  0.00  0.00     0.039 A 
ATOM      3  C2  UNL d   1      -1.501  -3.376  -5.197  0.00  0.00    -0.080 A 
ATOM      4  C3  UNL d   1      -1.141  -4.460  -4.402  0.00  0.00     0.150 A 
ATOM      5  C4  UNL d   1      -1.901  -5.626  -4.400  0.00  0.00    -0.007 A 
ATOM      6  C5  UNL d   1      -3.039  -5.710  -5.201  0.00  0.00     0.039 A 
ENDROOT
BRANCH   4   7
ATOM      7  O   UNL d   1      -0.040  -4.422  -3.599  0.00  0.00    -0.526 OA
ATOM      8  H5  UNL d   1       0.370  -3.544  -3.682  0.00  0.00     0.418 HD
ENDBRANCH   4   7
TORSDOF 1
ENDMDL
