MODEL 1
REMARK minimizedAffinity -0.270314038
REMARK minimizedRMSD -1
REMARK  1 active torsions:
REMARK  status: ('A' for Active; 'I' for Inactive)
REMARK    1  A    between atoms: C3_4  and  O_7 
ROOT
ATOM      1  C   UNL d   1      -3.738  -4.526  -5.994  0.00  0.00    -0.033 A 
ATOM      2  C1  UNL d   1      -2.781  -3.509  -6.000  0.00  0.00     0.039 A 
ATOM      3  C2  UNL d   1      -1.516  -3.735  -5.454  0.00  0.00    -0.080 A 
ATOM      4  C3  UNL d   1      -1.221  -4.981  -4.908  0.00  0.00     0.150 A 
ATOM      5  C4  UNL d   1      -2.168  -6.000  -4.903  0.00  0.00    -0.007 A 
ATOM      6  C5  UNL d   1      -3.430  -5.772  -5.447  0.00  0.00     0.039 A 
ENDROOT
BRANCH   4   7
ATOM      7  O   UNL d   1      -0.001  -5.248  -4.359  0.00  0.00    -0.526 OA
ATOM      8  H5  UNL d   1       0.540  -4.442  -4.407  0.00  0.00     0.418 HD
ENDBRANCH   4   7
TORSDOF 1
ENDMDL
