MODEL 1
REMARK minimizedAffinity -1.66926551
REMARK minimizedRMSD -1
REMARK  1 active torsions:
REMARK  status: ('A' for Active; 'I' for Inactive)
REMARK    1  A    between atoms: C3_4  and  O_7 
ROOT
ATOM      1  C   UNL d   1      -0.869  -5.532  -6.000  0.00  0.00    -0.033 A 
ATOM      2  C1  UNL d   1      -2.215  -5.308  -5.705  0.00  0.00     0.039 A 
ATOM      3  C2  UNL d   1      -2.674  -5.432  -4.392  0.00  0.00    -0.080 A 
ATOM      4  C3  UNL d   1      -1.777  -5.779  -3.385  0.00  0.00     0.150 A 
ATOM      5  C4  UNL d   1      -0.434  -6.000  -3.671  0.00  0.00    -0.007 A 
ATOM      6  C5  UNL d   1       0.022  -5.876  -4.983  0.00  0.00     0.039 A 
ENDROOT
BRANCH   4   7
ATOM      7  O   UNL d   1      -2.179  -5.917  -2.089  0.00  0.00    -0.526 OA
ATOM      8  H5  UNL d   1      -3.138  -5.763  -2.047  0.00  0.00     0.418 HD
ENDBRANCH   4   7
TORSDOF 1
ENDMDL
