MODEL 1
REMARK minimizedAffinity -0.761713624
REMARK minimizedRMSD -1
REMARK  1 active torsions:
REMARK  status: ('A' for Active; 'I' for Inactive)
REMARK    1  A    between atoms: C3_4  and  O_7 
ROOT
ATOM      1  C   UNL d   1      -4.296  -4.045  -6.000  0.00  0.00    -0.033 A 
ATOM      2  C1  UNL d   1      -4.175  -5.424  -5.822  0.00  0.00     0.039 A 
ATOM      3  C2  UNL d   1      -2.915  -5.999  -5.645  0.00  0.00    -0.080 A 
ATOM      4  C3  UNL d   1      -1.786  -5.184  -5.646  0.00  0.00     0.150 A 
ATOM      5  C4  UNL d   1      -1.900  -3.809  -5.819  0.00  0.00    -0.007 A 
ATOM      6  C5  UNL d   1      -3.159  -3.237  -5.997  0.00  0.00     0.039 A 
ENDROOT
BRANCH   4   7
ATOM      7  O   UNL d   1      -0.535  -5.700  -5.482  0.00  0.00    -0.526 OA
ATOM      8  H5  UNL d   1      -0.608  -6.666  -5.402  0.00  0.00     0.418 HD
ENDBRANCH   4   7
TORSDOF 1
ENDMDL
