MODEL 1
REMARK minimizedAffinity 7.85948849
REMARK minimizedRMSD -1
REMARK  1 active torsions:
REMARK  status: ('A' for Active; 'I' for Inactive)
REMARK    1  A    between atoms: C3_4  and  O_7 
ROOT
ATOM      1  C   UNL d   1       4.096  -0.201   2.545  0.00  0.00    -0.033 A 
ATOM      2  C1  UNL d   1       3.442  -0.777   1.453  0.00  0.00     0.039 A 
ATOM      3  C2  UNL d   1       4.066  -1.785   0.716  0.00  0.00    -0.080 A 
ATOM      4  C3  UNL d   1       5.341  -2.208   1.080  0.00  0.00     0.150 A 
ATOM      5  C4  UNL d   1       5.997  -1.642   2.169  0.00  0.00    -0.007 A 
ATOM      6  C5  UNL d   1       5.373  -0.635   2.903  0.00  0.00     0.039 A 
ENDROOT
BRANCH   4   7
ATOM      7  O   UNL d   1       5.993  -3.185   0.387  0.00  0.00    -0.526 OA
ATOM      8  H5  UNL d   1       5.431  -3.463  -0.355  0.00  0.00     0.418 HD
ENDBRANCH   4   7
TORSDOF 1
ENDMDL
