MODEL 1
REMARK minimizedAffinity -1.64229202
REMARK minimizedRMSD -1
REMARK  1 active torsions:
REMARK  status: ('A' for Active; 'I' for Inactive)
REMARK    1  A    between atoms: C3_4  and  O_7 
ROOT
ATOM      1  C   UNL d   1      -0.518   3.403  -3.052  0.00  0.00    -0.033 A 
ATOM      2  C1  UNL d   1      -0.818   2.984  -1.754  0.00  0.00     0.039 A 
ATOM      3  C2  UNL d   1      -2.074   3.250  -1.205  0.00  0.00    -0.080 A 
ATOM      4  C3  UNL d   1      -3.021   3.933  -1.964  0.00  0.00     0.150 A 
ATOM      5  C4  UNL d   1      -2.730   4.350  -3.259  0.00  0.00    -0.007 A 
ATOM      6  C5  UNL d   1      -1.475   4.085  -3.805  0.00  0.00     0.039 A 
ENDROOT
BRANCH   4   7
ATOM      7  O   UNL d   1      -4.258   4.220  -1.470  0.00  0.00    -0.526 OA
ATOM      8  H5  UNL d   1      -4.307   3.897  -0.555  0.00  0.00     0.418 HD
ENDBRANCH   4   7
TORSDOF 1
ENDMDL
