MODEL 1
REMARK minimizedAffinity -0.852672338
REMARK minimizedRMSD -1
REMARK  1 active torsions:
REMARK  status: ('A' for Active; 'I' for Inactive)
REMARK    1  A    between atoms: C3_4  and  O_7 
ROOT
ATOM      1  C   UNL d   1      -4.270  -4.035  -6.000  0.00  0.00    -0.033 A 
ATOM      2  C1  UNL d   1      -4.130  -5.425  -6.000  0.00  0.00     0.039 A 
ATOM      3  C2  UNL d   1      -2.858  -6.000  -5.991  0.00  0.00    -0.080 A 
ATOM      4  C3  UNL d   1      -1.735  -5.176  -5.980  0.00  0.00     0.150 A 
ATOM      5  C4  UNL d   1      -1.867  -3.792  -5.976  0.00  0.00    -0.007 A 
ATOM      6  C5  UNL d   1      -3.138  -3.219  -5.987  0.00  0.00     0.039 A 
ENDROOT
BRANCH   4   7
ATOM      7  O   UNL d   1      -0.473  -5.692  -5.976  0.00  0.00    -0.526 OA
ATOM      8  H5  UNL d   1      -0.537  -6.661  -6.009  0.00  0.00     0.418 HD
ENDBRANCH   4   7
TORSDOF 1
ENDMDL
