MODEL 1
REMARK minimizedAffinity 4.4674859
REMARK minimizedRMSD -1
REMARK  1 active torsions:
REMARK  status: ('A' for Active; 'I' for Inactive)
REMARK    1  A    between atoms: C3_4  and  O_7 
ROOT
ATOM      1  C   UNL d   1      -1.370  -4.049  -5.687  0.00  0.00    -0.033 A 
ATOM      2  C1  UNL d   1      -1.509  -5.407  -5.394  0.00  0.00     0.039 A 
ATOM      3  C2  UNL d   1      -2.774  -5.998  -5.400  0.00  0.00    -0.080 A 
ATOM      4  C3  UNL d   1      -3.890  -5.221  -5.702  0.00  0.00     0.150 A 
ATOM      5  C4  UNL d   1      -3.758  -3.869  -5.999  0.00  0.00    -0.007 A 
ATOM      6  C5  UNL d   1      -2.494  -3.280  -5.991  0.00  0.00     0.039 A 
ENDROOT
BRANCH   4   7
ATOM      7  O   UNL d   1      -5.145  -5.753  -5.716  0.00  0.00    -0.526 OA
ATOM      8  H5  UNL d   1      -5.086  -6.689  -5.464  0.00  0.00     0.418 HD
ENDBRANCH   4   7
TORSDOF 1
ENDMDL
