MODEL 1
REMARK minimizedAffinity -1.82394874
REMARK minimizedRMSD -1
REMARK  1 active torsions:
REMARK  status: ('A' for Active; 'I' for Inactive)
REMARK    1  A    between atoms: C3_4  and  O_7 
ROOT
ATOM      1  C   UNL d   1      -5.430  -1.877  -2.123  0.00  0.00    -0.033 A 
ATOM      2  C1  UNL d   1      -5.239  -2.373  -3.413  0.00  0.00     0.039 A 
ATOM      3  C2  UNL d   1      -5.424  -1.541  -4.518  0.00  0.00    -0.080 A 
ATOM      4  C3  UNL d   1      -5.800  -0.215  -4.320  0.00  0.00     0.150 A 
ATOM      5  C4  UNL d   1      -5.989   0.288  -3.036  0.00  0.00    -0.007 A 
ATOM      6  C5  UNL d   1      -5.804  -0.546  -1.934  0.00  0.00     0.039 A 
ENDROOT
BRANCH   4   7
ATOM      7  O   UNL d   1      -5.997   0.635  -5.367  0.00  0.00    -0.526 OA
ATOM      8  H5  UNL d   1      -5.859   0.142  -6.193  0.00  0.00     0.418 HD
ENDBRANCH   4   7
TORSDOF 1
ENDMDL
