MODEL 1
REMARK minimizedAffinity 0.594892442
REMARK minimizedRMSD -1
REMARK  1 active torsions:
REMARK  status: ('A' for Active; 'I' for Inactive)
REMARK    1  A    between atoms: C3_4  and  O_7 
ROOT
ATOM      1  C   UNL d   1       3.835  -0.593   1.147  0.00  0.00    -0.033 A 
ATOM      2  C1  UNL d   1       2.931  -1.484   0.566  0.00  0.00     0.039 A 
ATOM      3  C2  UNL d   1       1.660  -1.044   0.190  0.00  0.00    -0.080 A 
ATOM      4  C3  UNL d   1       1.307   0.286   0.399  0.00  0.00     0.150 A 
ATOM      5  C4  UNL d   1       2.205   1.180   0.974  0.00  0.00    -0.007 A 
ATOM      6  C5  UNL d   1       3.473   0.739   1.350  0.00  0.00     0.039 A 
ENDROOT
BRANCH   4   7
ATOM      7  O   UNL d   1       0.077   0.760   0.052  0.00  0.00    -0.526 OA
ATOM      8  H5  UNL d   1      -0.447   0.024  -0.307  0.00  0.00     0.418 HD
ENDBRANCH   4   7
TORSDOF 1
ENDMDL
