MODEL 1
REMARK minimizedAffinity 4.55149174
REMARK minimizedRMSD -1
REMARK  1 active torsions:
REMARK  status: ('A' for Active; 'I' for Inactive)
REMARK    1  A    between atoms: C3_4  and  O_7 
ROOT
ATOM      1  C   UNL d   1      -1.016  -2.806   4.637  0.00  0.00    -0.033 A 
ATOM      2  C1  UNL d   1      -0.984  -2.251   3.356  0.00  0.00     0.039 A 
ATOM      3  C2  UNL d   1       0.181  -2.323   2.590  0.00  0.00    -0.080 A 
ATOM      4  C3  UNL d   1       1.305  -2.955   3.115  0.00  0.00     0.150 A 
ATOM      5  C4  UNL d   1       1.280  -3.514   4.388  0.00  0.00    -0.007 A 
ATOM      6  C5  UNL d   1       0.116  -3.439   5.152  0.00  0.00     0.039 A 
ENDROOT
BRANCH   4   7
ATOM      7  O   UNL d   1       2.466  -3.046   2.407  0.00  0.00    -0.526 OA
ATOM      8  H5  UNL d   1       2.345  -2.591   1.557  0.00  0.00     0.418 HD
ENDBRANCH   4   7
TORSDOF 1
ENDMDL
