MODEL 1
REMARK minimizedAffinity 0.712676585
REMARK minimizedRMSD -1
REMARK  1 active torsions:
REMARK  status: ('A' for Active; 'I' for Inactive)
REMARK    1  A    between atoms: C3_4  and  O_7 
ROOT
ATOM      1  C   UNL d   1       0.413  -2.021   0.503  0.00  0.00    -0.033 A 
ATOM      2  C1  UNL d   1      -0.233  -0.802   0.716  0.00  0.00     0.039 A 
ATOM      3  C2  UNL d   1      -0.983  -0.600   1.877  0.00  0.00    -0.080 A 
ATOM      4  C3  UNL d   1      -1.078  -1.624   2.815  0.00  0.00     0.150 A 
ATOM      5  C4  UNL d   1      -0.434  -2.840   2.611  0.00  0.00    -0.007 A 
ATOM      6  C5  UNL d   1       0.314  -3.040   1.451  0.00  0.00     0.039 A 
ENDROOT
BRANCH   4   7
ATOM      7  O   UNL d   1      -1.802  -1.476   3.960  0.00  0.00    -0.526 OA
ATOM      8  H5  UNL d   1      -2.215  -0.596   3.952  0.00  0.00     0.418 HD
ENDBRANCH   4   7
TORSDOF 1
ENDMDL
