MODEL 1
REMARK minimizedAffinity -0.313897222
REMARK minimizedRMSD -1
REMARK  1 active torsions:
REMARK  status: ('A' for Active; 'I' for Inactive)
REMARK    1  A    between atoms: C3_4  and  O_7 
ROOT
ATOM      1  C   UNL d   1      -5.986  -0.370  -6.000  0.00  0.00    -0.033 A 
ATOM      2  C1  UNL d   1      -6.000   0.757  -5.176  0.00  0.00     0.039 A 
ATOM      3  C2  UNL d   1      -5.960   0.610  -3.788  0.00  0.00    -0.080 A 
ATOM      4  C3  UNL d   1      -5.904  -0.668  -3.238  0.00  0.00     0.150 A 
ATOM      5  C4  UNL d   1      -5.886  -1.795  -4.053  0.00  0.00    -0.007 A 
ATOM      6  C5  UNL d   1      -5.927  -1.646  -5.438  0.00  0.00     0.039 A 
ENDROOT
BRANCH   4   7
ATOM      7  O   UNL d   1      -5.868  -0.862  -1.889  0.00  0.00    -0.526 OA
ATOM      8  H5  UNL d   1      -5.916   0.005  -1.452  0.00  0.00     0.418 HD
ENDBRANCH   4   7
TORSDOF 1
ENDMDL
