MODEL 1
REMARK minimizedAffinity -0.782070398
REMARK minimizedRMSD -1
REMARK  1 active torsions:
REMARK  status: ('A' for Active; 'I' for Inactive)
REMARK    1  A    between atoms: C3_4  and  O_7 
ROOT
ATOM      1  C   UNL d   1      -1.992  -4.861  -4.724  0.00  0.00    -0.033 A 
ATOM      2  C1  UNL d   1      -2.523  -4.451  -5.948  0.00  0.00     0.039 A 
ATOM      3  C2  UNL d   1      -3.412  -3.376  -6.000  0.00  0.00    -0.080 A 
ATOM      4  C3  UNL d   1      -3.762  -2.721  -4.822  0.00  0.00     0.150 A 
ATOM      5  C4  UNL d   1      -3.233  -3.122  -3.600  0.00  0.00    -0.007 A 
ATOM      6  C5  UNL d   1      -2.346  -4.196  -3.550  0.00  0.00     0.039 A 
ENDROOT
BRANCH   4   7
ATOM      7  O   UNL d   1      -4.630  -1.670  -4.822  0.00  0.00    -0.526 OA
ATOM      8  H5  UNL d   1      -4.936  -1.523  -5.733  0.00  0.00     0.418 HD
ENDBRANCH   4   7
TORSDOF 1
ENDMDL
