MODEL 1
REMARK minimizedAffinity 6.68564701
REMARK minimizedRMSD -1
REMARK  1 active torsions:
REMARK  status: ('A' for Active; 'I' for Inactive)
REMARK    1  A    between atoms: C3_4  and  O_7 
ROOT
ATOM      1  C   UNL d   1      -0.615   0.662   0.347  0.00  0.00    -0.033 A 
ATOM      2  C1  UNL d   1      -0.771  -0.719   0.210  0.00  0.00     0.039 A 
ATOM      3  C2  UNL d   1      -1.876  -1.234  -0.470  0.00  0.00    -0.080 A 
ATOM      4  C3  UNL d   1      -2.816  -0.359  -1.009  0.00  0.00     0.150 A 
ATOM      5  C4  UNL d   1      -2.664   1.017  -0.880  0.00  0.00    -0.007 A 
ATOM      6  C5  UNL d   1      -1.561   1.530  -0.199  0.00  0.00     0.039 A 
ENDROOT
BRANCH   4   7
ATOM      7  O   UNL d   1      -3.913  -0.815  -1.677  0.00  0.00    -0.526 OA
ATOM      8  H5  UNL d   1      -3.900  -1.787  -1.663  0.00  0.00     0.418 HD
ENDBRANCH   4   7
TORSDOF 1
ENDMDL
