MODEL 1
REMARK minimizedAffinity -1.69963968
REMARK minimizedRMSD -1
REMARK  1 active torsions:
REMARK  status: ('A' for Active; 'I' for Inactive)
REMARK    1  A    between atoms: C3_4  and  O_7 
ROOT
ATOM      1  C   UNL d   1      -5.867  -4.171  -5.999  0.00  0.00    -0.033 A 
ATOM      2  C1  UNL d   1      -4.813  -3.256  -5.994  0.00  0.00     0.039 A 
ATOM      3  C2  UNL d   1      -3.492  -3.710  -5.986  0.00  0.00    -0.080 A 
ATOM      4  C3  UNL d   1      -3.240  -5.079  -5.984  0.00  0.00     0.150 A 
ATOM      5  C4  UNL d   1      -4.286  -5.996  -5.993  0.00  0.00    -0.007 A 
ATOM      6  C5  UNL d   1      -5.603  -5.541  -6.000  0.00  0.00     0.039 A 
ENDROOT
BRANCH   4   7
ATOM      7  O   UNL d   1      -1.968  -5.569  -5.972  0.00  0.00    -0.526 OA
ATOM      8  H5  UNL d   1      -1.350  -4.820  -5.938  0.00  0.00     0.418 HD
ENDBRANCH   4   7
TORSDOF 1
ENDMDL
