MODEL 1
REMARK minimizedAffinity 11.9105453
REMARK minimizedRMSD -1
REMARK  1 active torsions:
REMARK  status: ('A' for Active; 'I' for Inactive)
REMARK    1  A    between atoms: C3_4  and  O_7 
ROOT
ATOM      1  C   UNL d   1       1.118  -3.825   4.616  0.00  0.00    -0.033 A 
ATOM      2  C1  UNL d   1      -0.170  -3.285   4.600  0.00  0.00     0.039 A 
ATOM      3  C2  UNL d   1      -0.649  -2.651   3.452  0.00  0.00    -0.080 A 
ATOM      4  C3  UNL d   1       0.168  -2.564   2.328  0.00  0.00     0.150 A 
ATOM      5  C4  UNL d   1       1.451  -3.103   2.335  0.00  0.00    -0.007 A 
ATOM      6  C5  UNL d   1       1.928  -3.735   3.483  0.00  0.00     0.039 A 
ENDROOT
BRANCH   4   7
ATOM      7  O   UNL d   1      -0.253  -1.951   1.186  0.00  0.00    -0.526 OA
ATOM      8  H5  UNL d   1      -1.148  -1.601   1.336  0.00  0.00     0.418 HD
ENDBRANCH   4   7
TORSDOF 1
ENDMDL
