MODEL 1
REMARK minimizedAffinity 8.26361561
REMARK minimizedRMSD -1
REMARK  0 active torsions:
REMARK  status: ('A' for Active; 'I' for Inactive)
ROOT
ATOM      1  N1  IND d   1      -2.564  -2.422   0.313  0.00  0.00    -0.196 N 
ATOM      2  C2  IND d   1      -1.565  -1.619   0.789  0.00  0.00     0.054 A 
ATOM      3  C3  IND d   1      -0.718  -2.332   1.566  0.00  0.00    -0.031 A 
ATOM      4  C4  IND d   1      -0.723  -4.848   2.109  0.00  0.00     0.051 A 
ATOM      5  C5  IND d   1      -1.458  -5.987   1.934  0.00  0.00    -0.031 A 
ATOM      6  C6  IND d   1      -2.621  -5.996   1.191  0.00  0.00     0.015 A 
ATOM      7  C7  IND d   1      -3.089  -4.864   0.585  0.00  0.00    -0.016 A 
ATOM      8  C8  IND d   1      -2.349  -3.705   0.768  0.00  0.00    -0.047 A 
ATOM      9  C9  IND d   1      -1.190  -3.680   1.555  0.00  0.00    -0.096 A 
ATOM     10  HN1 IND d   1      -3.216  -2.169  -0.186  0.00  0.00     0.298 HD
ENDROOT
TORSDOF 0
ENDMDL
