MODEL 1
REMARK minimizedAffinity 11.7579374
REMARK minimizedRMSD -1
REMARK  0 active torsions:
REMARK  status: ('A' for Active; 'I' for Inactive)
ROOT
ATOM      1  N1  IND d   1      -5.321   3.016   5.993  0.00  0.00    -0.196 N 
ATOM      2  C2  IND d   1      -4.443   3.966   5.549  0.00  0.00     0.054 A 
ATOM      3  C3  IND d   1      -3.820   3.542   4.427  0.00  0.00    -0.031 A 
ATOM      4  C4  IND d   1      -4.159   1.368   3.089  0.00  0.00     0.051 A 
ATOM      5  C5  IND d   1      -4.826   0.176   3.123  0.00  0.00    -0.031 A 
ATOM      6  C6  IND d   1      -5.713  -0.135   4.133  0.00  0.00     0.015 A 
ATOM      7  C7  IND d   1      -5.974   0.742   5.147  0.00  0.00    -0.016 A 
ATOM      8  C8  IND d   1      -5.293   1.951   5.120  0.00  0.00    -0.047 A 
ATOM      9  C9  IND d   1      -4.360   2.255   4.120  0.00  0.00    -0.096 A 
ATOM     10  HN1 IND d   1      -5.808   3.075   6.700  0.00  0.00     0.298 HD
ENDROOT
TORSDOF 0
ENDMDL
