MODEL 1
REMARK minimizedAffinity 16.0516567
REMARK minimizedRMSD -1
REMARK  0 active torsions:
REMARK  status: ('A' for Active; 'I' for Inactive)
ROOT
ATOM      1  N1  IND d   1      -4.229   4.200   4.872  0.00  0.00    -0.196 N 
ATOM      2  C2  IND d   1      -5.184   4.471   5.812  0.00  0.00     0.054 A 
ATOM      3  C3  IND d   1      -5.996   3.403   5.978  0.00  0.00    -0.031 A 
ATOM      4  C4  IND d   1      -5.880   1.074   4.887  0.00  0.00     0.051 A 
ATOM      5  C5  IND d   1      -5.203   0.363   3.937  0.00  0.00    -0.031 A 
ATOM      6  C6  IND d   1      -4.144   0.904   3.237  0.00  0.00     0.015 A 
ATOM      7  C7  IND d   1      -3.713   2.179   3.471  0.00  0.00    -0.016 A 
ATOM      8  C8  IND d   1      -4.402   2.907   4.431  0.00  0.00    -0.047 A 
ATOM      9  C9  IND d   1      -5.505   2.377   5.114  0.00  0.00    -0.096 A 
ATOM     10  HN1 IND d   1      -3.622   4.746   4.602  0.00  0.00     0.298 HD
ENDROOT
TORSDOF 0
ENDMDL
