MODEL 1
REMARK minimizedAffinity 20.2680244
REMARK minimizedRMSD -1
REMARK  0 active torsions:
REMARK  status: ('A' for Active; 'I' for Inactive)
ROOT
ATOM      1  N1  IND d   1      -2.835   2.884   3.755  0.00  0.00    -0.196 N 
ATOM      2  C2  IND d   1      -3.973   2.135   3.641  0.00  0.00     0.054 A 
ATOM      3  C3  IND d   1      -3.665   0.821   3.558  0.00  0.00    -0.031 A 
ATOM      4  C4  IND d   1      -1.367  -0.331   3.692  0.00  0.00     0.051 A 
ATOM      5  C5  IND d   1      -0.028  -0.061   3.759  0.00  0.00    -0.031 A 
ATOM      6  C6  IND d   1       0.452   1.230   3.831  0.00  0.00     0.015 A 
ATOM      7  C7  IND d   1      -0.392   2.304   3.852  0.00  0.00    -0.016 A 
ATOM      8  C8  IND d   1      -1.751   2.034   3.778  0.00  0.00    -0.047 A 
ATOM      9  C9  IND d   1      -2.243   0.728   3.661  0.00  0.00    -0.096 A 
ATOM     10  HN1 IND d   1      -2.802   3.742   3.804  0.00  0.00     0.298 HD
ENDROOT
TORSDOF 0
ENDMDL
