MODEL 1
REMARK minimizedAffinity 23.6310959
REMARK minimizedRMSD -1
REMARK  0 active torsions:
REMARK  status: ('A' for Active; 'I' for Inactive)
ROOT
ATOM      1  N1  IND d   1      -0.665  -5.704  -3.804  0.00  0.00    -0.196 N 
ATOM      2  C2  IND d   1       0.244  -4.898  -4.432  0.00  0.00     0.054 A 
ATOM      3  C3  IND d   1      -0.145  -3.605  -4.360  0.00  0.00    -0.031 A 
ATOM      4  C4  IND d   1      -2.183  -2.574  -3.173  0.00  0.00     0.051 A 
ATOM      5  C5  IND d   1      -3.319  -2.912  -2.494  0.00  0.00    -0.031 A 
ATOM      6  C6  IND d   1      -3.634  -4.225  -2.208  0.00  0.00     0.015 A 
ATOM      7  C7  IND d   1      -2.815  -5.252  -2.584  0.00  0.00    -0.016 A 
ATOM      8  C8  IND d   1      -1.663  -4.912  -3.280  0.00  0.00    -0.047 A 
ATOM      9  C9  IND d   1      -1.360  -3.585  -3.609  0.00  0.00    -0.096 A 
ATOM     10  HN1 IND d   1      -0.621  -6.561  -3.747  0.00  0.00     0.298 HD
ENDROOT
TORSDOF 0
ENDMDL
