MODEL 1
REMARK minimizedAffinity 17.0633621
REMARK minimizedRMSD -1
REMARK  0 active torsions:
REMARK  status: ('A' for Active; 'I' for Inactive)
ROOT
ATOM      1  N1  IND d   1      -0.557  -2.644   1.410  0.00  0.00    -0.196 N 
ATOM      2  C2  IND d   1      -1.114  -1.938   0.381  0.00  0.00     0.054 A 
ATOM      3  C3  IND d   1      -2.112  -2.648  -0.191  0.00  0.00    -0.031 A 
ATOM      4  C4  IND d   1      -3.066  -4.948   0.464  0.00  0.00     0.051 A 
ATOM      5  C5  IND d   1      -2.859  -5.997   1.316  0.00  0.00    -0.031 A 
ATOM      6  C6  IND d   1      -1.856  -5.980   2.263  0.00  0.00     0.015 A 
ATOM      7  C7  IND d   1      -1.026  -4.904   2.402  0.00  0.00    -0.016 A 
ATOM      8  C8  IND d   1      -1.228  -3.840   1.535  0.00  0.00    -0.047 A 
ATOM      9  C9  IND d   1      -2.217  -3.869   0.543  0.00  0.00    -0.096 A 
ATOM     10  HN1 IND d   1       0.103  -2.385   1.897  0.00  0.00     0.298 HD
ENDROOT
TORSDOF 0
ENDMDL
