MODEL 1
REMARK minimizedAffinity 24.3917942
REMARK minimizedRMSD -1
REMARK  0 active torsions:
REMARK  status: ('A' for Active; 'I' for Inactive)
ROOT
ATOM      1  N1  IND d   1      -6.000  -4.901  -3.360  0.00  0.00    -0.196 N 
ATOM      2  C2  IND d   1      -5.911  -5.999  -2.550  0.00  0.00     0.054 A 
ATOM      3  C3  IND d   1      -4.751  -5.980  -1.857  0.00  0.00    -0.031 A 
ATOM      4  C4  IND d   1      -2.897  -4.193  -1.820  0.00  0.00     0.051 A 
ATOM      5  C5  IND d   1      -2.513  -3.027  -2.420  0.00  0.00    -0.031 A 
ATOM      6  C6  IND d   1      -3.289  -2.412  -3.381  0.00  0.00     0.015 A 
ATOM      7  C7  IND d   1      -4.488  -2.937  -3.772  0.00  0.00    -0.016 A 
ATOM      8  C8  IND d   1      -4.878  -4.125  -3.170  0.00  0.00    -0.047 A 
ATOM      9  C9  IND d   1      -4.075  -4.776  -2.225  0.00  0.00    -0.096 A 
ATOM     10  HN1 IND d   1      -6.647  -4.726  -3.897  0.00  0.00     0.298 HD
ENDROOT
TORSDOF 0
ENDMDL
