MODEL 1
REMARK minimizedAffinity 13.7167835
REMARK minimizedRMSD -1
REMARK  0 active torsions:
REMARK  status: ('A' for Active; 'I' for Inactive)
ROOT
ATOM      1  N1  IND d   1       2.230   3.395  -5.999  0.00  0.00    -0.196 N 
ATOM      2  C2  IND d   1       1.912   4.568  -5.374  0.00  0.00     0.054 A 
ATOM      3  C3  IND d   1       2.351   4.554  -4.096  0.00  0.00    -0.031 A 
ATOM      4  C4  IND d   1       3.703   2.751  -2.851  0.00  0.00     0.051 A 
ATOM      5  C5  IND d   1       4.200   1.486  -2.995  0.00  0.00    -0.031 A 
ATOM      6  C6  IND d   1       4.065   0.779  -4.172  0.00  0.00     0.015 A 
ATOM      7  C7  IND d   1       3.435   1.318  -5.258  0.00  0.00    -0.016 A 
ATOM      8  C8  IND d   1       2.923   2.600  -5.114  0.00  0.00    -0.047 A 
ATOM      9  C9  IND d   1       3.020   3.306  -3.907  0.00  0.00    -0.096 A 
ATOM     10  HN1 IND d   1       2.030   3.188  -6.810  0.00  0.00     0.298 HD
ENDROOT
TORSDOF 0
ENDMDL
