MODEL 1
REMARK minimizedAffinity 5.34259224
REMARK minimizedRMSD -1
REMARK  0 active torsions:
REMARK  status: ('A' for Active; 'I' for Inactive)
ROOT
ATOM      1  N1  IND d   1       2.096   0.412   2.240  0.00  0.00    -0.196 N 
ATOM      2  C2  IND d   1       1.301   1.519   2.135  0.00  0.00     0.054 A 
ATOM      3  C3  IND d   1       1.720   2.304   1.117  0.00  0.00    -0.031 A 
ATOM      4  C4  IND d   1       3.625   1.915  -0.571  0.00  0.00     0.051 A 
ATOM      5  C5  IND d   1       4.655   1.063  -0.856  0.00  0.00    -0.031 A 
ATOM      6  C6  IND d   1       4.887  -0.074  -0.110  0.00  0.00     0.015 A 
ATOM      7  C7  IND d   1       4.088  -0.409   0.946  0.00  0.00    -0.016 A 
ATOM      8  C8  IND d   1       3.046   0.458   1.243  0.00  0.00    -0.047 A 
ATOM      9  C9  IND d   1       2.831   1.636   0.516  0.00  0.00    -0.096 A 
ATOM     10  HN1 IND d   1       2.017  -0.209   2.830  0.00  0.00     0.298 HD
ENDROOT
TORSDOF 0
ENDMDL
