MODEL 1
REMARK minimizedAffinity 13.6935902
REMARK minimizedRMSD -1
REMARK  0 active torsions:
REMARK  status: ('A' for Active; 'I' for Inactive)
ROOT
ATOM      1  N1  IND d   1      -1.549  -2.897   2.968  0.00  0.00    -0.196 N 
ATOM      2  C2  IND d   1      -1.857  -3.278   1.692  0.00  0.00     0.054 A 
ATOM      3  C3  IND d   1      -1.401  -2.365   0.805  0.00  0.00    -0.031 A 
ATOM      4  C4  IND d   1      -0.036  -0.222   1.220  0.00  0.00     0.051 A 
ATOM      5  C5  IND d   1       0.457   0.564   2.223  0.00  0.00    -0.031 A 
ATOM      6  C6  IND d   1       0.306   0.228   3.553  0.00  0.00     0.015 A 
ATOM      7  C7  IND d   1      -0.337  -0.917   3.930  0.00  0.00    -0.016 A 
ATOM      8  C8  IND d   1      -0.845  -1.714   2.914  0.00  0.00    -0.047 A 
ATOM      9  C9  IND d   1      -0.732  -1.357   1.564  0.00  0.00    -0.096 A 
ATOM     10  HN1 IND d   1      -1.759  -3.324   3.684  0.00  0.00     0.298 HD
ENDROOT
TORSDOF 0
ENDMDL
