MODEL 1
REMARK minimizedAffinity 13.7721424
REMARK minimizedRMSD -1
REMARK  0 active torsions:
REMARK  status: ('A' for Active; 'I' for Inactive)
ROOT
ATOM      1  N1  IND d   1      -4.523   4.991   5.837  0.00  0.00    -0.196 N 
ATOM      2  C2  IND d   1      -5.440   5.999   5.732  0.00  0.00     0.054 A 
ATOM      3  C3  IND d   1      -6.000   6.000   4.502  0.00  0.00    -0.031 A 
ATOM      4  C4  IND d   1      -5.635   4.376   2.538  0.00  0.00     0.051 A 
ATOM      5  C5  IND d   1      -4.867   3.315   2.146  0.00  0.00    -0.031 A 
ATOM      6  C6  IND d   1      -3.929   2.745   2.982  0.00  0.00     0.015 A 
ATOM      7  C7  IND d   1      -3.730   3.210   4.251  0.00  0.00    -0.016 A 
ATOM      8  C8  IND d   1      -4.503   4.292   4.650  0.00  0.00    -0.047 A 
ATOM      9  C9  IND d   1      -5.427   4.901   3.791  0.00  0.00    -0.096 A 
ATOM     10  HN1 IND d   1      -4.040   4.822   6.528  0.00  0.00     0.298 HD
ENDROOT
TORSDOF 0
ENDMDL
