MODEL 1
REMARK minimizedAffinity 9.25323391
REMARK minimizedRMSD -1
REMARK  0 active torsions:
REMARK  status: ('A' for Active; 'I' for Inactive)
ROOT
ATOM      1  N1  IND d   1      -4.890  -2.908  -3.408  0.00  0.00    -0.196 N 
ATOM      2  C2  IND d   1      -5.995  -3.693  -3.234  0.00  0.00     0.054 A 
ATOM      3  C3  IND d   1      -5.633  -4.940  -2.859  0.00  0.00    -0.031 A 
ATOM      4  C4  IND d   1      -3.288  -5.884  -2.372  0.00  0.00     0.051 A 
ATOM      5  C5  IND d   1      -1.962  -5.557  -2.426  0.00  0.00    -0.031 A 
ATOM      6  C6  IND d   1      -1.536  -4.304  -2.816  0.00  0.00     0.015 A 
ATOM      7  C7  IND d   1      -2.424  -3.323  -3.157  0.00  0.00    -0.016 A 
ATOM      8  C8  IND d   1      -3.771  -3.654  -3.109  0.00  0.00    -0.047 A 
ATOM      9  C9  IND d   1      -4.208  -4.937  -2.755  0.00  0.00    -0.096 A 
ATOM     10  HN1 IND d   1      -4.893  -2.087  -3.661  0.00  0.00     0.298 HD
ENDROOT
TORSDOF 0
ENDMDL
