MODEL 1
REMARK minimizedAffinity 19.5109825
REMARK minimizedRMSD -1
REMARK  0 active torsions:
REMARK  status: ('A' for Active; 'I' for Inactive)
ROOT
ATOM      1  N1  IND d   1      -2.344  -3.626  -3.301  0.00  0.00    -0.196 N 
ATOM      2  C2  IND d   1      -1.538  -4.689  -3.003  0.00  0.00     0.054 A 
ATOM      3  C3  IND d   1      -2.282  -5.750  -2.617  0.00  0.00    -0.031 A 
ATOM      4  C4  IND d   1      -4.841  -5.997  -2.500  0.00  0.00     0.051 A 
ATOM      5  C5  IND d   1      -6.000  -5.286  -2.641  0.00  0.00    -0.031 A 
ATOM      6  C6  IND d   1      -5.999  -3.959  -3.020  0.00  0.00     0.015 A 
ATOM      7  C7  IND d   1      -4.835  -3.294  -3.284  0.00  0.00    -0.016 A 
ATOM      8  C8  IND d   1      -3.656  -4.011  -3.134  0.00  0.00    -0.047 A 
ATOM      9  C9  IND d   1      -3.649  -5.346  -2.709  0.00  0.00    -0.096 A 
ATOM     10  HN1 IND d   1      -2.077  -2.848  -3.551  0.00  0.00     0.298 HD
ENDROOT
TORSDOF 0
ENDMDL
