MODEL 1
REMARK minimizedAffinity 7.17898941
REMARK minimizedRMSD -1
REMARK  0 active torsions:
REMARK  status: ('A' for Active; 'I' for Inactive)
ROOT
ATOM      1  N1  IND d   1      -6.000   5.142   2.129  0.00  0.00    -0.196 N 
ATOM      2  C2  IND d   1      -5.447   4.046   1.528  0.00  0.00     0.054 A 
ATOM      3  C3  IND d   1      -4.761   3.310   2.432  0.00  0.00    -0.031 A 
ATOM      4  C4  IND d   1      -4.500   3.663   4.969  0.00  0.00     0.051 A 
ATOM      5  C5  IND d   1      -4.795   4.546   5.969  0.00  0.00    -0.031 A 
ATOM      6  C6  IND d   1      -5.523   5.695   5.737  0.00  0.00     0.015 A 
ATOM      7  C7  IND d   1      -5.996   5.999   4.491  0.00  0.00    -0.016 A 
ATOM      8  C8  IND d   1      -5.693   5.108   3.472  0.00  0.00    -0.047 A 
ATOM      9  C9  IND d   1      -4.918   3.962   3.693  0.00  0.00    -0.096 A 
ATOM     10  HN1 IND d   1      -6.462   5.750   1.735  0.00  0.00     0.298 HD
ENDROOT
TORSDOF 0
ENDMDL
