MODEL 1
REMARK minimizedAffinity 9.18234444
REMARK minimizedRMSD -1
REMARK  0 active torsions:
REMARK  status: ('A' for Active; 'I' for Inactive)
ROOT
ATOM      1  N1  IND d   1       2.607  -0.467   0.400  0.00  0.00    -0.196 N 
ATOM      2  C2  IND d   1       3.241   0.130  -0.653  0.00  0.00     0.054 A 
ATOM      3  C3  IND d   1       2.913   1.440  -0.719  0.00  0.00    -0.031 A 
ATOM      4  C4  IND d   1       1.435   2.836   0.860  0.00  0.00     0.051 A 
ATOM      5  C5  IND d   1       0.609   2.724   1.943  0.00  0.00    -0.031 A 
ATOM      6  C6  IND d   1       0.406   1.518   2.582  0.00  0.00     0.015 A 
ATOM      7  C7  IND d   1       1.032   0.377   2.167  0.00  0.00    -0.016 A 
ATOM      8  C8  IND d   1       1.865   0.486   1.063  0.00  0.00    -0.047 A 
ATOM      9  C9  IND d   1       2.042   1.699   0.384  0.00  0.00    -0.096 A 
ATOM     10  HN1 IND d   1       2.663  -1.298   0.613  0.00  0.00     0.298 HD
ENDROOT
TORSDOF 0
ENDMDL
