MODEL 1
REMARK minimizedAffinity 11.7382822
REMARK minimizedRMSD -1
REMARK  0 active torsions:
REMARK  status: ('A' for Active; 'I' for Inactive)
ROOT
ATOM      1  N1  IND d   1       2.810   4.591  -5.772  0.00  0.00    -0.196 N 
ATOM      2  C2  IND d   1       1.573   4.510  -5.196  0.00  0.00     0.054 A 
ATOM      3  C3  IND d   1       1.612   3.710  -4.107  0.00  0.00    -0.031 A 
ATOM      4  C4  IND d   1       3.621   2.513  -3.029  0.00  0.00     0.051 A 
ATOM      5  C5  IND d   1       4.950   2.259  -3.216  0.00  0.00    -0.031 A 
ATOM      6  C6  IND d   1       5.650   2.783  -4.284  0.00  0.00     0.015 A 
ATOM      7  C7  IND d   1       5.045   3.592  -5.204  0.00  0.00    -0.016 A 
ATOM      8  C8  IND d   1       3.693   3.846  -5.021  0.00  0.00    -0.047 A 
ATOM      9  C9  IND d   1       2.968   3.283  -3.963  0.00  0.00    -0.096 A 
ATOM     10  HN1 IND d   1       3.004   5.033  -6.484  0.00  0.00     0.298 HD
ENDROOT
TORSDOF 0
ENDMDL
