MODEL 1
REMARK minimizedAffinity 1.20855236
REMARK minimizedRMSD -1
REMARK  0 active torsions:
REMARK  status: ('A' for Active; 'I' for Inactive)
ROOT
ATOM      1  N1  IND d   1       2.204   4.944  -5.985  0.00  0.00    -0.196 N 
ATOM      2  C2  IND d   1       1.507   3.822  -5.632  0.00  0.00     0.054 A 
ATOM      3  C3  IND d   1       2.354   2.852  -5.222  0.00  0.00    -0.031 A 
ATOM      4  C4  IND d   1       4.914   2.921  -4.953  0.00  0.00     0.051 A 
ATOM      5  C5  IND d   1       6.000   3.717  -5.185  0.00  0.00    -0.031 A 
ATOM      6  C6  IND d   1       5.874   4.989  -5.703  0.00  0.00     0.015 A 
ATOM      7  C7  IND d   1       4.650   5.520  -6.000  0.00  0.00    -0.016 A 
ATOM      8  C8  IND d   1       3.545   4.712  -5.772  0.00  0.00    -0.047 A 
ATOM      9  C9  IND d   1       3.670   3.404  -5.286  0.00  0.00    -0.096 A 
ATOM     10  HN1 IND d   1       1.863   5.672  -6.289  0.00  0.00     0.298 HD
ENDROOT
TORSDOF 0
ENDMDL
