MODEL 1
REMARK minimizedAffinity -4.43639565
REMARK minimizedRMSD -1
REMARK  0 active torsions:
REMARK  status: ('A' for Active; 'I' for Inactive)
ROOT
ATOM      1  C   UNL d   1      -0.056  -0.924   1.352  0.00  0.00     0.020 A 
ATOM      2  C1  UNL d   1       0.629  -0.814   0.143  0.00  0.00     0.020 A 
ATOM      3  C2  UNL d   1       0.357   0.250  -0.719  0.00  0.00     0.034 A 
ATOM      4  C3  UNL d   1      -0.602   1.208  -0.373  0.00  0.00     0.017 A 
ATOM      5  C4  UNL d   1      -1.289   1.097   0.841  0.00  0.00     0.017 A 
ATOM      6  C5  UNL d   1      -1.013   0.029   1.701  0.00  0.00     0.034 A 
ATOM      7 Cl   UNL d   1      -2.487   2.241   1.337  0.00  0.00    -0.070 Cl
ATOM      8 Cl1  UNL d   1      -0.887   2.498  -1.487  0.00  0.00    -0.070 Cl
ENDROOT
TORSDOF 0
ENDMDL
