MODEL 1
REMARK minimizedAffinity -4.96262741
REMARK minimizedRMSD -1
REMARK  0 active torsions:
REMARK  status: ('A' for Active; 'I' for Inactive)
ROOT
ATOM      1  C   UNL d   1      -1.436   1.352   1.261  0.00  0.00     0.020 A 
ATOM      2  C1  UNL d   1      -0.447   1.640   0.321  0.00  0.00     0.020 A 
ATOM      3  C2  UNL d   1       0.153   0.606  -0.401  0.00  0.00     0.034 A 
ATOM      4  C3  UNL d   1      -0.235  -0.721  -0.183  0.00  0.00     0.017 A 
ATOM      5  C4  UNL d   1      -1.227  -1.010   0.761  0.00  0.00     0.017 A 
ATOM      6  C5  UNL d   1      -1.825   0.030   1.480  0.00  0.00     0.034 A 
ATOM      7 Cl   UNL d   1      -1.758  -2.622   1.084  0.00  0.00    -0.070 Cl
ATOM      8 Cl1  UNL d   1       0.550  -1.950  -1.111  0.00  0.00    -0.070 Cl
ENDROOT
TORSDOF 0
ENDMDL
