MODEL 1
REMARK minimizedAffinity -3.68030548
REMARK minimizedRMSD -1
REMARK  0 active torsions:
REMARK  status: ('A' for Active; 'I' for Inactive)
ROOT
ATOM      1  C   UNL d   1      -2.250   1.836   1.124  0.00  0.00     0.020 A 
ATOM      2  C1  UNL d   1      -1.768   2.058  -0.165  0.00  0.00     0.020 A 
ATOM      3  C2  UNL d   1      -0.842   1.176  -0.726  0.00  0.00     0.034 A 
ATOM      4  C3  UNL d   1      -0.395   0.068   0.002  0.00  0.00     0.017 A 
ATOM      5  C4  UNL d   1      -0.880  -0.154   1.297  0.00  0.00     0.017 A 
ATOM      6  C5  UNL d   1      -1.807   0.732   1.853  0.00  0.00     0.034 A 
ATOM      7 Cl   UNL d   1      -0.375  -1.500   2.257  0.00  0.00    -0.070 Cl
ATOM      8 Cl1  UNL d   1       0.750  -0.982  -0.754  0.00  0.00    -0.070 Cl
ENDROOT
TORSDOF 0
ENDMDL
