MODEL 1
REMARK minimizedAffinity -3.19329619
REMARK minimizedRMSD -1
REMARK  0 active torsions:
REMARK  status: ('A' for Active; 'I' for Inactive)
ROOT
ATOM      1  C   UNL d   1       1.005   0.018  -1.365  0.00  0.00     0.020 A 
ATOM      2  C1  UNL d   1       0.558   1.336  -1.442  0.00  0.00     0.020 A 
ATOM      3  C2  UNL d   1      -0.246   1.861  -0.428  0.00  0.00     0.034 A 
ATOM      4  C3  UNL d   1      -0.606   1.067   0.667  0.00  0.00     0.017 A 
ATOM      5  C4  UNL d   1      -0.157  -0.256   0.744  0.00  0.00     0.017 A 
ATOM      6  C5  UNL d   1       0.648  -0.777  -0.274  0.00  0.00     0.034 A 
ATOM      7 Cl   UNL d   1      -0.559  -1.297   2.064  0.00  0.00    -0.070 Cl
ATOM      8 Cl1  UNL d   1      -1.602   1.782   1.885  0.00  0.00    -0.070 Cl
ENDROOT
TORSDOF 0
ENDMDL
