MODEL 1
REMARK minimizedAffinity -3.36253238
REMARK minimizedRMSD -1
REMARK  0 active torsions:
REMARK  status: ('A' for Active; 'I' for Inactive)
ROOT
ATOM      1  C   UNL d   1      -2.623   1.722   0.187  0.00  0.00     0.020 A 
ATOM      2  C1  UNL d   1      -2.322   1.935   1.532  0.00  0.00     0.020 A 
ATOM      3  C2  UNL d   1      -1.240   1.275   2.118  0.00  0.00     0.034 A 
ATOM      4  C3  UNL d   1      -0.454   0.401   1.359  0.00  0.00     0.017 A 
ATOM      5  C4  UNL d   1      -0.757   0.188   0.009  0.00  0.00     0.017 A 
ATOM      6  C5  UNL d   1      -1.842   0.851  -0.573  0.00  0.00     0.034 A 
ATOM      7 Cl   UNL d   1       0.167  -0.876  -0.992  0.00  0.00    -0.070 Cl
ATOM      8 Cl1  UNL d   1       0.870  -0.380   2.148  0.00  0.00    -0.070 Cl
ENDROOT
TORSDOF 0
ENDMDL
