MODEL 1
REMARK minimizedAffinity -5.78896761
REMARK minimizedRMSD -1
REMARK  0 active torsions:
REMARK  status: ('A' for Active; 'I' for Inactive)
ROOT
ATOM      1  C   UNL d   1      -1.520   2.599   0.577  0.00  0.00     0.020 A 
ATOM      2  C1  UNL d   1      -0.586   2.480  -0.452  0.00  0.00     0.020 A 
ATOM      3  C2  UNL d   1       0.047   1.256  -0.682  0.00  0.00     0.034 A 
ATOM      4  C3  UNL d   1      -0.252   0.148   0.118  0.00  0.00     0.017 A 
ATOM      5  C4  UNL d   1      -1.189   0.268   1.151  0.00  0.00     0.017 A 
ATOM      6  C5  UNL d   1      -1.821   1.495   1.376  0.00  0.00     0.034 A 
ATOM      7 Cl   UNL d   1      -1.610  -1.056   2.179  0.00  0.00    -0.070 Cl
ATOM      8 Cl1  UNL d   1       0.570  -1.334  -0.222  0.00  0.00    -0.070 Cl
ENDROOT
TORSDOF 0
ENDMDL
