MODEL 1
REMARK minimizedAffinity -5.25611544
REMARK minimizedRMSD -1
REMARK  0 active torsions:
REMARK  status: ('A' for Active; 'I' for Inactive)
ROOT
ATOM      1  C   UNL d   1      -1.823   1.941   1.350  0.00  0.00     0.020 A 
ATOM      2  C1  UNL d   1      -1.407   2.066   0.025  0.00  0.00     0.020 A 
ATOM      3  C2  UNL d   1      -0.666   1.044  -0.573  0.00  0.00     0.034 A 
ATOM      4  C3  UNL d   1      -0.340  -0.107   0.153  0.00  0.00     0.017 A 
ATOM      5  C4  UNL d   1      -0.758  -0.231   1.483  0.00  0.00     0.017 A 
ATOM      6  C5  UNL d   1      -1.499   0.795   2.077  0.00  0.00     0.034 A 
ATOM      7 Cl   UNL d   1      -0.394  -1.621   2.443  0.00  0.00    -0.070 Cl
ATOM      8 Cl1  UNL d   1       0.578  -1.331  -0.650  0.00  0.00    -0.070 Cl
ENDROOT
TORSDOF 0
ENDMDL
