MODEL 1
REMARK minimizedAffinity -0.999839723
REMARK minimizedRMSD -1
REMARK  0 active torsions:
REMARK  status: ('A' for Active; 'I' for Inactive)
ROOT
ATOM      1  C   UNL d   1       0.017   0.759  -1.381  0.00  0.00     0.020 A 
ATOM      2  C1  UNL d   1       0.772  -0.340  -0.972  0.00  0.00     0.020 A 
ATOM      3  C2  UNL d   1       0.600  -0.867   0.310  0.00  0.00     0.034 A 
ATOM      4  C3  UNL d   1      -0.328  -0.295   1.188  0.00  0.00     0.017 A 
ATOM      5  C4  UNL d   1      -1.085   0.808   0.776  0.00  0.00     0.017 A 
ATOM      6  C5  UNL d   1      -0.909   1.331  -0.508  0.00  0.00     0.034 A 
ATOM      7 Cl   UNL d   1      -2.250   1.567   1.803  0.00  0.00    -0.070 Cl
ATOM      8 Cl1  UNL d   1      -0.488  -0.998   2.758  0.00  0.00    -0.070 Cl
ENDROOT
TORSDOF 0
ENDMDL
