MODEL 1
REMARK minimizedAffinity -5.67159557
REMARK minimizedRMSD -1
REMARK  0 active torsions:
REMARK  status: ('A' for Active; 'I' for Inactive)
ROOT
ATOM      1  C   UNL d   1      -1.858   1.156   1.865  0.00  0.00     0.020 A 
ATOM      2  C1  UNL d   1      -1.788   1.415   0.497  0.00  0.00     0.020 A 
ATOM      3  C2  UNL d   1      -0.853   0.745  -0.294  0.00  0.00     0.034 A 
ATOM      4  C3  UNL d   1       0.018  -0.187   0.282  0.00  0.00     0.017 A 
ATOM      5  C4  UNL d   1      -0.053  -0.447   1.656  0.00  0.00     0.017 A 
ATOM      6  C5  UNL d   1      -0.992   0.227   2.443  0.00  0.00     0.034 A 
ATOM      7 Cl   UNL d   1       0.988  -1.584   2.439  0.00  0.00    -0.070 Cl
ATOM      8 Cl1  UNL d   1       1.150  -0.978  -0.756  0.00  0.00    -0.070 Cl
ENDROOT
TORSDOF 0
ENDMDL
