MODEL 1
REMARK minimizedAffinity -4.41042566
REMARK minimizedRMSD -1
REMARK  0 active torsions:
REMARK  status: ('A' for Active; 'I' for Inactive)
ROOT
ATOM      1  C   UNL d   1       0.741  -0.759   0.060  0.00  0.00     0.020 A 
ATOM      2  C1  UNL d   1      -0.082  -0.862   1.180  0.00  0.00     0.020 A 
ATOM      3  C2  UNL d   1      -0.965   0.173   1.496  0.00  0.00     0.034 A 
ATOM      4  C3  UNL d   1      -1.027   1.316   0.691  0.00  0.00     0.017 A 
ATOM      5  C4  UNL d   1      -0.200   1.418  -0.434  0.00  0.00     0.017 A 
ATOM      6  C5  UNL d   1       0.682   0.379  -0.746  0.00  0.00     0.034 A 
ATOM      7 Cl   UNL d   1      -0.220   2.797  -1.476  0.00  0.00    -0.070 Cl
ATOM      8 Cl1  UNL d   1      -2.142   2.557   1.140  0.00  0.00    -0.070 Cl
ENDROOT
TORSDOF 0
ENDMDL
