MODEL 1
REMARK minimizedAffinity -4.25058651
REMARK minimizedRMSD -1
REMARK  0 active torsions:
REMARK  status: ('A' for Active; 'I' for Inactive)
ROOT
ATOM      1  C   UNL d   1      -2.185   2.136   1.819  0.00  0.00     0.020 A 
ATOM      2  C1  UNL d   1      -2.249   2.169   0.427  0.00  0.00     0.020 A 
ATOM      3  C2  UNL d   1      -1.441   1.317  -0.329  0.00  0.00     0.034 A 
ATOM      4  C3  UNL d   1      -0.566   0.429   0.307  0.00  0.00     0.017 A 
ATOM      5  C4  UNL d   1      -0.502   0.397   1.704  0.00  0.00     0.017 A 
ATOM      6  C5  UNL d   1      -1.313   1.253   2.457  0.00  0.00     0.034 A 
ATOM      7 Cl   UNL d   1       0.554  -0.671   2.560  0.00  0.00    -0.070 Cl
ATOM      8 Cl1  UNL d   1       0.404  -0.596  -0.691  0.00  0.00    -0.070 Cl
ENDROOT
TORSDOF 0
ENDMDL
