MODEL 1
REMARK minimizedAffinity -3.14902306
REMARK minimizedRMSD -1
REMARK  0 active torsions:
REMARK  status: ('A' for Active; 'I' for Inactive)
ROOT
ATOM      1  C   UNL d   1       1.053  -0.727  -0.396  0.00  0.00     0.020 A 
ATOM      2  C1  UNL d   1       0.248  -1.096   0.681  0.00  0.00     0.020 A 
ATOM      3  C2  UNL d   1      -0.858  -0.317   1.027  0.00  0.00     0.034 A 
ATOM      4  C3  UNL d   1      -1.162   0.837   0.294  0.00  0.00     0.017 A 
ATOM      5  C4  UNL d   1      -0.354   1.207  -0.786  0.00  0.00     0.017 A 
ATOM      6  C5  UNL d   1       0.752   0.422  -1.128  0.00  0.00     0.034 A 
ATOM      7 Cl   UNL d   1      -0.666   2.616  -1.737  0.00  0.00    -0.070 Cl
ATOM      8 Cl1  UNL d   1      -2.545   1.753   0.777  0.00  0.00    -0.070 Cl
ENDROOT
TORSDOF 0
ENDMDL
