MODEL 1
REMARK minimizedAffinity -5.28733063
REMARK minimizedRMSD -1
REMARK  0 active torsions:
REMARK  status: ('A' for Active; 'I' for Inactive)
ROOT
ATOM      1  C   UNL d   1      -1.325  -0.112   2.028  0.00  0.00     0.020 A 
ATOM      2  C1  UNL d   1      -1.790   1.176   1.765  0.00  0.00     0.020 A 
ATOM      3  C2  UNL d   1      -1.321   1.873   0.649  0.00  0.00     0.034 A 
ATOM      4  C3  UNL d   1      -0.386   1.282  -0.208  0.00  0.00     0.017 A 
ATOM      5  C4  UNL d   1       0.080  -0.011   0.057  0.00  0.00     0.017 A 
ATOM      6  C5  UNL d   1      -0.392  -0.704   1.176  0.00  0.00     0.034 A 
ATOM      7 Cl   UNL d   1       1.234  -0.806  -0.955  0.00  0.00    -0.070 Cl
ATOM      8 Cl1  UNL d   1       0.150   2.201  -1.570  0.00  0.00    -0.070 Cl
ENDROOT
TORSDOF 0
ENDMDL
