MODEL 1
REMARK minimizedAffinity -2.87445331
REMARK minimizedRMSD -1
REMARK  0 active torsions:
REMARK  status: ('A' for Active; 'I' for Inactive)
ROOT
ATOM      1  C   UNL d   1      -0.662   1.846   1.591  0.00  0.00     0.020 A 
ATOM      2  C1  UNL d   1      -1.153   0.564   1.832  0.00  0.00     0.020 A 
ATOM      3  C2  UNL d   1      -0.774  -0.496   1.006  0.00  0.00     0.034 A 
ATOM      4  C3  UNL d   1       0.099  -0.276  -0.066  0.00  0.00     0.017 A 
ATOM      5  C4  UNL d   1       0.592   1.011  -0.307  0.00  0.00     0.017 A 
ATOM      6  C5  UNL d   1       0.209   2.069   0.523  0.00  0.00     0.034 A 
ATOM      7 Cl   UNL d   1       1.673   1.361  -1.610  0.00  0.00    -0.070 Cl
ATOM      8 Cl1  UNL d   1       0.525  -1.633  -1.047  0.00  0.00    -0.070 Cl
ENDROOT
TORSDOF 0
ENDMDL
