MODEL 1
REMARK minimizedAffinity -3.11256123
REMARK minimizedRMSD -1
REMARK  0 active torsions:
REMARK  status: ('A' for Active; 'I' for Inactive)
ROOT
ATOM      1  C   UNL d   1      -1.736   1.280   1.953  0.00  0.00     0.020 A 
ATOM      2  C1  UNL d   1      -1.295  -0.025   2.170  0.00  0.00     0.020 A 
ATOM      3  C2  UNL d   1      -0.465  -0.647   1.234  0.00  0.00     0.034 A 
ATOM      4  C3  UNL d   1      -0.075   0.037   0.077  0.00  0.00     0.017 A 
ATOM      5  C4  UNL d   1      -0.518   1.346  -0.140  0.00  0.00     0.017 A 
ATOM      6  C5  UNL d   1      -1.348   1.964   0.801  0.00  0.00     0.034 A 
ATOM      7 Cl   UNL d   1      -0.079   2.253  -1.544  0.00  0.00    -0.070 Cl
ATOM      8 Cl1  UNL d   1       0.952  -0.793  -1.038  0.00  0.00    -0.070 Cl
ENDROOT
TORSDOF 0
ENDMDL
