MODEL 1
REMARK minimizedAffinity -3.54514408
REMARK minimizedRMSD -1
REMARK  0 active torsions:
REMARK  status: ('A' for Active; 'I' for Inactive)
ROOT
ATOM      1  C   UNL d   1      -1.308   1.508   2.270  0.00  0.00     0.020 A 
ATOM      2  C1  UNL d   1      -1.394   0.120   2.368  0.00  0.00     0.020 A 
ATOM      3  C2  UNL d   1      -0.835  -0.686   1.374  0.00  0.00     0.034 A 
ATOM      4  C3  UNL d   1      -0.187  -0.105   0.278  0.00  0.00     0.017 A 
ATOM      5  C4  UNL d   1      -0.101   1.289   0.181  0.00  0.00     0.017 A 
ATOM      6  C5  UNL d   1      -0.662   2.091   1.179  0.00  0.00     0.034 A 
ATOM      7 Cl   UNL d   1       0.683   2.079  -1.142  0.00  0.00    -0.070 Cl
ATOM      8 Cl1  UNL d   1       0.482  -1.163  -0.913  0.00  0.00    -0.070 Cl
ENDROOT
TORSDOF 0
ENDMDL
