MODEL 1
REMARK minimizedAffinity -3.06959963
REMARK minimizedRMSD -1
REMARK  0 active torsions:
REMARK  status: ('A' for Active; 'I' for Inactive)
ROOT
ATOM      1  C   UNL d   1       1.168  -0.767  -0.361  0.00  0.00     0.020 A 
ATOM      2  C1  UNL d   1       0.513  -1.080   0.829  0.00  0.00     0.020 A 
ATOM      3  C2  UNL d   1      -0.518  -0.262   1.295  0.00  0.00     0.034 A 
ATOM      4  C3  UNL d   1      -0.897   0.875   0.570  0.00  0.00     0.017 A 
ATOM      5  C4  UNL d   1      -0.238   1.188  -0.624  0.00  0.00     0.017 A 
ATOM      6  C5  UNL d   1       0.794   0.365  -1.086  0.00  0.00     0.034 A 
ATOM      7 Cl   UNL d   1      -0.649   2.573  -1.573  0.00  0.00    -0.070 Cl
ATOM      8 Cl1  UNL d   1      -2.180   1.842   1.205  0.00  0.00    -0.070 Cl
ENDROOT
TORSDOF 0
ENDMDL
