MODEL 1
REMARK minimizedAffinity 3.49193215
REMARK minimizedRMSD -1
REMARK  0 active torsions:
REMARK  status: ('A' for Active; 'I' for Inactive)
ROOT
ATOM      1  O1  BZF d   1      -5.918   5.846   3.120  0.00  0.00    -0.204 OA
ATOM      2  C2  BZF d   1      -5.403   5.878   1.839  0.00  0.00     0.174 A 
ATOM      3  C3  BZF d   1      -4.060   5.995   1.866  0.00  0.00    -0.012 A 
ATOM      4  C3A BZF d   1      -3.705   5.946   3.251  0.00  0.00    -0.107 A 
ATOM      5  C4  BZF d   1      -2.515   5.998   3.918  0.00  0.00     0.055 A 
ATOM      6  C5  BZF d   1      -2.519   5.999   5.277  0.00  0.00    -0.016 A 
ATOM      7  C6  BZF d   1      -3.693   5.955   6.000  0.00  0.00     0.022 A 
ATOM      8  C7  BZF d   1      -4.898   5.897   5.382  0.00  0.00     0.029 A 
ATOM      9  C7A BZF d   1      -4.896   5.863   4.009  0.00  0.00     0.058 A 
ENDROOT
TORSDOF 0
ENDMDL
