MODEL 1
REMARK minimizedAffinity -0.262813032
REMARK minimizedRMSD -1
REMARK  0 active torsions:
REMARK  status: ('A' for Active; 'I' for Inactive)
ROOT
ATOM      1  O1  BZF d   1      -3.171   5.957   2.152  0.00  0.00    -0.204 OA
ATOM      2  C2  BZF d   1      -4.542   5.944   2.318  0.00  0.00     0.174 A 
ATOM      3  C3  BZF d   1      -4.865   5.897   3.626  0.00  0.00    -0.012 A 
ATOM      4  C3A BZF d   1      -3.619   5.974   4.325  0.00  0.00    -0.107 A 
ATOM      5  C4  BZF d   1      -3.284   5.989   5.649  0.00  0.00     0.055 A 
ATOM      6  C5  BZF d   1      -1.970   5.996   5.997  0.00  0.00    -0.016 A 
ATOM      7  C6  BZF d   1      -0.968   5.984   5.050  0.00  0.00     0.022 A 
ATOM      8  C7  BZF d   1      -1.251   5.974   3.725  0.00  0.00     0.029 A 
ATOM      9  C7A BZF d   1      -2.577   6.000   3.369  0.00  0.00     0.058 A 
ENDROOT
TORSDOF 0
ENDMDL
