MODEL 1
REMARK minimizedAffinity 9.43085861
REMARK minimizedRMSD -1
REMARK  0 active torsions:
REMARK  status: ('A' for Active; 'I' for Inactive)
ROOT
ATOM      1  O1  BZF d   1      -2.323   3.660   3.891  0.00  0.00    -0.204 OA
ATOM      2  C2  BZF d   1      -2.386   3.115   2.623  0.00  0.00     0.174 A 
ATOM      3  C3  BZF d   1      -3.490   3.539   1.975  0.00  0.00    -0.012 A 
ATOM      4  C3A BZF d   1      -4.110   4.476   2.861  0.00  0.00    -0.107 A 
ATOM      5  C4  BZF d   1      -5.234   5.247   2.775  0.00  0.00     0.055 A 
ATOM      6  C5  BZF d   1      -5.602   5.999   3.845  0.00  0.00    -0.016 A 
ATOM      7  C6  BZF d   1      -4.875   6.000   5.017  0.00  0.00     0.022 A 
ATOM      8  C7  BZF d   1      -3.750   5.255   5.148  0.00  0.00     0.029 A 
ATOM      9  C7A BZF d   1      -3.357   4.519   4.057  0.00  0.00     0.058 A 
ENDROOT
TORSDOF 0
ENDMDL
