MODEL 1
REMARK minimizedAffinity -2.66003227
REMARK minimizedRMSD -1
REMARK  0 active torsions:
REMARK  status: ('A' for Active; 'I' for Inactive)
ROOT
ATOM      1  O1  BZF d   1       5.970  -1.696   5.418  0.00  0.00    -0.204 OA
ATOM      2  C2  BZF d   1       5.016  -0.842   4.900  0.00  0.00     0.174 A 
ATOM      3  C3  BZF d   1       3.874  -1.506   4.632  0.00  0.00    -0.012 A 
ATOM      4  C3A BZF d   1       4.099  -2.842   5.092  0.00  0.00    -0.107 A 
ATOM      5  C4  BZF d   1       3.328  -3.969   5.116  0.00  0.00     0.055 A 
ATOM      6  C5  BZF d   1       3.872  -5.131   5.565  0.00  0.00    -0.016 A 
ATOM      7  C6  BZF d   1       5.181  -5.203   5.992  0.00  0.00     0.022 A 
ATOM      8  C7  BZF d   1       5.983  -4.111   5.992  0.00  0.00     0.029 A 
ATOM      9  C7A BZF d   1       5.427  -2.928   5.569  0.00  0.00     0.058 A 
ENDROOT
TORSDOF 0
ENDMDL
