MODEL 1
REMARK minimizedAffinity 1.26501715
REMARK minimizedRMSD -1
REMARK  0 active torsions:
REMARK  status: ('A' for Active; 'I' for Inactive)
ROOT
ATOM      1  O1  BZF d   1      -3.738   5.890   5.878  0.00  0.00    -0.204 OA
ATOM      2  C2  BZF d   1      -2.366   5.996   5.999  0.00  0.00     0.174 A 
ATOM      3  C3  BZF d   1      -1.778   5.999   4.786  0.00  0.00    -0.012 A 
ATOM      4  C3A BZF d   1      -2.856   5.981   3.845  0.00  0.00    -0.107 A 
ATOM      5  C4  BZF d   1      -2.911   5.990   2.480  0.00  0.00     0.055 A 
ATOM      6  C5  BZF d   1      -4.121   5.892   1.868  0.00  0.00    -0.016 A 
ATOM      7  C6  BZF d   1      -5.292   5.779   2.588  0.00  0.00     0.022 A 
ATOM      8  C7  BZF d   1      -5.288   5.771   3.943  0.00  0.00     0.029 A 
ATOM      9  C7A BZF d   1      -4.070   5.903   4.565  0.00  0.00     0.058 A 
ENDROOT
TORSDOF 0
ENDMDL
