MODEL 1
REMARK minimizedAffinity 6.22007322
REMARK minimizedRMSD -1
REMARK  0 active torsions:
REMARK  status: ('A' for Active; 'I' for Inactive)
ROOT
ATOM      1  O1  BZF d   1       4.471   1.225  -4.689  0.00  0.00    -0.204 OA
ATOM      2  C2  BZF d   1       4.492   1.938  -5.872  0.00  0.00     0.174 A 
ATOM      3  C3  BZF d   1       3.377   2.687  -5.999  0.00  0.00    -0.012 A 
ATOM      4  C3A BZF d   1       2.655   2.497  -4.778  0.00  0.00    -0.107 A 
ATOM      5  C4  BZF d   1       1.475   2.990  -4.299  0.00  0.00     0.055 A 
ATOM      6  C5  BZF d   1       1.013   2.548  -3.099  0.00  0.00    -0.016 A 
ATOM      7  C6  BZF d   1       1.702   1.612  -2.357  0.00  0.00     0.022 A 
ATOM      8  C7  BZF d   1       2.879   1.097  -2.788  0.00  0.00     0.029 A 
ATOM      9  C7A BZF d   1       3.365   1.566  -3.985  0.00  0.00     0.058 A 
ENDROOT
TORSDOF 0
ENDMDL
