MODEL 1
REMARK minimizedAffinity 0.264327675
REMARK minimizedRMSD -1
REMARK  0 active torsions:
REMARK  status: ('A' for Active; 'I' for Inactive)
ROOT
ATOM      1  O1  BZF d   1       3.048   3.310  -5.526  0.00  0.00    -0.204 OA
ATOM      2  C2  BZF d   1       4.118   2.576  -6.000  0.00  0.00     0.174 A 
ATOM      3  C3  BZF d   1       4.315   1.475  -5.247  0.00  0.00    -0.012 A 
ATOM      4  C3A BZF d   1       3.247   1.475  -4.295  0.00  0.00    -0.107 A 
ATOM      5  C4  BZF d   1       2.889   0.627  -3.285  0.00  0.00     0.055 A 
ATOM      6  C5  BZF d   1       1.834   0.952  -2.493  0.00  0.00    -0.016 A 
ATOM      7  C6  BZF d   1       1.118   2.117  -2.678  0.00  0.00     0.022 A 
ATOM      8  C7  BZF d   1       1.432   2.986  -3.669  0.00  0.00     0.029 A 
ATOM      9  C7A BZF d   1       2.477   2.645  -4.492  0.00  0.00     0.058 A 
ENDROOT
TORSDOF 0
ENDMDL
