MODEL 1
REMARK minimizedAffinity -0.0178112946
REMARK minimizedRMSD -1
REMARK  0 active torsions:
REMARK  status: ('A' for Active; 'I' for Inactive)
ROOT
ATOM      1  O1  BZF d   1      -5.845   5.928   4.142  0.00  0.00    -0.204 OA
ATOM      2  C2  BZF d   1      -5.836   5.909   2.761  0.00  0.00     0.174 A 
ATOM      3  C3  BZF d   1      -4.574   5.966   2.289  0.00  0.00    -0.012 A 
ATOM      4  C3A BZF d   1      -3.737   5.932   3.449  0.00  0.00    -0.107 A 
ATOM      5  C4  BZF d   1      -2.384   5.945   3.631  0.00  0.00     0.055 A 
ATOM      6  C5  BZF d   1      -1.888   5.976   4.896  0.00  0.00    -0.016 A 
ATOM      7  C6  BZF d   1      -2.715   6.000   6.000  0.00  0.00     0.022 A 
ATOM      8  C7  BZF d   1      -4.063   5.983   5.870  0.00  0.00     0.029 A 
ATOM      9  C7A BZF d   1      -4.567   5.918   4.594  0.00  0.00     0.058 A 
ENDROOT
TORSDOF 0
ENDMDL
