MODEL 1
REMARK minimizedAffinity 5.87608194
REMARK minimizedRMSD -1
REMARK  0 active torsions:
REMARK  status: ('A' for Active; 'I' for Inactive)
ROOT
ATOM      1  O1  BZF d   1       2.650   0.154  -2.728  0.00  0.00    -0.204 OA
ATOM      2  C2  BZF d   1       1.491   0.083  -1.979  0.00  0.00     0.174 A 
ATOM      3  C3  BZF d   1       0.804   1.242  -2.049  0.00  0.00    -0.012 A 
ATOM      4  C3A BZF d   1       1.536   2.058  -2.969  0.00  0.00    -0.107 A 
ATOM      5  C4  BZF d   1       1.347   3.317  -3.462  0.00  0.00     0.055 A 
ATOM      6  C5  BZF d   1       2.286   3.851  -4.288  0.00  0.00    -0.016 A 
ATOM      7  C6  BZF d   1       3.426   3.157  -4.635  0.00  0.00     0.022 A 
ATOM      8  C7  BZF d   1       3.655   1.903  -4.174  0.00  0.00     0.029 A 
ATOM      9  C7A BZF d   1       2.693   1.349  -3.367  0.00  0.00     0.058 A 
ENDROOT
TORSDOF 0
ENDMDL
