MODEL 1
REMARK minimizedAffinity 2.70955682
REMARK minimizedRMSD -1
REMARK  0 active torsions:
REMARK  status: ('A' for Active; 'I' for Inactive)
ROOT
ATOM      1  O1  BZF d   1      -2.116   6.000   4.719  0.00  0.00    -0.204 OA
ATOM      2  C2  BZF d   1      -2.636   6.000   5.999  0.00  0.00     0.174 A 
ATOM      3  C3  BZF d   1      -3.929   5.617   5.991  0.00  0.00    -0.012 A 
ATOM      4  C3A BZF d   1      -4.210   5.273   4.631  0.00  0.00    -0.107 A 
ATOM      5  C4  BZF d   1      -5.324   4.807   3.992  0.00  0.00     0.055 A 
ATOM      6  C5  BZF d   1      -5.290   4.642   2.643  0.00  0.00    -0.016 A 
ATOM      7  C6  BZF d   1      -4.165   4.938   1.903  0.00  0.00     0.022 A 
ATOM      8  C7  BZF d   1      -3.035   5.399   2.493  0.00  0.00     0.029 A 
ATOM      9  C7A BZF d   1      -3.055   5.535   3.860  0.00  0.00     0.058 A 
ENDROOT
TORSDOF 0
ENDMDL
