MODEL 1
REMARK minimizedAffinity 6.67745876
REMARK minimizedRMSD -1
REMARK  0 active torsions:
REMARK  status: ('A' for Active; 'I' for Inactive)
ROOT
ATOM      1  O1  BZF d   1       3.761  -0.047   5.239  0.00  0.00    -0.204 OA
ATOM      2  C2  BZF d   1       4.971  -0.570   5.652  0.00  0.00     0.174 A 
ATOM      3  C3  BZF d   1       5.998   0.091   5.080  0.00  0.00    -0.012 A 
ATOM      4  C3A BZF d   1       5.394   1.149   4.330  0.00  0.00    -0.107 A 
ATOM      5  C4  BZF d   1       5.895   2.156   3.555  0.00  0.00     0.055 A 
ATOM      6  C5  BZF d   1       5.033   2.978   2.901  0.00  0.00    -0.016 A 
ATOM      7  C6  BZF d   1       3.666   2.818   2.994  0.00  0.00     0.022 A 
ATOM      8  C7  BZF d   1       3.122   1.837   3.755  0.00  0.00     0.029 A 
ATOM      9  C7A BZF d   1       3.990   1.026   4.443  0.00  0.00     0.058 A 
ENDROOT
TORSDOF 0
ENDMDL
