MODEL 1
REMARK minimizedAffinity 3.63625169
REMARK minimizedRMSD -1
REMARK  0 active torsions:
REMARK  status: ('A' for Active; 'I' for Inactive)
ROOT
ATOM      1  O1  BZF d   1       3.513  -1.922   4.668  0.00  0.00    -0.204 OA
ATOM      2  C2  BZF d   1       4.542  -1.028   4.893  0.00  0.00     0.174 A 
ATOM      3  C3  BZF d   1       5.596  -1.646   5.464  0.00  0.00    -0.012 A 
ATOM      4  C3A BZF d   1       5.235  -3.030   5.521  0.00  0.00    -0.107 A 
ATOM      5  C4  BZF d   1       5.876  -4.149   5.970  0.00  0.00     0.055 A 
ATOM      6  C5  BZF d   1       5.218  -5.339   5.950  0.00  0.00    -0.016 A 
ATOM      7  C6  BZF d   1       3.921  -5.444   5.495  0.00  0.00     0.022 A 
ATOM      8  C7  BZF d   1       3.246  -4.362   5.035  0.00  0.00     0.029 A 
ATOM      9  C7A BZF d   1       3.919  -3.165   5.023  0.00  0.00     0.058 A 
ENDROOT
TORSDOF 0
ENDMDL
