MODEL 1
REMARK minimizedAffinity -2.76231766
REMARK minimizedRMSD -1
REMARK  0 active torsions:
REMARK  status: ('A' for Active; 'I' for Inactive)
ROOT
ATOM      1  O1  BZF d   1       3.800  -1.892   5.064  0.00  0.00    -0.204 OA
ATOM      2  C2  BZF d   1       4.965  -1.156   5.155  0.00  0.00     0.174 A 
ATOM      3  C3  BZF d   1       5.996  -1.937   5.534  0.00  0.00    -0.012 A 
ATOM      4  C3A BZF d   1       5.460  -3.262   5.600  0.00  0.00    -0.107 A 
ATOM      5  C4  BZF d   1       5.999  -4.479   5.905  0.00  0.00     0.055 A 
ATOM      6  C5  BZF d   1       5.188  -5.569   5.949  0.00  0.00    -0.016 A 
ATOM      7  C6  BZF d   1       3.835  -5.477   5.698  0.00  0.00     0.022 A 
ATOM      8  C7  BZF d   1       3.255  -4.292   5.386  0.00  0.00     0.029 A 
ATOM      9  C7A BZF d   1       4.078  -3.195   5.309  0.00  0.00     0.058 A 
ENDROOT
TORSDOF 0
ENDMDL
