MODEL 1
REMARK minimizedAffinity 0.150550157
REMARK minimizedRMSD -1
REMARK  0 active torsions:
REMARK  status: ('A' for Active; 'I' for Inactive)
ROOT
ATOM      1  O1  BZF d   1       3.788  -5.320   5.608  0.00  0.00    -0.204 OA
ATOM      2  C2  BZF d   1       4.946  -5.983   5.963  0.00  0.00     0.174 A 
ATOM      3  C3  BZF d   1       6.000  -5.141   5.961  0.00  0.00    -0.012 A 
ATOM      4  C3A BZF d   1       5.450  -3.852   5.670  0.00  0.00    -0.107 A 
ATOM      5  C4  BZF d   1       5.994  -2.605   5.546  0.00  0.00     0.055 A 
ATOM      6  C5  BZF d   1       5.195  -1.569   5.183  0.00  0.00    -0.016 A 
ATOM      7  C6  BZF d   1       3.849  -1.743   4.932  0.00  0.00     0.022 A 
ATOM      8  C7  BZF d   1       3.263  -2.960   5.046  0.00  0.00     0.029 A 
ATOM      9  C7A BZF d   1       4.063  -4.003   5.445  0.00  0.00     0.058 A 
ENDROOT
TORSDOF 0
ENDMDL
