MODEL 1
REMARK minimizedAffinity -2.00506854
REMARK minimizedRMSD -1
REMARK  0 active torsions:
REMARK  status: ('A' for Active; 'I' for Inactive)
ROOT
ATOM      1  O1  BZF d   1      -2.217   5.783   4.674  0.00  0.00    -0.204 OA
ATOM      2  C2  BZF d   1      -2.678   5.850   5.974  0.00  0.00     0.174 A 
ATOM      3  C3  BZF d   1      -4.018   5.998   6.000  0.00  0.00    -0.012 A 
ATOM      4  C3A BZF d   1      -4.430   5.932   4.631  0.00  0.00    -0.107 A 
ATOM      5  C4  BZF d   1      -5.646   6.000   4.012  0.00  0.00     0.055 A 
ATOM      6  C5  BZF d   1      -5.698   5.976   2.655  0.00  0.00    -0.016 A 
ATOM      7  C6  BZF d   1      -4.556   5.890   1.886  0.00  0.00     0.022 A 
ATOM      8  C7  BZF d   1      -3.328   5.816   2.454  0.00  0.00     0.029 A 
ATOM      9  C7A BZF d   1      -3.274   5.807   3.827  0.00  0.00     0.058 A 
ENDROOT
TORSDOF 0
ENDMDL
