MODEL 1
REMARK minimizedAffinity 0.813149273
REMARK minimizedRMSD -1
REMARK  0 active torsions:
REMARK  status: ('A' for Active; 'I' for Inactive)
ROOT
ATOM      1  O1  BZF d   1       0.644   1.006  -4.779  0.00  0.00    -0.204 OA
ATOM      2  C2  BZF d   1       0.729   0.219  -3.647  0.00  0.00     0.174 A 
ATOM      3  C3  BZF d   1       1.352   0.880  -2.650  0.00  0.00    -0.012 A 
ATOM      4  C3A BZF d   1       1.594   2.193  -3.163  0.00  0.00    -0.107 A 
ATOM      5  C4  BZF d   1       2.169   3.315  -2.637  0.00  0.00     0.055 A 
ATOM      6  C5  BZF d   1       2.318   4.412  -3.426  0.00  0.00    -0.016 A 
ATOM      7  C6  BZF d   1       1.909   4.420  -4.743  0.00  0.00     0.022 A 
ATOM      8  C7  BZF d   1       1.329   3.333  -5.307  0.00  0.00     0.029 A 
ATOM      9  C7A BZF d   1       1.147   2.234  -4.504  0.00  0.00     0.058 A 
ENDROOT
TORSDOF 0
ENDMDL
