MODEL 1
REMARK minimizedAffinity 2.84397864
REMARK minimizedRMSD -1
REMARK  0 active torsions:
REMARK  status: ('A' for Active; 'I' for Inactive)
ROOT
ATOM      1  O1  BZF d   1      -2.634   5.998   5.140  0.00  0.00    -0.204 OA
ATOM      2  C2  BZF d   1      -3.717   6.000   5.998  0.00  0.00     0.174 A 
ATOM      3  C3  BZF d   1      -4.875   6.000   5.307  0.00  0.00    -0.012 A 
ATOM      4  C3A BZF d   1      -4.493   5.905   3.931  0.00  0.00    -0.107 A 
ATOM      5  C4  BZF d   1      -5.197   5.845   2.763  0.00  0.00     0.055 A 
ATOM      6  C5  BZF d   1      -4.521   5.831   1.584  0.00  0.00    -0.016 A 
ATOM      7  C6  BZF d   1      -3.144   5.880   1.537  0.00  0.00     0.022 A 
ATOM      8  C7  BZF d   1      -2.401   5.935   2.669  0.00  0.00     0.029 A 
ATOM      9  C7A BZF d   1      -3.080   5.916   3.863  0.00  0.00     0.058 A 
ENDROOT
TORSDOF 0
ENDMDL
