MODEL 1
REMARK minimizedAffinity 5.36565208
REMARK minimizedRMSD -1
REMARK  2 active torsions:
REMARK  status: ('A' for Active; 'I' for Inactive)
REMARK    1  A    between atoms: C2'_3  and  C1'_4 
REMARK    2  A    between atoms: C1'_4  and  C1_5 
ROOT
ATOM      1  C1  I4B d   1       5.271   3.699   0.768  0.00  0.00    -0.075 A 
ATOM      2  C2  I4B d   1       5.246   3.702   2.140  0.00  0.00     0.003 A 
ATOM      3  C3  I4B d   1       5.588   4.875   2.856  0.00  0.00     0.002 A 
ATOM      4  C4  I4B d   1       5.996   5.998   2.166  0.00  0.00    -0.004 A 
ATOM      5  C5  I4B d   1       6.000   5.999   0.774  0.00  0.00     0.002 A 
ATOM      6  C6  I4B d   1       5.623   4.847   0.070  0.00  0.00     0.003 A 
ENDROOT
BRANCH   1   7
ATOM      7  C1' I4B d   1       4.935   2.433   0.044  0.00  0.00     0.060 C 
BRANCH   7   8
ATOM      8  C2' I4B d   1       3.432   2.249   0.100  0.00  0.00    -0.013 C 
ATOM      9  C4' I4B d   1       2.726   3.274  -0.748  0.00  0.00     0.013 C 
ATOM     10  C3' I4B d   1       3.120   0.856  -0.361  0.00  0.00     0.013 C 
ENDBRANCH   7   8
ENDBRANCH   1   7
TORSDOF 2
ENDMDL
