MODEL 1
REMARK minimizedAffinity -1.85765624
REMARK minimizedRMSD -1
REMARK  2 active torsions:
REMARK  status: ('A' for Active; 'I' for Inactive)
REMARK    1  A    between atoms: C2'_3  and  C1'_4 
REMARK    2  A    between atoms: C1'_4  and  C1_5 
ROOT
ATOM      1  C1  I4B d   1      -1.490   0.226   1.375  0.00  0.00    -0.075 A 
ATOM      2  C2  I4B d   1      -2.097  -0.780   2.084  0.00  0.00     0.003 A 
ATOM      3  C3  I4B d   1      -2.364  -0.620   3.465  0.00  0.00     0.002 A 
ATOM      4  C4  I4B d   1      -1.963   0.535   4.105  0.00  0.00    -0.004 A 
ATOM      5  C5  I4B d   1      -1.367   1.564   3.380  0.00  0.00     0.002 A 
ATOM      6  C6  I4B d   1      -1.140   1.414   2.004  0.00  0.00     0.003 A 
ENDROOT
BRANCH   1   7
ATOM      7  C1' I4B d   1      -1.194   0.010  -0.075  0.00  0.00     0.060 C 
BRANCH   7   8
ATOM      8  C2' I4B d   1       0.304  -0.165  -0.225  0.00  0.00    -0.013 C 
ATOM      9  C4' I4B d   1       0.671  -1.618  -0.371  0.00  0.00     0.013 C 
ATOM     10  C3' I4B d   1       0.746   0.628  -1.418  0.00  0.00     0.013 C 
ENDBRANCH   7   8
ENDBRANCH   1   7
TORSDOF 2
ENDMDL
