MODEL 1
REMARK minimizedAffinity -2.72777796
REMARK minimizedRMSD -1
REMARK  2 active torsions:
REMARK  status: ('A' for Active; 'I' for Inactive)
REMARK    1  A    between atoms: C2'_3  and  C1'_4 
REMARK    2  A    between atoms: C1'_4  and  C1_5 
ROOT
ATOM      1  C1  I4B d   1      -0.148   0.781   0.289  0.00  0.00    -0.075 A 
ATOM      2  C2  I4B d   1       0.809   1.610  -0.240  0.00  0.00     0.003 A 
ATOM      3  C3  I4B d   1       1.913   1.069  -0.943  0.00  0.00     0.002 A 
ATOM      4  C4  I4B d   1       2.045  -0.301  -1.048  0.00  0.00    -0.004 A 
ATOM      5  C5  I4B d   1       1.062  -1.140  -0.531  0.00  0.00     0.002 A 
ATOM      6  C6  I4B d   1      -0.048  -0.595   0.131  0.00  0.00     0.003 A 
ENDROOT
BRANCH   1   7
ATOM      7  C1' I4B d   1      -1.283   1.385   1.053  0.00  0.00     0.060 C 
BRANCH   7   8
ATOM      8  C2' I4B d   1      -0.861   1.498   2.504  0.00  0.00    -0.013 C 
ATOM      9  C4' I4B d   1      -0.801   2.937   2.943  0.00  0.00     0.013 C 
ATOM     10  C3' I4B d   1      -1.839   0.719   3.332  0.00  0.00     0.013 C 
ENDBRANCH   7   8
ENDBRANCH   1   7
TORSDOF 2
ENDMDL
