MODEL 1
REMARK minimizedAffinity 0.495220184
REMARK minimizedRMSD -1
REMARK  2 active torsions:
REMARK  status: ('A' for Active; 'I' for Inactive)
REMARK    1  A    between atoms: C2'_3  and  C1'_4 
REMARK    2  A    between atoms: C1'_4  and  C1_5 
ROOT
ATOM      1  C1  I4B d   1      -0.137  -0.573   0.323  0.00  0.00    -0.075 A 
ATOM      2  C2  I4B d   1       0.168  -1.911   0.333  0.00  0.00     0.003 A 
ATOM      3  C3  I4B d   1       1.355  -2.376  -0.283  0.00  0.00     0.002 A 
ATOM      4  C4  I4B d   1       2.177  -1.481  -0.938  0.00  0.00    -0.004 A 
ATOM      5  C5  I4B d   1       1.878  -0.122  -0.927  0.00  0.00     0.002 A 
ATOM      6  C6  I4B d   1       0.720   0.337  -0.283  0.00  0.00     0.003 A 
ENDROOT
BRANCH   1   7
ATOM      7  C1' I4B d   1      -1.415  -0.121   0.954  0.00  0.00     0.060 C 
BRANCH   7   8
ATOM      8  C2' I4B d   1      -1.107   0.310   2.374  0.00  0.00    -0.013 C 
ATOM      9  C4' I4B d   1      -1.341   1.786   2.559  0.00  0.00     0.013 C 
ATOM     10  C3' I4B d   1      -1.970  -0.496   3.299  0.00  0.00     0.013 C 
ENDBRANCH   7   8
ENDBRANCH   1   7
TORSDOF 2
ENDMDL
