MODEL 1
REMARK minimizedAffinity -5.58481026
REMARK minimizedRMSD -1
REMARK  2 active torsions:
REMARK  status: ('A' for Active; 'I' for Inactive)
REMARK    1  A    between atoms: C2'_3  and  C1'_4 
REMARK    2  A    between atoms: C1'_4  and  C1_5 
ROOT
ATOM      1  C1  I4B d   1      -0.246   0.953  -0.556  0.00  0.00    -0.075 A 
ATOM      2  C2  I4B d   1       0.201   1.869  -1.476  0.00  0.00     0.003 A 
ATOM      3  C3  I4B d   1       1.492   1.738  -2.043  0.00  0.00     0.002 A 
ATOM      4  C4  I4B d   1       2.316   0.713  -1.627  0.00  0.00    -0.004 A 
ATOM      5  C5  I4B d   1       1.853  -0.228  -0.711  0.00  0.00     0.002 A 
ATOM      6  C6  I4B d   1       0.560  -0.114  -0.182  0.00  0.00     0.003 A 
ENDROOT
BRANCH   1   7
ATOM      7  C1' I4B d   1      -1.602   1.140   0.047  0.00  0.00     0.060 C 
BRANCH   7   8
ATOM      8  C2' I4B d   1      -1.502   0.827   1.526  0.00  0.00    -0.013 C 
ATOM      9  C4' I4B d   1      -1.224   2.071   2.329  0.00  0.00     0.013 C 
ATOM     10  C3' I4B d   1      -2.788   0.185   1.952  0.00  0.00     0.013 C 
ENDBRANCH   7   8
ENDBRANCH   1   7
TORSDOF 2
ENDMDL
