MODEL 1
REMARK minimizedAffinity -5.39188433
REMARK minimizedRMSD -1
REMARK  2 active torsions:
REMARK  status: ('A' for Active; 'I' for Inactive)
REMARK    1  A    between atoms: C2'_3  and  C1'_4 
REMARK    2  A    between atoms: C1'_4  and  C1_5 
ROOT
ATOM      1  C1  I4B d   1      -0.338  -0.147   0.137  0.00  0.00    -0.075 A 
ATOM      2  C2  I4B d   1       0.413   0.814  -0.492  0.00  0.00     0.003 A 
ATOM      3  C3  I4B d   1       1.611   0.459  -1.159  0.00  0.00     0.002 A 
ATOM      4  C4  I4B d   1       2.043  -0.852  -1.129  0.00  0.00    -0.004 A 
ATOM      5  C5  I4B d   1       1.268  -1.828  -0.510  0.00  0.00     0.002 A 
ATOM      6  C6  I4B d   1       0.063  -1.476   0.116  0.00  0.00     0.003 A 
ENDROOT
BRANCH   1   7
ATOM      7  C1' I4B d   1      -1.581   0.268   0.859  0.00  0.00     0.060 C 
BRANCH   7   8
ATOM      8  C2' I4B d   1      -1.204   0.585   2.292  0.00  0.00    -0.013 C 
ATOM      9  C4' I4B d   1      -1.575   1.999   2.654  0.00  0.00     0.013 C 
ATOM     10  C3' I4B d   1      -1.898  -0.402   3.182  0.00  0.00     0.013 C 
ENDBRANCH   7   8
ENDBRANCH   1   7
TORSDOF 2
ENDMDL
