MODEL 1
REMARK minimizedAffinity -4.70013666
REMARK minimizedRMSD -1
REMARK  2 active torsions:
REMARK  status: ('A' for Active; 'I' for Inactive)
REMARK    1  A    between atoms: C2'_3  and  C1'_4 
REMARK    2  A    between atoms: C1'_4  and  C1_5 
ROOT
ATOM      1  C1  I4B d   1       0.410  -0.415  -0.418  0.00  0.00    -0.075 A 
ATOM      2  C2  I4B d   1       0.632  -1.622  -1.033  0.00  0.00     0.003 A 
ATOM      3  C3  I4B d   1       1.941  -1.992  -1.424  0.00  0.00     0.002 A 
ATOM      4  C4  I4B d   1       2.984  -1.109  -1.228  0.00  0.00    -0.004 A 
ATOM      5  C5  I4B d   1       2.761   0.104  -0.584  0.00  0.00     0.002 A 
ATOM      6  C6  I4B d   1       1.468   0.448  -0.164  0.00  0.00     0.003 A 
ENDROOT
BRANCH   1   7
ATOM      7  C1' I4B d   1      -0.991  -0.042  -0.047  0.00  0.00     0.060 C 
BRANCH   7   8
ATOM      8  C2' I4B d   1      -1.071   0.026   1.464  0.00  0.00    -0.013 C 
ATOM      9  C4' I4B d   1      -0.631   1.374   1.973  0.00  0.00     0.013 C 
ATOM     10  C3' I4B d   1      -2.485  -0.269   1.867  0.00  0.00     0.013 C 
ENDBRANCH   7   8
ENDBRANCH   1   7
TORSDOF 2
ENDMDL
