MODEL 1
REMARK minimizedAffinity 3.0896945
REMARK minimizedRMSD -1
REMARK  2 active torsions:
REMARK  status: ('A' for Active; 'I' for Inactive)
REMARK    1  A    between atoms: C2'_3  and  C1'_4 
REMARK    2  A    between atoms: C1'_4  and  C1_5 
ROOT
ATOM      1  C1  I4B d   1      -2.093  -0.287   1.547  0.00  0.00    -0.075 A 
ATOM      2  C2  I4B d   1      -2.165   0.935   2.167  0.00  0.00     0.003 A 
ATOM      3  C3  I4B d   1      -2.591   1.028   3.514  0.00  0.00     0.002 A 
ATOM      4  C4  I4B d   1      -2.981  -0.114   4.183  0.00  0.00    -0.004 A 
ATOM      5  C5  I4B d   1      -2.886  -1.356   3.561  0.00  0.00     0.002 A 
ATOM      6  C6  I4B d   1      -2.427  -1.445   2.238  0.00  0.00     0.003 A 
ENDROOT
BRANCH   1   7
ATOM      7  C1' I4B d   1      -1.670  -0.345   0.114  0.00  0.00     0.060 C 
BRANCH   7   8
ATOM      8  C2' I4B d   1      -0.174  -0.110   0.058  0.00  0.00    -0.013 C 
ATOM      9  C4' I4B d   1       0.543  -1.299  -0.525  0.00  0.00     0.013 C 
ATOM     10  C3' I4B d   1       0.071   1.124  -0.757  0.00  0.00     0.013 C 
ENDBRANCH   7   8
ENDBRANCH   1   7
TORSDOF 2
ENDMDL
