MODEL 1
REMARK minimizedAffinity -6.48358536
REMARK minimizedRMSD -1
REMARK  2 active torsions:
REMARK  status: ('A' for Active; 'I' for Inactive)
REMARK    1  A    between atoms: C1_2  and  C2_3 
REMARK    2  A    between atoms: C2_3  and  C3_4 
ROOT
ATOM      1  C3  UNL d   1      -0.044  -1.273   0.098  0.00  0.00    -0.075 A 
ATOM      2  C4  UNL d   1       0.651  -1.431  -1.110  0.00  0.00     0.002 A 
ATOM      3  C5  UNL d   1       0.763  -2.689  -1.703  0.00  0.00     0.002 A 
ATOM      4  C6  UNL d   1       0.194  -3.804  -1.092  0.00  0.00    -0.004 A 
ATOM      5  C7  UNL d   1      -0.484  -3.662   0.116  0.00  0.00     0.002 A 
ATOM      6  C8  UNL d   1      -0.602  -2.404   0.710  0.00  0.00     0.002 A 
ENDROOT
BRANCH   1   7
ATOM      7  C2  UNL d   1      -0.195   0.090   0.730  0.00  0.00     0.056 C 
BRANCH   7   8
ATOM      8  C1  UNL d   1       0.040   1.255  -0.237  0.00  0.00     0.007 C 
ATOM      9  C   UNL d   1       1.087   2.244   0.258  0.00  0.00     0.009 C 
ENDBRANCH   7   8
ENDBRANCH   1   7
TORSDOF 2
ENDMDL
