MODEL 1
REMARK minimizedAffinity -1.63306427
REMARK minimizedRMSD -1
REMARK  2 active torsions:
REMARK  status: ('A' for Active; 'I' for Inactive)
REMARK    1  A    between atoms: C1_2  and  C2_3 
REMARK    2  A    between atoms: C2_3  and  C3_4 
ROOT
ATOM      1  C3  UNL d   1       0.802   1.593  -0.201  0.00  0.00    -0.075 A 
ATOM      2  C4  UNL d   1       0.344   2.651   0.599  0.00  0.00     0.002 A 
ATOM      3  C5  UNL d   1       1.233   3.616   1.073  0.00  0.00     0.002 A 
ATOM      4  C6  UNL d   1       2.588   3.532   0.762  0.00  0.00    -0.004 A 
ATOM      5  C7  UNL d   1       3.056   2.477  -0.018  0.00  0.00     0.002 A 
ATOM      6  C8  UNL d   1       2.169   1.512  -0.497  0.00  0.00     0.002 A 
ENDROOT
BRANCH   1   7
ATOM      7  C2  UNL d   1      -0.160   0.562  -0.741  0.00  0.00     0.056 C 
BRANCH   7   8
ATOM      8  C1  UNL d   1      -1.295   0.202   0.223  0.00  0.00     0.007 C 
ATOM      9  C   UNL d   1      -1.019  -1.060   1.031  0.00  0.00     0.009 C 
ENDBRANCH   7   8
ENDBRANCH   1   7
TORSDOF 2
ENDMDL
