MODEL 1
REMARK minimizedAffinity -0.580343544
REMARK minimizedRMSD -1
REMARK  2 active torsions:
REMARK  status: ('A' for Active; 'I' for Inactive)
REMARK    1  A    between atoms: C1_2  and  C2_3 
REMARK    2  A    between atoms: C2_3  and  C3_4 
ROOT
ATOM      1  C3  UNL d   1       0.026  -0.257  -0.713  0.00  0.00    -0.075 A 
ATOM      2  C4  UNL d   1      -0.453   0.776   0.106  0.00  0.00     0.002 A 
ATOM      3  C5  UNL d   1      -1.148   0.484   1.280  0.00  0.00     0.002 A 
ATOM      4  C6  UNL d   1      -1.382  -0.841   1.644  0.00  0.00    -0.004 A 
ATOM      5  C7  UNL d   1      -0.925  -1.874   0.829  0.00  0.00     0.002 A 
ATOM      6  C8  UNL d   1      -0.226  -1.585  -0.344  0.00  0.00     0.002 A 
ENDROOT
BRANCH   1   7
ATOM      7  C2  UNL d   1       0.804   0.052  -1.970  0.00  0.00     0.056 C 
BRANCH   7   8
ATOM      8  C1  UNL d   1       0.418  -0.817  -3.172  0.00  0.00     0.007 C 
ATOM      9  C   UNL d   1       1.570  -1.667  -3.692  0.00  0.00     0.009 C 
ENDBRANCH   7   8
ENDBRANCH   1   7
TORSDOF 2
ENDMDL
