MODEL 1
REMARK minimizedAffinity -5.75272703
REMARK minimizedRMSD -1
REMARK  2 active torsions:
REMARK  status: ('A' for Active; 'I' for Inactive)
REMARK    1  A    between atoms: C1_2  and  C2_3 
REMARK    2  A    between atoms: C2_3  and  C3_4 
ROOT
ATOM      1  C3  UNL d   1       0.004  -0.975  -0.231  0.00  0.00    -0.075 A 
ATOM      2  C4  UNL d   1      -0.155  -2.202   0.429  0.00  0.00     0.002 A 
ATOM      3  C5  UNL d   1      -0.057  -3.403  -0.274  0.00  0.00     0.002 A 
ATOM      4  C6  UNL d   1       0.189  -3.393  -1.645  0.00  0.00    -0.004 A 
ATOM      5  C7  UNL d   1       0.331  -2.179  -2.315  0.00  0.00     0.002 A 
ATOM      6  C8  UNL d   1       0.239  -0.976  -1.613  0.00  0.00     0.002 A 
ENDROOT
BRANCH   1   7
ATOM      7  C2  UNL d   1      -0.071   0.327   0.529  0.00  0.00     0.056 C 
BRANCH   7   8
ATOM      8  C1  UNL d   1      -0.022   1.573  -0.361  0.00  0.00     0.007 C 
ATOM      9  C   UNL d   1       0.902   2.659   0.175  0.00  0.00     0.009 C 
ENDBRANCH   7   8
ENDBRANCH   1   7
TORSDOF 2
ENDMDL
