MODEL 1
REMARK minimizedAffinity -2.43381643
REMARK minimizedRMSD -1
REMARK  2 active torsions:
REMARK  status: ('A' for Active; 'I' for Inactive)
REMARK    1  A    between atoms: C1_2  and  C2_3 
REMARK    2  A    between atoms: C2_3  and  C3_4 
ROOT
ATOM      1  C3  UNL d   1       0.686   1.738   0.173  0.00  0.00    -0.075 A 
ATOM      2  C4  UNL d   1       2.080   1.887   0.229  0.00  0.00     0.002 A 
ATOM      3  C5  UNL d   1       2.647   3.070   0.706  0.00  0.00     0.002 A 
ATOM      4  C6  UNL d   1       1.830   4.119   1.121  0.00  0.00    -0.004 A 
ATOM      5  C7  UNL d   1       0.445   3.988   1.054  0.00  0.00     0.002 A 
ATOM      6  C8  UNL d   1      -0.125   2.805   0.582  0.00  0.00     0.002 A 
ENDROOT
BRANCH   1   7
ATOM      7  C2  UNL d   1       0.066   0.450  -0.314  0.00  0.00     0.056 C 
BRANCH   7   8
ATOM      8  C1  UNL d   1      -1.028  -0.102   0.605  0.00  0.00     0.007 C 
ATOM      9  C   UNL d   1      -0.537  -1.212   1.525  0.00  0.00     0.009 C 
ENDBRANCH   7   8
ENDBRANCH   1   7
TORSDOF 2
ENDMDL
