MODEL 1
REMARK minimizedAffinity -5.90257454
REMARK minimizedRMSD -1
REMARK  2 active torsions:
REMARK  status: ('A' for Active; 'I' for Inactive)
REMARK    1  A    between atoms: C1_2  and  C2_3 
REMARK    2  A    between atoms: C2_3  and  C3_4 
ROOT
ATOM      1  C3  UNL d   1      -0.018  -0.203  -0.394  0.00  0.00    -0.075 A 
ATOM      2  C4  UNL d   1       0.494  -0.770  -1.571  0.00  0.00     0.002 A 
ATOM      3  C5  UNL d   1       0.459  -2.152  -1.764  0.00  0.00     0.002 A 
ATOM      4  C6  UNL d   1      -0.077  -2.983  -0.783  0.00  0.00    -0.004 A 
ATOM      5  C7  UNL d   1      -0.573  -2.432   0.396  0.00  0.00     0.002 A 
ATOM      6  C8  UNL d   1      -0.544  -1.050   0.591  0.00  0.00     0.002 A 
ENDROOT
BRANCH   1   7
ATOM      7  C2  UNL d   1      -0.010   1.293  -0.191  0.00  0.00     0.056 C 
BRANCH   7   8
ATOM      8  C1  UNL d   1       1.372   1.872   0.127  0.00  0.00     0.007 C 
ATOM      9  C   UNL d   1       1.326   3.329   0.569  0.00  0.00     0.009 C 
ENDBRANCH   7   8
ENDBRANCH   1   7
TORSDOF 2
ENDMDL
