MODEL 1
REMARK minimizedAffinity -5.67946672
REMARK minimizedRMSD -1
REMARK  2 active torsions:
REMARK  status: ('A' for Active; 'I' for Inactive)
REMARK    1  A    between atoms: C1_2  and  C2_3 
REMARK    2  A    between atoms: C2_3  and  C3_4 
ROOT
ATOM      1  C3  UNL d   1       0.335  -0.118  -0.644  0.00  0.00    -0.075 A 
ATOM      2  C4  UNL d   1       0.356  -0.195  -2.044  0.00  0.00     0.002 A 
ATOM      3  C5  UNL d   1       0.897  -1.310  -2.684  0.00  0.00     0.002 A 
ATOM      4  C6  UNL d   1       1.433  -2.355  -1.935  0.00  0.00    -0.004 A 
ATOM      5  C7  UNL d   1       1.432  -2.282  -0.543  0.00  0.00     0.002 A 
ATOM      6  C8  UNL d   1       0.887  -1.169   0.100  0.00  0.00     0.002 A 
ENDROOT
BRANCH   1   7
ATOM      7  C2  UNL d   1      -0.277   1.073   0.056  0.00  0.00     0.056 C 
BRANCH   7   8
ATOM      8  C1  UNL d   1      -1.709   0.840   0.548  0.00  0.00     0.007 C 
ATOM      9  C   UNL d   1      -1.780   0.419   2.010  0.00  0.00     0.009 C 
ENDBRANCH   7   8
ENDBRANCH   1   7
TORSDOF 2
ENDMDL
