MODEL 1
REMARK minimizedAffinity -5.26434231
REMARK minimizedRMSD -1
REMARK  2 active torsions:
REMARK  status: ('A' for Active; 'I' for Inactive)
REMARK    1  A    between atoms: C1_2  and  C2_3 
REMARK    2  A    between atoms: C2_3  and  C3_4 
ROOT
ATOM      1  C3  UNL d   1      -0.026  -1.056  -0.484  0.00  0.00    -0.075 A 
ATOM      2  C4  UNL d   1       0.412  -1.154  -1.813  0.00  0.00     0.002 A 
ATOM      3  C5  UNL d   1       0.367  -2.375  -2.485  0.00  0.00     0.002 A 
ATOM      4  C6  UNL d   1      -0.104  -3.514  -1.836  0.00  0.00    -0.004 A 
ATOM      5  C7  UNL d   1      -0.526  -3.432  -0.511  0.00  0.00     0.002 A 
ATOM      6  C8  UNL d   1      -0.487  -2.210   0.163  0.00  0.00     0.002 A 
ENDROOT
BRANCH   1   7
ATOM      7  C2  UNL d   1      -0.008   0.270   0.239  0.00  0.00     0.056 C 
BRANCH   7   8
ATOM      8  C1  UNL d   1       0.449   1.448  -0.628  0.00  0.00     0.007 C 
ATOM      9  C   UNL d   1       0.817   2.683   0.183  0.00  0.00     0.009 C 
ENDBRANCH   7   8
ENDBRANCH   1   7
TORSDOF 2
ENDMDL
