MODEL 1
REMARK minimizedAffinity 18.5971336
REMARK minimizedRMSD -1
REMARK  0 active torsions:
REMARK  status: ('A' for Active; 'I' for Inactive)
ROOT
ATOM      1  C   UNL d   1      -3.387  -1.534  -0.122  0.00  0.00     0.020 A 
ATOM      2  C1  UNL d   1      -2.179  -0.922   0.212  0.00  0.00     0.020 A 
ATOM      3  C2  UNL d   1      -2.077  -0.171   1.385  0.00  0.00     0.034 A 
ATOM      4  C3  UNL d   1      -3.185  -0.030   2.228  0.00  0.00     0.017 A 
ATOM      5  C4  UNL d   1      -4.397  -0.644   1.892  0.00  0.00     0.017 A 
ATOM      6  C5  UNL d   1      -4.493  -1.395   0.717  0.00  0.00     0.034 A 
ATOM      7 Cl   UNL d   1      -5.807  -0.515   2.883  0.00  0.00    -0.070 Cl
ATOM      8 Cl1  UNL d   1      -2.988   0.913   3.662  0.00  0.00    -0.070 Cl
ENDROOT
TORSDOF 0
ENDMDL
