MODEL 1
REMARK minimizedAffinity 25.2702675
REMARK minimizedRMSD -1
REMARK  0 active torsions:
REMARK  status: ('A' for Active; 'I' for Inactive)
ROOT
ATOM      1  C   UNL d   1       0.620  -3.597  -3.220  0.00  0.00     0.020 A 
ATOM      2  C1  UNL d   1      -0.370  -4.315  -2.550  0.00  0.00     0.020 A 
ATOM      3  C2  UNL d   1      -1.190  -3.673  -1.620  0.00  0.00     0.034 A 
ATOM      4  C3  UNL d   1      -1.023  -2.308  -1.358  0.00  0.00     0.017 A 
ATOM      5  C4  UNL d   1      -0.029  -1.588  -2.031  0.00  0.00     0.017 A 
ATOM      6  C5  UNL d   1       0.790  -2.236  -2.961  0.00  0.00     0.034 A 
ATOM      7 Cl   UNL d   1       0.237   0.098  -1.761  0.00  0.00    -0.070 Cl
ATOM      8 Cl1  UNL d   1      -2.074  -1.579  -0.197  0.00  0.00    -0.070 Cl
ENDROOT
TORSDOF 0
ENDMDL
