MODEL 1
REMARK minimizedAffinity 12.7768526
REMARK minimizedRMSD -1
REMARK  0 active torsions:
REMARK  status: ('A' for Active; 'I' for Inactive)
ROOT
ATOM      1  C   UNL d   1       1.653   1.053  -1.553  0.00  0.00     0.020 A 
ATOM      2  C1  UNL d   1       0.817   1.008  -2.668  0.00  0.00     0.020 A 
ATOM      3  C2  UNL d   1       0.549  -0.212  -3.290  0.00  0.00     0.034 A 
ATOM      4  C3  UNL d   1       1.117  -1.393  -2.799  0.00  0.00     0.017 A 
ATOM      5  C4  UNL d   1       1.956  -1.347  -1.680  0.00  0.00     0.017 A 
ATOM      6  C5  UNL d   1       2.221  -0.122  -1.060  0.00  0.00     0.034 A 
ATOM      7 Cl   UNL d   1       2.694  -2.762  -1.015  0.00  0.00    -0.070 Cl
ATOM      8 Cl1  UNL d   1       0.742  -2.867  -3.618  0.00  0.00    -0.070 Cl
ENDROOT
TORSDOF 0
ENDMDL
