MODEL 1
REMARK minimizedAffinity 10.9184494
REMARK minimizedRMSD -1
REMARK  0 active torsions:
REMARK  status: ('A' for Active; 'I' for Inactive)
ROOT
ATOM      1  C   UNL d   1      -1.036   6.000   0.053  0.00  0.00     0.020 A 
ATOM      2  C1  UNL d   1      -1.901   5.007  -0.405  0.00  0.00     0.020 A 
ATOM      3  C2  UNL d   1      -1.385   3.817  -0.924  0.00  0.00     0.034 A 
ATOM      4  C3  UNL d   1      -0.001   3.618  -0.986  0.00  0.00     0.017 A 
ATOM      5  C4  UNL d   1       0.866   4.615  -0.526  0.00  0.00     0.017 A 
ATOM      6  C5  UNL d   1       0.345   5.804  -0.007  0.00  0.00     0.034 A 
ATOM      7 Cl   UNL d   1       2.585   4.441  -0.570  0.00  0.00    -0.070 Cl
ATOM      8 Cl1  UNL d   1       0.566   2.122  -1.640  0.00  0.00    -0.070 Cl
ENDROOT
TORSDOF 0
ENDMDL
