MODEL 1
REMARK minimizedAffinity 18.7764454
REMARK minimizedRMSD -1
REMARK  0 active torsions:
REMARK  status: ('A' for Active; 'I' for Inactive)
ROOT
ATOM      1  C   UNL d   1      -3.684   5.470   5.990  0.00  0.00     0.020 A 
ATOM      2  C1  UNL d   1      -2.349   5.871   5.990  0.00  0.00     0.020 A 
ATOM      3  C2  UNL d   1      -1.659   5.999   4.783  0.00  0.00     0.034 A 
ATOM      4  C3  UNL d   1      -2.303   5.726   3.571  0.00  0.00     0.017 A 
ATOM      5  C4  UNL d   1      -3.644   5.323   3.572  0.00  0.00     0.017 A 
ATOM      6  C5  UNL d   1      -4.330   5.197   4.784  0.00  0.00     0.034 A 
ATOM      7 Cl   UNL d   1      -4.507   4.968   2.117  0.00  0.00    -0.070 Cl
ATOM      8 Cl1  UNL d   1      -1.389   5.905   2.116  0.00  0.00    -0.070 Cl
ENDROOT
TORSDOF 0
ENDMDL
