MODEL 1
REMARK minimizedAffinity 18.5914345
REMARK minimizedRMSD -1
REMARK  0 active torsions:
REMARK  status: ('A' for Active; 'I' for Inactive)
ROOT
ATOM      1  C   UNL d   1       1.030   1.428  -2.786  0.00  0.00     0.020 A 
ATOM      2  C1  UNL d   1       0.637   0.496  -1.827  0.00  0.00     0.020 A 
ATOM      3  C2  UNL d   1       1.596  -0.282  -1.175  0.00  0.00     0.034 A 
ATOM      4  C3  UNL d   1       2.953  -0.130  -1.482  0.00  0.00     0.017 A 
ATOM      5  C4  UNL d   1       3.347   0.806  -2.446  0.00  0.00     0.017 A 
ATOM      6  C5  UNL d   1       2.382   1.582  -3.095  0.00  0.00     0.034 A 
ATOM      7 Cl   UNL d   1       5.002   1.050  -2.879  0.00  0.00    -0.070 Cl
ATOM      8 Cl1  UNL d   1       4.085  -1.125  -0.637  0.00  0.00    -0.070 Cl
ENDROOT
TORSDOF 0
ENDMDL
