MODEL 1
REMARK minimizedAffinity 10.7241182
REMARK minimizedRMSD -1
REMARK  0 active torsions:
REMARK  status: ('A' for Active; 'I' for Inactive)
ROOT
ATOM      1  C   UNL d   1       3.076   5.766  -2.288  0.00  0.00     0.020 A 
ATOM      2  C1  UNL d   1       4.281   5.207  -1.864  0.00  0.00     0.020 A 
ATOM      3  C2  UNL d   1       4.465   4.882  -0.518  0.00  0.00     0.034 A 
ATOM      4  C3  UNL d   1       3.442   5.115   0.408  0.00  0.00     0.017 A 
ATOM      5  C4  UNL d   1       2.232   5.676  -0.019  0.00  0.00     0.017 A 
ATOM      6  C5  UNL d   1       2.054   6.000  -1.367  0.00  0.00     0.034 A 
ATOM      7 Cl   UNL d   1       0.924   5.993   1.065  0.00  0.00    -0.070 Cl
ATOM      8 Cl1  UNL d   1       3.737   4.689   2.056  0.00  0.00    -0.070 Cl
ENDROOT
TORSDOF 0
ENDMDL
