MODEL 1
REMARK minimizedAffinity 19.5644169
REMARK minimizedRMSD -1
REMARK  0 active torsions:
REMARK  status: ('A' for Active; 'I' for Inactive)
ROOT
ATOM      1  C   UNL d   1       1.883   4.990  -1.264  0.00  0.00     0.020 A 
ATOM      2  C1  UNL d   1       1.481   4.988   0.071  0.00  0.00     0.020 A 
ATOM      3  C2  UNL d   1       2.413   4.739   1.080  0.00  0.00     0.034 A 
ATOM      4  C3  UNL d   1       3.752   4.491   0.756  0.00  0.00     0.017 A 
ATOM      5  C4  UNL d   1       4.155   4.493  -0.584  0.00  0.00     0.017 A 
ATOM      6  C5  UNL d   1       3.217   4.743  -1.591  0.00  0.00     0.034 A 
ATOM      7 Cl   UNL d   1       5.789   4.195  -1.062  0.00  0.00    -0.070 Cl
ATOM      8 Cl1  UNL d   1       4.851   4.191   2.056  0.00  0.00    -0.070 Cl
ENDROOT
TORSDOF 0
ENDMDL
