MODEL 1
REMARK minimizedAffinity 13.813282
REMARK minimizedRMSD -1
REMARK  0 active torsions:
REMARK  status: ('A' for Active; 'I' for Inactive)
ROOT
ATOM      1  C   UNL d   1      -5.467  -0.014   5.415  0.00  0.00     0.020 A 
ATOM      2  C1  UNL d   1      -4.211   0.581   5.305  0.00  0.00     0.020 A 
ATOM      3  C2  UNL d   1      -3.486   0.469   4.117  0.00  0.00     0.034 A 
ATOM      4  C3  UNL d   1      -4.018  -0.240   3.033  0.00  0.00     0.017 A 
ATOM      5  C4  UNL d   1      -5.279  -0.836   3.144  0.00  0.00     0.017 A 
ATOM      6  C5  UNL d   1      -6.000  -0.721   4.336  0.00  0.00     0.034 A 
ATOM      7 Cl   UNL d   1      -6.000  -1.727   1.850  0.00  0.00    -0.070 Cl
ATOM      8 Cl1  UNL d   1      -3.067  -0.337   1.593  0.00  0.00    -0.070 Cl
ENDROOT
TORSDOF 0
ENDMDL
