MODEL 1
REMARK minimizedAffinity 19.9422417
REMARK minimizedRMSD -1
REMARK  0 active torsions:
REMARK  status: ('A' for Active; 'I' for Inactive)
ROOT
ATOM      1  C   UNL d   1      -2.380   5.932   5.998  0.00  0.00     0.020 A 
ATOM      2  C1  UNL d   1      -1.659   4.748   5.848  0.00  0.00     0.020 A 
ATOM      3  C2  UNL d   1      -2.264   3.631   5.269  0.00  0.00     0.034 A 
ATOM      4  C3  UNL d   1      -3.594   3.695   4.836  0.00  0.00     0.017 A 
ATOM      5  C4  UNL d   1      -4.316   4.884   4.987  0.00  0.00     0.017 A 
ATOM      6  C5  UNL d   1      -3.705   6.000   5.568  0.00  0.00     0.034 A 
ATOM      7 Cl   UNL d   1      -5.960   5.041   4.477  0.00  0.00    -0.070 Cl
ATOM      8 Cl1  UNL d   1      -4.278   2.276   4.128  0.00  0.00    -0.070 Cl
ENDROOT
TORSDOF 0
ENDMDL
