MODEL 1
REMARK minimizedAffinity 22.6216831
REMARK minimizedRMSD -1
REMARK  0 active torsions:
REMARK  status: ('A' for Active; 'I' for Inactive)
ROOT
ATOM      1  C   UNL d   1       2.017   0.823  -1.452  0.00  0.00     0.020 A 
ATOM      2  C1  UNL d   1       2.117  -0.449  -0.890  0.00  0.00     0.020 A 
ATOM      3  C2  UNL d   1       1.514  -1.539  -1.520  0.00  0.00     0.034 A 
ATOM      4  C3  UNL d   1       0.809  -1.360  -2.716  0.00  0.00     0.017 A 
ATOM      5  C4  UNL d   1       0.710  -0.083  -3.279  0.00  0.00     0.017 A 
ATOM      6  C5  UNL d   1       1.315   1.006  -2.644  0.00  0.00     0.034 A 
ATOM      7 Cl   UNL d   1      -0.144   0.217  -4.752  0.00  0.00    -0.070 Cl
ATOM      8 Cl1  UNL d   1       0.089  -2.753  -3.441  0.00  0.00    -0.070 Cl
ENDROOT
TORSDOF 0
ENDMDL
