MODEL 1
REMARK minimizedAffinity 11.9351482
REMARK minimizedRMSD -1
REMARK  0 active torsions:
REMARK  status: ('A' for Active; 'I' for Inactive)
ROOT
ATOM      1  C   UNL d   1      -6.000  -0.768   4.871  0.00  0.00     0.020 A 
ATOM      2  C1  UNL d   1      -5.520  -0.010   5.939  0.00  0.00     0.020 A 
ATOM      3  C2  UNL d   1      -4.365   0.760   5.785  0.00  0.00     0.034 A 
ATOM      4  C3  UNL d   1      -3.686   0.774   4.561  0.00  0.00     0.017 A 
ATOM      5  C4  UNL d   1      -4.169   0.013   3.490  0.00  0.00     0.017 A 
ATOM      6  C5  UNL d   1      -5.326  -0.756   3.650  0.00  0.00     0.034 A 
ATOM      7 Cl   UNL d   1      -3.386  -0.020   1.950  0.00  0.00    -0.070 Cl
ATOM      8 Cl1  UNL d   1      -2.265   1.749   4.442  0.00  0.00    -0.070 Cl
ENDROOT
TORSDOF 0
ENDMDL
