MODEL 1
REMARK minimizedAffinity 6.13049459
REMARK minimizedRMSD -1
REMARK  0 active torsions:
REMARK  status: ('A' for Active; 'I' for Inactive)
ROOT
ATOM      1  C   UNL d   1       0.573   1.904  -3.112  0.00  0.00     0.020 A 
ATOM      2  C1  UNL d   1       1.590   2.601  -2.459  0.00  0.00     0.020 A 
ATOM      3  C2  UNL d   1       2.550   1.906  -1.722  0.00  0.00     0.034 A 
ATOM      4  C3  UNL d   1       2.497   0.510  -1.634  0.00  0.00     0.017 A 
ATOM      5  C4  UNL d   1       1.476  -0.189  -2.289  0.00  0.00     0.017 A 
ATOM      6  C5  UNL d   1       0.517   0.512  -3.027  0.00  0.00     0.034 A 
ATOM      7 Cl   UNL d   1       1.344  -1.911  -2.228  0.00  0.00    -0.070 Cl
ATOM      8 Cl1  UNL d   1       3.718  -0.284  -0.705  0.00  0.00    -0.070 Cl
ENDROOT
TORSDOF 0
ENDMDL
