MODEL 1
REMARK minimizedAffinity 1.26461923
REMARK minimizedRMSD -1
REMARK  0 active torsions:
REMARK  status: ('A' for Active; 'I' for Inactive)
ROOT
ATOM      1  C   UNL d   1       5.854  -1.179   5.428  0.00  0.00     0.020 A 
ATOM      2  C1  UNL d   1       4.800  -0.724   4.636  0.00  0.00     0.020 A 
ATOM      3  C2  UNL d   1       3.891  -1.635   4.094  0.00  0.00     0.034 A 
ATOM      4  C3  UNL d   1       4.034  -3.005   4.342  0.00  0.00     0.017 A 
ATOM      5  C4  UNL d   1       5.093  -3.460   5.137  0.00  0.00     0.017 A 
ATOM      6  C5  UNL d   1       6.000  -2.544   5.677  0.00  0.00     0.034 A 
ATOM      7 Cl   UNL d   1       5.334  -5.135   5.487  0.00  0.00    -0.070 Cl
ATOM      8 Cl1  UNL d   1       2.873  -4.075   3.639  0.00  0.00    -0.070 Cl
ENDROOT
TORSDOF 0
ENDMDL
