MODEL 1
REMARK minimizedAffinity 10.2353182
REMARK minimizedRMSD -1
REMARK  0 active torsions:
REMARK  status: ('A' for Active; 'I' for Inactive)
ROOT
ATOM      1  C   UNL d   1       5.999  -5.235   5.977  0.00  0.00     0.020 A 
ATOM      2  C1  UNL d   1       5.000  -5.920   5.287  0.00  0.00     0.020 A 
ATOM      3  C2  UNL d   1       4.000  -5.209   4.618  0.00  0.00     0.034 A 
ATOM      4  C3  UNL d   1       3.998  -3.810   4.638  0.00  0.00     0.017 A 
ATOM      5  C4  UNL d   1       5.001  -3.123   5.332  0.00  0.00     0.017 A 
ATOM      6  C5  UNL d   1       6.000  -3.840   5.999  0.00  0.00     0.034 A 
ATOM      7 Cl   UNL d   1       5.065  -1.398   5.402  0.00  0.00    -0.070 Cl
ATOM      8 Cl1  UNL d   1       2.732  -2.996   3.790  0.00  0.00    -0.070 Cl
ENDROOT
TORSDOF 0
ENDMDL
