MODEL 1
REMARK minimizedAffinity 15.5558338
REMARK minimizedRMSD -1
REMARK  0 active torsions:
REMARK  status: ('A' for Active; 'I' for Inactive)
ROOT
ATOM      1  C   UNL d   1       4.440  -4.522   4.956  0.00  0.00     0.020 A 
ATOM      2  C1  UNL d   1       5.534  -4.298   5.791  0.00  0.00     0.020 A 
ATOM      3  C2  UNL d   1       5.999  -2.998   5.998  0.00  0.00     0.034 A 
ATOM      4  C3  UNL d   1       5.371  -1.917   5.368  0.00  0.00     0.017 A 
ATOM      5  C4  UNL d   1       4.274  -2.143   4.530  0.00  0.00     0.017 A 
ATOM      6  C5  UNL d   1       3.812  -3.447   4.327  0.00  0.00     0.034 A 
ATOM      7 Cl   UNL d   1       3.447  -0.860   3.719  0.00  0.00    -0.070 Cl
ATOM      8 Cl1  UNL d   1       6.000  -0.336   5.670  0.00  0.00    -0.070 Cl
ENDROOT
TORSDOF 0
ENDMDL
