MODEL 1
REMARK minimizedAffinity 9.10979939
REMARK minimizedRMSD -1
REMARK  0 active torsions:
REMARK  status: ('A' for Active; 'I' for Inactive)
ROOT
ATOM      1  C   UNL d   1      -1.961   5.497   5.413  0.00  0.00     0.020 A 
ATOM      2  C1  UNL d   1      -1.833   5.643   4.033  0.00  0.00     0.020 A 
ATOM      3  C2  UNL d   1      -2.971   5.787   3.237  0.00  0.00     0.034 A 
ATOM      4  C3  UNL d   1      -4.243   5.785   3.821  0.00  0.00     0.017 A 
ATOM      5  C4  UNL d   1      -4.371   5.639   5.207  0.00  0.00     0.017 A 
ATOM      6  C5  UNL d   1      -3.228   5.495   5.999  0.00  0.00     0.034 A 
ATOM      7 Cl   UNL d   1      -5.907   5.627   6.000  0.00  0.00    -0.070 Cl
ATOM      8 Cl1  UNL d   1      -5.607   5.968   2.776  0.00  0.00    -0.070 Cl
ENDROOT
TORSDOF 0
ENDMDL
