MODEL 1
REMARK minimizedAffinity 1.28415203
REMARK minimizedRMSD -1
REMARK  0 active torsions:
REMARK  status: ('A' for Active; 'I' for Inactive)
ROOT
ATOM      1  C   UNL d   1      -5.437   5.992   5.204  0.00  0.00     0.020 A 
ATOM      2  C1  UNL d   1      -5.892   5.990   3.886  0.00  0.00     0.020 A 
ATOM      3  C2  UNL d   1      -4.976   5.990   2.832  0.00  0.00     0.034 A 
ATOM      4  C3  UNL d   1      -3.601   5.992   3.093  0.00  0.00     0.017 A 
ATOM      5  C4  UNL d   1      -3.146   5.994   4.416  0.00  0.00     0.017 A 
ATOM      6  C5  UNL d   1      -4.066   5.994   5.469  0.00  0.00     0.034 A 
ATOM      7 Cl   UNL d   1      -1.464   5.997   4.818  0.00  0.00    -0.070 Cl
ATOM      8 Cl1  UNL d   1      -2.526   5.992   1.740  0.00  0.00    -0.070 Cl
ENDROOT
TORSDOF 0
ENDMDL
