MODEL 1
REMARK minimizedAffinity 0.538686395
REMARK minimizedRMSD -1
REMARK  0 active torsions:
REMARK  status: ('A' for Active; 'I' for Inactive)
ROOT
ATOM      1  C   UNL d   1      -5.755  -0.921   1.508  0.00  0.00     0.020 A 
ATOM      2  C1  UNL d   1      -4.443  -1.122   1.937  0.00  0.00     0.020 A 
ATOM      3  C2  UNL d   1      -3.376  -0.715   1.134  0.00  0.00     0.034 A 
ATOM      4  C3  UNL d   1      -3.618  -0.105  -0.102  0.00  0.00     0.017 A 
ATOM      5  C4  UNL d   1      -4.935   0.097  -0.532  0.00  0.00     0.017 A 
ATOM      6  C5  UNL d   1      -6.000  -0.313   0.277  0.00  0.00     0.034 A 
ATOM      7 Cl   UNL d   1      -5.312   0.843  -2.044  0.00  0.00    -0.070 Cl
ATOM      8 Cl1  UNL d   1      -2.250   0.374  -1.043  0.00  0.00    -0.070 Cl
ENDROOT
TORSDOF 0
ENDMDL
