MODEL 1
REMARK minimizedAffinity -3.86725855
REMARK minimizedRMSD -1
REMARK  1 active torsions:
REMARK  status: ('A' for Active; 'I' for Inactive)
REMARK    1  A    between atoms: C1_2  and  C2_3 
ROOT
ATOM      1  C2  UNL d   1       0.425  -1.452   0.580  0.00  0.00    -0.073 A 
ATOM      2  C3  UNL d   1      -0.803  -0.872   0.916  0.00  0.00    -0.002 A 
ATOM      3  C4  UNL d   1      -1.061   0.464   0.606  0.00  0.00     0.004 A 
ATOM      4  C5  UNL d   1      -0.098   1.230  -0.050  0.00  0.00    -0.004 A 
ATOM      5  C6  UNL d   1       1.131   0.666  -0.405  0.00  0.00    -0.075 A 
ATOM      6  C7  UNL d   1       2.179   1.478  -1.109  0.00  0.00     0.076 C 
ATOM      7  C8  UNL d   1       1.384  -0.676  -0.087  0.00  0.00     0.001 A 
ENDROOT
BRANCH   1   8
ATOM      8  C1  UNL d   1       0.706  -2.896   0.908  0.00  0.00     0.053 C 
ATOM      9  C   UNL d   1       2.058  -3.075   1.581  0.00  0.00     0.018 C 
ENDBRANCH   1   8
TORSDOF 1
ENDMDL
