MODEL 1
REMARK minimizedAffinity -2.56934929
REMARK minimizedRMSD -1
REMARK  1 active torsions:
REMARK  status: ('A' for Active; 'I' for Inactive)
REMARK    1  A    between atoms: C1_2  and  C2_3 
ROOT
ATOM      1  C2  UNL d   1       0.042  -0.147  -0.076  0.00  0.00    -0.073 A 
ATOM      2  C3  UNL d   1      -0.021  -1.045  -1.148  0.00  0.00    -0.002 A 
ATOM      3  C4  UNL d   1       0.598  -2.293  -1.060  0.00  0.00     0.004 A 
ATOM      4  C5  UNL d   1       1.279  -2.658   0.102  0.00  0.00    -0.004 A 
ATOM      5  C6  UNL d   1       1.343  -1.779   1.188  0.00  0.00    -0.075 A 
ATOM      6  C7  UNL d   1       2.073  -2.156   2.443  0.00  0.00     0.076 C 
ATOM      7  C8  UNL d   1       0.721  -0.527   1.090  0.00  0.00     0.001 A 
ENDROOT
BRANCH   1   8
ATOM      8  C1  UNL d   1      -0.630   1.198  -0.165  0.00  0.00     0.053 C 
ATOM      9  C   UNL d   1      -1.394   1.369  -1.468  0.00  0.00     0.018 C 
ENDBRANCH   1   8
TORSDOF 1
ENDMDL
