MODEL 1
REMARK minimizedAffinity -4.44710827
REMARK minimizedRMSD -1
REMARK  1 active torsions:
REMARK  status: ('A' for Active; 'I' for Inactive)
REMARK    1  A    between atoms: C1_2  and  C2_3 
ROOT
ATOM      1  C2  UNL d   1       0.849  -0.528   0.219  0.00  0.00    -0.073 A 
ATOM      2  C3  UNL d   1       1.923  -1.424   0.267  0.00  0.00    -0.002 A 
ATOM      3  C4  UNL d   1       2.041  -2.327   1.324  0.00  0.00     0.004 A 
ATOM      4  C5  UNL d   1       1.084  -2.348   2.339  0.00  0.00    -0.004 A 
ATOM      5  C6  UNL d   1      -0.002  -1.469   2.303  0.00  0.00    -0.075 A 
ATOM      6  C7  UNL d   1      -1.039  -1.477   3.388  0.00  0.00     0.076 C 
ATOM      7  C8  UNL d   1      -0.112  -0.563   1.239  0.00  0.00     0.001 A 
ENDROOT
BRANCH   1   8
ATOM      8  C1  UNL d   1       0.715   0.445  -0.924  0.00  0.00     0.053 C 
ATOM      9  C   UNL d   1       1.988   1.246  -1.144  0.00  0.00     0.018 C 
ENDBRANCH   1   8
TORSDOF 1
ENDMDL
