MODEL 1
REMARK minimizedAffinity -4.2195878
REMARK minimizedRMSD -1
REMARK  1 active torsions:
REMARK  status: ('A' for Active; 'I' for Inactive)
REMARK    1  A    between atoms: C1_2  and  C2_3 
ROOT
ATOM      1  C2  UNL d   1      -0.692   0.651  -0.725  0.00  0.00    -0.073 A 
ATOM      2  C3  UNL d   1      -0.794   2.013  -1.030  0.00  0.00    -0.002 A 
ATOM      3  C4  UNL d   1      -1.453   2.429  -2.188  0.00  0.00     0.004 A 
ATOM      4  C5  UNL d   1      -2.022   1.490  -3.047  0.00  0.00    -0.004 A 
ATOM      5  C6  UNL d   1      -1.942   0.125  -2.753  0.00  0.00    -0.075 A 
ATOM      6  C7  UNL d   1      -2.547  -0.899  -3.668  0.00  0.00     0.076 C 
ATOM      7  C8  UNL d   1      -1.276  -0.285  -1.590  0.00  0.00     0.001 A 
ENDROOT
BRANCH   1   8
ATOM      8  C1  UNL d   1       0.013   0.198   0.527  0.00  0.00     0.053 C 
ATOM      9  C   UNL d   1       1.429  -0.278   0.244  0.00  0.00     0.018 C 
ENDBRANCH   1   8
TORSDOF 1
ENDMDL
