MODEL 1
REMARK minimizedAffinity -6.68754625
REMARK minimizedRMSD -1
REMARK  1 active torsions:
REMARK  status: ('A' for Active; 'I' for Inactive)
REMARK    1  A    between atoms: C1_2  and  C2_3 
ROOT
ATOM      1  C2  UNL d   1       0.811  -0.559   0.020  0.00  0.00    -0.073 A 
ATOM      2  C3  UNL d   1       1.735  -1.520  -0.407  0.00  0.00    -0.002 A 
ATOM      3  C4  UNL d   1       1.930  -2.688   0.332  0.00  0.00     0.004 A 
ATOM      4  C5  UNL d   1       1.201  -2.910   1.500  0.00  0.00    -0.004 A 
ATOM      5  C6  UNL d   1       0.264  -1.967   1.937  0.00  0.00    -0.075 A 
ATOM      6  C7  UNL d   1      -0.527  -2.190   3.192  0.00  0.00     0.076 C 
ATOM      7  C8  UNL d   1       0.076  -0.796   1.191  0.00  0.00     0.001 A 
ENDROOT
BRANCH   1   8
ATOM      8  C1  UNL d   1       0.592   0.700  -0.777  0.00  0.00     0.053 C 
ATOM      9  C   UNL d   1      -0.841   1.198  -0.675  0.00  0.00     0.018 C 
ENDBRANCH   1   8
TORSDOF 1
ENDMDL
