MODEL 1
REMARK minimizedAffinity -2.2312181
REMARK minimizedRMSD -1
REMARK  1 active torsions:
REMARK  status: ('A' for Active; 'I' for Inactive)
REMARK    1  A    between atoms: C1_2  and  C2_3 
ROOT
ATOM      1  C2  UNL d   1       0.112  -0.602  -0.273  0.00  0.00    -0.073 A 
ATOM      2  C3  UNL d   1       1.233  -0.069  -0.920  0.00  0.00    -0.002 A 
ATOM      3  C4  UNL d   1       2.506  -0.578  -0.660  0.00  0.00     0.004 A 
ATOM      4  C5  UNL d   1       2.671  -1.629   0.242  0.00  0.00    -0.004 A 
ATOM      5  C6  UNL d   1       1.562  -2.184   0.889  0.00  0.00    -0.075 A 
ATOM      6  C7  UNL d   1       1.723  -3.313   1.864  0.00  0.00     0.076 C 
ATOM      7  C8  UNL d   1       0.287  -1.665   0.625  0.00  0.00     0.001 A 
ENDROOT
BRANCH   1   8
ATOM      8  C1  UNL d   1      -1.265  -0.060  -0.555  0.00  0.00     0.053 C 
ATOM      9  C   UNL d   1      -1.591  -0.077  -2.040  0.00  0.00     0.018 C 
ENDBRANCH   1   8
TORSDOF 1
ENDMDL
