MODEL 1
REMARK minimizedAffinity -2.00576687
REMARK minimizedRMSD -1
REMARK  1 active torsions:
REMARK  status: ('A' for Active; 'I' for Inactive)
REMARK    1  A    between atoms: C1_2  and  C2_3 
ROOT
ATOM      1  C2  UNL d   1      -1.386   0.124  -2.017  0.00  0.00    -0.073 A 
ATOM      2  C3  UNL d   1      -2.670  -0.251  -2.431  0.00  0.00    -0.002 A 
ATOM      3  C4  UNL d   1      -3.349   0.502  -3.390  0.00  0.00     0.004 A 
ATOM      4  C5  UNL d   1      -2.752   1.631  -3.948  0.00  0.00    -0.004 A 
ATOM      5  C6  UNL d   1      -1.465   2.016  -3.556  0.00  0.00    -0.075 A 
ATOM      6  C7  UNL d   1      -0.809   3.230  -4.146  0.00  0.00     0.076 C 
ATOM      7  C8  UNL d   1      -0.790   1.256  -2.591  0.00  0.00     0.001 A 
ENDROOT
BRANCH   1   8
ATOM      8  C1  UNL d   1      -0.646  -0.689  -0.987  0.00  0.00     0.053 C 
ATOM      9  C   UNL d   1      -0.264   0.141   0.228  0.00  0.00     0.018 C 
ENDBRANCH   1   8
TORSDOF 1
ENDMDL
