MODEL 1
REMARK minimizedAffinity -2.45243406
REMARK minimizedRMSD -1
REMARK  1 active torsions:
REMARK  status: ('A' for Active; 'I' for Inactive)
REMARK    1  A    between atoms: C1_2  and  C2_3 
ROOT
ATOM      1  C2  UNL d   1       0.540  -0.667   0.435  0.00  0.00    -0.073 A 
ATOM      2  C3  UNL d   1       1.850  -0.360   0.052  0.00  0.00    -0.002 A 
ATOM      3  C4  UNL d   1       2.910  -1.179   0.444  0.00  0.00     0.004 A 
ATOM      4  C5  UNL d   1       2.670  -2.316   1.216  0.00  0.00    -0.004 A 
ATOM      5  C6  UNL d   1       1.366  -2.646   1.599  0.00  0.00    -0.075 A 
ATOM      6  C7  UNL d   1       1.091  -3.863   2.432  0.00  0.00     0.076 C 
ATOM      7  C8  UNL d   1       0.308  -1.817   1.204  0.00  0.00     0.001 A 
ENDROOT
BRANCH   1   8
ATOM      8  C1  UNL d   1      -0.608   0.211   0.008  0.00  0.00     0.053 C 
ATOM      9  C   UNL d   1      -0.392   1.663   0.402  0.00  0.00     0.018 C 
ENDBRANCH   1   8
TORSDOF 1
ENDMDL
