MODEL 1
REMARK minimizedAffinity -5.01344919
REMARK minimizedRMSD -1
REMARK  1 active torsions:
REMARK  status: ('A' for Active; 'I' for Inactive)
REMARK    1  A    between atoms: C1_2  and  C2_3 
ROOT
ATOM      1  C2  UNL d   1      -0.425   0.211  -0.368  0.00  0.00    -0.073 A 
ATOM      2  C3  UNL d   1       0.715   0.916  -0.772  0.00  0.00    -0.002 A 
ATOM      3  C4  UNL d   1       1.987   0.393  -0.538  0.00  0.00     0.004 A 
ATOM      4  C5  UNL d   1       2.133  -0.842   0.095  0.00  0.00    -0.004 A 
ATOM      5  C6  UNL d   1       1.006  -1.567   0.495  0.00  0.00    -0.075 A 
ATOM      6  C7  UNL d   1       1.146  -2.896   1.178  0.00  0.00     0.076 C 
ATOM      7  C8  UNL d   1      -0.268  -1.034   0.259  0.00  0.00     0.001 A 
ENDROOT
BRANCH   1   8
ATOM      8  C1  UNL d   1      -1.801   0.769  -0.624  0.00  0.00     0.053 C 
ATOM      9  C   UNL d   1      -2.016   1.104  -2.092  0.00  0.00     0.018 C 
ENDBRANCH   1   8
TORSDOF 1
ENDMDL
