MODEL 1
REMARK minimizedAffinity -4.880198
REMARK minimizedRMSD -1
REMARK  1 active torsions:
REMARK  status: ('A' for Active; 'I' for Inactive)
REMARK    1  A    between atoms: C1_2  and  C2_3 
ROOT
ATOM      1  C2  UNL d   1       0.967  -1.664   0.780  0.00  0.00    -0.073 A 
ATOM      2  C3  UNL d   1       2.277  -1.257   0.505  0.00  0.00    -0.002 A 
ATOM      3  C4  UNL d   1       2.516  -0.074  -0.195  0.00  0.00     0.004 A 
ATOM      4  C5  UNL d   1       1.449   0.716  -0.622  0.00  0.00    -0.004 A 
ATOM      5  C6  UNL d   1       0.132   0.332  -0.347  0.00  0.00    -0.075 A 
ATOM      6  C7  UNL d   1      -1.027   1.170  -0.801  0.00  0.00     0.076 C 
ATOM      7  C8  UNL d   1      -0.099  -0.859   0.355  0.00  0.00     0.001 A 
ENDROOT
BRANCH   1   8
ATOM      8  C1  UNL d   1       0.705  -2.938   1.541  0.00  0.00     0.053 C 
ATOM      9  C   UNL d   1      -0.536  -2.835   2.414  0.00  0.00     0.018 C 
ENDBRANCH   1   8
TORSDOF 1
ENDMDL
