MODEL 1
REMARK minimizedAffinity -4.80160141
REMARK minimizedRMSD -1
REMARK  1 active torsions:
REMARK  status: ('A' for Active; 'I' for Inactive)
REMARK    1  A    between atoms: C1_2  and  C2_3 
ROOT
ATOM      1  C2  UNL d   1      -0.462  -0.054   0.264  0.00  0.00    -0.073 A 
ATOM      2  C3  UNL d   1      -1.268  -0.234   1.394  0.00  0.00    -0.002 A 
ATOM      3  C4  UNL d   1      -0.968  -1.232   2.322  0.00  0.00     0.004 A 
ATOM      4  C5  UNL d   1       0.143  -2.054   2.134  0.00  0.00    -0.004 A 
ATOM      5  C6  UNL d   1       0.967  -1.882   1.017  0.00  0.00    -0.075 A 
ATOM      6  C7  UNL d   1       2.165  -2.760   0.799  0.00  0.00     0.076 C 
ATOM      7  C8  UNL d   1       0.657  -0.879   0.088  0.00  0.00     0.001 A 
ENDROOT
BRANCH   1   8
ATOM      8  C1  UNL d   1      -0.779   1.027  -0.737  0.00  0.00     0.053 C 
ATOM      9  C   UNL d   1      -1.754   0.549  -1.802  0.00  0.00     0.018 C 
ENDBRANCH   1   8
TORSDOF 1
ENDMDL
