MODEL 1
REMARK minimizedAffinity -2.34810448
REMARK minimizedRMSD -1
REMARK  1 active torsions:
REMARK  status: ('A' for Active; 'I' for Inactive)
REMARK    1  A    between atoms: C1_2  and  C2_3 
ROOT
ATOM      1  C2  UNL d   1      -0.426   0.304  -0.788  0.00  0.00    -0.073 A 
ATOM      2  C3  UNL d   1      -0.637   1.473  -0.047  0.00  0.00    -0.002 A 
ATOM      3  C4  UNL d   1      -1.464   2.482  -0.542  0.00  0.00     0.004 A 
ATOM      4  C5  UNL d   1      -2.094   2.330  -1.777  0.00  0.00    -0.004 A 
ATOM      5  C6  UNL d   1      -1.906   1.165  -2.527  0.00  0.00    -0.075 A 
ATOM      6  C7  UNL d   1      -2.574   0.988  -3.858  0.00  0.00     0.076 C 
ATOM      7  C8  UNL d   1      -1.071   0.157  -2.025  0.00  0.00     0.001 A 
ENDROOT
BRANCH   1   8
ATOM      8  C1  UNL d   1       0.461  -0.791  -0.255  0.00  0.00     0.053 C 
ATOM      9  C   UNL d   1      -0.283  -1.715   0.696  0.00  0.00     0.018 C 
ENDBRANCH   1   8
TORSDOF 1
ENDMDL
