MODEL 1
REMARK minimizedAffinity -2.01320338
REMARK minimizedRMSD -1
REMARK  1 active torsions:
REMARK  status: ('A' for Active; 'I' for Inactive)
REMARK    1  A    between atoms: C1_2  and  C2_3 
ROOT
ATOM      1  C2  UNL d   1      -0.907   1.116  -0.791  0.00  0.00    -0.073 A 
ATOM      2  C3  UNL d   1       0.458   1.057  -1.091  0.00  0.00    -0.002 A 
ATOM      3  C4  UNL d   1       1.264   0.072  -0.517  0.00  0.00     0.004 A 
ATOM      4  C5  UNL d   1       0.712  -0.866   0.355  0.00  0.00    -0.004 A 
ATOM      5  C6  UNL d   1      -0.653  -0.831   0.658  0.00  0.00    -0.075 A 
ATOM      6  C7  UNL d   1      -1.261  -1.831   1.596  0.00  0.00     0.076 C 
ATOM      7  C8  UNL d   1      -1.455   0.163   0.080  0.00  0.00     0.001 A 
ENDROOT
BRANCH   1   8
ATOM      8  C1  UNL d   1      -1.783   2.174  -1.413  0.00  0.00     0.053 C 
ATOM      9  C   UNL d   1      -2.218   1.798  -2.820  0.00  0.00     0.018 C 
ENDBRANCH   1   8
TORSDOF 1
ENDMDL
