MODEL 1
REMARK minimizedAffinity -1.51269472
REMARK minimizedRMSD -1
REMARK  0 active torsions:
REMARK  status: ('A' for Active; 'I' for Inactive)
ROOT
ATOM      1  O1  BZF d   1       1.437   1.993   1.046  0.00  0.00    -0.204 OA
ATOM      2  C2  BZF d   1       2.085   1.021   1.783  0.00  0.00     0.174 A 
ATOM      3  C3  BZF d   1       1.378  -0.127   1.787  0.00  0.00    -0.012 A 
ATOM      4  C3A BZF d   1       0.260   0.117   0.928  0.00  0.00    -0.107 A 
ATOM      5  C4  BZF d   1      -0.794  -0.649   0.518  0.00  0.00     0.055 A 
ATOM      6  C5  BZF d   1      -1.752  -0.088  -0.266  0.00  0.00    -0.016 A 
ATOM      7  C6  BZF d   1      -1.692   1.234  -0.653  0.00  0.00     0.022 A 
ATOM      8  C7  BZF d   1      -0.663   2.032  -0.275  0.00  0.00     0.029 A 
ATOM      9  C7A BZF d   1       0.324   1.459   0.489  0.00  0.00     0.058 A 
ENDROOT
TORSDOF 0
ENDMDL
