MODEL 1
REMARK minimizedAffinity -2.50573063
REMARK minimizedRMSD -1
REMARK  0 active torsions:
REMARK  status: ('A' for Active; 'I' for Inactive)
ROOT
ATOM      1  O1  BZF d   1      -0.017   1.358   0.951  0.00  0.00    -0.204 OA
ATOM      2  C2  BZF d   1       0.339   0.442  -0.019  0.00  0.00     0.174 A 
ATOM      3  C3  BZF d   1      -0.755  -0.134  -0.558  0.00  0.00    -0.012 A 
ATOM      4  C3A BZF d   1      -1.867   0.526   0.052  0.00  0.00    -0.107 A 
ATOM      5  C4  BZF d   1      -3.221   0.406  -0.084  0.00  0.00     0.055 A 
ATOM      6  C5  BZF d   1      -4.034   1.148   0.713  0.00  0.00    -0.016 A 
ATOM      7  C6  BZF d   1      -3.528   2.015   1.659  0.00  0.00     0.022 A 
ATOM      8  C7  BZF d   1      -2.192   2.173   1.827  0.00  0.00     0.029 A 
ATOM      9  C7A BZF d   1      -1.368   1.448   1.001  0.00  0.00     0.058 A 
ENDROOT
TORSDOF 0
ENDMDL
