MODEL 1
REMARK minimizedAffinity -4.5408287
REMARK minimizedRMSD -1
REMARK  0 active torsions:
REMARK  status: ('A' for Active; 'I' for Inactive)
ROOT
ATOM      1  O1  BZF d   1      -0.637  -0.512  -1.381  0.00  0.00    -0.204 OA
ATOM      2  C2  BZF d   1       0.284  -1.202  -0.616  0.00  0.00     0.174 A 
ATOM      3  C3  BZF d   1       0.166  -0.873   0.687  0.00  0.00    -0.012 A 
ATOM      4  C3A BZF d   1      -0.956   0.013   0.751  0.00  0.00    -0.107 A 
ATOM      5  C4  BZF d   1      -1.578   0.667   1.776  0.00  0.00     0.055 A 
ATOM      6  C5  BZF d   1      -2.602   1.515   1.493  0.00  0.00    -0.016 A 
ATOM      7  C6  BZF d   1      -3.024   1.737   0.199  0.00  0.00     0.022 A 
ATOM      8  C7  BZF d   1      -2.441   1.108  -0.850  0.00  0.00     0.029 A 
ATOM      9  C7A BZF d   1      -1.428   0.225  -0.565  0.00  0.00     0.058 A 
ENDROOT
TORSDOF 0
ENDMDL
