MODEL 1
REMARK minimizedAffinity -5.53399086
REMARK minimizedRMSD -1
REMARK  0 active torsions:
REMARK  status: ('A' for Active; 'I' for Inactive)
ROOT
ATOM      1  O1  BZF d   1       0.395   1.229  -0.639  0.00  0.00    -0.204 OA
ATOM      2  C2  BZF d   1      -0.492   0.245  -1.030  0.00  0.00     0.174 A 
ATOM      3  C3  BZF d   1       0.032  -0.980  -0.825  0.00  0.00    -0.012 A 
ATOM      4  C3A BZF d   1       1.290  -0.749  -0.184  0.00  0.00    -0.107 A 
ATOM      5  C4  BZF d   1       2.271  -1.575   0.285  0.00  0.00     0.055 A 
ATOM      6  C5  BZF d   1       3.409  -1.030   0.790  0.00  0.00    -0.016 A 
ATOM      7  C6  BZF d   1       3.601   0.336   0.837  0.00  0.00     0.022 A 
ATOM      8  C7  BZF d   1       2.654   1.196   0.388  0.00  0.00     0.029 A 
ATOM      9  C7A BZF d   1       1.490   0.648  -0.093  0.00  0.00     0.058 A 
ENDROOT
TORSDOF 0
ENDMDL
