MODEL 1
REMARK minimizedAffinity -6.06751108
REMARK minimizedRMSD -1
REMARK  0 active torsions:
REMARK  status: ('A' for Active; 'I' for Inactive)
ROOT
ATOM      1  O1  BZF d   1      -0.244  -0.821  -0.921  0.00  0.00    -0.204 OA
ATOM      2  C2  BZF d   1       0.236  -2.116  -0.906  0.00  0.00     0.174 A 
ATOM      3  C3  BZF d   1       1.521  -2.145  -0.497  0.00  0.00    -0.012 A 
ATOM      4  C3A BZF d   1       1.837  -0.793  -0.153  0.00  0.00    -0.107 A 
ATOM      5  C4  BZF d   1       2.960  -0.186   0.333  0.00  0.00     0.055 A 
ATOM      6  C5  BZF d   1       2.964   1.164   0.492  0.00  0.00    -0.016 A 
ATOM      7  C6  BZF d   1       1.868   1.937   0.170  0.00  0.00     0.022 A 
ATOM      8  C7  BZF d   1       0.730   1.379  -0.310  0.00  0.00     0.029 A 
ATOM      9  C7A BZF d   1       0.711   0.012  -0.441  0.00  0.00     0.058 A 
ENDROOT
TORSDOF 0
ENDMDL
