MODEL 1
REMARK minimizedAffinity -3.41214585
REMARK minimizedRMSD -1
REMARK  0 active torsions:
REMARK  status: ('A' for Active; 'I' for Inactive)
ROOT
ATOM      1  O1  BZF d   1       0.499   0.762  -0.520  0.00  0.00    -0.204 OA
ATOM      2  C2  BZF d   1       0.790   1.816   0.325  0.00  0.00     0.174 A 
ATOM      3  C3  BZF d   1       1.601   1.417   1.326  0.00  0.00    -0.012 A 
ATOM      4  C3A BZF d   1       1.906   0.049   1.040  0.00  0.00    -0.107 A 
ATOM      5  C4  BZF d   1       2.679  -0.890   1.662  0.00  0.00     0.055 A 
ATOM      6  C5  BZF d   1       2.707  -2.155   1.167  0.00  0.00    -0.016 A 
ATOM      7  C6  BZF d   1       1.973  -2.517   0.057  0.00  0.00     0.022 A 
ATOM      8  C7  BZF d   1       1.195  -1.619  -0.597  0.00  0.00     0.029 A 
ATOM      9  C7A BZF d   1       1.190  -0.332  -0.118  0.00  0.00     0.058 A 
ENDROOT
TORSDOF 0
ENDMDL
