MODEL 1
REMARK minimizedAffinity -4.70819283
REMARK minimizedRMSD -1
REMARK  0 active torsions:
REMARK  status: ('A' for Active; 'I' for Inactive)
ROOT
ATOM      1  O1  BZF d   1      -0.511   0.013  -1.249  0.00  0.00    -0.204 OA
ATOM      2  C2  BZF d   1      -0.905   1.076  -0.459  0.00  0.00     0.174 A 
ATOM      3  C3  BZF d   1      -0.318   1.014   0.754  0.00  0.00    -0.012 A 
ATOM      4  C3A BZF d   1       0.564  -0.111   0.688  0.00  0.00    -0.107 A 
ATOM      5  C4  BZF d   1       1.434  -0.675   1.577  0.00  0.00     0.055 A 
ATOM      6  C5  BZF d   1       2.091  -1.811   1.226  0.00  0.00    -0.016 A 
ATOM      7  C6  BZF d   1       1.899  -2.413  -0.001  0.00  0.00     0.022 A 
ATOM      8  C7  BZF d   1       1.050  -1.887  -0.917  0.00  0.00     0.029 A 
ATOM      9  C7A BZF d   1       0.409  -0.720  -0.579  0.00  0.00     0.058 A 
ENDROOT
TORSDOF 0
ENDMDL
