MODEL 1
REMARK minimizedAffinity -4.27864122
REMARK minimizedRMSD -1
REMARK  0 active torsions:
REMARK  status: ('A' for Active; 'I' for Inactive)
ROOT
ATOM      1  O1  BZF d   1      -0.381  -0.634  -1.203  0.00  0.00    -0.204 OA
ATOM      2  C2  BZF d   1      -0.964   0.558  -0.818  0.00  0.00     0.174 A 
ATOM      3  C3  BZF d   1      -0.340   1.068   0.263  0.00  0.00    -0.012 A 
ATOM      4  C3A BZF d   1       0.756   0.184   0.518  0.00  0.00    -0.107 A 
ATOM      5  C4  BZF d   1       1.752   0.168   1.452  0.00  0.00     0.055 A 
ATOM      6  C5  BZF d   1       2.622  -0.876   1.471  0.00  0.00    -0.016 A 
ATOM      7  C6  BZF d   1       2.522  -1.921   0.577  0.00  0.00     0.022 A 
ATOM      8  C7  BZF d   1       1.554  -1.947  -0.371  0.00  0.00     0.029 A 
ATOM      9  C7A BZF d   1       0.694  -0.877  -0.415  0.00  0.00     0.058 A 
ENDROOT
TORSDOF 0
ENDMDL
