MODEL 1
REMARK minimizedAffinity -3.14844632
REMARK minimizedRMSD -1
REMARK  0 active torsions:
REMARK  status: ('A' for Active; 'I' for Inactive)
ROOT
ATOM      1  O1  BZF d   1       2.260   1.657   0.264  0.00  0.00    -0.204 OA
ATOM      2  C2  BZF d   1       2.970   0.541   0.661  0.00  0.00     0.174 A 
ATOM      3  C3  BZF d   1       2.188  -0.557   0.636  0.00  0.00    -0.012 A 
ATOM      4  C3A BZF d   1       0.934  -0.114   0.107  0.00  0.00    -0.107 A 
ATOM      5  C4  BZF d   1      -0.243  -0.747  -0.172  0.00  0.00     0.055 A 
ATOM      6  C5  BZF d   1      -1.299  -0.013  -0.611  0.00  0.00    -0.016 A 
ATOM      7  C6  BZF d   1      -1.215   1.354  -0.777  0.00  0.00     0.022 A 
ATOM      8  C7  BZF d   1      -0.067   2.025  -0.518  0.00  0.00     0.029 A 
ATOM      9  C7A BZF d   1       1.012   1.282  -0.105  0.00  0.00     0.058 A 
ENDROOT
TORSDOF 0
ENDMDL
