MODEL 1
REMARK minimizedAffinity 0.0806637108
REMARK minimizedRMSD -1
REMARK  0 active torsions:
REMARK  status: ('A' for Active; 'I' for Inactive)
ROOT
ATOM      1  O1  BZF d   1       2.183   1.589  -0.549  0.00  0.00    -0.204 OA
ATOM      2  C2  BZF d   1       1.042   2.259  -0.151  0.00  0.00     0.174 A 
ATOM      3  C3  BZF d   1      -0.026   1.435  -0.164  0.00  0.00    -0.012 A 
ATOM      4  C3A BZF d   1       0.497   0.148  -0.509  0.00  0.00    -0.107 A 
ATOM      5  C4  BZF d   1      -0.071  -1.084  -0.665  0.00  0.00     0.055 A 
ATOM      6  C5  BZF d   1       0.705  -2.121  -1.077  0.00  0.00    -0.016 A 
ATOM      7  C6  BZF d   1       2.049  -1.961  -1.347  0.00  0.00     0.022 A 
ATOM      8  C7  BZF d   1       2.657  -0.758  -1.201  0.00  0.00     0.029 A 
ATOM      9  C7A BZF d   1       1.883   0.284  -0.753  0.00  0.00     0.058 A 
ENDROOT
TORSDOF 0
ENDMDL
