MODEL 1
REMARK minimizedAffinity -4.92669344
REMARK minimizedRMSD -1
REMARK  0 active torsions:
REMARK  status: ('A' for Active; 'I' for Inactive)
ROOT
ATOM      1  O1  BZF d   1       3.027  -0.079   0.335  0.00  0.00    -0.204 OA
ATOM      2  C2  BZF d   1       3.282  -1.436   0.288  0.00  0.00     0.174 A 
ATOM      3  C3  BZF d   1       2.166  -2.122  -0.031  0.00  0.00    -0.012 A 
ATOM      4  C3A BZF d   1       1.171  -1.126  -0.283  0.00  0.00    -0.107 A 
ATOM      5  C4  BZF d   1      -0.141  -1.183  -0.658  0.00  0.00     0.055 A 
ATOM      6  C5  BZF d   1      -0.853  -0.029  -0.747  0.00  0.00    -0.016 A 
ATOM      7  C6  BZF d   1      -0.288   1.197  -0.464  0.00  0.00     0.022 A 
ATOM      8  C7  BZF d   1       1.012   1.304  -0.094  0.00  0.00     0.029 A 
ATOM      9  C7A BZF d   1       1.743   0.143  -0.034  0.00  0.00     0.058 A 
ENDROOT
TORSDOF 0
ENDMDL
