MODEL 1
REMARK minimizedAffinity -4.64962959
REMARK minimizedRMSD -1
REMARK  0 active torsions:
REMARK  status: ('A' for Active; 'I' for Inactive)
ROOT
ATOM      1  C1  BNZ d   1       0.284   0.249   0.858  0.00  0.00     0.000 A 
ATOM      2  C2  BNZ d   1       0.442   1.608   0.907  0.00  0.00     0.000 A 
ATOM      3  C3  BNZ d   1      -0.443   2.391   1.594  0.00  0.00     0.000 A 
ATOM      4  C4  BNZ d   1      -1.505   1.819   2.196  0.00  0.00     0.000 A 
ATOM      5  C5  BNZ d   1      -1.683   0.451   2.148  0.00  0.00     0.000 A 
ATOM      6  C6  BNZ d   1      -0.769  -0.338   1.489  0.00  0.00     0.000 A 
ENDROOT
TORSDOF 0
ENDMDL
