MODEL 1
REMARK minimizedAffinity 1.57823884
REMARK minimizedRMSD -1
REMARK  0 active torsions:
REMARK  status: ('A' for Active; 'I' for Inactive)
ROOT
ATOM      1  C1  BNZ d   1      -3.579   1.217   3.157  0.00  0.00     0.000 A 
ATOM      2  C2  BNZ d   1      -2.768   2.188   2.635  0.00  0.00     0.000 A 
ATOM      3  C3  BNZ d   1      -1.577   1.865   2.046  0.00  0.00     0.000 A 
ATOM      4  C4  BNZ d   1      -1.181   0.576   2.017  0.00  0.00     0.000 A 
ATOM      5  C5  BNZ d   1      -1.984  -0.415   2.547  0.00  0.00     0.000 A 
ATOM      6  C6  BNZ d   1      -3.200  -0.089   3.103  0.00  0.00     0.000 A 
ENDROOT
TORSDOF 0
ENDMDL
