MODEL 1
REMARK minimizedAffinity -2.26779938
REMARK minimizedRMSD -1
REMARK  0 active torsions:
REMARK  status: ('A' for Active; 'I' for Inactive)
ROOT
ATOM      1  C1  BNZ d   1      -2.044   1.628   1.999  0.00  0.00     0.000 A 
ATOM      2  C2  BNZ d   1      -0.938   2.371   1.684  0.00  0.00     0.000 A 
ATOM      3  C3  BNZ d   1       0.199   1.772   1.219  0.00  0.00     0.000 A 
ATOM      4  C4  BNZ d   1       0.243   0.429   1.108  0.00  0.00     0.000 A 
ATOM      5  C5  BNZ d   1      -0.861  -0.336   1.430  0.00  0.00     0.000 A 
ATOM      6  C6  BNZ d   1      -2.017   0.274   1.860  0.00  0.00     0.000 A 
ENDROOT
TORSDOF 0
ENDMDL
