MODEL 1
REMARK minimizedAffinity 2.63112283
REMARK minimizedRMSD -1
REMARK  0 active torsions:
REMARK  status: ('A' for Active; 'I' for Inactive)
ROOT
ATOM      1  C1  BNZ d   1      -0.250   0.810   1.129  0.00  0.00     0.000 A 
ATOM      2  C2  BNZ d   1      -0.165   2.166   1.307  0.00  0.00     0.000 A 
ATOM      3  C3  BNZ d   1      -1.155   2.850   1.954  0.00  0.00     0.000 A 
ATOM      4  C4  BNZ d   1      -2.246   2.186   2.387  0.00  0.00     0.000 A 
ATOM      5  C5  BNZ d   1      -2.351   0.821   2.208  0.00  0.00     0.000 A 
ATOM      6  C6  BNZ d   1      -1.334   0.130   1.590  0.00  0.00     0.000 A 
ENDROOT
TORSDOF 0
ENDMDL
