MODEL 1
REMARK minimizedAffinity -5.05407572
REMARK minimizedRMSD -1
REMARK  0 active torsions:
REMARK  status: ('A' for Active; 'I' for Inactive)
ROOT
ATOM      1  C1  BNZ d   1       0.412   0.118   0.617  0.00  0.00     0.000 A 
ATOM      2  C2  BNZ d   1       0.668   1.463   0.657  0.00  0.00     0.000 A 
ATOM      3  C3  BNZ d   1      -0.138   2.307   1.369  0.00  0.00     0.000 A 
ATOM      4  C4  BNZ d   1      -1.219   1.813   2.005  0.00  0.00     0.000 A 
ATOM      5  C5  BNZ d   1      -1.496   0.461   1.966  0.00  0.00     0.000 A 
ATOM      6  C6  BNZ d   1      -0.661  -0.392   1.281  0.00  0.00     0.000 A 
ENDROOT
TORSDOF 0
ENDMDL
