MODEL 1
REMARK minimizedAffinity 5.11434317
REMARK minimizedRMSD -1
REMARK  0 active torsions:
REMARK  status: ('A' for Active; 'I' for Inactive)
ROOT
ATOM      1  C1  BNZ d   1       2.994   5.822  -5.999  0.00  0.00     0.000 A 
ATOM      2  C2  BNZ d   1       2.218   5.479  -4.924  0.00  0.00     0.000 A 
ATOM      3  C3  BNZ d   1       2.764   4.856  -3.837  0.00  0.00     0.000 A 
ATOM      4  C4  BNZ d   1       4.076   4.541  -3.843  0.00  0.00     0.000 A 
ATOM      5  C5  BNZ d   1       4.869   4.871  -4.924  0.00  0.00     0.000 A 
ATOM      6  C6  BNZ d   1       4.324   5.534  -6.000  0.00  0.00     0.000 A 
ENDROOT
TORSDOF 0
ENDMDL
