MODEL 1
REMARK minimizedAffinity -1.86249089
REMARK minimizedRMSD -1
REMARK  0 active torsions:
REMARK  status: ('A' for Active; 'I' for Inactive)
ROOT
ATOM      1  C1  BNZ d   1      -1.402   1.861   2.123  0.00  0.00     0.000 A 
ATOM      2  C2  BNZ d   1      -1.306   0.516   2.363  0.00  0.00     0.000 A 
ATOM      3  C3  BNZ d   1      -0.517  -0.280   1.581  0.00  0.00     0.000 A 
ATOM      4  C4  BNZ d   1       0.144   0.262   0.537  0.00  0.00     0.000 A 
ATOM      5  C5  BNZ d   1       0.051   1.615   0.277  0.00  0.00     0.000 A 
ATOM      6  C6  BNZ d   1      -0.714   2.420   1.090  0.00  0.00     0.000 A 
ENDROOT
TORSDOF 0
ENDMDL
