MODEL 1
REMARK minimizedAffinity -1.36313236
REMARK minimizedRMSD -1
REMARK  0 active torsions:
REMARK  status: ('A' for Active; 'I' for Inactive)
ROOT
ATOM      1  C1  BNZ d   1      -1.479   1.796   1.762  0.00  0.00     0.000 A 
ATOM      2  C2  BNZ d   1      -1.588   0.466   2.069  0.00  0.00     0.000 A 
ATOM      3  C3  BNZ d   1      -0.567  -0.401   1.796  0.00  0.00     0.000 A 
ATOM      4  C4  BNZ d   1       0.543   0.055   1.181  0.00  0.00     0.000 A 
ATOM      5  C5  BNZ d   1       0.664   1.392   0.856  0.00  0.00     0.000 A 
ATOM      6  C6  BNZ d   1      -0.350   2.269   1.168  0.00  0.00     0.000 A 
ENDROOT
TORSDOF 0
ENDMDL
