MODEL 1
REMARK minimizedAffinity -5.58803988
REMARK minimizedRMSD -1
REMARK  0 active torsions:
REMARK  status: ('A' for Active; 'I' for Inactive)
ROOT
ATOM      1  C1  BNZ d   1      -0.528  -0.566   1.189  0.00  0.00     0.000 A 
ATOM      2  C2  BNZ d   1      -1.853  -0.313   1.426  0.00  0.00     0.000 A 
ATOM      3  C3  BNZ d   1      -2.316   0.971   1.511  0.00  0.00     0.000 A 
ATOM      4  C4  BNZ d   1      -1.448   1.997   1.400  0.00  0.00     0.000 A 
ATOM      5  C5  BNZ d   1      -0.108   1.758   1.171  0.00  0.00     0.000 A 
ATOM      6  C6  BNZ d   1       0.348   0.465   1.047  0.00  0.00     0.000 A 
ENDROOT
TORSDOF 0
ENDMDL
