MODEL 1
REMARK minimizedAffinity -2.99524021
REMARK minimizedRMSD -1
REMARK  0 active torsions:
REMARK  status: ('A' for Active; 'I' for Inactive)
ROOT
ATOM      1  C1  BNZ d   1      -0.262   2.147   2.168  0.00  0.00     0.000 A 
ATOM      2  C2  BNZ d   1       1.038   1.875   1.835  0.00  0.00     0.000 A 
ATOM      3  C3  BNZ d   1       1.346   0.824   1.017  0.00  0.00     0.000 A 
ATOM      4  C4  BNZ d   1       0.359   0.024   0.566  0.00  0.00     0.000 A 
ATOM      5  C5  BNZ d   1      -0.956   0.279   0.900  0.00  0.00     0.000 A 
ATOM      6  C6  BNZ d   1      -1.266   1.361   1.692  0.00  0.00     0.000 A 
ENDROOT
TORSDOF 0
ENDMDL
