MODEL 1
REMARK minimizedAffinity 3.64976168
REMARK minimizedRMSD -1
REMARK  0 active torsions:
REMARK  status: ('A' for Active; 'I' for Inactive)
ROOT
ATOM      1  C1  BNZ d   1      -3.928  -2.395  -0.490  0.00  0.00     0.000 A 
ATOM      2  C2  BNZ d   1      -3.875  -1.301  -1.312  0.00  0.00     0.000 A 
ATOM      3  C3  BNZ d   1      -3.812  -1.448  -2.670  0.00  0.00     0.000 A 
ATOM      4  C4  BNZ d   1      -3.762  -2.686  -3.201  0.00  0.00     0.000 A 
ATOM      5  C5  BNZ d   1      -3.805  -3.799  -2.385  0.00  0.00     0.000 A 
ATOM      6  C6  BNZ d   1      -3.908  -3.648  -1.022  0.00  0.00     0.000 A 
ENDROOT
TORSDOF 0
ENDMDL
