MODEL 1
REMARK minimizedAffinity -1.86589396
REMARK minimizedRMSD -1
REMARK  0 active torsions:
REMARK  status: ('A' for Active; 'I' for Inactive)
ROOT
ATOM      1  C1  BNZ d   1       0.691  -0.716   0.977  0.00  0.00     0.000 A 
ATOM      2  C2  BNZ d   1       0.659   0.433   0.233  0.00  0.00     0.000 A 
ATOM      3  C3  BNZ d   1      -0.220   1.437   0.532  0.00  0.00     0.000 A 
ATOM      4  C4  BNZ d   1      -1.091   1.274   1.547  0.00  0.00     0.000 A 
ATOM      5  C5  BNZ d   1      -1.078   0.117   2.302  0.00  0.00     0.000 A 
ATOM      6  C6  BNZ d   1      -0.166  -0.874   2.023  0.00  0.00     0.000 A 
ENDROOT
TORSDOF 0
ENDMDL
