MODEL 1
REMARK minimizedAffinity -4.29372549
REMARK minimizedRMSD -1
REMARK  0 active torsions:
REMARK  status: ('A' for Active; 'I' for Inactive)
ROOT
ATOM      1  C1  BNZ d   1      -1.170   0.723   1.503  0.00  0.00     0.000 A 
ATOM      2  C2  BNZ d   1       0.127   0.738   1.063  0.00  0.00     0.000 A 
ATOM      3  C3  BNZ d   1       0.736   1.913   0.720  0.00  0.00     0.000 A 
ATOM      4  C4  BNZ d   1       0.037   3.064   0.779  0.00  0.00     0.000 A 
ATOM      5  C5  BNZ d   1      -1.274   3.065   1.212  0.00  0.00     0.000 A 
ATOM      6  C6  BNZ d   1      -1.872   1.885   1.593  0.00  0.00     0.000 A 
ENDROOT
TORSDOF 0
ENDMDL
