MODEL 1
REMARK minimizedAffinity -4.55127287
REMARK minimizedRMSD -1
REMARK  0 active torsions:
REMARK  status: ('A' for Active; 'I' for Inactive)
ROOT
ATOM      1  C1  BNZ d   1      -1.554   0.211   2.040  0.00  0.00     0.000 A 
ATOM      2  C2  BNZ d   1      -0.610  -0.524   1.374  0.00  0.00     0.000 A 
ATOM      3  C3  BNZ d   1       0.464   0.082   0.786  0.00  0.00     0.000 A 
ATOM      4  C4  BNZ d   1       0.574   1.426   0.832  0.00  0.00     0.000 A 
ATOM      5  C5  BNZ d   1      -0.374   2.183   1.491  0.00  0.00     0.000 A 
ATOM      6  C6  BNZ d   1      -1.434   1.565   2.115  0.00  0.00     0.000 A 
ENDROOT
TORSDOF 0
ENDMDL
