MODEL 1
REMARK minimizedAffinity -3.19948721
REMARK minimizedRMSD -1
REMARK  0 active torsions:
REMARK  status: ('A' for Active; 'I' for Inactive)
ROOT
ATOM      1  C1  BNZ d   1      -1.997   0.199   1.707  0.00  0.00     0.000 A 
ATOM      2  C2  BNZ d   1      -2.214   1.464   2.186  0.00  0.00     0.000 A 
ATOM      3  C3  BNZ d   1      -1.254   2.430   2.068  0.00  0.00     0.000 A 
ATOM      4  C4  BNZ d   1      -0.066   2.121   1.509  0.00  0.00     0.000 A 
ATOM      5  C5  BNZ d   1       0.170   0.848   1.030  0.00  0.00     0.000 A 
ATOM      6  C6  BNZ d   1      -0.812  -0.112   1.115  0.00  0.00     0.000 A 
ENDROOT
TORSDOF 0
ENDMDL
