MODEL 1
REMARK minimizedAffinity -1.09666717
REMARK minimizedRMSD -1
REMARK  0 active torsions:
REMARK  status: ('A' for Active; 'I' for Inactive)
ROOT
ATOM      1  C1  BNZ d   1       0.898   0.124   0.903  0.00  0.00     0.000 A 
ATOM      2  C2  BNZ d   1       0.588   1.379   0.451  0.00  0.00     0.000 A 
ATOM      3  C3  BNZ d   1      -0.684   1.868   0.561  0.00  0.00     0.000 A 
ATOM      4  C4  BNZ d   1      -1.651   1.088   1.085  0.00  0.00     0.000 A 
ATOM      5  C5  BNZ d   1      -1.357  -0.183   1.537  0.00  0.00     0.000 A 
ATOM      6  C6  BNZ d   1      -0.067  -0.657   1.460  0.00  0.00     0.000 A 
ENDROOT
TORSDOF 0
ENDMDL
