MODEL 1
REMARK minimizedAffinity -5.04269648
REMARK minimizedRMSD -1
REMARK  0 active torsions:
REMARK  status: ('A' for Active; 'I' for Inactive)
ROOT
ATOM      1  C1  BNZ d   1       0.323   0.316   0.954  0.00  0.00     0.000 A 
ATOM      2  C2  BNZ d   1       0.261   1.645   1.278  0.00  0.00     0.000 A 
ATOM      3  C3  BNZ d   1      -0.889   2.191   1.776  0.00  0.00     0.000 A 
ATOM      4  C4  BNZ d   1      -1.986   1.418   1.910  0.00  0.00     0.000 A 
ATOM      5  C5  BNZ d   1      -1.942   0.078   1.580  0.00  0.00     0.000 A 
ATOM      6  C6  BNZ d   1      -0.771  -0.477   1.116  0.00  0.00     0.000 A 
ENDROOT
TORSDOF 0
ENDMDL
