MODEL 1
REMARK minimizedAffinity -2.9266386
REMARK minimizedRMSD -1
REMARK  0 active torsions:
REMARK  status: ('A' for Active; 'I' for Inactive)
ROOT
ATOM      1  C1  BNZ d   1       0.230   0.688   0.857  0.00  0.00     0.000 A 
ATOM      2  C2  BNZ d   1      -0.305  -0.536   1.160  0.00  0.00     0.000 A 
ATOM      3  C3  BNZ d   1      -1.509  -0.635   1.799  0.00  0.00     0.000 A 
ATOM      4  C4  BNZ d   1      -2.157   0.488   2.170  0.00  0.00     0.000 A 
ATOM      5  C5  BNZ d   1      -1.626   1.730   1.881  0.00  0.00     0.000 A 
ATOM      6  C6  BNZ d   1      -0.433   1.825   1.202  0.00  0.00     0.000 A 
ENDROOT
TORSDOF 0
ENDMDL
