MODEL 1
REMARK minimizedAffinity -3.49827313
REMARK minimizedRMSD -1
REMARK  0 active torsions:
REMARK  status: ('A' for Active; 'I' for Inactive)
ROOT
ATOM      1  C1  BNZ d   1       0.595   1.528   1.117  0.00  0.00     0.000 A 
ATOM      2  C2  BNZ d   1      -0.232   2.562   1.468  0.00  0.00     0.000 A 
ATOM      3  C3  BNZ d   1      -1.508   2.322   1.896  0.00  0.00     0.000 A 
ATOM      4  C4  BNZ d   1      -1.968   1.055   1.934  0.00  0.00     0.000 A 
ATOM      5  C5  BNZ d   1      -1.149   0.003   1.574  0.00  0.00     0.000 A 
ATOM      6  C6  BNZ d   1       0.147   0.245   1.181  0.00  0.00     0.000 A 
ENDROOT
TORSDOF 0
ENDMDL
