MODEL 1
REMARK minimizedAffinity 2.74967837
REMARK minimizedRMSD -1
REMARK  0 active torsions:
REMARK  status: ('A' for Active; 'I' for Inactive)
ROOT
ATOM      1  C   UNL d   1       1.749  -0.511   1.159  0.00  0.00     0.172 C 
ATOM      2  N   UNL d   1       1.109   0.526   0.383  0.00  0.00    -0.070 N 
ATOM      3  C1  UNL d   1       0.648   0.393  -0.900  0.00  0.00    -0.004 A 
ATOM      4  C2  UNL d   1       0.107   1.602  -1.281  0.00  0.00    -0.047 A 
ATOM      5  C3  UNL d   1       0.248   2.492  -0.190  0.00  0.00    -0.047 A 
ATOM      6  C4  UNL d   1       0.872   1.800   0.827  0.00  0.00    -0.004 A 
ENDROOT
TORSDOF 0
ENDMDL
