MODEL 1
REMARK minimizedAffinity -0.409697801
REMARK minimizedRMSD -1
REMARK  0 active torsions:
REMARK  status: ('A' for Active; 'I' for Inactive)
ROOT
ATOM      1  C   UNL d   1       5.282  -2.116   5.952  0.00  0.00     0.172 C 
ATOM      2  N   UNL d   1       3.854  -1.902   5.968  0.00  0.00    -0.070 N 
ATOM      3  C1  UNL d   1       3.229  -0.684   5.984  0.00  0.00    -0.004 A 
ATOM      4  C2  UNL d   1       1.870  -0.907   5.995  0.00  0.00    -0.047 A 
ATOM      5  C3  UNL d   1       1.670  -2.308   5.988  0.00  0.00    -0.047 A 
ATOM      6  C4  UNL d   1       2.915  -2.900   5.971  0.00  0.00    -0.004 A 
ENDROOT
TORSDOF 0
ENDMDL
