MODEL 1
REMARK minimizedAffinity 2.79519534
REMARK minimizedRMSD -1
REMARK  0 active torsions:
REMARK  status: ('A' for Active; 'I' for Inactive)
ROOT
ATOM      1  C   UNL d   1      -5.999   5.653  -5.391  0.00  0.00     0.172 C 
ATOM      2  N   UNL d   1      -4.585   5.548  -5.120  0.00  0.00    -0.070 N 
ATOM      3  C1  UNL d   1      -3.967   5.914  -3.954  0.00  0.00    -0.004 A 
ATOM      4  C2  UNL d   1      -2.620   5.657  -4.092  0.00  0.00    -0.047 A 
ATOM      5  C3  UNL d   1      -2.422   5.118  -5.386  0.00  0.00    -0.047 A 
ATOM      6  C4  UNL d   1      -3.655   5.062  -6.000  0.00  0.00    -0.004 A 
ENDROOT
TORSDOF 0
ENDMDL
