MODEL 1
REMARK minimizedAffinity 4.85853863
REMARK minimizedRMSD -1
REMARK  0 active torsions:
REMARK  status: ('A' for Active; 'I' for Inactive)
ROOT
ATOM      1  C   UNL d   1      -1.825   2.076  -5.559  0.00  0.00     0.172 C 
ATOM      2  N   UNL d   1      -2.678   3.230  -5.399  0.00  0.00    -0.070 N 
ATOM      3  C1  UNL d   1      -2.295   4.439  -4.881  0.00  0.00    -0.004 A 
ATOM      4  C2  UNL d   1      -3.393   5.272  -4.899  0.00  0.00    -0.047 A 
ATOM      5  C3  UNL d   1      -4.473   4.538  -5.445  0.00  0.00    -0.047 A 
ATOM      6  C4  UNL d   1      -4.002   3.277  -5.745  0.00  0.00    -0.004 A 
ENDROOT
TORSDOF 0
ENDMDL
