MODEL 1
REMARK minimizedAffinity 0.738887012
REMARK minimizedRMSD -1
REMARK  0 active torsions:
REMARK  status: ('A' for Active; 'I' for Inactive)
ROOT
ATOM      1  C   UNL d   1      -2.917   4.615  -4.649  0.00  0.00     0.172 C 
ATOM      2  N   UNL d   1      -2.306   3.310  -4.568  0.00  0.00    -0.070 N 
ATOM      3  C1  UNL d   1      -2.255   2.519  -3.451  0.00  0.00    -0.004 A 
ATOM      4  C2  UNL d   1      -1.591   1.359  -3.785  0.00  0.00    -0.047 A 
ATOM      5  C3  UNL d   1      -1.229   1.456  -5.150  0.00  0.00    -0.047 A 
ATOM      6  C4  UNL d   1      -1.683   2.673  -5.610  0.00  0.00    -0.004 A 
ENDROOT
TORSDOF 0
ENDMDL
