MODEL 1
REMARK minimizedAffinity 8.2629137
REMARK minimizedRMSD -1
REMARK  0 active torsions:
REMARK  status: ('A' for Active; 'I' for Inactive)
ROOT
ATOM      1  C   UNL d   1       0.469   3.397  -0.042  0.00  0.00     0.172 C 
ATOM      2  N   UNL d   1      -0.946   3.185   0.148  0.00  0.00    -0.070 N 
ATOM      3  C1  UNL d   1      -1.820   2.728  -0.802  0.00  0.00    -0.004 A 
ATOM      4  C2  UNL d   1      -3.071   2.663  -0.228  0.00  0.00    -0.047 A 
ATOM      5  C3  UNL d   1      -2.945   3.096   1.113  0.00  0.00    -0.047 A 
ATOM      6  C4  UNL d   1      -1.619   3.413   1.319  0.00  0.00    -0.004 A 
ENDROOT
TORSDOF 0
ENDMDL
