MODEL 1
REMARK minimizedAffinity -1.12355149
REMARK minimizedRMSD -1
REMARK  0 active torsions:
REMARK  status: ('A' for Active; 'I' for Inactive)
ROOT
ATOM      1  C   UNL d   1      -2.392   4.136  -5.052  0.00  0.00     0.172 C 
ATOM      2  N   UNL d   1      -3.815   4.270  -5.258  0.00  0.00    -0.070 N 
ATOM      3  C1  UNL d   1      -4.426   5.246  -6.000  0.00  0.00    -0.004 A 
ATOM      4  C2  UNL d   1      -5.785   5.026  -5.949  0.00  0.00    -0.047 A 
ATOM      5  C3  UNL d   1      -5.999   3.878  -5.149  0.00  0.00    -0.047 A 
ATOM      6  C4  UNL d   1      -4.762   3.431  -4.735  0.00  0.00    -0.004 A 
ENDROOT
TORSDOF 0
ENDMDL
