MODEL 1
REMARK minimizedAffinity -2.11116958
REMARK minimizedRMSD -1
REMARK  0 active torsions:
REMARK  status: ('A' for Active; 'I' for Inactive)
ROOT
ATOM      1  C   UNL d   1      -2.449   3.754  -5.597  0.00  0.00     0.172 C 
ATOM      2  N   UNL d   1      -3.893   3.758  -5.603  0.00  0.00    -0.070 N 
ATOM      3  C1  UNL d   1      -4.686   4.803  -5.997  0.00  0.00    -0.004 A 
ATOM      4  C2  UNL d   1      -6.000   4.411  -5.855  0.00  0.00    -0.047 A 
ATOM      5  C3  UNL d   1      -5.996   3.087  -5.358  0.00  0.00    -0.047 A 
ATOM      6  C4  UNL d   1      -4.678   2.707  -5.211  0.00  0.00    -0.004 A 
ENDROOT
TORSDOF 0
ENDMDL
