MODEL 1
REMARK minimizedAffinity -1.99709141
REMARK minimizedRMSD -1
REMARK  0 active torsions:
REMARK  status: ('A' for Active; 'I' for Inactive)
ROOT
ATOM      1  C   UNL d   1      -4.841   5.999   1.376  0.00  0.00     0.172 C 
ATOM      2  N   UNL d   1      -4.854   4.584   1.089  0.00  0.00    -0.070 N 
ATOM      3  C1  UNL d   1      -3.749   3.800   0.890  0.00  0.00    -0.004 A 
ATOM      4  C2  UNL d   1      -4.182   2.514   0.645  0.00  0.00    -0.047 A 
ATOM      5  C3  UNL d   1      -5.596   2.527   0.697  0.00  0.00    -0.047 A 
ATOM      6  C4  UNL d   1      -5.985   3.821   0.974  0.00  0.00    -0.004 A 
ENDROOT
TORSDOF 0
ENDMDL
