MODEL 1
REMARK minimizedAffinity -2.58667588
REMARK minimizedRMSD -1
REMARK  0 active torsions:
REMARK  status: ('A' for Active; 'I' for Inactive)
ROOT
ATOM      1  C   UNL d   1      -2.495   3.002  -6.000  0.00  0.00     0.172 C 
ATOM      2  N   UNL d   1      -3.855   3.063  -5.517  0.00  0.00    -0.070 N 
ATOM      3  C1  UNL d   1      -4.862   2.198  -5.855  0.00  0.00    -0.004 A 
ATOM      4  C2  UNL d   1      -6.000   2.594  -5.186  0.00  0.00    -0.047 A 
ATOM      5  C3  UNL d   1      -5.666   3.736  -4.421  0.00  0.00    -0.047 A 
ATOM      6  C4  UNL d   1      -4.332   4.005  -4.644  0.00  0.00    -0.004 A 
ENDROOT
TORSDOF 0
ENDMDL
