MODEL 1
REMARK minimizedAffinity 1.79243791
REMARK minimizedRMSD -1
REMARK  0 active torsions:
REMARK  status: ('A' for Active; 'I' for Inactive)
ROOT
ATOM      1  C   UNL d   1       5.845  -1.501   0.316  0.00  0.00     0.078 C 
ATOM      2  C1  UNL d   1       4.570  -0.888  -0.180  0.00  0.00    -0.077 A 
ATOM      3  C2  UNL d   1       3.419  -1.665  -0.362  0.00  0.00    -0.001 A 
ATOM      4  C3  UNL d   1       2.242  -1.083  -0.834  0.00  0.00     0.003 A 
ATOM      5  C4  UNL d   1       2.204   0.278  -1.130  0.00  0.00    -0.005 A 
ATOM      6  C5  UNL d   1       3.345   1.059  -0.955  0.00  0.00     0.003 A 
ATOM      7  C6  UNL d   1       4.523   0.479  -0.482  0.00  0.00    -0.001 A 
ENDROOT
TORSDOF 0
ENDMDL
