MODEL 1
REMARK minimizedAffinity 3.51163387
REMARK minimizedRMSD -1
REMARK  0 active torsions:
REMARK  status: ('A' for Active; 'I' for Inactive)
ROOT
ATOM      1  C   UNL d   1       1.952  -0.105  -1.631  0.00  0.00     0.078 C 
ATOM      2  C1  UNL d   1       2.039  -1.051  -0.471  0.00  0.00    -0.077 A 
ATOM      3  C2  UNL d   1       2.881  -2.169  -0.514  0.00  0.00    -0.001 A 
ATOM      4  C3  UNL d   1       2.945  -3.047   0.569  0.00  0.00     0.003 A 
ATOM      5  C4  UNL d   1       2.169  -2.817   1.703  0.00  0.00    -0.005 A 
ATOM      6  C5  UNL d   1       1.326  -1.708   1.754  0.00  0.00     0.003 A 
ATOM      7  C6  UNL d   1       1.261  -0.829   0.672  0.00  0.00    -0.001 A 
ENDROOT
TORSDOF 0
ENDMDL
