MODEL 1
REMARK minimizedAffinity -1.37692022
REMARK minimizedRMSD -1
REMARK  0 active torsions:
REMARK  status: ('A' for Active; 'I' for Inactive)
ROOT
ATOM      1  C   UNL d   1       3.716  -4.731   1.031  0.00  0.00     0.078 C 
ATOM      2  C1  UNL d   1       2.830  -3.525   1.116  0.00  0.00    -0.077 A 
ATOM      3  C2  UNL d   1       2.767  -2.600   0.067  0.00  0.00    -0.001 A 
ATOM      4  C3  UNL d   1       1.944  -1.477   0.164  0.00  0.00     0.003 A 
ATOM      5  C4  UNL d   1       1.179  -1.267   1.310  0.00  0.00    -0.005 A 
ATOM      6  C5  UNL d   1       1.237  -2.181   2.360  0.00  0.00     0.003 A 
ATOM      7  C6  UNL d   1       2.059  -3.305   2.265  0.00  0.00    -0.001 A 
ENDROOT
TORSDOF 0
ENDMDL
