MODEL 1
REMARK minimizedAffinity 4.09219456
REMARK minimizedRMSD -1
REMARK  0 active torsions:
REMARK  status: ('A' for Active; 'I' for Inactive)
ROOT
ATOM      1  C   UNL d   1       4.124  -5.898   3.116  0.00  0.00     0.078 C 
ATOM      2  C1  UNL d   1       4.706  -4.761   3.902  0.00  0.00    -0.077 A 
ATOM      3  C2  UNL d   1       4.499  -4.659   5.283  0.00  0.00    -0.001 A 
ATOM      4  C3  UNL d   1       5.039  -3.590   6.000  0.00  0.00     0.003 A 
ATOM      5  C4  UNL d   1       5.788  -2.615   5.345  0.00  0.00    -0.005 A 
ATOM      6  C5  UNL d   1       5.998  -2.707   3.970  0.00  0.00     0.003 A 
ATOM      7  C6  UNL d   1       5.459  -3.775   3.251  0.00  0.00    -0.001 A 
ENDROOT
TORSDOF 0
ENDMDL
