MODEL 1
REMARK minimizedAffinity 11.5117664
REMARK minimizedRMSD -1
REMARK  0 active torsions:
REMARK  status: ('A' for Active; 'I' for Inactive)
ROOT
ATOM      1  C   UNL d   1       2.561   0.702  -0.626  0.00  0.00     0.078 C 
ATOM      2  C1  UNL d   1       1.952   0.001   0.551  0.00  0.00    -0.077 A 
ATOM      3  C2  UNL d   1       1.831  -1.394   0.576  0.00  0.00    -0.001 A 
ATOM      4  C3  UNL d   1       1.253  -2.033   1.675  0.00  0.00     0.003 A 
ATOM      5  C4  UNL d   1       0.792  -1.285   2.756  0.00  0.00    -0.005 A 
ATOM      6  C5  UNL d   1       0.906   0.104   2.739  0.00  0.00     0.003 A 
ATOM      7  C6  UNL d   1       1.483   0.744   1.641  0.00  0.00    -0.001 A 
ENDROOT
TORSDOF 0
ENDMDL
