MODEL 1
REMARK minimizedAffinity -0.994070828
REMARK minimizedRMSD -1
REMARK  0 active torsions:
REMARK  status: ('A' for Active; 'I' for Inactive)
ROOT
ATOM      1  C   UNL d   1      -0.136  -0.406   1.516  0.00  0.00     0.078 C 
ATOM      2  C1  UNL d   1       0.251  -1.801   1.906  0.00  0.00    -0.077 A 
ATOM      3  C2  UNL d   1       1.164  -2.537   1.141  0.00  0.00    -0.001 A 
ATOM      4  C3  UNL d   1       1.508  -3.838   1.510  0.00  0.00     0.003 A 
ATOM      5  C4  UNL d   1       0.942  -4.416   2.645  0.00  0.00    -0.005 A 
ATOM      6  C5  UNL d   1       0.031  -3.693   3.412  0.00  0.00     0.003 A 
ATOM      7  C6  UNL d   1      -0.314  -2.391   3.044  0.00  0.00    -0.001 A 
ENDROOT
TORSDOF 0
ENDMDL
