MODEL 1
REMARK minimizedAffinity 0.863822341
REMARK minimizedRMSD -1
REMARK  0 active torsions:
REMARK  status: ('A' for Active; 'I' for Inactive)
ROOT
ATOM      1  C   UNL d   1       1.530  -0.751  -0.483  0.00  0.00     0.078 C 
ATOM      2  C1  UNL d   1       0.269  -0.486   0.284  0.00  0.00    -0.077 A 
ATOM      3  C2  UNL d   1      -0.923  -0.164  -0.377  0.00  0.00    -0.001 A 
ATOM      4  C3  UNL d   1      -2.087   0.090   0.350  0.00  0.00     0.003 A 
ATOM      5  C4  UNL d   1      -2.070   0.025   1.742  0.00  0.00    -0.005 A 
ATOM      6  C5  UNL d   1      -0.889  -0.292   2.408  0.00  0.00     0.003 A 
ATOM      7  C6  UNL d   1       0.276  -0.546   1.683  0.00  0.00    -0.001 A 
ENDROOT
TORSDOF 0
ENDMDL
