MODEL 1
REMARK minimizedAffinity 0.125037238
REMARK minimizedRMSD -1
REMARK  0 active torsions:
REMARK  status: ('A' for Active; 'I' for Inactive)
ROOT
ATOM      1  C   UNL d   1      -2.485   1.527  -3.319  0.00  0.00     0.172 C 
ATOM      2  N   UNL d   1      -1.564   2.593  -3.635  0.00  0.00    -0.070 N 
ATOM      3  C1  UNL d   1      -1.798   3.616  -4.515  0.00  0.00    -0.004 A 
ATOM      4  C2  UNL d   1      -0.679   4.420  -4.535  0.00  0.00    -0.047 A 
ATOM      5  C3  UNL d   1       0.260   3.861  -3.636  0.00  0.00    -0.047 A 
ATOM      6  C4  UNL d   1      -0.314   2.731  -3.093  0.00  0.00    -0.004 A 
ENDROOT
TORSDOF 0
ENDMDL
