MODEL 1
REMARK minimizedAffinity -0.627279699
REMARK minimizedRMSD -1
REMARK  0 active torsions:
REMARK  status: ('A' for Active; 'I' for Inactive)
ROOT
ATOM      1  C   UNL d   1      -3.805   0.818  -3.014  0.00  0.00     0.172 C 
ATOM      2  N   UNL d   1      -2.547   1.439  -3.356  0.00  0.00    -0.070 N 
ATOM      3  C1  UNL d   1      -2.396   2.590  -4.082  0.00  0.00    -0.004 A 
ATOM      4  C2  UNL d   1      -1.047   2.848  -4.189  0.00  0.00    -0.047 A 
ATOM      5  C3  UNL d   1      -0.363   1.815  -3.504  0.00  0.00    -0.047 A 
ATOM      6  C4  UNL d   1      -1.316   0.957  -2.998  0.00  0.00    -0.004 A 
ENDROOT
TORSDOF 0
ENDMDL
