MODEL 1
REMARK minimizedAffinity -3.00759816
REMARK minimizedRMSD -1
REMARK  0 active torsions:
REMARK  status: ('A' for Active; 'I' for Inactive)
ROOT
ATOM      1  C   UNL d   1       1.500  -1.793   3.193  0.00  0.00     0.172 C 
ATOM      2  N   UNL d   1       1.624  -1.121   1.921  0.00  0.00    -0.070 N 
ATOM      3  C1  UNL d   1       2.733  -1.128   1.119  0.00  0.00    -0.004 A 
ATOM      4  C2  UNL d   1       2.450  -0.375   0.000  0.00  0.00    -0.047 A 
ATOM      5  C3  UNL d   1       1.124   0.102   0.135  0.00  0.00    -0.047 A 
ATOM      6  C4  UNL d   1       0.636  -0.375   1.334  0.00  0.00    -0.004 A 
ENDROOT
TORSDOF 0
ENDMDL
