MODEL 1
REMARK minimizedAffinity -1.32178235
REMARK minimizedRMSD -1
REMARK  0 active torsions:
REMARK  status: ('A' for Active; 'I' for Inactive)
ROOT
ATOM      1  C   UNL d   1      -1.151   0.185   0.991  0.00  0.00     0.172 C 
ATOM      2  N   UNL d   1       0.201   0.108   0.489  0.00  0.00    -0.070 N 
ATOM      3  C1  UNL d   1       1.074  -0.925   0.705  0.00  0.00    -0.004 A 
ATOM      4  C2  UNL d   1       2.254  -0.619   0.062  0.00  0.00    -0.047 A 
ATOM      5  C3  UNL d   1       2.084   0.640  -0.561  0.00  0.00    -0.047 A 
ATOM      6  C4  UNL d   1       0.804   1.067  -0.280  0.00  0.00    -0.004 A 
ENDROOT
TORSDOF 0
ENDMDL
