MODEL 1
REMARK minimizedAffinity -2.89905095
REMARK minimizedRMSD -1
REMARK  0 active torsions:
REMARK  status: ('A' for Active; 'I' for Inactive)
ROOT
ATOM      1  C   UNL d   1       1.473  -5.251  -5.234  0.00  0.00     0.172 C 
ATOM      2  N   UNL d   1       0.251  -5.554  -4.528  0.00  0.00    -0.070 N 
ATOM      3  C1  UNL d   1      -0.983  -5.712  -5.101  0.00  0.00    -0.004 A 
ATOM      4  C2  UNL d   1      -1.883  -5.991  -4.094  0.00  0.00    -0.047 A 
ATOM      5  C3  UNL d   1      -1.165  -6.000  -2.875  0.00  0.00    -0.047 A 
ATOM      6  C4  UNL d   1       0.154  -5.726  -3.173  0.00  0.00    -0.004 A 
ENDROOT
TORSDOF 0
ENDMDL
