MODEL 1
REMARK minimizedAffinity -1.3708173
REMARK minimizedRMSD -1
REMARK  0 active torsions:
REMARK  status: ('A' for Active; 'I' for Inactive)
ROOT
ATOM      1  C   UNL d   1       2.858  -0.884   0.801  0.00  0.00     0.172 C 
ATOM      2  N   UNL d   1       2.819  -0.830   2.243  0.00  0.00    -0.070 N 
ATOM      3  C1  UNL d   1       3.906  -0.712   3.068  0.00  0.00    -0.004 A 
ATOM      4  C2  UNL d   1       3.449  -0.695   4.368  0.00  0.00    -0.047 A 
ATOM      5  C3  UNL d   1       2.039  -0.808   4.324  0.00  0.00    -0.047 A 
ATOM      6  C4  UNL d   1       1.676  -0.890   2.996  0.00  0.00    -0.004 A 
ENDROOT
TORSDOF 0
ENDMDL
