MODEL 1
REMARK minimizedAffinity 3.45101428
REMARK minimizedRMSD -1
REMARK  0 active torsions:
REMARK  status: ('A' for Active; 'I' for Inactive)
ROOT
ATOM      1  C   UNL d   1      -1.848  -2.851   0.352  0.00  0.00     0.172 C 
ATOM      2  N   UNL d   1      -0.807  -1.852   0.297  0.00  0.00    -0.070 N 
ATOM      3  C1  UNL d   1       0.392  -1.984  -0.351  0.00  0.00    -0.004 A 
ATOM      4  C2  UNL d   1       1.101  -0.816  -0.167  0.00  0.00    -0.047 A 
ATOM      5  C3  UNL d   1       0.301   0.046   0.619  0.00  0.00    -0.047 A 
ATOM      6  C4  UNL d   1      -0.875  -0.620   0.892  0.00  0.00    -0.004 A 
ENDROOT
TORSDOF 0
ENDMDL
