MODEL 1
REMARK minimizedAffinity -2.35363293
REMARK minimizedRMSD -1
REMARK  0 active torsions:
REMARK  status: ('A' for Active; 'I' for Inactive)
ROOT
ATOM      1  C   UNL d   1       0.115  -5.389  -5.537  0.00  0.00     0.172 C 
ATOM      2  N   UNL d   1      -0.930  -5.632  -4.571  0.00  0.00    -0.070 N 
ATOM      3  C1  UNL d   1      -0.754  -5.749  -3.218  0.00  0.00    -0.004 A 
ATOM      4  C2  UNL d   1      -1.990  -5.976  -2.650  0.00  0.00    -0.047 A 
ATOM      5  C3  UNL d   1      -2.940  -5.996  -3.699  0.00  0.00    -0.047 A 
ATOM      6  C4  UNL d   1      -2.257  -5.781  -4.877  0.00  0.00    -0.004 A 
ENDROOT
TORSDOF 0
ENDMDL
