MODEL 1
REMARK minimizedAffinity -0.0844040662
REMARK minimizedRMSD -1
REMARK  0 active torsions:
REMARK  status: ('A' for Active; 'I' for Inactive)
ROOT
ATOM      1  C   UNL d   1      -1.208  -3.961   0.749  0.00  0.00     0.172 C 
ATOM      2  N   UNL d   1      -2.244  -4.790   1.318  0.00  0.00    -0.070 N 
ATOM      3  C1  UNL d   1      -2.282  -5.246   2.609  0.00  0.00    -0.004 A 
ATOM      4  C2  UNL d   1      -3.427  -6.000   2.756  0.00  0.00    -0.047 A 
ATOM      5  C3  UNL d   1      -4.099  -5.998   1.511  0.00  0.00    -0.047 A 
ATOM      6  C4  UNL d   1      -3.345  -5.241   0.638  0.00  0.00    -0.004 A 
ENDROOT
TORSDOF 0
ENDMDL
