MODEL 1
REMARK minimizedAffinity -2.9487884
REMARK minimizedRMSD -1
REMARK  0 active torsions:
REMARK  status: ('A' for Active; 'I' for Inactive)
ROOT
ATOM      1  C   UNL d   1      -4.009  -6.000  -1.493  0.00  0.00     0.172 C 
ATOM      2  N   UNL d   1      -4.068  -5.863  -0.056  0.00  0.00    -0.070 N 
ATOM      3  C1  UNL d   1      -3.008  -5.583   0.763  0.00  0.00    -0.004 A 
ATOM      4  C2  UNL d   1      -3.476  -5.536   2.058  0.00  0.00    -0.047 A 
ATOM      5  C3  UNL d   1      -4.866  -5.798   2.016  0.00  0.00    -0.047 A 
ATOM      6  C4  UNL d   1      -5.206  -5.997   0.694  0.00  0.00    -0.004 A 
ENDROOT
TORSDOF 0
ENDMDL
