MODEL 1
REMARK minimizedAffinity -2.57923484
REMARK minimizedRMSD -1
REMARK  0 active torsions:
REMARK  status: ('A' for Active; 'I' for Inactive)
ROOT
ATOM      1  C   UNL d   1       0.044  -4.930  -5.495  0.00  0.00     0.172 C 
ATOM      2  N   UNL d   1      -0.967  -5.365  -4.560  0.00  0.00    -0.070 N 
ATOM      3  C1  UNL d   1      -2.282  -5.603  -4.860  0.00  0.00    -0.004 A 
ATOM      4  C2  UNL d   1      -2.913  -6.000  -3.701  0.00  0.00    -0.047 A 
ATOM      5  C3  UNL d   1      -1.945  -6.000  -2.669  0.00  0.00    -0.047 A 
ATOM      6  C4  UNL d   1      -0.749  -5.603  -3.229  0.00  0.00    -0.004 A 
ENDROOT
TORSDOF 0
ENDMDL
