MODEL 1
REMARK minimizedAffinity -2.49530935
REMARK minimizedRMSD -1
REMARK  0 active torsions:
REMARK  status: ('A' for Active; 'I' for Inactive)
ROOT
ATOM      1  C   UNL d   1       0.403  -5.453  -5.999  0.00  0.00     0.172 C 
ATOM      2  N   UNL d   1      -0.867  -5.595  -5.328  0.00  0.00    -0.070 N 
ATOM      3  C1  UNL d   1      -1.097  -5.371  -3.996  0.00  0.00    -0.004 A 
ATOM      4  C2  UNL d   1      -2.431  -5.615  -3.751  0.00  0.00    -0.047 A 
ATOM      5  C3  UNL d   1      -3.023  -6.000  -4.976  0.00  0.00    -0.047 A 
ATOM      6  C4  UNL d   1      -2.033  -5.979  -5.936  0.00  0.00    -0.004 A 
ENDROOT
TORSDOF 0
ENDMDL
