MODEL 1
REMARK minimizedAffinity -0.908872783
REMARK minimizedRMSD -1
REMARK  0 active torsions:
REMARK  status: ('A' for Active; 'I' for Inactive)
ROOT
ATOM      1  C   UNL d   1      -2.585  -4.885   1.500  0.00  0.00     0.172 C 
ATOM      2  N   UNL d   1      -3.885  -5.321   1.956  0.00  0.00    -0.070 N 
ATOM      3  C1  UNL d   1      -4.256  -5.492   3.262  0.00  0.00    -0.004 A 
ATOM      4  C2  UNL d   1      -5.569  -5.914   3.276  0.00  0.00    -0.047 A 
ATOM      5  C3  UNL d   1      -6.000  -5.999   1.930  0.00  0.00    -0.047 A 
ATOM      6  C4  UNL d   1      -4.937  -5.627   1.134  0.00  0.00    -0.004 A 
ENDROOT
TORSDOF 0
ENDMDL
