MODEL 1
REMARK minimizedAffinity -0.927675843
REMARK minimizedRMSD -1
REMARK  0 active torsions:
REMARK  status: ('A' for Active; 'I' for Inactive)
ROOT
ATOM      1  C   UNL d   1       3.021  -0.729   0.008  0.00  0.00     0.172 C 
ATOM      2  N   UNL d   1       1.599  -0.492   0.102  0.00  0.00    -0.070 N 
ATOM      3  C1  UNL d   1       0.686  -0.708  -0.896  0.00  0.00    -0.004 A 
ATOM      4  C2  UNL d   1      -0.557  -0.362  -0.412  0.00  0.00    -0.047 A 
ATOM      5  C3  UNL d   1      -0.385   0.077   0.922  0.00  0.00    -0.047 A 
ATOM      6  C4  UNL d   1       0.959  -0.013   1.214  0.00  0.00    -0.004 A 
ENDROOT
TORSDOF 0
ENDMDL
