MODEL 1
REMARK minimizedAffinity 0.134333268
REMARK minimizedRMSD -1
REMARK  0 active torsions:
REMARK  status: ('A' for Active; 'I' for Inactive)
ROOT
ATOM      1  C   UNL d   1      -3.337   1.912  -2.907  0.00  0.00     0.172 C 
ATOM      2  N   UNL d   1      -2.157   2.609  -3.360  0.00  0.00    -0.070 N 
ATOM      3  C1  UNL d   1      -2.141   3.688  -4.203  0.00  0.00    -0.004 A 
ATOM      4  C2  UNL d   1      -0.826   4.058  -4.390  0.00  0.00    -0.047 A 
ATOM      5  C3  UNL d   1      -0.025   3.170  -3.634  0.00  0.00    -0.047 A 
ATOM      6  C4  UNL d   1      -0.874   2.283  -3.007  0.00  0.00    -0.004 A 
ENDROOT
TORSDOF 0
ENDMDL
