MODEL 1
REMARK minimizedAffinity -0.771376073
REMARK minimizedRMSD -1
REMARK  0 active torsions:
REMARK  status: ('A' for Active; 'I' for Inactive)
ROOT
ATOM      1  C   UNL d   1       1.735  -5.645  -3.751  0.00  0.00     0.172 C 
ATOM      2  N   UNL d   1       0.451  -5.727  -4.408  0.00  0.00    -0.070 N 
ATOM      3  C1  UNL d   1      -0.743  -6.000  -3.795  0.00  0.00    -0.004 A 
ATOM      4  C2  UNL d   1      -1.725  -5.988  -4.762  0.00  0.00    -0.047 A 
ATOM      5  C3  UNL d   1      -1.100  -5.698  -5.998  0.00  0.00    -0.047 A 
ATOM      6  C4  UNL d   1       0.247  -5.542  -5.749  0.00  0.00    -0.004 A 
ENDROOT
TORSDOF 0
ENDMDL
