MODEL 1
REMARK minimizedAffinity -1.96217692
REMARK minimizedRMSD -1
REMARK  0 active torsions:
REMARK  status: ('A' for Active; 'I' for Inactive)
ROOT
ATOM      1  C   UNL d   1       3.843  -1.213   2.643  0.00  0.00     0.172 C 
ATOM      2  N   UNL d   1       2.723  -0.918   1.780  0.00  0.00    -0.070 N 
ATOM      3  C1  UNL d   1       1.428  -0.739   2.186  0.00  0.00    -0.004 A 
ATOM      4  C2  UNL d   1       0.667  -0.476   1.068  0.00  0.00    -0.047 A 
ATOM      5  C3  UNL d   1       1.535  -0.499  -0.050  0.00  0.00    -0.047 A 
ATOM      6  C4  UNL d   1       2.802  -0.775   0.420  0.00  0.00    -0.004 A 
ENDROOT
TORSDOF 0
ENDMDL
