MODEL 1
REMARK minimizedAffinity 1.57833397
REMARK minimizedRMSD -1
REMARK  0 active torsions:
REMARK  status: ('A' for Active; 'I' for Inactive)
ROOT
ATOM      1  C   UNL d   1       0.445   0.116  -0.204  0.00  0.00     0.172 C 
ATOM      2  N   UNL d   1       0.065   1.361  -0.828  0.00  0.00    -0.070 N 
ATOM      3  C1  UNL d   1       0.272   2.611  -0.308  0.00  0.00    -0.004 A 
ATOM      4  C2  UNL d   1      -0.231   3.530  -1.203  0.00  0.00    -0.047 A 
ATOM      5  C3  UNL d   1      -0.760   2.807  -2.299  0.00  0.00    -0.047 A 
ATOM      6  C4  UNL d   1      -0.563   1.467  -2.041  0.00  0.00    -0.004 A 
ENDROOT
TORSDOF 0
ENDMDL
