MODEL 1
REMARK minimizedAffinity -1.15677249
REMARK minimizedRMSD -1
REMARK  0 active torsions:
REMARK  status: ('A' for Active; 'I' for Inactive)
ROOT
ATOM      1  C   UNL d   1      -3.113  -5.879  -3.216  0.00  0.00     0.172 C 
ATOM      2  N   UNL d   1      -1.990  -5.839  -4.123  0.00  0.00    -0.070 N 
ATOM      3  C1  UNL d   1      -0.683  -5.637  -3.767  0.00  0.00    -0.004 A 
ATOM      4  C2  UNL d   1       0.077  -5.670  -4.916  0.00  0.00    -0.047 A 
ATOM      5  C3  UNL d   1      -0.804  -5.898  -6.000  0.00  0.00    -0.047 A 
ATOM      6  C4  UNL d   1      -2.077  -5.999  -5.481  0.00  0.00    -0.004 A 
ENDROOT
TORSDOF 0
ENDMDL
