MODEL 1
REMARK minimizedAffinity -4.23579264
REMARK minimizedRMSD -1
REMARK  0 active torsions:
REMARK  status: ('A' for Active; 'I' for Inactive)
ROOT
ATOM      1  C   UNL d   1       2.760  -1.303   0.259  0.00  0.00     0.023 A 
ATOM      2  C1  UNL d   1       1.667  -2.094  -0.095  0.00  0.00     0.003 A 
ATOM      3  C2  UNL d   1       0.389  -1.535  -0.159  0.00  0.00     0.048 A 
ATOM      4  C3  UNL d   1       0.211  -0.182   0.130  0.00  0.00     0.023 A 
ATOM      5  C4  UNL d   1       1.302   0.614   0.484  0.00  0.00     0.048 A 
ATOM      6  C5  UNL d   1       2.577   0.050   0.548  0.00  0.00     0.003 A 
ATOM      7  I   UNL d   1      -1.689   0.653   0.035  0.00  0.00    -0.146 I 
ENDROOT
TORSDOF 0
ENDMDL
