MODEL 1
REMARK minimizedAffinity 0.600568116
REMARK minimizedRMSD -1
REMARK  0 active torsions:
REMARK  status: ('A' for Active; 'I' for Inactive)
ROOT
ATOM      1  C   UNL d   1      -0.853   1.683  -0.380  0.00  0.00     0.023 A 
ATOM      2  C1  UNL d   1       0.447   2.061  -0.044  0.00  0.00     0.003 A 
ATOM      3  C2  UNL d   1       1.446   1.093   0.083  0.00  0.00     0.048 A 
ATOM      4  C3  UNL d   1       1.138  -0.250  -0.129  0.00  0.00     0.023 A 
ATOM      5  C4  UNL d   1      -0.162  -0.632  -0.466  0.00  0.00     0.048 A 
ATOM      6  C5  UNL d   1      -1.157   0.339  -0.591  0.00  0.00     0.003 A 
ATOM      7  I   UNL d   1       2.622  -1.692   0.059  0.00  0.00    -0.146 I 
ENDROOT
TORSDOF 0
ENDMDL
