MODEL 1
REMARK minimizedAffinity -2.03894877
REMARK minimizedRMSD -1
REMARK  0 active torsions:
REMARK  status: ('A' for Active; 'I' for Inactive)
ROOT
ATOM      1  C   UNL d   1      -4.157   1.310   1.259  0.00  0.00     0.023 A 
ATOM      2  C1  UNL d   1      -3.049   1.379   2.103  0.00  0.00     0.003 A 
ATOM      3  C2  UNL d   1      -1.788   1.006   1.633  0.00  0.00     0.048 A 
ATOM      4  C3  UNL d   1      -1.642   0.566   0.317  0.00  0.00     0.023 A 
ATOM      5  C4  UNL d   1      -2.749   0.497  -0.531  0.00  0.00     0.048 A 
ATOM      6  C5  UNL d   1      -4.007   0.870  -0.056  0.00  0.00     0.003 A 
ATOM      7  I   UNL d   1       0.233   0.011  -0.384  0.00  0.00    -0.146 I 
ENDROOT
TORSDOF 0
ENDMDL
