MODEL 1
REMARK minimizedAffinity 0.337306768
REMARK minimizedRMSD -1
REMARK  0 active torsions:
REMARK  status: ('A' for Active; 'I' for Inactive)
ROOT
ATOM      1  C   UNL d   1       3.644  -1.448  -0.442  0.00  0.00     0.023 A 
ATOM      2  C1  UNL d   1       2.480  -2.215  -0.396  0.00  0.00     0.003 A 
ATOM      3  C2  UNL d   1       1.233  -1.591  -0.328  0.00  0.00     0.048 A 
ATOM      4  C3  UNL d   1       1.157  -0.199  -0.309  0.00  0.00     0.023 A 
ATOM      5  C4  UNL d   1       2.320   0.573  -0.356  0.00  0.00     0.048 A 
ATOM      6  C5  UNL d   1       3.564  -0.056  -0.422  0.00  0.00     0.003 A 
ATOM      7  I   UNL d   1      -0.698   0.734  -0.209  0.00  0.00    -0.146 I 
ENDROOT
TORSDOF 0
ENDMDL
