MODEL 1
REMARK minimizedAffinity -3.21911621
REMARK minimizedRMSD -1
REMARK  0 active torsions:
REMARK  status: ('A' for Active; 'I' for Inactive)
ROOT
ATOM      1  C   UNL d   1       2.290  -1.744   0.078  0.00  0.00     0.023 A 
ATOM      2  C1  UNL d   1       2.261  -0.503   0.713  0.00  0.00     0.003 A 
ATOM      3  C2  UNL d   1       1.136   0.317   0.596  0.00  0.00     0.048 A 
ATOM      4  C3  UNL d   1       0.044  -0.112  -0.157  0.00  0.00     0.023 A 
ATOM      5  C4  UNL d   1       0.069  -1.354  -0.794  0.00  0.00     0.048 A 
ATOM      6  C5  UNL d   1       1.196  -2.169  -0.675  0.00  0.00     0.003 A 
ATOM      7  I   UNL d   1      -1.631   1.105  -0.333  0.00  0.00    -0.146 I 
ENDROOT
TORSDOF 0
ENDMDL
