MODEL 1
REMARK minimizedAffinity -3.03550768
REMARK minimizedRMSD -1
REMARK  0 active torsions:
REMARK  status: ('A' for Active; 'I' for Inactive)
ROOT
ATOM      1  C   UNL d   1       2.999  -1.141  -0.396  0.00  0.00     0.023 A 
ATOM      2  C1  UNL d   1       1.827  -1.897  -0.409  0.00  0.00     0.003 A 
ATOM      3  C2  UNL d   1       0.584  -1.261  -0.433  0.00  0.00     0.048 A 
ATOM      4  C3  UNL d   1       0.521   0.132  -0.445  0.00  0.00     0.023 A 
ATOM      5  C4  UNL d   1       1.691   0.893  -0.432  0.00  0.00     0.048 A 
ATOM      6  C5  UNL d   1       2.931   0.253  -0.407  0.00  0.00     0.003 A 
ATOM      7  I   UNL d   1      -1.328   1.082  -0.481  0.00  0.00    -0.146 I 
ENDROOT
TORSDOF 0
ENDMDL
