MODEL 1
REMARK minimizedAffinity -1.10393178
REMARK minimizedRMSD -1
REMARK  0 active torsions:
REMARK  status: ('A' for Active; 'I' for Inactive)
ROOT
ATOM      1  C2' OXE d   1       0.232  -2.518  -0.007  0.00  0.00     0.078 C 
ATOM      2  C1' OXE d   1       2.942  -1.991   0.500  0.00  0.00     0.078 C 
ATOM      3  C1  OXE d   1       2.021  -0.813   0.305  0.00  0.00    -0.078 A 
ATOM      4  C2  OXE d   1       0.706  -1.081   0.011  0.00  0.00    -0.078 A 
ATOM      5  C3  OXE d   1      -0.198  -0.031  -0.125  0.00  0.00     0.003 A 
ATOM      6  C4  OXE d   1       0.250   1.296  -0.117  0.00  0.00    -0.002 A 
ATOM      7  C5  OXE d   1       1.593   1.590   0.141  0.00  0.00    -0.002 A 
ATOM      8  C6  OXE d   1       2.481   0.551   0.396  0.00  0.00     0.003 A 
ENDROOT
TORSDOF 0
ENDMDL
