MODEL 1
REMARK minimizedAffinity -3.59539747
REMARK minimizedRMSD -1
REMARK  0 active torsions:
REMARK  status: ('A' for Active; 'I' for Inactive)
ROOT
ATOM      1  C2' OXE d   1      -1.864   0.511   1.763  0.00  0.00     0.078 C 
ATOM      2  C1' OXE d   1      -0.323   1.261  -0.460  0.00  0.00     0.078 C 
ATOM      3  C1  OXE d   1      -0.041  -0.079   0.172  0.00  0.00    -0.078 A 
ATOM      4  C2  OXE d   1      -0.768  -0.417   1.287  0.00  0.00    -0.078 A 
ATOM      5  C3  OXE d   1      -0.586  -1.665   1.876  0.00  0.00     0.003 A 
ATOM      6  C4  OXE d   1       0.437  -2.514   1.437  0.00  0.00    -0.002 A 
ATOM      7  C5  OXE d   1       1.216  -2.171   0.326  0.00  0.00    -0.002 A 
ATOM      8  C6  OXE d   1       0.962  -0.979  -0.342  0.00  0.00     0.003 A 
ENDROOT
TORSDOF 0
ENDMDL
