MODEL 1
REMARK minimizedAffinity -0.375291198
REMARK minimizedRMSD -1
REMARK  0 active torsions:
REMARK  status: ('A' for Active; 'I' for Inactive)
ROOT
ATOM      1  C2' OXE d   1       3.455  -1.359   0.100  0.00  0.00     0.078 C 
ATOM      2  C1' OXE d   1       3.240   1.436   0.248  0.00  0.00     0.078 C 
ATOM      3  C1  OXE d   1       1.965   0.637   0.153  0.00  0.00    -0.078 A 
ATOM      4  C2  OXE d   1       2.081  -0.727   0.034  0.00  0.00    -0.078 A 
ATOM      5  C3  OXE d   1       0.935  -1.516  -0.003  0.00  0.00     0.003 A 
ATOM      6  C4  OXE d   1      -0.332  -0.923  -0.074  0.00  0.00    -0.002 A 
ATOM      7  C5  OXE d   1      -0.471   0.466   0.006  0.00  0.00    -0.002 A 
ATOM      8  C6  OXE d   1       0.663   1.257   0.162  0.00  0.00     0.003 A 
ENDROOT
TORSDOF 0
ENDMDL
