MODEL 1
REMARK minimizedAffinity -2.41417933
REMARK minimizedRMSD -1
REMARK  0 active torsions:
REMARK  status: ('A' for Active; 'I' for Inactive)
ROOT
ATOM      1  C2' OXE d   1       2.618   1.911   0.796  0.00  0.00     0.078 C 
ATOM      2  C1' OXE d   1       3.089  -0.830   1.179  0.00  0.00     0.078 C 
ATOM      3  C1  OXE d   1       1.790  -0.423   0.530  0.00  0.00    -0.078 A 
ATOM      4  C2  OXE d   1       1.548   0.922   0.389  0.00  0.00    -0.078 A 
ATOM      5  C3  OXE d   1       0.389   1.350  -0.253  0.00  0.00     0.003 A 
ATOM      6  C4  OXE d   1      -0.601   0.429  -0.618  0.00  0.00    -0.002 A 
ATOM      7  C5  OXE d   1      -0.391  -0.943  -0.447  0.00  0.00    -0.002 A 
ATOM      8  C6  OXE d   1       0.814  -1.387   0.085  0.00  0.00     0.003 A 
ENDROOT
TORSDOF 0
ENDMDL
