MODEL 1
REMARK minimizedAffinity 3.6634326
REMARK minimizedRMSD -1
REMARK  0 active torsions:
REMARK  status: ('A' for Active; 'I' for Inactive)
ROOT
ATOM      1  C2' OXE d   1      -1.335  -2.010  -3.750  0.00  0.00     0.078 C 
ATOM      2  C1' OXE d   1      -1.457   0.764  -4.160  0.00  0.00     0.078 C 
ATOM      3  C1  OXE d   1      -0.908   0.271  -2.845  0.00  0.00    -0.078 A 
ATOM      4  C2  OXE d   1      -0.896  -1.087  -2.635  0.00  0.00    -0.078 A 
ATOM      5  C3  OXE d   1      -0.349  -1.598  -1.461  0.00  0.00     0.003 A 
ATOM      6  C4  OXE d   1       0.046  -0.737  -0.430  0.00  0.00    -0.002 A 
ATOM      7  C5  OXE d   1       0.005   0.650  -0.608  0.00  0.00    -0.002 A 
ATOM      8  C6  OXE d   1      -0.429   1.169  -1.823  0.00  0.00     0.003 A 
ENDROOT
TORSDOF 0
ENDMDL
