MODEL 1
REMARK minimizedAffinity 0.146895543
REMARK minimizedRMSD -1
REMARK  0 active torsions:
REMARK  status: ('A' for Active; 'I' for Inactive)
ROOT
ATOM      1  C2' OXE d   1      -1.567  -1.312  -4.364  0.00  0.00     0.078 C 
ATOM      2  C1' OXE d   1      -2.074   1.426  -4.004  0.00  0.00     0.078 C 
ATOM      3  C1  OXE d   1      -1.549   0.646  -2.824  0.00  0.00    -0.078 A 
ATOM      4  C2  OXE d   1      -1.348  -0.702  -2.996  0.00  0.00    -0.078 A 
ATOM      5  C3  OXE d   1      -0.813  -1.457  -1.956  0.00  0.00     0.003 A 
ATOM      6  C4  OXE d   1      -0.623  -0.888  -0.691  0.00  0.00    -0.002 A 
ATOM      7  C5  OXE d   1      -0.859   0.475  -0.483  0.00  0.00    -0.002 A 
ATOM      8  C6  OXE d   1      -1.281   1.264  -1.548  0.00  0.00     0.003 A 
ENDROOT
TORSDOF 0
ENDMDL
