MODEL 1
REMARK minimizedAffinity -3.11077571
REMARK minimizedRMSD -1
REMARK  0 active torsions:
REMARK  status: ('A' for Active; 'I' for Inactive)
ROOT
ATOM      1  C2' OXE d   1      -0.720   1.108  -0.763  0.00  0.00     0.078 C 
ATOM      2  C1' OXE d   1      -0.778  -0.848   1.250  0.00  0.00     0.078 C 
ATOM      3  C1  OXE d   1       0.439   0.039   1.166  0.00  0.00    -0.078 A 
ATOM      4  C2  OXE d   1       0.480   0.962   0.149  0.00  0.00    -0.078 A 
ATOM      5  C3  OXE d   1       1.555   1.842   0.059  0.00  0.00     0.003 A 
ATOM      6  C4  OXE d   1       2.664   1.694   0.900  0.00  0.00    -0.002 A 
ATOM      7  C5  OXE d   1       2.661   0.734   1.917  0.00  0.00    -0.002 A 
ATOM      8  C6  OXE d   1       1.541  -0.071   2.090  0.00  0.00     0.003 A 
ENDROOT
TORSDOF 0
ENDMDL
