MODEL 1
REMARK minimizedAffinity -0.309943795
REMARK minimizedRMSD -1
REMARK  0 active torsions:
REMARK  status: ('A' for Active; 'I' for Inactive)
ROOT
ATOM      1  C2' OXE d   1       2.756   2.155   1.296  0.00  0.00     0.078 C 
ATOM      2  C1' OXE d   1       2.856  -0.638   1.567  0.00  0.00     0.078 C 
ATOM      3  C1  OXE d   1       1.633  -0.037   0.920  0.00  0.00    -0.078 A 
ATOM      4  C2  OXE d   1       1.572   1.333   0.834  0.00  0.00    -0.078 A 
ATOM      5  C3  OXE d   1       0.491   1.936   0.198  0.00  0.00     0.003 A 
ATOM      6  C4  OXE d   1      -0.605   1.169  -0.218  0.00  0.00    -0.002 A 
ATOM      7  C5  OXE d   1      -0.580  -0.225  -0.103  0.00  0.00    -0.002 A 
ATOM      8  C6  OXE d   1       0.547  -0.845   0.424  0.00  0.00     0.003 A 
ENDROOT
TORSDOF 0
ENDMDL
