MODEL 1
REMARK minimizedAffinity -4.05292034
REMARK minimizedRMSD -1
REMARK  0 active torsions:
REMARK  status: ('A' for Active; 'I' for Inactive)
ROOT
ATOM      1  C2' OXE d   1      -2.319   3.518   0.296  0.00  0.00     0.078 C 
ATOM      2  C1' OXE d   1      -2.978   0.960   1.246  0.00  0.00     0.078 C 
ATOM      3  C1  OXE d   1      -1.574   1.184   0.744  0.00  0.00    -0.078 A 
ATOM      4  C2  OXE d   1      -1.274   2.426   0.237  0.00  0.00    -0.078 A 
ATOM      5  C3  OXE d   1       0.023   2.702  -0.188  0.00  0.00     0.003 A 
ATOM      6  C4  OXE d   1       0.981   1.683  -0.248  0.00  0.00    -0.002 A 
ATOM      7  C5  OXE d   1       0.684   0.400   0.225  0.00  0.00    -0.002 A 
ATOM      8  C6  OXE d   1      -0.573   0.146   0.763  0.00  0.00     0.003 A 
ENDROOT
TORSDOF 0
ENDMDL
