MODEL 1
REMARK minimizedAffinity 15.387908
REMARK minimizedRMSD -1
REMARK  1 active torsions:
REMARK  status: ('A' for Active; 'I' for Inactive)
REMARK    1  A    between atoms: C1_2  and  C2_3 
ROOT
ATOM      1  C2  UNL d   1       3.917  -0.879   1.988  0.00  0.00    -0.081 A 
ATOM      2  C3  UNL d   1       4.012   0.310   1.255  0.00  0.00     0.006 A 
ATOM      3  C4  UNL d   1       3.149   1.376   1.520  0.00  0.00     0.002 A 
ATOM      4  C5  UNL d   1       2.183   1.273   2.527  0.00  0.00    -0.080 A 
ATOM      5  C6  UNL d   1       1.270   2.421   2.842  0.00  0.00     0.076 C 
ATOM      6  C7  UNL d   1       2.076   0.078   3.247  0.00  0.00     0.002 A 
ATOM      7  C8  UNL d   1       2.938  -0.988   2.981  0.00  0.00     0.006 A 
ENDROOT
BRANCH   1   8
ATOM      8  C1  UNL d   1       4.889  -2.007   1.748  0.00  0.00     0.054 C 
ATOM      9  C   UNL d   1       5.603  -2.404   3.032  0.00  0.00     0.018 C 
ENDBRANCH   1   8
TORSDOF 1
ENDMDL
