MODEL 1
REMARK minimizedAffinity 3.41338587
REMARK minimizedRMSD -1
REMARK  1 active torsions:
REMARK  status: ('A' for Active; 'I' for Inactive)
REMARK    1  A    between atoms: C1_2  and  C2_3 
ROOT
ATOM      1  C2  UNL d   1       3.683  -0.542   1.802  0.00  0.00    -0.081 A 
ATOM      2  C3  UNL d   1       2.984   0.193   2.767  0.00  0.00     0.006 A 
ATOM      3  C4  UNL d   1       2.106   1.210   2.384  0.00  0.00     0.002 A 
ATOM      4  C5  UNL d   1       1.907   1.503   1.030  0.00  0.00    -0.080 A 
ATOM      5  C6  UNL d   1       0.944   2.572   0.604  0.00  0.00     0.076 C 
ATOM      6  C7  UNL d   1       2.619   0.780   0.067  0.00  0.00     0.002 A 
ATOM      7  C8  UNL d   1       3.497  -0.236   0.450  0.00  0.00     0.006 A 
ENDROOT
BRANCH   1   8
ATOM      8  C1  UNL d   1       4.581  -1.682   2.210  0.00  0.00     0.054 C 
ATOM      9  C   UNL d   1       5.831  -1.739   1.342  0.00  0.00     0.018 C 
ENDBRANCH   1   8
TORSDOF 1
ENDMDL
