MODEL 1
REMARK minimizedAffinity 13.203372
REMARK minimizedRMSD -1
REMARK  1 active torsions:
REMARK  status: ('A' for Active; 'I' for Inactive)
REMARK    1  A    between atoms: C1_2  and  C2_3 
ROOT
ATOM      1  C2  UNL d   1      -3.017   1.665  -3.299  0.00  0.00    -0.081 A 
ATOM      2  C3  UNL d   1      -2.525   0.359  -3.421  0.00  0.00     0.006 A 
ATOM      3  C4  UNL d   1      -1.995  -0.304  -2.311  0.00  0.00     0.002 A 
ATOM      4  C5  UNL d   1      -1.955   0.324  -1.062  0.00  0.00    -0.080 A 
ATOM      5  C6  UNL d   1      -1.417  -0.388   0.144  0.00  0.00     0.076 C 
ATOM      6  C7  UNL d   1      -2.431   1.634  -0.944  0.00  0.00     0.002 A 
ATOM      7  C8  UNL d   1      -2.961   2.298  -2.053  0.00  0.00     0.006 A 
ENDROOT
BRANCH   1   8
ATOM      8  C1  UNL d   1      -3.649   2.359  -4.479  0.00  0.00     0.054 C 
ATOM      9  C   UNL d   1      -5.034   2.886  -4.134  0.00  0.00     0.018 C 
ENDBRANCH   1   8
TORSDOF 1
ENDMDL
