MODEL 1
REMARK minimizedAffinity 2.67177105
REMARK minimizedRMSD -1
REMARK  1 active torsions:
REMARK  status: ('A' for Active; 'I' for Inactive)
REMARK    1  A    between atoms: C1_2  and  C2_3 
ROOT
ATOM      1  C2  UNL d   1       2.134  -1.806   2.718  0.00  0.00    -0.081 A 
ATOM      2  C3  UNL d   1       2.852  -1.608   3.904  0.00  0.00     0.006 A 
ATOM      3  C4  UNL d   1       3.243  -2.698   4.686  0.00  0.00     0.002 A 
ATOM      4  C5  UNL d   1       2.929  -4.003   4.292  0.00  0.00    -0.080 A 
ATOM      5  C6  UNL d   1       3.369  -5.183   5.106  0.00  0.00     0.076 C 
ATOM      6  C7  UNL d   1       2.196  -4.200   3.116  0.00  0.00     0.002 A 
ATOM      7  C8  UNL d   1       1.804  -3.111   2.335  0.00  0.00     0.006 A 
ENDROOT
BRANCH   1   8
ATOM      8  C1  UNL d   1       1.767  -0.637   1.840  0.00  0.00     0.054 C 
ATOM      9  C   UNL d   1       2.930   0.335   1.699  0.00  0.00     0.018 C 
ENDBRANCH   1   8
TORSDOF 1
ENDMDL
