MODEL 1
REMARK minimizedAffinity 5.38466454
REMARK minimizedRMSD -1
REMARK  1 active torsions:
REMARK  status: ('A' for Active; 'I' for Inactive)
REMARK    1  A    between atoms: C1_2  and  C2_3 
ROOT
ATOM      1  C2  UNL d   1       3.029  -2.898   4.096  0.00  0.00    -0.081 A 
ATOM      2  C3  UNL d   1       3.861  -2.238   3.182  0.00  0.00     0.006 A 
ATOM      3  C4  UNL d   1       4.739  -2.963   2.373  0.00  0.00     0.002 A 
ATOM      4  C5  UNL d   1       4.795  -4.358   2.457  0.00  0.00    -0.080 A 
ATOM      5  C6  UNL d   1       5.711  -5.150   1.573  0.00  0.00     0.076 C 
ATOM      6  C7  UNL d   1       3.977  -5.016   3.382  0.00  0.00     0.002 A 
ATOM      7  C8  UNL d   1       3.099  -4.292   4.193  0.00  0.00     0.006 A 
ENDROOT
BRANCH   1   8
ATOM      8  C1  UNL d   1       2.036  -2.124   4.925  0.00  0.00     0.054 C 
ATOM      9  C   UNL d   1       1.410  -3.002   6.000  0.00  0.00     0.018 C 
ENDBRANCH   1   8
TORSDOF 1
ENDMDL
