MODEL 1
REMARK minimizedAffinity -0.0329072848
REMARK minimizedRMSD -1
REMARK  1 active torsions:
REMARK  status: ('A' for Active; 'I' for Inactive)
REMARK    1  A    between atoms: C1_2  and  C2_3 
ROOT
ATOM      1  C2  UNL d   1       0.976  -6.000  -1.344  0.00  0.00    -0.081 A 
ATOM      2  C3  UNL d   1       2.275  -5.998  -0.819  0.00  0.00     0.006 A 
ATOM      3  C4  UNL d   1       3.382  -5.986  -1.670  0.00  0.00     0.002 A 
ATOM      4  C5  UNL d   1       3.211  -5.968  -3.058  0.00  0.00    -0.080 A 
ATOM      5  C6  UNL d   1       4.392  -5.924  -3.983  0.00  0.00     0.076 C 
ATOM      6  C7  UNL d   1       1.914  -5.987  -3.583  0.00  0.00     0.002 A 
ATOM      7  C8  UNL d   1       0.806  -6.000  -2.733  0.00  0.00     0.006 A 
ENDROOT
BRANCH   1   8
ATOM      8  C1  UNL d   1      -0.220  -5.948  -0.429  0.00  0.00     0.054 C 
ATOM      9  C   UNL d   1      -1.521  -5.953  -1.219  0.00  0.00     0.018 C 
ENDBRANCH   1   8
TORSDOF 1
ENDMDL
