MODEL 1
REMARK minimizedAffinity 6.74313021
REMARK minimizedRMSD -1
REMARK  1 active torsions:
REMARK  status: ('A' for Active; 'I' for Inactive)
REMARK    1  A    between atoms: C1_2  and  C2_3 
ROOT
ATOM      1  C2  UNL d   1       3.535  -2.268   3.450  0.00  0.00    -0.081 A 
ATOM      2  C3  UNL d   1       2.296  -2.310   4.101  0.00  0.00     0.006 A 
ATOM      3  C4  UNL d   1       1.186  -1.664   3.554  0.00  0.00     0.002 A 
ATOM      4  C5  UNL d   1       1.293  -0.971   2.343  0.00  0.00    -0.080 A 
ATOM      5  C6  UNL d   1       0.102  -0.299   1.728  0.00  0.00     0.076 C 
ATOM      6  C7  UNL d   1       2.535  -0.914   1.701  0.00  0.00     0.002 A 
ATOM      7  C8  UNL d   1       3.646  -1.560   2.248  0.00  0.00     0.006 A 
ENDROOT
BRANCH   1   8
ATOM      8  C1  UNL d   1       4.719  -3.018   4.005  0.00  0.00     0.054 C 
ATOM      9  C   UNL d   1       6.000  -2.653   3.270  0.00  0.00     0.018 C 
ENDBRANCH   1   8
TORSDOF 1
ENDMDL
