MODEL 1
REMARK minimizedAffinity 13.545249
REMARK minimizedRMSD -1
REMARK  1 active torsions:
REMARK  status: ('A' for Active; 'I' for Inactive)
REMARK    1  A    between atoms: C1_2  and  C2_3 
ROOT
ATOM      1  C2  UNL d   1       4.220  -5.744  -2.160  0.00  0.00    -0.081 A 
ATOM      2  C3  UNL d   1       4.838  -5.382  -0.956  0.00  0.00     0.006 A 
ATOM      3  C4  UNL d   1       4.080  -5.206   0.204  0.00  0.00     0.002 A 
ATOM      4  C5  UNL d   1       2.694  -5.396   0.182  0.00  0.00    -0.080 A 
ATOM      5  C6  UNL d   1       1.873  -5.239   1.427  0.00  0.00     0.076 C 
ATOM      6  C7  UNL d   1       2.074  -5.740  -1.024  0.00  0.00     0.002 A 
ATOM      7  C8  UNL d   1       2.831  -5.916  -2.184  0.00  0.00     0.006 A 
ENDROOT
BRANCH   1   8
ATOM      8  C1  UNL d   1       5.042  -5.998  -3.397  0.00  0.00     0.054 C 
ATOM      9  C   UNL d   1       4.175  -5.992  -4.648  0.00  0.00     0.018 C 
ENDBRANCH   1   8
TORSDOF 1
ENDMDL
