MODEL 1
REMARK minimizedAffinity 10.1971283
REMARK minimizedRMSD -1
REMARK  1 active torsions:
REMARK  status: ('A' for Active; 'I' for Inactive)
REMARK    1  A    between atoms: C1_2  and  C2_3 
ROOT
ATOM      1  C2  UNL d   1       4.714  -5.698  -3.473  0.00  0.00    -0.081 A 
ATOM      2  C3  UNL d   1       5.071  -5.837  -2.127  0.00  0.00     0.006 A 
ATOM      3  C4  UNL d   1       4.088  -5.918  -1.138  0.00  0.00     0.002 A 
ATOM      4  C5  UNL d   1       2.732  -5.871  -1.480  0.00  0.00    -0.080 A 
ATOM      5  C6  UNL d   1       1.666  -5.988  -0.431  0.00  0.00     0.076 C 
ATOM      6  C7  UNL d   1       2.375  -5.715  -2.823  0.00  0.00     0.002 A 
ATOM      7  C8  UNL d   1       3.358  -5.632  -3.812  0.00  0.00     0.006 A 
ENDROOT
BRANCH   1   8
ATOM      8  C1  UNL d   1       5.770  -5.675  -4.548  0.00  0.00     0.054 C 
ATOM      9  C   UNL d   1       5.153  -5.493  -5.927  0.00  0.00     0.018 C 
ENDBRANCH   1   8
TORSDOF 1
ENDMDL
