MODEL 1
REMARK minimizedAffinity 6.55663347
REMARK minimizedRMSD -1
REMARK  1 active torsions:
REMARK  status: ('A' for Active; 'I' for Inactive)
REMARK    1  A    between atoms: C1_2  and  C2_3 
ROOT
ATOM      1  C2  UNL d   1      -3.779   2.277  -1.171  0.00  0.00    -0.081 A 
ATOM      2  C3  UNL d   1      -5.141   2.469  -0.909  0.00  0.00     0.006 A 
ATOM      3  C4  UNL d   1      -5.564   2.914   0.346  0.00  0.00     0.002 A 
ATOM      4  C5  UNL d   1      -4.634   3.181   1.356  0.00  0.00    -0.080 A 
ATOM      5  C6  UNL d   1      -5.073   3.688   2.697  0.00  0.00     0.076 C 
ATOM      6  C7  UNL d   1      -3.275   2.973   1.099  0.00  0.00     0.002 A 
ATOM      7  C8  UNL d   1      -2.850   2.528  -0.155  0.00  0.00     0.006 A 
ENDROOT
BRANCH   1   8
ATOM      8  C1  UNL d   1      -3.314   1.860  -2.543  0.00  0.00     0.054 C 
ATOM      9  C   UNL d   1      -4.084   2.590  -3.634  0.00  0.00     0.018 C 
ENDBRANCH   1   8
TORSDOF 1
ENDMDL
