MODEL 1
REMARK minimizedAffinity 6.71151495
REMARK minimizedRMSD -1
REMARK  1 active torsions:
REMARK  status: ('A' for Active; 'I' for Inactive)
REMARK    1  A    between atoms: C1_2  and  C2_3 
ROOT
ATOM      1  C2  UNL d   1      -1.953  -1.183  -1.897  0.00  0.00    -0.081 A 
ATOM      2  C3  UNL d   1      -2.630  -1.552  -3.066  0.00  0.00     0.006 A 
ATOM      3  C4  UNL d   1      -3.439  -0.631  -3.736  0.00  0.00     0.002 A 
ATOM      4  C5  UNL d   1      -3.578   0.675  -3.253  0.00  0.00    -0.080 A 
ATOM      5  C6  UNL d   1      -4.419   1.682  -3.979  0.00  0.00     0.076 C 
ATOM      6  C7  UNL d   1      -2.915   1.038  -2.075  0.00  0.00     0.002 A 
ATOM      7  C8  UNL d   1      -2.107   0.117  -1.405  0.00  0.00     0.006 A 
ENDROOT
BRANCH   1   8
ATOM      8  C1  UNL d   1      -1.029  -2.155  -1.208  0.00  0.00     0.054 C 
ATOM      9  C   UNL d   1       0.408  -1.652  -1.215  0.00  0.00     0.018 C 
ENDBRANCH   1   8
TORSDOF 1
ENDMDL
