MODEL 1
REMARK minimizedAffinity 4.43382311
REMARK minimizedRMSD -1
REMARK  0 active torsions:
REMARK  status: ('A' for Active; 'I' for Inactive)
ROOT
ATOM      1  C4' PXY d   1       0.292   3.741  -1.563  0.00  0.00     0.077 C 
ATOM      2  C1' PXY d   1       2.224  -1.374   0.313  0.00  0.00     0.077 C 
ATOM      3  C1  PXY d   1       1.713  -0.030  -0.167  0.00  0.00    -0.082 A 
ATOM      4  C2  PXY d   1       1.465   0.154  -1.453  0.00  0.00     0.003 A 
ATOM      5  C3  PXY d   1       1.033   1.372  -1.909  0.00  0.00     0.003 A 
ATOM      6  C4  PXY d   1       0.801   2.398  -1.032  0.00  0.00    -0.082 A 
ATOM      7  C5  PXY d   1       1.041   2.215   0.284  0.00  0.00     0.003 A 
ATOM      8  C6  PXY d   1       1.519   0.983   0.721  0.00  0.00     0.003 A 
ENDROOT
TORSDOF 0
ENDMDL
