MODEL 1
REMARK minimizedAffinity 2.3339622
REMARK minimizedRMSD -1
REMARK  0 active torsions:
REMARK  status: ('A' for Active; 'I' for Inactive)
ROOT
ATOM      1  C4' PXY d   1      -3.850   3.220  -0.454  0.00  0.00     0.077 C 
ATOM      2  C1' PXY d   1      -3.170   2.042   5.165  0.00  0.00     0.077 C 
ATOM      3  C1  PXY d   1      -3.353   2.339   3.689  0.00  0.00    -0.082 A 
ATOM      4  C2  PXY d   1      -2.647   3.305   3.124  0.00  0.00     0.003 A 
ATOM      5  C3  PXY d   1      -2.823   3.608   1.798  0.00  0.00     0.003 A 
ATOM      6  C4  PXY d   1      -3.692   2.879   1.031  0.00  0.00    -0.082 A 
ATOM      7  C5  PXY d   1      -4.407   1.885   1.597  0.00  0.00     0.003 A 
ATOM      8  C6  PXY d   1      -4.244   1.620   2.954  0.00  0.00     0.003 A 
ENDROOT
TORSDOF 0
ENDMDL
