MODEL 1
REMARK minimizedAffinity -1.24855435
REMARK minimizedRMSD -1
REMARK  0 active torsions:
REMARK  status: ('A' for Active; 'I' for Inactive)
ROOT
ATOM      1  C4' PXY d   1       0.597   2.346  -1.830  0.00  0.00     0.077 C 
ATOM      2  C1' PXY d   1       1.475  -3.022   0.128  0.00  0.00     0.077 C 
ATOM      3  C1  PXY d   1       1.244  -1.610  -0.373  0.00  0.00    -0.082 A 
ATOM      4  C2  PXY d   1       0.717  -1.419  -1.572  0.00  0.00     0.003 A 
ATOM      5  C3  PXY d   1       0.531  -0.149  -2.054  0.00  0.00     0.003 A 
ATOM      6  C4  PXY d   1       0.839   0.938  -1.279  0.00  0.00    -0.082 A 
ATOM      7  C5  PXY d   1       1.366   0.751  -0.051  0.00  0.00     0.003 A 
ATOM      8  C6  PXY d   1       1.585  -0.546   0.403  0.00  0.00     0.003 A 
ENDROOT
TORSDOF 0
ENDMDL
