MODEL 1
REMARK minimizedAffinity -5.17653704
REMARK minimizedRMSD -1
REMARK  0 active torsions:
REMARK  status: ('A' for Active; 'I' for Inactive)
ROOT
ATOM      1  C4' PXY d   1       1.247  -0.293  -0.740  0.00  0.00     0.077 C 
ATOM      2  C1' PXY d   1       0.849   5.464  -0.404  0.00  0.00     0.077 C 
ATOM      3  C1  PXY d   1       0.950   3.955  -0.505  0.00  0.00    -0.082 A 
ATOM      4  C2  PXY d   1       0.810   3.216   0.584  0.00  0.00     0.003 A 
ATOM      5  C3  PXY d   1       0.931   1.852   0.516  0.00  0.00     0.003 A 
ATOM      6  C4  PXY d   1       1.143   1.234  -0.687  0.00  0.00    -0.082 A 
ATOM      7  C5  PXY d   1       1.276   1.980  -1.804  0.00  0.00     0.003 A 
ATOM      8  C6  PXY d   1       1.192   3.366  -1.707  0.00  0.00     0.003 A 
ENDROOT
TORSDOF 0
ENDMDL
