MODEL 1
REMARK minimizedAffinity -2.75909042
REMARK minimizedRMSD -1
REMARK  0 active torsions:
REMARK  status: ('A' for Active; 'I' for Inactive)
ROOT
ATOM      1  C4' PXY d   1       1.135   3.305   1.724  0.00  0.00     0.077 C 
ATOM      2  C1' PXY d   1       1.292  -1.648  -1.252  0.00  0.00     0.077 C 
ATOM      3  C1  PXY d   1       1.254  -0.355  -0.461  0.00  0.00    -0.082 A 
ATOM      4  C2  PXY d   1       0.490   0.643  -0.875  0.00  0.00     0.003 A 
ATOM      5  C3  PXY d   1       0.469   1.830  -0.189  0.00  0.00     0.003 A 
ATOM      6  C4  PXY d   1       1.196   1.979   0.962  0.00  0.00    -0.082 A 
ATOM      7  C5  PXY d   1       1.970   0.961   1.396  0.00  0.00     0.003 A 
ATOM      8  C6  PXY d   1       2.009  -0.221   0.663  0.00  0.00     0.003 A 
ENDROOT
TORSDOF 0
ENDMDL
