MODEL 1
REMARK minimizedAffinity -3.11280131
REMARK minimizedRMSD -1
REMARK  0 active torsions:
REMARK  status: ('A' for Active; 'I' for Inactive)
ROOT
ATOM      1  C4' PXY d   1       1.021   4.970  -0.398  0.00  0.00     0.077 C 
ATOM      2  C1' PXY d   1       1.066  -0.788  -0.911  0.00  0.00     0.077 C 
ATOM      3  C1  PXY d   1       1.059   0.723  -0.789  0.00  0.00    -0.082 A 
ATOM      4  C2  PXY d   1       1.135   1.283   0.408  0.00  0.00     0.003 A 
ATOM      5  C3  PXY d   1       1.097   2.647   0.539  0.00  0.00     0.003 A 
ATOM      6  C4  PXY d   1       1.035   3.449  -0.570  0.00  0.00    -0.082 A 
ATOM      7  C5  PXY d   1       0.967   2.885  -1.795  0.00  0.00     0.003 A 
ATOM      8  C6  PXY d   1       0.966   1.498  -1.904  0.00  0.00     0.003 A 
ENDROOT
TORSDOF 0
ENDMDL
