MODEL 1
REMARK minimizedAffinity 0.0103362193
REMARK minimizedRMSD -1
REMARK  0 active torsions:
REMARK  status: ('A' for Active; 'I' for Inactive)
ROOT
ATOM      1  C4' PXY d   1       1.330   4.313   0.462  0.00  0.00     0.077 C 
ATOM      2  C1' PXY d   1       0.960  -1.129  -1.453  0.00  0.00     0.077 C 
ATOM      3  C1  PXY d   1       1.055   0.294  -0.939  0.00  0.00    -0.082 A 
ATOM      4  C2  PXY d   1       0.797   1.303  -1.755  0.00  0.00     0.003 A 
ATOM      5  C3  PXY d   1       0.909   2.597  -1.315  0.00  0.00     0.003 A 
ATOM      6  C4  PXY d   1       1.237   2.859  -0.012  0.00  0.00    -0.082 A 
ATOM      7  C5  PXY d   1       1.492   1.835   0.830  0.00  0.00     0.003 A 
ATOM      8  C6  PXY d   1       1.412   0.530   0.353  0.00  0.00     0.003 A 
ENDROOT
TORSDOF 0
ENDMDL
