MODEL 1
REMARK minimizedAffinity 7.79791117
REMARK minimizedRMSD -1
REMARK  0 active torsions:
REMARK  status: ('A' for Active; 'I' for Inactive)
ROOT
ATOM      1  C4' PXY d   1       1.639   2.795   1.416  0.00  0.00     0.077 C 
ATOM      2  C1' PXY d   1       1.408  -0.252  -3.491  0.00  0.00     0.077 C 
ATOM      3  C1  PXY d   1       1.469   0.558  -2.211  0.00  0.00    -0.082 A 
ATOM      4  C2  PXY d   1       1.936   0.001  -1.106  0.00  0.00     0.003 A 
ATOM      5  C3  PXY d   1       1.968   0.709   0.068  0.00  0.00     0.003 A 
ATOM      6  C4  PXY d   1       1.568   2.018   0.099  0.00  0.00    -0.082 A 
ATOM      7  C5  PXY d   1       1.100   2.597  -1.027  0.00  0.00     0.003 A 
ATOM      8  C6  PXY d   1       1.037   1.849  -2.199  0.00  0.00     0.003 A 
ENDROOT
TORSDOF 0
ENDMDL
