MODEL 1
REMARK minimizedAffinity 2.11651039
REMARK minimizedRMSD -1
REMARK  0 active torsions:
REMARK  status: ('A' for Active; 'I' for Inactive)
ROOT
ATOM      1  C4' PXY d   1       1.237  -2.258   0.744  0.00  0.00     0.077 C 
ATOM      2  C1' PXY d   1       0.819   2.868  -1.896  0.00  0.00     0.077 C 
ATOM      3  C1  PXY d   1       0.937   1.529  -1.195  0.00  0.00    -0.082 A 
ATOM      4  C2  PXY d   1       0.754   0.413  -1.881  0.00  0.00     0.003 A 
ATOM      5  C3  PXY d   1       0.825  -0.805  -1.256  0.00  0.00     0.003 A 
ATOM      6  C4  PXY d   1       1.138  -0.884   0.075  0.00  0.00    -0.082 A 
ATOM      7  C5  PXY d   1       1.336   0.250   0.780  0.00  0.00     0.003 A 
ATOM      8  C6  PXY d   1       1.219   1.478   0.136  0.00  0.00     0.003 A 
ENDROOT
TORSDOF 0
ENDMDL
