MODEL 1
REMARK minimizedAffinity 3.05364442
REMARK minimizedRMSD -1
REMARK  0 active torsions:
REMARK  status: ('A' for Active; 'I' for Inactive)
ROOT
ATOM      1  C4' PXY d   1       1.258  -1.249   0.499  0.00  0.00     0.077 C 
ATOM      2  C1' PXY d   1       0.577   3.843  -2.151  0.00  0.00     0.077 C 
ATOM      3  C1  PXY d   1       0.756   2.501  -1.468  0.00  0.00    -0.082 A 
ATOM      4  C2  PXY d   1       0.320   2.335  -0.230  0.00  0.00     0.003 A 
ATOM      5  C3  PXY d   1       0.502   1.138   0.414  0.00  0.00     0.003 A 
ATOM      6  C4  PXY d   1       1.090   0.085  -0.234  0.00  0.00    -0.082 A 
ATOM      7  C5  PXY d   1       1.528   0.244  -1.501  0.00  0.00     0.003 A 
ATOM      8  C6  PXY d   1       1.370   1.479  -2.123  0.00  0.00     0.003 A 
ENDROOT
TORSDOF 0
ENDMDL
