MODEL 1
REMARK minimizedAffinity -0.734183609
REMARK minimizedRMSD -1
REMARK  0 active torsions:
REMARK  status: ('A' for Active; 'I' for Inactive)
ROOT
ATOM      1  C4' PXY d   1       1.326   4.504  -1.531  0.00  0.00     0.077 C 
ATOM      2  C1' PXY d   1       0.781  -1.033   0.036  0.00  0.00     0.077 C 
ATOM      3  C1  PXY d   1       0.932   0.416  -0.385  0.00  0.00    -0.082 A 
ATOM      4  C2  PXY d   1       0.718   1.378   0.497  0.00  0.00     0.003 A 
ATOM      5  C3  PXY d   1       0.818   2.694   0.125  0.00  0.00     0.003 A 
ATOM      6  C4  PXY d   1       1.195   3.028  -1.148  0.00  0.00    -0.082 A 
ATOM      7  C5  PXY d   1       1.426   2.051  -2.051  0.00  0.00     0.003 A 
ATOM      8  C6  PXY d   1       1.278   0.722  -1.665  0.00  0.00     0.003 A 
ENDROOT
TORSDOF 0
ENDMDL
