MODEL 1
REMARK minimizedAffinity -1.81626904
REMARK minimizedRMSD -1
REMARK  0 active torsions:
REMARK  status: ('A' for Active; 'I' for Inactive)
ROOT
ATOM      1  C4' PXY d   1       0.884   2.445  -2.133  0.00  0.00     0.077 C 
ATOM      2  C1' PXY d   1       1.111   0.593   3.338  0.00  0.00     0.077 C 
ATOM      3  C1  PXY d   1       1.056   1.067   1.899  0.00  0.00    -0.082 A 
ATOM      4  C2  PXY d   1       1.127   2.361   1.634  0.00  0.00     0.003 A 
ATOM      5  C3  PXY d   1       1.046   2.809   0.340  0.00  0.00     0.003 A 
ATOM      6  C4  PXY d   1       0.945   1.920  -0.696  0.00  0.00    -0.082 A 
ATOM      7  C5  PXY d   1       0.882   0.598  -0.434  0.00  0.00     0.003 A 
ATOM      8  C6  PXY d   1       0.924   0.166   0.889  0.00  0.00     0.003 A 
ENDROOT
TORSDOF 0
ENDMDL
