MODEL 1
REMARK minimizedAffinity 2.48570037
REMARK minimizedRMSD -1
REMARK  0 active torsions:
REMARK  status: ('A' for Active; 'I' for Inactive)
ROOT
ATOM      1  C4' PXY d   1      -2.079  -4.949   2.462  0.00  0.00     0.077 C 
ATOM      2  C1' PXY d   1       1.299  -2.374  -1.459  0.00  0.00     0.077 C 
ATOM      3  C1  PXY d   1       0.424  -3.053  -0.424  0.00  0.00    -0.082 A 
ATOM      4  C2  PXY d   1      -0.801  -3.431  -0.751  0.00  0.00     0.003 A 
ATOM      5  C3  PXY d   1      -1.618  -4.018   0.182  0.00  0.00     0.003 A 
ATOM      6  C4  PXY d   1      -1.157  -4.268   1.447  0.00  0.00    -0.082 A 
ATOM      7  C5  PXY d   1       0.096  -3.895   1.784  0.00  0.00     0.003 A 
ATOM      8  C6  PXY d   1       0.894  -3.263   0.835  0.00  0.00     0.003 A 
ENDROOT
TORSDOF 0
ENDMDL
