MODEL 1
REMARK minimizedAffinity 2.00193119
REMARK minimizedRMSD -1
REMARK  0 active torsions:
REMARK  status: ('A' for Active; 'I' for Inactive)
ROOT
ATOM      1  C4' PXY d   1       2.294  -3.167  -0.171  0.00  0.00     0.077 C 
ATOM      2  C1' PXY d   1       0.846   2.104  -2.050  0.00  0.00     0.077 C 
ATOM      3  C1  PXY d   1       1.216   0.716  -1.565  0.00  0.00    -0.082 A 
ATOM      4  C2  PXY d   1       1.844   0.574  -0.409  0.00  0.00     0.003 A 
ATOM      5  C3  PXY d   1       2.215  -0.671   0.030  0.00  0.00     0.003 A 
ATOM      6  C4  PXY d   1       1.893  -1.786  -0.696  0.00  0.00    -0.082 A 
ATOM      7  C5  PXY d   1       1.243  -1.650  -1.871  0.00  0.00     0.003 A 
ATOM      8  C6  PXY d   1       0.912  -0.374  -2.319  0.00  0.00     0.003 A 
ENDROOT
TORSDOF 0
ENDMDL
