MODEL 1
REMARK minimizedAffinity 3.18572783
REMARK minimizedRMSD -1
REMARK  0 active torsions:
REMARK  status: ('A' for Active; 'I' for Inactive)
ROOT
ATOM      1  C4' PXY d   1       1.232   3.363  -1.492  0.00  0.00     0.077 C 
ATOM      2  C1' PXY d   1       0.940  -2.087   0.413  0.00  0.00     0.077 C 
ATOM      3  C1  PXY d   1       1.013  -0.654  -0.075  0.00  0.00    -0.082 A 
ATOM      4  C2  PXY d   1       0.844  -0.391  -1.360  0.00  0.00     0.003 A 
ATOM      5  C3  PXY d   1       0.939   0.897  -1.823  0.00  0.00     0.003 A 
ATOM      6  C4  PXY d   1       1.157   1.931  -0.953  0.00  0.00    -0.082 A 
ATOM      7  C5  PXY d   1       1.320   1.672   0.361  0.00  0.00     0.003 A 
ATOM      8  C6  PXY d   1       1.261   0.354   0.805  0.00  0.00     0.003 A 
ENDROOT
TORSDOF 0
ENDMDL
