MODEL 1
REMARK minimizedAffinity -3.36357188
REMARK minimizedRMSD -1
REMARK  0 active torsions:
REMARK  status: ('A' for Active; 'I' for Inactive)
ROOT
ATOM      1  C4' PXY d   1       1.659   4.903  -0.795  0.00  0.00     0.077 C 
ATOM      2  C1' PXY d   1       0.454  -0.700  -0.044  0.00  0.00     0.077 C 
ATOM      3  C1  PXY d   1       0.774   0.767  -0.253  0.00  0.00    -0.082 A 
ATOM      4  C2  PXY d   1       0.999   1.543   0.795  0.00  0.00     0.003 A 
ATOM      5  C3  PXY d   1       1.259   2.878   0.625  0.00  0.00     0.003 A 
ATOM      6  C4  PXY d   1       1.341   3.414  -0.632  0.00  0.00    -0.082 A 
ATOM      7  C5  PXY d   1       1.123   2.627  -1.706  0.00  0.00     0.003 A 
ATOM      8  C6  PXY d   1       0.821   1.282  -1.512  0.00  0.00     0.003 A 
ENDROOT
TORSDOF 0
ENDMDL
