MODEL 1
REMARK minimizedAffinity -2.37062716
REMARK minimizedRMSD -1
REMARK  0 active torsions:
REMARK  status: ('A' for Active; 'I' for Inactive)
ROOT
ATOM      1  C4' PXY d   1       0.890   3.843  -0.960  0.00  0.00     0.077 C 
ATOM      2  C1' PXY d   1       1.165  -1.920  -0.611  0.00  0.00     0.077 C 
ATOM      3  C1  PXY d   1       1.091  -0.410  -0.716  0.00  0.00    -0.082 A 
ATOM      4  C2  PXY d   1       1.668   0.339   0.210  0.00  0.00     0.003 A 
ATOM      5  C3  PXY d   1       1.583   1.706   0.148  0.00  0.00     0.003 A 
ATOM      6  C4  PXY d   1       0.947   2.314  -0.900  0.00  0.00    -0.082 A 
ATOM      7  C5  PXY d   1       0.365   1.557  -1.855  0.00  0.00     0.003 A 
ATOM      8  C6  PXY d   1       0.427   0.171  -1.752  0.00  0.00     0.003 A 
ENDROOT
TORSDOF 0
ENDMDL
