MODEL 1
REMARK minimizedAffinity 3.43298984
REMARK minimizedRMSD -1
REMARK  0 active torsions:
REMARK  status: ('A' for Active; 'I' for Inactive)
ROOT
ATOM      1  C4' PXY d   1       2.637   2.789   2.844  0.00  0.00     0.077 C 
ATOM      2  C1' PXY d   1       0.630  -0.649  -1.348  0.00  0.00     0.077 C 
ATOM      3  C1  PXY d   1       1.154   0.263  -0.256  0.00  0.00    -0.082 A 
ATOM      4  C2  PXY d   1       2.028  -0.202   0.621  0.00  0.00     0.003 A 
ATOM      5  C3  PXY d   1       2.488   0.600   1.634  0.00  0.00     0.003 A 
ATOM      6  C4  PXY d   1       2.089   1.907   1.719  0.00  0.00    -0.082 A 
ATOM      7  C5  PXY d   1       1.205   2.392   0.821  0.00  0.00     0.003 A 
ATOM      8  C6  PXY d   1       0.719   1.550  -0.175  0.00  0.00     0.003 A 
ENDROOT
TORSDOF 0
ENDMDL
