MODEL 1
REMARK minimizedAffinity 9.10615158
REMARK minimizedRMSD -1
REMARK  0 active torsions:
REMARK  status: ('A' for Active; 'I' for Inactive)
ROOT
ATOM      1  C4' PXY d   1       1.697   5.997  -1.245  0.00  0.00     0.077 C 
ATOM      2  C1' PXY d   1       0.686   0.337  -1.841  0.00  0.00     0.077 C 
ATOM      3  C1  PXY d   1       0.944   1.821  -1.674  0.00  0.00    -0.082 A 
ATOM      4  C2  PXY d   1       1.228   2.560  -2.734  0.00  0.00     0.003 A 
ATOM      5  C3  PXY d   1       1.496   3.897  -2.597  0.00  0.00     0.003 A 
ATOM      6  C4  PXY d   1       1.420   4.496  -1.368  0.00  0.00    -0.082 A 
ATOM      7  C5  PXY d   1       1.120   3.752  -0.282  0.00  0.00     0.003 A 
ATOM      8  C6  PXY d   1       0.892   2.388  -0.438  0.00  0.00     0.003 A 
ENDROOT
TORSDOF 0
ENDMDL
