MODEL 1
REMARK minimizedAffinity 0.11626067
REMARK minimizedRMSD -1
REMARK  0 active torsions:
REMARK  status: ('A' for Active; 'I' for Inactive)
ROOT
ATOM      1  C   UNL d   1       3.504   5.958   5.998  0.00  0.00     0.172 C 
ATOM      2  N   UNL d   1       2.257   5.790   5.290  0.00  0.00    -0.070 N 
ATOM      3  C1  UNL d   1       2.071   5.971   3.946  0.00  0.00    -0.004 A 
ATOM      4  C2  UNL d   1       0.747   5.714   3.664  0.00  0.00    -0.047 A 
ATOM      5  C3  UNL d   1       0.115   5.366   4.881  0.00  0.00    -0.047 A 
ATOM      6  C4  UNL d   1       1.072   5.421   5.872  0.00  0.00    -0.004 A 
ENDROOT
TORSDOF 0
ENDMDL
