MODEL 1
REMARK minimizedAffinity -2.3382659
REMARK minimizedRMSD -1
REMARK  0 active torsions:
REMARK  status: ('A' for Active; 'I' for Inactive)
ROOT
ATOM      1  C   UNL d   1       1.257  -3.614   2.073  0.00  0.00     0.172 C 
ATOM      2  N   UNL d   1       0.350  -2.504   1.906  0.00  0.00    -0.070 N 
ATOM      3  C1  UNL d   1       0.379  -1.597   0.880  0.00  0.00    -0.004 A 
ATOM      4  C2  UNL d   1      -0.648  -0.699   1.081  0.00  0.00    -0.047 A 
ATOM      5  C3  UNL d   1      -1.316  -1.079   2.270  0.00  0.00    -0.047 A 
ATOM      6  C4  UNL d   1      -0.678  -2.199   2.759  0.00  0.00    -0.004 A 
ENDROOT
TORSDOF 0
ENDMDL
