MODEL 1
REMARK minimizedAffinity -2.34267378
REMARK minimizedRMSD -1
REMARK  0 active torsions:
REMARK  status: ('A' for Active; 'I' for Inactive)
ROOT
ATOM      1  C   UNL d   1       1.970  -4.325   2.245  0.00  0.00     0.172 C 
ATOM      2  N   UNL d   1       0.757  -3.781   2.809  0.00  0.00    -0.070 N 
ATOM      3  C1  UNL d   1      -0.321  -4.508   3.236  0.00  0.00    -0.004 A 
ATOM      4  C2  UNL d   1      -1.268  -3.624   3.706  0.00  0.00    -0.047 A 
ATOM      5  C3  UNL d   1      -0.741  -2.319   3.554  0.00  0.00    -0.047 A 
ATOM      6  C4  UNL d   1       0.514  -2.446   2.997  0.00  0.00    -0.004 A 
ENDROOT
TORSDOF 0
ENDMDL
