MODEL 1
REMARK minimizedAffinity 2.4091804
REMARK minimizedRMSD -1
REMARK  0 active torsions:
REMARK  status: ('A' for Active; 'I' for Inactive)
ROOT
ATOM      1  C   UNL d   1      -0.730  -1.977   2.570  0.00  0.00     0.172 C 
ATOM      2  N   UNL d   1      -0.222  -0.922   1.725  0.00  0.00    -0.070 N 
ATOM      3  C1  UNL d   1      -0.684  -0.609   0.475  0.00  0.00    -0.004 A 
ATOM      4  C2  UNL d   1       0.059   0.452   0.004  0.00  0.00    -0.047 A 
ATOM      5  C3  UNL d   1       1.001   0.788   1.005  0.00  0.00    -0.047 A 
ATOM      6  C4  UNL d   1       0.805  -0.079   2.060  0.00  0.00    -0.004 A 
ENDROOT
TORSDOF 0
ENDMDL
