MODEL 1
REMARK minimizedAffinity -1.36985421
REMARK minimizedRMSD -1
REMARK  0 active torsions:
REMARK  status: ('A' for Active; 'I' for Inactive)
ROOT
ATOM      1  C   UNL d   1       2.082  -3.461   2.184  0.00  0.00     0.172 C 
ATOM      2  N   UNL d   1       1.228  -2.371   1.773  0.00  0.00    -0.070 N 
ATOM      3  C1  UNL d   1       0.336  -1.710   2.574  0.00  0.00    -0.004 A 
ATOM      4  C2  UNL d   1      -0.279  -0.741   1.811  0.00  0.00    -0.047 A 
ATOM      5  C3  UNL d   1       0.262  -0.823   0.506  0.00  0.00    -0.047 A 
ATOM      6  C4  UNL d   1       1.193  -1.841   0.510  0.00  0.00    -0.004 A 
ENDROOT
TORSDOF 0
ENDMDL
