MODEL 1
REMARK minimizedAffinity -1.51148939
REMARK minimizedRMSD -1
REMARK  0 active torsions:
REMARK  status: ('A' for Active; 'I' for Inactive)
ROOT
ATOM      1  C   UNL d   1      -0.467  -1.476   2.233  0.00  0.00     0.172 C 
ATOM      2  N   UNL d   1      -0.745  -0.776   1.000  0.00  0.00    -0.070 N 
ATOM      3  C1  UNL d   1      -1.627  -1.181   0.034  0.00  0.00    -0.004 A 
ATOM      4  C2  UNL d   1      -1.603  -0.245  -0.978  0.00  0.00    -0.047 A 
ATOM      5  C3  UNL d   1      -0.674   0.756  -0.607  0.00  0.00    -0.047 A 
ATOM      6  C4  UNL d   1      -0.158   0.402   0.622  0.00  0.00    -0.004 A 
ENDROOT
TORSDOF 0
ENDMDL
