MODEL 1
REMARK minimizedAffinity -0.809828699
REMARK minimizedRMSD -1
REMARK  0 active torsions:
REMARK  status: ('A' for Active; 'I' for Inactive)
ROOT
ATOM      1  C   UNL d   1      -0.251   5.769   5.979  0.00  0.00     0.172 C 
ATOM      2  N   UNL d   1       1.040   5.847   5.338  0.00  0.00    -0.070 N 
ATOM      3  C1  UNL d   1       1.260   5.892   3.987  0.00  0.00    -0.004 A 
ATOM      4  C2  UNL d   1       2.621   5.963   3.783  0.00  0.00    -0.047 A 
ATOM      5  C3  UNL d   1       3.241   5.960   5.055  0.00  0.00    -0.047 A 
ATOM      6  C4  UNL d   1       2.239   5.887   6.000  0.00  0.00    -0.004 A 
ENDROOT
TORSDOF 0
ENDMDL
