MODEL 1
REMARK minimizedAffinity -0.0486865602
REMARK minimizedRMSD -1
REMARK  0 active torsions:
REMARK  status: ('A' for Active; 'I' for Inactive)
ROOT
ATOM      1  C   UNL d   1      -2.338   0.684   1.604  0.00  0.00     0.020 A 
ATOM      2  C1  UNL d   1      -1.126   1.353   1.775  0.00  0.00     0.020 A 
ATOM      3  C2  UNL d   1      -0.041   0.694   2.357  0.00  0.00     0.034 A 
ATOM      4  C3  UNL d   1      -0.165  -0.637   2.771  0.00  0.00     0.017 A 
ATOM      5  C4  UNL d   1      -1.382  -1.307   2.600  0.00  0.00     0.017 A 
ATOM      6  C5  UNL d   1      -2.465  -0.643   2.016  0.00  0.00     0.034 A 
ATOM      7 Cl   UNL d   1      -1.611  -2.950   3.086  0.00  0.00    -0.070 Cl
ATOM      8 Cl1  UNL d   1       1.218  -1.389   3.483  0.00  0.00    -0.070 Cl
ENDROOT
TORSDOF 0
ENDMDL
