MODEL 1
REMARK minimizedAffinity 0.45754236
REMARK minimizedRMSD -1
REMARK  0 active torsions:
REMARK  status: ('A' for Active; 'I' for Inactive)
ROOT
ATOM      1  C   UNL d   1      -0.449   0.131   3.067  0.00  0.00     0.020 A 
ATOM      2  C1  UNL d   1       0.356  -0.664   2.253  0.00  0.00     0.020 A 
ATOM      3  C2  UNL d   1      -0.106  -1.075   1.001  0.00  0.00     0.034 A 
ATOM      4  C3  UNL d   1      -1.378  -0.691   0.560  0.00  0.00     0.017 A 
ATOM      5  C4  UNL d   1      -2.186   0.107   1.378  0.00  0.00     0.017 A 
ATOM      6  C5  UNL d   1      -1.717   0.516   2.631  0.00  0.00     0.034 A 
ATOM      7 Cl   UNL d   1      -3.766   0.622   0.902  0.00  0.00    -0.070 Cl
ATOM      8 Cl1  UNL d   1      -1.885  -1.234  -1.000  0.00  0.00    -0.070 Cl
ENDROOT
TORSDOF 0
ENDMDL
