MODEL 1
REMARK minimizedAffinity 5.72454882
REMARK minimizedRMSD -1
REMARK  0 active torsions:
REMARK  status: ('A' for Active; 'I' for Inactive)
ROOT
ATOM      1  C   UNL d   1      -1.509  -1.349  -4.181  0.00  0.00     0.020 A 
ATOM      2  C1  UNL d   1      -1.477  -0.786  -5.456  0.00  0.00     0.020 A 
ATOM      3  C2  UNL d   1      -0.264  -0.356  -5.999  0.00  0.00     0.034 A 
ATOM      4  C3  UNL d   1       0.921  -0.488  -5.266  0.00  0.00     0.017 A 
ATOM      5  C4  UNL d   1       0.887  -1.054  -3.987  0.00  0.00     0.017 A 
ATOM      6  C5  UNL d   1      -0.330  -1.483  -3.448  0.00  0.00     0.034 A 
ATOM      7 Cl   UNL d   1       2.309  -1.250  -3.023  0.00  0.00    -0.070 Cl
ATOM      8 Cl1  UNL d   1       2.385   0.064  -6.000  0.00  0.00    -0.070 Cl
ENDROOT
TORSDOF 0
ENDMDL
