MODEL 1
REMARK minimizedAffinity 0.056686651
REMARK minimizedRMSD -1
REMARK  0 active torsions:
REMARK  status: ('A' for Active; 'I' for Inactive)
ROOT
ATOM      1  C   UNL d   1      -2.185  -1.808   2.755  0.00  0.00     0.020 A 
ATOM      2  C1  UNL d   1      -2.485  -0.766   1.878  0.00  0.00     0.020 A 
ATOM      3  C2  UNL d   1      -1.480   0.110   1.465  0.00  0.00     0.034 A 
ATOM      4  C3  UNL d   1      -0.170  -0.052   1.929  0.00  0.00     0.017 A 
ATOM      5  C4  UNL d   1       0.131  -1.098   2.810  0.00  0.00     0.017 A 
ATOM      6  C5  UNL d   1      -0.880  -1.973   3.220  0.00  0.00     0.034 A 
ATOM      7 Cl   UNL d   1       1.724  -1.362   3.425  0.00  0.00    -0.070 Cl
ATOM      8 Cl1  UNL d   1       1.023   1.069   1.377  0.00  0.00    -0.070 Cl
ENDROOT
TORSDOF 0
ENDMDL
