MODEL 1
REMARK minimizedAffinity 6.14329815
REMARK minimizedRMSD -1
REMARK  0 active torsions:
REMARK  status: ('A' for Active; 'I' for Inactive)
ROOT
ATOM      1  C   UNL d   1       1.430  -1.767   2.973  0.00  0.00     0.020 A 
ATOM      2  C1  UNL d   1       0.379  -2.683   2.921  0.00  0.00     0.020 A 
ATOM      3  C2  UNL d   1      -0.872  -2.283   2.447  0.00  0.00     0.034 A 
ATOM      4  C3  UNL d   1      -1.077  -0.965   2.025  0.00  0.00     0.017 A 
ATOM      5  C4  UNL d   1      -0.022  -0.046   2.078  0.00  0.00     0.017 A 
ATOM      6  C5  UNL d   1       1.229  -0.452   2.553  0.00  0.00     0.034 A 
ATOM      7 Cl   UNL d   1      -0.198   1.598   1.574  0.00  0.00    -0.070 Cl
ATOM      8 Cl1  UNL d   1      -2.650  -0.540   1.451  0.00  0.00    -0.070 Cl
ENDROOT
TORSDOF 0
ENDMDL
