MODEL 1
REMARK minimizedAffinity 7.88803387
REMARK minimizedRMSD -1
REMARK  0 active torsions:
REMARK  status: ('A' for Active; 'I' for Inactive)
ROOT
ATOM      1  C   UNL d   1       3.184  -1.730   5.730  0.00  0.00     0.020 A 
ATOM      2  C1  UNL d   1       4.240  -0.823   5.640  0.00  0.00     0.020 A 
ATOM      3  C2  UNL d   1       4.382  -0.026   4.503  0.00  0.00     0.034 A 
ATOM      4  C3  UNL d   1       3.466  -0.134   3.450  0.00  0.00     0.017 A 
ATOM      5  C4  UNL d   1       2.407  -1.043   3.540  0.00  0.00     0.017 A 
ATOM      6  C5  UNL d   1       2.270  -1.839   4.682  0.00  0.00     0.034 A 
ATOM      7 Cl   UNL d   1       1.237  -1.232   2.282  0.00  0.00    -0.070 Cl
ATOM      8 Cl1  UNL d   1       3.702   0.884   2.073  0.00  0.00    -0.070 Cl
ENDROOT
TORSDOF 0
ENDMDL
