MODEL 1
REMARK minimizedAffinity 1.11236846
REMARK minimizedRMSD -1
REMARK  0 active torsions:
REMARK  status: ('A' for Active; 'I' for Inactive)
ROOT
ATOM      1  C   UNL d   1       2.631  -0.297  -5.863  0.00  0.00     0.020 A 
ATOM      2  C1  UNL d   1       3.307  -1.199  -5.043  0.00  0.00     0.020 A 
ATOM      3  C2  UNL d   1       2.602  -1.950  -4.101  0.00  0.00     0.034 A 
ATOM      4  C3  UNL d   1       1.216  -1.800  -3.975  0.00  0.00     0.017 A 
ATOM      5  C4  UNL d   1       0.538  -0.894  -4.798  0.00  0.00     0.017 A 
ATOM      6  C5  UNL d   1       1.249  -0.144  -5.740  0.00  0.00     0.034 A 
ATOM      7 Cl   UNL d   1      -1.171  -0.654  -4.702  0.00  0.00    -0.070 Cl
ATOM      8 Cl1  UNL d   1       0.408  -2.762  -2.788  0.00  0.00    -0.070 Cl
ENDROOT
TORSDOF 0
ENDMDL
