MODEL 1
REMARK minimizedAffinity 4.7068696
REMARK minimizedRMSD -1
REMARK  0 active torsions:
REMARK  status: ('A' for Active; 'I' for Inactive)
ROOT
ATOM      1  C   UNL d   1       2.740  -0.830   4.848  0.00  0.00     0.020 A 
ATOM      2  C1  UNL d   1       1.586  -0.964   5.620  0.00  0.00     0.020 A 
ATOM      3  C2  UNL d   1       0.369  -1.273   5.009  0.00  0.00     0.034 A 
ATOM      4  C3  UNL d   1       0.303  -1.450   3.622  0.00  0.00     0.017 A 
ATOM      5  C4  UNL d   1       1.461  -1.315   2.848  0.00  0.00     0.017 A 
ATOM      6  C5  UNL d   1       2.677  -1.005   3.465  0.00  0.00     0.034 A 
ATOM      7 Cl   UNL d   1       1.458  -1.518   1.132  0.00  0.00    -0.070 Cl
ATOM      8 Cl1  UNL d   1      -1.235  -1.832   2.934  0.00  0.00    -0.070 Cl
ENDROOT
TORSDOF 0
ENDMDL
