MODEL 1
REMARK minimizedAffinity -1.47579062
REMARK minimizedRMSD -1
REMARK  0 active torsions:
REMARK  status: ('A' for Active; 'I' for Inactive)
ROOT
ATOM      1  C   UNL d   1      -1.972  -1.604  -0.948  0.00  0.00     0.020 A 
ATOM      2  C1  UNL d   1      -3.098  -0.991  -0.400  0.00  0.00     0.020 A 
ATOM      3  C2  UNL d   1      -3.006  -0.333   0.829  0.00  0.00     0.034 A 
ATOM      4  C3  UNL d   1      -1.786  -0.286   1.513  0.00  0.00     0.017 A 
ATOM      5  C4  UNL d   1      -0.657  -0.902   0.962  0.00  0.00     0.017 A 
ATOM      6  C5  UNL d   1      -0.754  -1.559  -0.268  0.00  0.00     0.034 A 
ATOM      7 Cl   UNL d   1       0.883  -0.886   1.748  0.00  0.00    -0.070 Cl
ATOM      8 Cl1  UNL d   1      -1.746   0.545   3.027  0.00  0.00    -0.070 Cl
ENDROOT
TORSDOF 0
ENDMDL
