MODEL 1
REMARK minimizedAffinity -0.757474065
REMARK minimizedRMSD -1
REMARK  0 active torsions:
REMARK  status: ('A' for Active; 'I' for Inactive)
ROOT
ATOM      1  C   UNL d   1      -3.449   0.304   0.823  0.00  0.00     0.020 A 
ATOM      2  C1  UNL d   1      -2.791  -0.669   0.070  0.00  0.00     0.020 A 
ATOM      3  C2  UNL d   1      -1.550  -1.154   0.488  0.00  0.00     0.034 A 
ATOM      4  C3  UNL d   1      -0.963  -0.667   1.661  0.00  0.00     0.017 A 
ATOM      5  C4  UNL d   1      -1.623   0.309   2.416  0.00  0.00     0.017 A 
ATOM      6  C5  UNL d   1      -2.866   0.791   1.994  0.00  0.00     0.034 A 
ATOM      7 Cl   UNL d   1      -0.961   0.957   3.875  0.00  0.00    -0.070 Cl
ATOM      8 Cl1  UNL d   1       0.574  -1.312   2.118  0.00  0.00    -0.070 Cl
ENDROOT
TORSDOF 0
ENDMDL
