MODEL 1
REMARK minimizedAffinity -3.56109095
REMARK minimizedRMSD -1
REMARK  0 active torsions:
REMARK  status: ('A' for Active; 'I' for Inactive)
ROOT
ATOM      1  C   UNL d   1      -2.455  -0.385   2.674  0.00  0.00     0.020 A 
ATOM      2  C1  UNL d   1      -1.141  -0.826   2.529  0.00  0.00     0.020 A 
ATOM      3  C2  UNL d   1      -0.601  -1.005   1.254  0.00  0.00     0.034 A 
ATOM      4  C3  UNL d   1      -1.376  -0.743   0.118  0.00  0.00     0.017 A 
ATOM      5  C4  UNL d   1      -2.696  -0.301   0.265  0.00  0.00     0.017 A 
ATOM      6  C5  UNL d   1      -3.231  -0.123   1.544  0.00  0.00     0.034 A 
ATOM      7 Cl   UNL d   1      -3.714   0.043  -1.089  0.00  0.00    -0.070 Cl
ATOM      8 Cl1  UNL d   1      -0.644  -0.985  -1.428  0.00  0.00    -0.070 Cl
ENDROOT
TORSDOF 0
ENDMDL
