MODEL 1
REMARK minimizedAffinity -4.49620438
REMARK minimizedRMSD -1
REMARK  3 active torsions:
REMARK  status: ('A' for Active; 'I' for Inactive)
REMARK    1  A    between atoms: C3'_2  and  C2'_3 
REMARK    2  A    between atoms: C2'_3  and  C1'_4 
REMARK    3  A    between atoms: C1'_4  and  C1_5 
ROOT
ATOM      1  C1  N4B d   1       0.132  -0.098   0.546  0.00  0.00    -0.075 A 
ATOM      2  C2  N4B d   1       0.665   0.726   1.562  0.00  0.00     0.002 A 
ATOM      3  C3  N4B d   1       0.334   0.496   2.875  0.00  0.00     0.002 A 
ATOM      4  C4  N4B d   1      -0.538  -0.534   3.193  0.00  0.00    -0.004 A 
ATOM      5  C5  N4B d   1      -1.028  -1.341   2.208  0.00  0.00     0.002 A 
ATOM      6  C6  N4B d   1      -0.701  -1.125   0.885  0.00  0.00     0.002 A 
ENDROOT
BRANCH   1   7
ATOM      7  C1' N4B d   1       0.396   0.167  -0.911  0.00  0.00     0.057 C 
BRANCH   7   8
ATOM      8  C2' N4B d   1      -0.455  -0.778  -1.754  0.00  0.00     0.009 C 
BRANCH   8   9
ATOM      9  C3' N4B d   1       0.392  -1.631  -2.682  0.00  0.00     0.004 C 
ATOM     10  C4' N4B d   1      -0.417  -2.631  -3.453  0.00  0.00     0.003 C 
ENDBRANCH   8   9
ENDBRANCH   7   8
ENDBRANCH   1   7
TORSDOF 3
ENDMDL
