MODEL 1
REMARK minimizedAffinity -3.10771441
REMARK minimizedRMSD -1
REMARK  3 active torsions:
REMARK  status: ('A' for Active; 'I' for Inactive)
REMARK    1  A    between atoms: C3'_2  and  C2'_3 
REMARK    2  A    between atoms: C2'_3  and  C1'_4 
REMARK    3  A    between atoms: C1'_4  and  C1_5 
ROOT
ATOM      1  C1  N4B d   1       0.060  -0.212   0.393  0.00  0.00    -0.075 A 
ATOM      2  C2  N4B d   1       1.270   0.295   0.915  0.00  0.00     0.002 A 
ATOM      3  C3  N4B d   1       1.377   0.570   2.257  0.00  0.00     0.002 A 
ATOM      4  C4  N4B d   1       0.286   0.364   3.088  0.00  0.00    -0.004 A 
ATOM      5  C5  N4B d   1      -0.871  -0.150   2.579  0.00  0.00     0.002 A 
ATOM      6  C6  N4B d   1      -0.991  -0.435   1.234  0.00  0.00     0.002 A 
ENDROOT
BRANCH   1   7
ATOM      7  C1' N4B d   1      -0.131  -0.447  -1.081  0.00  0.00     0.057 C 
BRANCH   7   8
ATOM      8  C2' N4B d   1       1.187  -0.189  -1.805  0.00  0.00     0.009 C 
BRANCH   8   9
ATOM      9  C3' N4B d   1       1.646  -1.401  -2.598  0.00  0.00     0.004 C 
ATOM     10  C4' N4B d   1       0.532  -2.052  -3.361  0.00  0.00     0.003 C 
ENDBRANCH   8   9
ENDBRANCH   7   8
ENDBRANCH   1   7
TORSDOF 3
ENDMDL
