MODEL 1
REMARK minimizedAffinity -5.46301746
REMARK minimizedRMSD -1
REMARK  3 active torsions:
REMARK  status: ('A' for Active; 'I' for Inactive)
REMARK    1  A    between atoms: C3'_2  and  C2'_3 
REMARK    2  A    between atoms: C2'_3  and  C1'_4 
REMARK    3  A    between atoms: C1'_4  and  C1_5 
ROOT
ATOM      1  C1  N4B d   1      -0.121   0.215  -0.132  0.00  0.00    -0.075 A 
ATOM      2  C2  N4B d   1       0.952   0.692   0.652  0.00  0.00     0.002 A 
ATOM      3  C3  N4B d   1       1.029   0.363   1.983  0.00  0.00     0.002 A 
ATOM      4  C4  N4B d   1       0.038  -0.422   2.554  0.00  0.00    -0.004 A 
ATOM      5  C5  N4B d   1      -0.981  -0.900   1.784  0.00  0.00     0.002 A 
ATOM      6  C6  N4B d   1      -1.069  -0.581   0.444  0.00  0.00     0.002 A 
ENDROOT
BRANCH   1   7
ATOM      7  C1' N4B d   1      -0.294   0.618  -1.571  0.00  0.00     0.057 C 
BRANCH   7   8
ATOM      8  C2' N4B d   1       0.918   0.150  -2.371  0.00  0.00     0.009 C 
BRANCH   8   9
ATOM      9  C3' N4B d   1       0.593  -1.050  -3.244  0.00  0.00     0.004 C 
ATOM     10  C4' N4B d   1       1.801  -1.881  -3.562  0.00  0.00     0.003 C 
ENDBRANCH   8   9
ENDBRANCH   7   8
ENDBRANCH   1   7
TORSDOF 3
ENDMDL
