MODEL 1
REMARK minimizedAffinity -6.05132151
REMARK minimizedRMSD -1
REMARK  3 active torsions:
REMARK  status: ('A' for Active; 'I' for Inactive)
REMARK    1  A    between atoms: C3'_2  and  C2'_3 
REMARK    2  A    between atoms: C2'_3  and  C1'_4 
REMARK    3  A    between atoms: C1'_4  and  C1_5 
ROOT
ATOM      1  C1  N4B d   1       0.553   0.380   1.009  0.00  0.00    -0.075 A 
ATOM      2  C2  N4B d   1       1.279   0.755   2.161  0.00  0.00     0.002 A 
ATOM      3  C3  N4B d   1       0.803   0.432   3.408  0.00  0.00     0.002 A 
ATOM      4  C4  N4B d   1      -0.400  -0.246   3.528  0.00  0.00    -0.004 A 
ATOM      5  C5  N4B d   1      -1.083  -0.627   2.410  0.00  0.00     0.002 A 
ATOM      6  C6  N4B d   1      -0.614  -0.313   1.150  0.00  0.00     0.002 A 
ENDROOT
BRANCH   1   7
ATOM      7  C1' N4B d   1       0.989   0.786  -0.372  0.00  0.00     0.057 C 
BRANCH   7   8
ATOM      8  C2' N4B d   1      -0.218   0.767  -1.305  0.00  0.00     0.009 C 
BRANCH   8   9
ATOM      9  C3' N4B d   1       0.192   0.647  -2.763  0.00  0.00     0.004 C 
ATOM     10  C4' N4B d   1       0.743  -0.706  -3.101  0.00  0.00     0.003 C 
ENDBRANCH   8   9
ENDBRANCH   7   8
ENDBRANCH   1   7
TORSDOF 3
ENDMDL
