MODEL 1
REMARK minimizedAffinity -5.807302
REMARK minimizedRMSD -1
REMARK  3 active torsions:
REMARK  status: ('A' for Active; 'I' for Inactive)
REMARK    1  A    between atoms: C3'_2  and  C2'_3 
REMARK    2  A    between atoms: C2'_3  and  C1'_4 
REMARK    3  A    between atoms: C1'_4  and  C1_5 
ROOT
ATOM      1  C1  N4B d   1       0.117   0.170  -0.410  0.00  0.00    -0.075 A 
ATOM      2  C2  N4B d   1       1.301   0.211   0.359  0.00  0.00     0.002 A 
ATOM      3  C3  N4B d   1       1.266  -0.122   1.691  0.00  0.00     0.002 A 
ATOM      4  C4  N4B d   1       0.060  -0.480   2.277  0.00  0.00    -0.004 A 
ATOM      5  C5  N4B d   1      -1.073  -0.541   1.521  0.00  0.00     0.002 A 
ATOM      6  C6  N4B d   1      -1.052  -0.213   0.181  0.00  0.00     0.002 A 
ENDROOT
BRANCH   1   7
ATOM      7  C1' N4B d   1       0.090   0.608  -1.849  0.00  0.00     0.057 C 
BRANCH   7   8
ATOM      8  C2' N4B d   1       1.201  -0.108  -2.612  0.00  0.00     0.009 C 
BRANCH   8   9
ATOM      9  C3' N4B d   1       0.676  -1.303  -3.390  0.00  0.00     0.004 C 
ATOM     10  C4' N4B d   1       1.619  -2.468  -3.370  0.00  0.00     0.003 C 
ENDBRANCH   8   9
ENDBRANCH   7   8
ENDBRANCH   1   7
TORSDOF 3
ENDMDL
