MODEL 1
REMARK minimizedAffinity -5.65742779
REMARK minimizedRMSD -1
REMARK  3 active torsions:
REMARK  status: ('A' for Active; 'I' for Inactive)
REMARK    1  A    between atoms: C3'_2  and  C2'_3 
REMARK    2  A    between atoms: C2'_3  and  C1'_4 
REMARK    3  A    between atoms: C1'_4  and  C1_5 
ROOT
ATOM      1  C1  N4B d   1       0.094  -0.339   0.184  0.00  0.00    -0.075 A 
ATOM      2  C2  N4B d   1       1.115   0.201   0.996  0.00  0.00     0.002 A 
ATOM      3  C3  N4B d   1       1.063   0.045   2.360  0.00  0.00     0.002 A 
ATOM      4  C4  N4B d   1      -0.005  -0.630   2.932  0.00  0.00    -0.004 A 
ATOM      5  C5  N4B d   1      -0.974  -1.171   2.139  0.00  0.00     0.002 A 
ATOM      6  C6  N4B d   1      -0.933  -1.024   0.767  0.00  0.00     0.002 A 
ENDROOT
BRANCH   1   7
ATOM      7  C1' N4B d   1       0.063  -0.120  -1.304  0.00  0.00     0.057 C 
BRANCH   7   8
ATOM      8  C2' N4B d   1       1.489  -0.155  -1.845  0.00  0.00     0.009 C 
BRANCH   8   9
ATOM      9  C3' N4B d   1       1.676  -1.249  -2.881  0.00  0.00     0.004 C 
ATOM     10  C4' N4B d   1       0.384  -1.893  -3.286  0.00  0.00     0.003 C 
ENDBRANCH   8   9
ENDBRANCH   7   8
ENDBRANCH   1   7
TORSDOF 3
ENDMDL
