MODEL 1
REMARK minimizedAffinity 2.31489205
REMARK minimizedRMSD -1
REMARK  0 active torsions:
REMARK  status: ('A' for Active; 'I' for Inactive)
ROOT
ATOM      1  O1  BZF d   1      -0.689  -2.260   4.496  0.00  0.00    -0.204 OA
ATOM      2  C2  BZF d   1       0.568  -1.698   4.384  0.00  0.00     0.174 A 
ATOM      3  C3  BZF d   1       1.512  -2.540   4.850  0.00  0.00    -0.012 A 
ATOM      4  C3A BZF d   1       0.811  -3.738   5.196  0.00  0.00    -0.107 A 
ATOM      5  C4  BZF d   1       1.204  -4.945   5.699  0.00  0.00     0.055 A 
ATOM      6  C5  BZF d   1       0.261  -5.878   5.993  0.00  0.00    -0.016 A 
ATOM      7  C6  BZF d   1      -1.084  -5.636   5.801  0.00  0.00     0.022 A 
ATOM      8  C7  BZF d   1      -1.522  -4.456   5.299  0.00  0.00     0.029 A 
ATOM      9  C7A BZF d   1      -0.569  -3.523   4.971  0.00  0.00     0.058 A 
ENDROOT
TORSDOF 0
ENDMDL
