MODEL 1
REMARK minimizedAffinity 1.67345095
REMARK minimizedRMSD -1
REMARK  0 active torsions:
REMARK  status: ('A' for Active; 'I' for Inactive)
ROOT
ATOM      1  O1  BZF d   1      -0.959  -1.091   5.653  0.00  0.00    -0.204 OA
ATOM      2  C2  BZF d   1       0.012  -0.265   5.121  0.00  0.00     0.174 A 
ATOM      3  C3  BZF d   1       1.097  -0.978   4.753  0.00  0.00    -0.012 A 
ATOM      4  C3A BZF d   1       0.746  -2.345   4.990  0.00  0.00    -0.107 A 
ATOM      5  C4  BZF d   1       1.404  -3.528   4.807  0.00  0.00     0.055 A 
ATOM      6  C5  BZF d   1       0.810  -4.683   5.208  0.00  0.00    -0.016 A 
ATOM      7  C6  BZF d   1      -0.436  -4.691   5.800  0.00  0.00     0.022 A 
ATOM      8  C7  BZF d   1      -1.129  -3.543   5.999  0.00  0.00     0.029 A 
ATOM      9  C7A BZF d   1      -0.546  -2.378   5.564  0.00  0.00     0.058 A 
ENDROOT
TORSDOF 0
ENDMDL
