MODEL 1
REMARK minimizedAffinity -3.25997353
REMARK minimizedRMSD -1
REMARK  0 active torsions:
REMARK  status: ('A' for Active; 'I' for Inactive)
ROOT
ATOM      1  O1  BZF d   1      -3.140   5.986   1.882  0.00  0.00    -0.204 OA
ATOM      2  C2  BZF d   1      -4.115   5.999   0.903  0.00  0.00     0.174 A 
ATOM      3  C3  BZF d   1      -5.346   5.942   1.453  0.00  0.00    -0.012 A 
ATOM      4  C3A BZF d   1      -5.129   5.982   2.867  0.00  0.00    -0.107 A 
ATOM      5  C4  BZF d   1      -5.966   5.972   3.945  0.00  0.00     0.055 A 
ATOM      6  C5  BZF d   1      -5.432   5.947   5.195  0.00  0.00    -0.016 A 
ATOM      7  C6  BZF d   1      -4.068   5.927   5.402  0.00  0.00     0.022 A 
ATOM      8  C7  BZF d   1      -3.198   5.941   4.363  0.00  0.00     0.029 A 
ATOM      9  C7A BZF d   1      -3.734   6.000   3.100  0.00  0.00     0.058 A 
ENDROOT
TORSDOF 0
ENDMDL
