MODEL 1
REMARK minimizedAffinity 3.20028806
REMARK minimizedRMSD -1
REMARK  0 active torsions:
REMARK  status: ('A' for Active; 'I' for Inactive)
ROOT
ATOM      1  O1  BZF d   1      -3.874   5.999   5.143  0.00  0.00    -0.204 OA
ATOM      2  C2  BZF d   1      -5.208   5.973   5.504  0.00  0.00     0.174 A 
ATOM      3  C3  BZF d   1      -5.999   5.984   4.412  0.00  0.00    -0.012 A 
ATOM      4  C3A BZF d   1      -5.103   5.925   3.297  0.00  0.00    -0.107 A 
ATOM      5  C4  BZF d   1      -5.288   5.892   1.945  0.00  0.00     0.055 A 
ATOM      6  C5  BZF d   1      -4.201   5.911   1.129  0.00  0.00    -0.016 A 
ATOM      7  C6  BZF d   1      -2.918   5.969   1.631  0.00  0.00     0.022 A 
ATOM      8  C7  BZF d   1      -2.684   5.999   2.965  0.00  0.00     0.029 A 
ATOM      9  C7A BZF d   1      -3.779   5.946   3.793  0.00  0.00     0.058 A 
ENDROOT
TORSDOF 0
ENDMDL
