MODEL 1
REMARK minimizedAffinity 5.29161644
REMARK minimizedRMSD -1
REMARK  0 active torsions:
REMARK  status: ('A' for Active; 'I' for Inactive)
ROOT
ATOM      1  O1  BZF d   1      -3.764   5.930   4.574  0.00  0.00    -0.204 OA
ATOM      2  C2  BZF d   1      -5.005   5.861   5.179  0.00  0.00     0.174 A 
ATOM      3  C3  BZF d   1      -5.987   5.862   4.255  0.00  0.00    -0.012 A 
ATOM      4  C3A BZF d   1      -5.316   5.843   2.992  0.00  0.00    -0.107 A 
ATOM      5  C4  BZF d   1      -5.752   5.821   1.697  0.00  0.00     0.055 A 
ATOM      6  C5  BZF d   1      -4.839   5.881   0.692  0.00  0.00    -0.016 A 
ATOM      7  C6  BZF d   1      -3.486   5.971   0.945  0.00  0.00     0.022 A 
ATOM      8  C7  BZF d   1      -3.006   5.991   2.212  0.00  0.00     0.029 A 
ATOM      9  C7A BZF d   1      -3.923   5.896   3.230  0.00  0.00     0.058 A 
ENDROOT
TORSDOF 0
ENDMDL
