MODEL 1
REMARK minimizedAffinity 10.131093
REMARK minimizedRMSD -1
REMARK  0 active torsions:
REMARK  status: ('A' for Active; 'I' for Inactive)
ROOT
ATOM      1  O1  BZF d   1      -3.834   5.992   4.282  0.00  0.00    -0.204 OA
ATOM      2  C2  BZF d   1      -5.142   6.000   4.726  0.00  0.00     0.174 A 
ATOM      3  C3  BZF d   1      -6.000   5.899   3.690  0.00  0.00    -0.012 A 
ATOM      4  C3A BZF d   1      -5.175   5.731   2.533  0.00  0.00    -0.107 A 
ATOM      5  C4  BZF d   1      -5.443   5.561   1.205  0.00  0.00     0.055 A 
ATOM      6  C5  BZF d   1      -4.410   5.501   0.325  0.00  0.00    -0.016 A 
ATOM      7  C6  BZF d   1      -3.098   5.612   0.736  0.00  0.00     0.022 A 
ATOM      8  C7  BZF d   1      -2.782   5.777   2.044  0.00  0.00     0.029 A 
ATOM      9  C7A BZF d   1      -3.823   5.805   2.940  0.00  0.00     0.058 A 
ENDROOT
TORSDOF 0
ENDMDL
