MODEL 1
REMARK minimizedAffinity 3.34939456
REMARK minimizedRMSD -1
REMARK  0 active torsions:
REMARK  status: ('A' for Active; 'I' for Inactive)
ROOT
ATOM      1  O1  BZF d   1       3.804   2.160  -1.004  0.00  0.00    -0.204 OA
ATOM      2  C2  BZF d   1       5.066   2.655  -1.270  0.00  0.00     0.174 A 
ATOM      3  C3  BZF d   1       5.999   1.994  -0.555  0.00  0.00    -0.012 A 
ATOM      4  C3A BZF d   1       5.285   0.965   0.135  0.00  0.00    -0.107 A 
ATOM      5  C4  BZF d   1       5.665  -0.029   0.992  0.00  0.00     0.055 A 
ATOM      6  C5  BZF d   1       4.712  -0.822   1.548  0.00  0.00    -0.016 A 
ATOM      7  C6  BZF d   1       3.371  -0.646   1.275  0.00  0.00     0.022 A 
ATOM      8  C7  BZF d   1       2.946   0.323   0.428  0.00  0.00     0.029 A 
ATOM      9  C7A BZF d   1       3.910   1.105  -0.162  0.00  0.00     0.058 A 
ENDROOT
TORSDOF 0
ENDMDL
