MODEL 1
REMARK minimizedAffinity -4.96618176
REMARK minimizedRMSD -1
REMARK  1 active torsions:
REMARK  status: ('A' for Active; 'I' for Inactive)
REMARK    1  A    between atoms: C1_2  and  C2_3 
ROOT
ATOM      1  C2  UNL d   1      -0.347  -0.292   0.083  0.00  0.00    -0.073 A 
ATOM      2  C3  UNL d   1      -1.187   0.235   1.071  0.00  0.00    -0.002 A 
ATOM      3  C4  UNL d   1      -0.751   1.287   1.879  0.00  0.00     0.004 A 
ATOM      4  C5  UNL d   1       0.524   1.825   1.703  0.00  0.00    -0.004 A 
ATOM      5  C6  UNL d   1       1.373   1.319   0.713  0.00  0.00    -0.075 A 
ATOM      6  C7  UNL d   1       2.748   1.886   0.512  0.00  0.00     0.076 C 
ATOM      7  C8  UNL d   1       0.929   0.262  -0.092  0.00  0.00     0.001 A 
ENDROOT
BRANCH   1   8
ATOM      8  C1  UNL d   1      -0.816  -1.423  -0.795  0.00  0.00     0.053 C 
ATOM      9  C   UNL d   1      -2.150  -1.116  -1.456  0.00  0.00     0.018 C 
ENDBRANCH   1   8
TORSDOF 1
ENDMDL
