MODEL 1
REMARK minimizedAffinity -5.22972107
REMARK minimizedRMSD -1
REMARK  1 active torsions:
REMARK  status: ('A' for Active; 'I' for Inactive)
REMARK    1  A    between atoms: C1_2  and  C2_3 
ROOT
ATOM      1  C2  UNL d   1       0.041   0.189   0.077  0.00  0.00    -0.073 A 
ATOM      2  C3  UNL d   1      -0.963   0.508   0.998  0.00  0.00    -0.002 A 
ATOM      3  C4  UNL d   1      -0.745   1.490   1.965  0.00  0.00     0.004 A 
ATOM      4  C5  UNL d   1       0.473   2.168   2.016  0.00  0.00    -0.004 A 
ATOM      5  C6  UNL d   1       1.484   1.871   1.096  0.00  0.00    -0.075 A 
ATOM      6  C7  UNL d   1       2.801   2.589   1.139  0.00  0.00     0.076 C 
ATOM      7  C8  UNL d   1       1.259   0.882   0.130  0.00  0.00     0.001 A 
ENDROOT
BRANCH   1   8
ATOM      8  C1  UNL d   1      -0.191  -0.867  -0.973  0.00  0.00     0.053 C 
ATOM      9  C   UNL d   1      -1.640  -1.328  -1.007  0.00  0.00     0.018 C 
ENDBRANCH   1   8
TORSDOF 1
ENDMDL
