MODEL 1
REMARK minimizedAffinity -3.78148532
REMARK minimizedRMSD -1
REMARK  1 active torsions:
REMARK  status: ('A' for Active; 'I' for Inactive)
REMARK    1  A    between atoms: C1_2  and  C2_3 
ROOT
ATOM      1  C2  UNL d   1       0.384   0.337   0.341  0.00  0.00    -0.073 A 
ATOM      2  C3  UNL d   1       1.234  -0.443  -0.451  0.00  0.00    -0.002 A 
ATOM      3  C4  UNL d   1       2.567  -0.070  -0.633  0.00  0.00     0.004 A 
ATOM      4  C5  UNL d   1       3.064   1.081  -0.022  0.00  0.00    -0.004 A 
ATOM      5  C6  UNL d   1       2.232   1.867   0.783  0.00  0.00    -0.075 A 
ATOM      6  C7  UNL d   1       2.751   3.109   1.446  0.00  0.00     0.076 C 
ATOM      7  C8  UNL d   1       0.895   1.488   0.959  0.00  0.00     0.001 A 
ENDROOT
BRANCH   1   8
ATOM      8  C1  UNL d   1      -1.054  -0.065   0.546  0.00  0.00     0.053 C 
ATOM      9  C   UNL d   1      -1.272  -0.734   1.894  0.00  0.00     0.018 C 
ENDBRANCH   1   8
TORSDOF 1
ENDMDL
