MODEL 1
REMARK minimizedAffinity -5.0504427
REMARK minimizedRMSD -1
REMARK  1 active torsions:
REMARK  status: ('A' for Active; 'I' for Inactive)
REMARK    1  A    between atoms: C1_2  and  C2_3 
ROOT
ATOM      1  C2  UNL d   1      -0.835  -1.328  -1.619  0.00  0.00    -0.073 A 
ATOM      2  C3  UNL d   1       0.495  -1.739  -1.476  0.00  0.00    -0.002 A 
ATOM      3  C4  UNL d   1       1.252  -1.310  -0.386  0.00  0.00     0.004 A 
ATOM      4  C5  UNL d   1       0.687  -0.472   0.576  0.00  0.00    -0.004 A 
ATOM      5  C6  UNL d   1      -0.644  -0.060   0.457  0.00  0.00    -0.075 A 
ATOM      6  C7  UNL d   1      -1.267   0.842   1.482  0.00  0.00     0.076 C 
ATOM      7  C8  UNL d   1      -1.398  -0.494  -0.642  0.00  0.00     0.001 A 
ENDROOT
BRANCH   1   8
ATOM      8  C1  UNL d   1      -1.659  -1.794  -2.791  0.00  0.00     0.053 C 
ATOM      9  C   UNL d   1      -2.771  -0.815  -3.132  0.00  0.00     0.018 C 
ENDBRANCH   1   8
TORSDOF 1
ENDMDL
