MODEL 1
REMARK minimizedAffinity -4.65172434
REMARK minimizedRMSD -1
REMARK  1 active torsions:
REMARK  status: ('A' for Active; 'I' for Inactive)
REMARK    1  A    between atoms: C1_2  and  C2_3 
ROOT
ATOM      1  C2  UNL d   1       0.536  -0.093   0.135  0.00  0.00    -0.073 A 
ATOM      2  C3  UNL d   1      -0.472   0.021   1.099  0.00  0.00    -0.002 A 
ATOM      3  C4  UNL d   1      -0.460   1.079   2.009  0.00  0.00     0.004 A 
ATOM      4  C5  UNL d   1       0.554   2.036   1.960  0.00  0.00    -0.004 A 
ATOM      5  C6  UNL d   1       1.563   1.946   0.996  0.00  0.00    -0.075 A 
ATOM      6  C7  UNL d   1       2.662   2.965   0.931  0.00  0.00     0.076 C 
ATOM      7  C8  UNL d   1       1.546   0.879   0.088  0.00  0.00     0.001 A 
ENDROOT
BRANCH   1   8
ATOM      8  C1  UNL d   1       0.524  -1.230  -0.854  0.00  0.00     0.053 C 
ATOM      9  C   UNL d   1      -0.887  -1.584  -1.298  0.00  0.00     0.018 C 
ENDBRANCH   1   8
TORSDOF 1
ENDMDL
