MODEL 1
REMARK minimizedAffinity -5.6446023
REMARK minimizedRMSD -1
REMARK  1 active torsions:
REMARK  status: ('A' for Active; 'I' for Inactive)
REMARK    1  A    between atoms: C1_2  and  C2_3 
ROOT
ATOM      1  C2  UNL d   1       0.193  -0.135   0.118  0.00  0.00    -0.073 A 
ATOM      2  C3  UNL d   1       1.256  -0.730  -0.569  0.00  0.00    -0.002 A 
ATOM      3  C4  UNL d   1       2.498  -0.097  -0.632  0.00  0.00     0.004 A 
ATOM      4  C5  UNL d   1       2.692   1.133  -0.003  0.00  0.00    -0.004 A 
ATOM      5  C6  UNL d   1       1.645   1.738   0.699  0.00  0.00    -0.075 A 
ATOM      6  C7  UNL d   1       1.836   3.062   1.379  0.00  0.00     0.076 C 
ATOM      7  C8  UNL d   1       0.400   1.097   0.755  0.00  0.00     0.001 A 
ENDROOT
BRANCH   1   8
ATOM      8  C1  UNL d   1      -1.148  -0.818   0.195  0.00  0.00     0.053 C 
ATOM      9  C   UNL d   1      -1.483  -1.560  -1.089  0.00  0.00     0.018 C 
ENDBRANCH   1   8
TORSDOF 1
ENDMDL
