MODEL 1
REMARK minimizedAffinity -3.93054008
REMARK minimizedRMSD -1
REMARK  1 active torsions:
REMARK  status: ('A' for Active; 'I' for Inactive)
REMARK    1  A    between atoms: C1_2  and  C2_3 
ROOT
ATOM      1  C2  UNL d   1      -0.154  -0.498  -0.096  0.00  0.00    -0.073 A 
ATOM      2  C3  UNL d   1      -0.961  -0.004   0.935  0.00  0.00    -0.002 A 
ATOM      3  C4  UNL d   1      -0.435   0.873   1.885  0.00  0.00     0.004 A 
ATOM      4  C5  UNL d   1       0.899   1.270   1.810  0.00  0.00    -0.004 A 
ATOM      5  C6  UNL d   1       1.719   0.798   0.780  0.00  0.00    -0.075 A 
ATOM      6  C7  UNL d   1       3.158   1.214   0.686  0.00  0.00     0.076 C 
ATOM      7  C8  UNL d   1       1.184  -0.085  -0.168  0.00  0.00     0.001 A 
ENDROOT
BRANCH   1   8
ATOM      8  C1  UNL d   1      -0.719  -1.440  -1.127  0.00  0.00     0.053 C 
ATOM      9  C   UNL d   1      -1.455  -0.699  -2.233  0.00  0.00     0.018 C 
ENDBRANCH   1   8
TORSDOF 1
ENDMDL
