MODEL 1
REMARK minimizedAffinity -5.7365489
REMARK minimizedRMSD -1
REMARK  1 active torsions:
REMARK  status: ('A' for Active; 'I' for Inactive)
REMARK    1  A    between atoms: C1_2  and  C2_3 
ROOT
ATOM      1  C2  UNL d   1       1.041   0.371   0.491  0.00  0.00    -0.073 A 
ATOM      2  C3  UNL d   1       2.104  -0.255  -0.169  0.00  0.00    -0.002 A 
ATOM      3  C4  UNL d   1       3.323   0.406  -0.329  0.00  0.00     0.004 A 
ATOM      4  C5  UNL d   1       3.493   1.696   0.174  0.00  0.00    -0.004 A 
ATOM      5  C6  UNL d   1       2.446   2.334   0.847  0.00  0.00    -0.075 A 
ATOM      6  C7  UNL d   1       2.612   3.722   1.393  0.00  0.00     0.076 C 
ATOM      7  C8  UNL d   1       1.225   1.664   1.002  0.00  0.00     0.001 A 
ENDROOT
BRANCH   1   8
ATOM      8  C1  UNL d   1      -0.274  -0.341   0.672  0.00  0.00     0.053 C 
ATOM      9  C   UNL d   1      -0.540  -1.339  -0.444  0.00  0.00     0.018 C 
ENDBRANCH   1   8
TORSDOF 1
ENDMDL
