MODEL 1
REMARK minimizedAffinity -5.83803415
REMARK minimizedRMSD -1
REMARK  1 active torsions:
REMARK  status: ('A' for Active; 'I' for Inactive)
REMARK    1  A    between atoms: C1_2  and  C2_3 
ROOT
ATOM      1  C2  UNL d   1       0.370   1.262   0.917  0.00  0.00    -0.073 A 
ATOM      2  C3  UNL d   1       0.799   0.565  -0.219  0.00  0.00    -0.002 A 
ATOM      3  C4  UNL d   1       0.309  -0.714  -0.487  0.00  0.00     0.004 A 
ATOM      4  C5  UNL d   1      -0.618  -1.305   0.370  0.00  0.00    -0.004 A 
ATOM      5  C6  UNL d   1      -1.068  -0.620   1.503  0.00  0.00    -0.075 A 
ATOM      6  C7  UNL d   1      -2.064  -1.243   2.437  0.00  0.00     0.076 C 
ATOM      7  C8  UNL d   1      -0.570   0.663   1.768  0.00  0.00     0.001 A 
ENDROOT
BRANCH   1   8
ATOM      8  C1  UNL d   1       0.891   2.645   1.208  0.00  0.00     0.053 C 
ATOM      9  C   UNL d   1       2.410   2.702   1.171  0.00  0.00     0.018 C 
ENDBRANCH   1   8
TORSDOF 1
ENDMDL
