MODEL 1
REMARK minimizedAffinity -4.26579809
REMARK minimizedRMSD -1
REMARK  1 active torsions:
REMARK  status: ('A' for Active; 'I' for Inactive)
REMARK    1  A    between atoms: C1_2  and  C2_3 
ROOT
ATOM      1  C2  UNL d   1       1.390   1.196   1.049  0.00  0.00    -0.073 A 
ATOM      2  C3  UNL d   1       2.618   1.001   0.408  0.00  0.00    -0.002 A 
ATOM      3  C4  UNL d   1       2.763  -0.008  -0.546  0.00  0.00     0.004 A 
ATOM      4  C5  UNL d   1       1.681  -0.826  -0.872  0.00  0.00    -0.004 A 
ATOM      5  C6  UNL d   1       0.443  -0.639  -0.250  0.00  0.00    -0.075 A 
ATOM      6  C7  UNL d   1      -0.730  -1.512  -0.588  0.00  0.00     0.076 C 
ATOM      7  C8  UNL d   1       0.306   0.375   0.708  0.00  0.00     0.001 A 
ENDROOT
BRANCH   1   8
ATOM      8  C1  UNL d   1       1.227   2.288   2.075  0.00  0.00     0.053 C 
ATOM      9  C   UNL d   1       2.264   3.387   1.907  0.00  0.00     0.018 C 
ENDBRANCH   1   8
TORSDOF 1
ENDMDL
