MODEL 1
REMARK minimizedAffinity 1.29536867
REMARK minimizedRMSD -1
REMARK  0 active torsions:
REMARK  status: ('A' for Active; 'I' for Inactive)
ROOT
ATOM      1  C   UNL d   1      -3.332  -0.762  -3.435  0.00  0.00     0.023 A 
ATOM      2  C1  UNL d   1      -2.866  -1.996  -2.981  0.00  0.00     0.003 A 
ATOM      3  C2  UNL d   1      -2.417  -2.134  -1.666  0.00  0.00     0.048 A 
ATOM      4  C3  UNL d   1      -2.439  -1.034  -0.810  0.00  0.00     0.023 A 
ATOM      5  C4  UNL d   1      -2.905   0.203  -1.259  0.00  0.00     0.048 A 
ATOM      6  C5  UNL d   1      -3.351   0.336  -2.575  0.00  0.00     0.003 A 
ATOM      7  I   UNL d   1      -1.772  -1.236   1.148  0.00  0.00    -0.146 I 
ENDROOT
TORSDOF 0
ENDMDL
