MODEL 1
REMARK minimizedAffinity -0.941017449
REMARK minimizedRMSD -1
REMARK  0 active torsions:
REMARK  status: ('A' for Active; 'I' for Inactive)
ROOT
ATOM      1  C   UNL d   1      -0.973  -3.891  -1.256  0.00  0.00     0.023 A 
ATOM      2  C1  UNL d   1      -1.415  -3.369  -0.041  0.00  0.00     0.003 A 
ATOM      3  C2  UNL d   1      -2.702  -2.838   0.065  0.00  0.00     0.048 A 
ATOM      4  C3  UNL d   1      -3.542  -2.834  -1.048  0.00  0.00     0.023 A 
ATOM      5  C4  UNL d   1      -3.104  -3.357  -2.266  0.00  0.00     0.048 A 
ATOM      6  C5  UNL d   1      -1.816  -3.885  -2.367  0.00  0.00     0.003 A 
ATOM      7  I   UNL d   1      -5.459  -2.045  -0.893  0.00  0.00    -0.146 I 
ENDROOT
TORSDOF 0
ENDMDL
