MODEL 1
REMARK minimizedAffinity 8.52636909
REMARK minimizedRMSD -1
REMARK  0 active torsions:
REMARK  status: ('A' for Active; 'I' for Inactive)
ROOT
ATOM      1  C   UNL d   1       2.237  -2.934   5.677  0.00  0.00     0.023 A 
ATOM      2  C1  UNL d   1       2.675  -3.453   4.458  0.00  0.00     0.003 A 
ATOM      3  C2  UNL d   1       2.365  -2.796   3.266  0.00  0.00     0.048 A 
ATOM      4  C3  UNL d   1       1.617  -1.619   3.299  0.00  0.00     0.023 A 
ATOM      5  C4  UNL d   1       1.177  -1.096   4.516  0.00  0.00     0.048 A 
ATOM      6  C5  UNL d   1       1.489  -1.757   5.706  0.00  0.00     0.003 A 
ATOM      7  I   UNL d   1       1.154  -0.639   1.526  0.00  0.00    -0.146 I 
ENDROOT
TORSDOF 0
ENDMDL
