MODEL 1
REMARK minimizedAffinity 5.88665485
REMARK minimizedRMSD -1
REMARK  0 active torsions:
REMARK  status: ('A' for Active; 'I' for Inactive)
ROOT
ATOM      1  C   UNL d   1      -1.618  -0.194   1.091  0.00  0.00     0.023 A 
ATOM      2  C1  UNL d   1      -0.399   0.338   1.511  0.00  0.00     0.003 A 
ATOM      3  C2  UNL d   1       0.674  -0.509   1.794  0.00  0.00     0.048 A 
ATOM      4  C3  UNL d   1       0.522  -1.888   1.653  0.00  0.00     0.023 A 
ATOM      5  C4  UNL d   1      -0.696  -2.426   1.232  0.00  0.00     0.048 A 
ATOM      6  C5  UNL d   1      -1.766  -1.574   0.952  0.00  0.00     0.003 A 
ATOM      7  I   UNL d   1       2.118  -3.152   2.073  0.00  0.00    -0.146 I 
ENDROOT
TORSDOF 0
ENDMDL
