MODEL 1
REMARK minimizedAffinity 8.30770779
REMARK minimizedRMSD -1
REMARK  0 active torsions:
REMARK  status: ('A' for Active; 'I' for Inactive)
ROOT
ATOM      1  C   UNL d   1       1.342  -0.756   1.375  0.00  0.00     0.023 A 
ATOM      2  C1  UNL d   1       0.747   0.053   2.342  0.00  0.00     0.003 A 
ATOM      3  C2  UNL d   1       0.686  -0.374   3.670  0.00  0.00     0.048 A 
ATOM      4  C3  UNL d   1       1.221  -1.612   4.024  0.00  0.00     0.023 A 
ATOM      5  C4  UNL d   1       1.818  -2.425   3.059  0.00  0.00     0.048 A 
ATOM      6  C5  UNL d   1       1.876  -1.994   1.732  0.00  0.00     0.003 A 
ATOM      7  I   UNL d   1       1.131  -2.250   6.000  0.00  0.00    -0.146 I 
ENDROOT
TORSDOF 0
ENDMDL
