MODEL 1
REMARK minimizedAffinity 5.25683308
REMARK minimizedRMSD -1
REMARK  0 active torsions:
REMARK  status: ('A' for Active; 'I' for Inactive)
ROOT
ATOM      1  C   UNL d   1       1.865  -2.294   5.934  0.00  0.00     0.023 A 
ATOM      2  C1  UNL d   1       2.241  -2.814   4.695  0.00  0.00     0.003 A 
ATOM      3  C2  UNL d   1       1.875  -2.155   3.520  0.00  0.00     0.048 A 
ATOM      4  C3  UNL d   1       1.133  -0.977   3.590  0.00  0.00     0.023 A 
ATOM      5  C4  UNL d   1       0.755  -0.453   4.827  0.00  0.00     0.048 A 
ATOM      6  C5  UNL d   1       1.123  -1.115   6.000  0.00  0.00     0.003 A 
ATOM      7  I   UNL d   1       0.586   0.005   1.842  0.00  0.00    -0.146 I 
ENDROOT
TORSDOF 0
ENDMDL
