MODEL 1
REMARK minimizedAffinity 7.77592087
REMARK minimizedRMSD -1
REMARK  0 active torsions:
REMARK  status: ('A' for Active; 'I' for Inactive)
ROOT
ATOM      1  C   UNL d   1      -4.093   5.206  -4.528  0.00  0.00     0.023 A 
ATOM      2  C1  UNL d   1      -4.355   5.044  -3.167  0.00  0.00     0.003 A 
ATOM      3  C2  UNL d   1      -4.201   3.792  -2.569  0.00  0.00     0.048 A 
ATOM      4  C3  UNL d   1      -3.784   2.705  -3.338  0.00  0.00     0.023 A 
ATOM      5  C4  UNL d   1      -3.520   2.862  -4.699  0.00  0.00     0.048 A 
ATOM      6  C5  UNL d   1      -3.676   4.116  -5.293  0.00  0.00     0.003 A 
ATOM      7  I   UNL d   1      -3.554   0.840  -2.450  0.00  0.00    -0.146 I 
ENDROOT
TORSDOF 0
ENDMDL
