MODEL 1
REMARK minimizedAffinity 4.10174608
REMARK minimizedRMSD -1
REMARK  0 active torsions:
REMARK  status: ('A' for Active; 'I' for Inactive)
ROOT
ATOM      1  C   UNL d   1       1.504   0.237   2.254  0.00  0.00     0.023 A 
ATOM      2  C1  UNL d   1       1.139   0.675   3.527  0.00  0.00     0.003 A 
ATOM      3  C2  UNL d   1       1.154  -0.215   4.603  0.00  0.00     0.048 A 
ATOM      4  C3  UNL d   1       1.536  -1.540   4.399  0.00  0.00     0.023 A 
ATOM      5  C4  UNL d   1       1.903  -1.982   3.127  0.00  0.00     0.048 A 
ATOM      6  C5  UNL d   1       1.886  -1.089   2.054  0.00  0.00     0.003 A 
ATOM      7  I   UNL d   1       1.559  -2.866   6.000  0.00  0.00    -0.146 I 
ENDROOT
TORSDOF 0
ENDMDL
