MODEL 1
REMARK minimizedAffinity 2.74047637
REMARK minimizedRMSD -1
REMARK  2 active torsions:
REMARK  status: ('A' for Active; 'I' for Inactive)
REMARK    1  A    between atoms: C2'_3  and  C1'_4 
REMARK    2  A    between atoms: C1'_4  and  C1_5 
ROOT
ATOM      1  C1  I4B d   1      -4.040   5.195   2.033  0.00  0.00    -0.075 A 
ATOM      2  C2  I4B d   1      -3.195   5.614   3.030  0.00  0.00     0.003 A 
ATOM      3  C3  I4B d   1      -3.715   5.997   4.290  0.00  0.00     0.002 A 
ATOM      4  C4  I4B d   1      -5.080   5.995   4.492  0.00  0.00    -0.004 A 
ATOM      5  C5  I4B d   1      -5.933   5.548   3.487  0.00  0.00     0.002 A 
ATOM      6  C6  I4B d   1      -5.410   5.134   2.254  0.00  0.00     0.003 A 
ENDROOT
BRANCH   1   7
ATOM      7  C1' I4B d   1      -3.461   4.829   0.703  0.00  0.00     0.060 C 
BRANCH   7   8
ATOM      8  C2' I4B d   1      -2.591   3.603   0.895  0.00  0.00    -0.013 C 
ATOM      9  C4' I4B d   1      -3.248   2.606   1.812  0.00  0.00     0.013 C 
ATOM     10  C3' I4B d   1      -2.328   3.006  -0.456  0.00  0.00     0.013 C 
ENDBRANCH   7   8
ENDBRANCH   1   7
TORSDOF 2
ENDMDL
