MODEL 1
REMARK minimizedAffinity 6.16946936
REMARK minimizedRMSD -1
REMARK  2 active torsions:
REMARK  status: ('A' for Active; 'I' for Inactive)
REMARK    1  A    between atoms: C2'_3  and  C1'_4 
REMARK    2  A    between atoms: C1'_4  and  C1_5 
ROOT
ATOM      1  C1  I4B d   1      -3.012   0.274   0.820  0.00  0.00    -0.075 A 
ATOM      2  C2  I4B d   1      -3.135   1.485   1.454  0.00  0.00     0.003 A 
ATOM      3  C3  I4B d   1      -3.307   2.670   0.699  0.00  0.00     0.002 A 
ATOM      4  C4  I4B d   1      -3.299   2.605  -0.679  0.00  0.00    -0.004 A 
ATOM      5  C5  I4B d   1      -3.196   1.374  -1.320  0.00  0.00     0.002 A 
ATOM      6  C6  I4B d   1      -3.065   0.199  -0.566  0.00  0.00     0.003 A 
ENDROOT
BRANCH   1   7
ATOM      7  C1' I4B d   1      -2.799  -0.955   1.647  0.00  0.00     0.060 C 
BRANCH   7   8
ATOM      8  C2' I4B d   1      -2.937  -0.565   3.105  0.00  0.00    -0.013 C 
ATOM      9  C4' I4B d   1      -3.714  -1.601   3.875  0.00  0.00     0.013 C 
ATOM     10  C3' I4B d   1      -1.559  -0.391   3.670  0.00  0.00     0.013 C 
ENDBRANCH   7   8
ENDBRANCH   1   7
TORSDOF 2
ENDMDL
