MODEL 1
REMARK minimizedAffinity 1.21175551
REMARK minimizedRMSD -1
REMARK  2 active torsions:
REMARK  status: ('A' for Active; 'I' for Inactive)
REMARK    1  A    between atoms: C2'_3  and  C1'_4 
REMARK    2  A    between atoms: C1'_4  and  C1_5 
ROOT
ATOM      1  C1  I4B d   1      -2.871   0.809   1.143  0.00  0.00    -0.075 A 
ATOM      2  C2  I4B d   1      -2.744   1.974   1.860  0.00  0.00     0.003 A 
ATOM      3  C3  I4B d   1      -2.659   3.218   1.189  0.00  0.00     0.002 A 
ATOM      4  C4  I4B d   1      -2.653   3.247  -0.191  0.00  0.00    -0.004 A 
ATOM      5  C5  I4B d   1      -2.805   2.067  -0.915  0.00  0.00     0.002 A 
ATOM      6  C6  I4B d   1      -2.926   0.842  -0.244  0.00  0.00     0.003 A 
ENDROOT
BRANCH   1   7
ATOM      7  C1' I4B d   1      -2.925  -0.490   1.883  0.00  0.00     0.060 C 
BRANCH   7   8
ATOM      8  C2' I4B d   1      -2.876  -0.184   3.366  0.00  0.00    -0.013 C 
ATOM      9  C4' I4B d   1      -3.766  -1.117   4.145  0.00  0.00     0.013 C 
ATOM     10  C3' I4B d   1      -1.449  -0.297   3.815  0.00  0.00     0.013 C 
ENDBRANCH   7   8
ENDBRANCH   1   7
TORSDOF 2
ENDMDL
