MODEL 1
REMARK minimizedAffinity -1.33535075
REMARK minimizedRMSD -1
REMARK  2 active torsions:
REMARK  status: ('A' for Active; 'I' for Inactive)
REMARK    1  A    between atoms: C2'_3  and  C1'_4 
REMARK    2  A    between atoms: C1'_4  and  C1_5 
ROOT
ATOM      1  C1  I4B d   1       3.575   1.663  -5.087  0.00  0.00    -0.075 A 
ATOM      2  C2  I4B d   1       3.622   0.384  -5.583  0.00  0.00     0.003 A 
ATOM      3  C3  I4B d   1       4.855  -0.174  -5.999  0.00  0.00     0.002 A 
ATOM      4  C4  I4B d   1       6.000   0.594  -5.950  0.00  0.00    -0.004 A 
ATOM      5  C5  I4B d   1       5.954   1.883  -5.426  0.00  0.00     0.002 A 
ATOM      6  C6  I4B d   1       4.736   2.417  -4.980  0.00  0.00     0.003 A 
ENDROOT
BRANCH   1   7
ATOM      7  C1' I4B d   1       2.251   2.233  -4.688  0.00  0.00     0.060 C 
BRANCH   7   8
ATOM      8  C2' I4B d   1       1.563   1.228  -3.786  0.00  0.00    -0.013 C 
ATOM      9  C4' I4B d   1       2.489   0.748  -2.699  0.00  0.00     0.013 C 
ATOM     10  C3' I4B d   1       0.344   1.883  -3.208  0.00  0.00     0.013 C 
ENDBRANCH   7   8
ENDBRANCH   1   7
TORSDOF 2
ENDMDL
