MODEL 1
REMARK minimizedAffinity -1.90432668
REMARK minimizedRMSD -1
REMARK  2 active torsions:
REMARK  status: ('A' for Active; 'I' for Inactive)
REMARK    1  A    between atoms: C2'_3  and  C1'_4 
REMARK    2  A    between atoms: C1'_4  and  C1_5 
ROOT
ATOM      1  C1  I4B d   1      -2.426   1.998   1.388  0.00  0.00    -0.075 A 
ATOM      2  C2  I4B d   1      -1.867   1.887   0.140  0.00  0.00     0.003 A 
ATOM      3  C3  I4B d   1      -2.110   2.878  -0.841  0.00  0.00     0.002 A 
ATOM      4  C4  I4B d   1      -2.954   3.931  -0.549  0.00  0.00    -0.004 A 
ATOM      5  C5  I4B d   1      -3.502   4.054   0.724  0.00  0.00     0.002 A 
ATOM      6  C6  I4B d   1      -3.227   3.088   1.703  0.00  0.00     0.003 A 
ENDROOT
BRANCH   1   7
ATOM      7  C1' I4B d   1      -2.175   0.916   2.390  0.00  0.00     0.060 C 
BRANCH   7   8
ATOM      8  C2' I4B d   1      -2.902  -0.329   1.924  0.00  0.00    -0.013 C 
ATOM      9  C4' I4B d   1      -1.944  -1.335   1.343  0.00  0.00     0.013 C 
ATOM     10  C3' I4B d   1      -3.641  -0.900   3.098  0.00  0.00     0.013 C 
ENDBRANCH   7   8
ENDBRANCH   1   7
TORSDOF 2
ENDMDL
