MODEL 1
REMARK minimizedAffinity 8.74031067
REMARK minimizedRMSD -1
REMARK  2 active torsions:
REMARK  status: ('A' for Active; 'I' for Inactive)
REMARK    1  A    between atoms: C2'_3  and  C1'_4 
REMARK    2  A    between atoms: C1'_4  and  C1_5 
ROOT
ATOM      1  C1  I4B d   1      -4.030   0.492   1.657  0.00  0.00    -0.075 A 
ATOM      2  C2  I4B d   1      -3.244   0.634   0.541  0.00  0.00     0.003 A 
ATOM      3  C3  I4B d   1      -3.836   0.686  -0.745  0.00  0.00     0.002 A 
ATOM      4  C4  I4B d   1      -5.203   0.544  -0.870  0.00  0.00    -0.004 A 
ATOM      5  C5  I4B d   1      -5.999   0.423   0.265  0.00  0.00     0.002 A 
ATOM      6  C6  I4B d   1      -5.411   0.410   1.538  0.00  0.00     0.003 A 
ENDROOT
BRANCH   1   7
ATOM      7  C1' I4B d   1      -3.369   0.407   2.997  0.00  0.00     0.060 C 
BRANCH   7   8
ATOM      8  C2' I4B d   1      -3.409  -1.039   3.446  0.00  0.00    -0.013 C 
ATOM      9  C4' I4B d   1      -2.046  -1.514   3.877  0.00  0.00     0.013 C 
ATOM     10  C3' I4B d   1      -4.400  -1.149   4.566  0.00  0.00     0.013 C 
ENDBRANCH   7   8
ENDBRANCH   1   7
TORSDOF 2
ENDMDL
