MODEL 1
REMARK minimizedAffinity 7.4220643
REMARK minimizedRMSD -1
REMARK  2 active torsions:
REMARK  status: ('A' for Active; 'I' for Inactive)
REMARK    1  A    between atoms: C2'_3  and  C1'_4 
REMARK    2  A    between atoms: C1'_4  and  C1_5 
ROOT
ATOM      1  C1  I4B d   1      -3.707   0.072   1.421  0.00  0.00    -0.075 A 
ATOM      2  C2  I4B d   1      -4.450  -0.761   2.220  0.00  0.00     0.003 A 
ATOM      3  C3  I4B d   1      -4.118  -0.918   3.588  0.00  0.00     0.002 A 
ATOM      4  C4  I4B d   1      -3.013  -0.267   4.099  0.00  0.00    -0.004 A 
ATOM      5  C5  I4B d   1      -2.276   0.594   3.292  0.00  0.00     0.002 A 
ATOM      6  C6  I4B d   1      -2.632   0.775   1.948  0.00  0.00     0.003 A 
ENDROOT
BRANCH   1   7
ATOM      7  C1' I4B d   1      -4.065   0.190  -0.027  0.00  0.00     0.060 C 
BRANCH   7   8
ATOM      8  C2' I4B d   1      -5.570   0.339  -0.125  0.00  0.00    -0.013 C 
ATOM      9  C4' I4B d   1      -5.995   1.760   0.140  0.00  0.00     0.013 C 
ATOM     10  C3' I4B d   1      -5.991  -0.106  -1.493  0.00  0.00     0.013 C 
ENDBRANCH   7   8
ENDBRANCH   1   7
TORSDOF 2
ENDMDL
