MODEL 1
REMARK minimizedAffinity -1.3105582
REMARK minimizedRMSD -1
REMARK  2 active torsions:
REMARK  status: ('A' for Active; 'I' for Inactive)
REMARK    1  A    between atoms: C2'_3  and  C1'_4 
REMARK    2  A    between atoms: C1'_4  and  C1_5 
ROOT
ATOM      1  C1  I4B d   1      -2.850   0.069   2.969  0.00  0.00    -0.075 A 
ATOM      2  C2  I4B d   1      -3.917  -0.507   3.614  0.00  0.00     0.003 A 
ATOM      3  C3  I4B d   1      -4.816   0.294   4.360  0.00  0.00     0.002 A 
ATOM      4  C4  I4B d   1      -4.583   1.649   4.476  0.00  0.00    -0.004 A 
ATOM      5  C5  I4B d   1      -3.514   2.234   3.804  0.00  0.00     0.002 A 
ATOM      6  C6  I4B d   1      -2.649   1.441   3.035  0.00  0.00     0.003 A 
ENDROOT
BRANCH   1   7
ATOM      7  C1' I4B d   1      -1.903  -0.811   2.217  0.00  0.00     0.060 C 
BRANCH   7   8
ATOM      8  C2' I4B d   1      -2.677  -1.487   1.104  0.00  0.00    -0.013 C 
ATOM      9  C4' I4B d   1      -2.911  -0.545  -0.047  0.00  0.00     0.013 C 
ATOM     10  C3' I4B d   1      -1.901  -2.694   0.667  0.00  0.00     0.013 C 
ENDBRANCH   7   8
ENDBRANCH   1   7
TORSDOF 2
ENDMDL
