MODEL 1
REMARK minimizedAffinity 2.19349003
REMARK minimizedRMSD -1
REMARK  2 active torsions:
REMARK  status: ('A' for Active; 'I' for Inactive)
REMARK    1  A    between atoms: C2'_3  and  C1'_4 
REMARK    2  A    between atoms: C1'_4  and  C1_5 
ROOT
ATOM      1  C1  I4B d   1       5.238   2.457   2.531  0.00  0.00    -0.075 A 
ATOM      2  C2  I4B d   1       5.648   2.352   3.837  0.00  0.00     0.003 A 
ATOM      3  C3  I4B d   1       5.998   1.089   4.375  0.00  0.00     0.002 A 
ATOM      4  C4  I4B d   1       5.877  -0.040   3.591  0.00  0.00    -0.004 A 
ATOM      5  C5  I4B d   1       5.484   0.072   2.261  0.00  0.00     0.002 A 
ATOM      6  C6  I4B d   1       5.174   1.329   1.723  0.00  0.00     0.003 A 
ENDROOT
BRANCH   1   7
ATOM      7  C1' I4B d   1       4.844   3.801   2.006  0.00  0.00     0.060 C 
BRANCH   7   8
ATOM      8  C2' I4B d   1       4.008   3.588   0.760  0.00  0.00    -0.013 C 
ATOM      9  C4' I4B d   1       2.544   3.799   1.044  0.00  0.00     0.013 C 
ATOM     10  C3' I4B d   1       4.497   4.536  -0.293  0.00  0.00     0.013 C 
ENDBRANCH   7   8
ENDBRANCH   1   7
TORSDOF 2
ENDMDL
