MODEL 1
REMARK minimizedAffinity -2.42519379
REMARK minimizedRMSD -1
REMARK  2 active torsions:
REMARK  status: ('A' for Active; 'I' for Inactive)
REMARK    1  A    between atoms: C2'_3  and  C1'_4 
REMARK    2  A    between atoms: C1'_4  and  C1_5 
ROOT
ATOM      1  C1  I4B d   1      -3.036   0.721   0.811  0.00  0.00    -0.075 A 
ATOM      2  C2  I4B d   1      -4.241   1.380   0.807  0.00  0.00     0.003 A 
ATOM      3  C3  I4B d   1      -4.309   2.738   0.412  0.00  0.00     0.002 A 
ATOM      4  C4  I4B d   1      -3.149   3.408   0.080  0.00  0.00    -0.004 A 
ATOM      5  C5  I4B d   1      -1.932   2.733   0.063  0.00  0.00     0.002 A 
ATOM      6  C6  I4B d   1      -1.877   1.377   0.419  0.00  0.00     0.003 A 
ENDROOT
BRANCH   1   7
ATOM      7  C1' I4B d   1      -2.996  -0.703   1.266  0.00  0.00     0.060 C 
BRANCH   7   8
ATOM      8  C2' I4B d   1      -2.761  -0.710   2.763  0.00  0.00    -0.013 C 
ATOM      9  C4' I4B d   1      -2.365   0.656   3.258  0.00  0.00     0.013 C 
ATOM     10  C3' I4B d   1      -4.021  -1.181   3.426  0.00  0.00     0.013 C 
ENDBRANCH   7   8
ENDBRANCH   1   7
TORSDOF 2
ENDMDL
