MODEL 1
REMARK minimizedAffinity 0.133942783
REMARK minimizedRMSD -1
REMARK  2 active torsions:
REMARK  status: ('A' for Active; 'I' for Inactive)
REMARK    1  A    between atoms: C2'_3  and  C1'_4 
REMARK    2  A    between atoms: C1'_4  and  C1_5 
ROOT
ATOM      1  C1  I4B d   1      -2.419   1.171   0.101  0.00  0.00    -0.075 A 
ATOM      2  C2  I4B d   1      -1.728   2.082   0.860  0.00  0.00     0.003 A 
ATOM      3  C3  I4B d   1      -2.296   3.346   1.150  0.00  0.00     0.002 A 
ATOM      4  C4  I4B d   1      -3.527   3.675   0.621  0.00  0.00    -0.004 A 
ATOM      5  C5  I4B d   1      -4.236   2.742  -0.130  0.00  0.00     0.002 A 
ATOM      6  C6  I4B d   1      -3.685   1.478  -0.382  0.00  0.00     0.003 A 
ENDROOT
BRANCH   1   7
ATOM      7  C1' I4B d   1      -1.775  -0.142  -0.213  0.00  0.00     0.060 C 
BRANCH   7   8
ATOM      8  C2' I4B d   1      -2.387  -1.191   0.693  0.00  0.00    -0.013 C 
ATOM      9  C4' I4B d   1      -1.550  -2.442   0.723  0.00  0.00     0.013 C 
ATOM     10  C3' I4B d   1      -2.523  -0.596   2.063  0.00  0.00     0.013 C 
ENDBRANCH   7   8
ENDBRANCH   1   7
TORSDOF 2
ENDMDL
