MODEL 1
REMARK minimizedAffinity 9.10809422
REMARK minimizedRMSD -1
REMARK  2 active torsions:
REMARK  status: ('A' for Active; 'I' for Inactive)
REMARK    1  A    between atoms: C2'_3  and  C1'_4 
REMARK    2  A    between atoms: C1'_4  and  C1_5 
ROOT
ATOM      1  C1  I4B d   1       4.266   0.207   3.506  0.00  0.00    -0.075 A 
ATOM      2  C2  I4B d   1       5.072  -0.067   4.582  0.00  0.00     0.003 A 
ATOM      3  C3  I4B d   1       5.909   0.940   5.120  0.00  0.00     0.002 A 
ATOM      4  C4  I4B d   1       5.946   2.184   4.524  0.00  0.00    -0.004 A 
ATOM      5  C5  I4B d   1       5.110   2.467   3.447  0.00  0.00     0.002 A 
ATOM      6  C6  I4B d   1       4.256   1.476   2.942  0.00  0.00     0.003 A 
ENDROOT
BRANCH   1   7
ATOM      7  C1' I4B d   1       3.418  -0.889   2.942  0.00  0.00     0.060 C 
BRANCH   7   8
ATOM      8  C2' I4B d   1       2.970  -1.770   4.091  0.00  0.00    -0.013 C 
ATOM      9  C4' I4B d   1       1.882  -1.106   4.894  0.00  0.00     0.013 C 
ATOM     10  C3' I4B d   1       2.500  -3.074   3.519  0.00  0.00     0.013 C 
ENDBRANCH   7   8
ENDBRANCH   1   7
TORSDOF 2
ENDMDL
