MODEL 1
REMARK minimizedAffinity 5.65045214
REMARK minimizedRMSD -1
REMARK  2 active torsions:
REMARK  status: ('A' for Active; 'I' for Inactive)
REMARK    1  A    between atoms: C2'_3  and  C1'_4 
REMARK    2  A    between atoms: C1'_4  and  C1_5 
ROOT
ATOM      1  C1  I4B d   1      -4.062  -0.206   4.076  0.00  0.00    -0.075 A 
ATOM      2  C2  I4B d   1      -3.428  -0.029   2.871  0.00  0.00     0.003 A 
ATOM      3  C3  I4B d   1      -2.951   1.251   2.499  0.00  0.00     0.002 A 
ATOM      4  C4  I4B d   1      -3.171   2.328   3.333  0.00  0.00    -0.004 A 
ATOM      5  C5  I4B d   1      -3.793   2.142   4.564  0.00  0.00     0.002 A 
ATOM      6  C6  I4B d   1      -4.231   0.865   4.944  0.00  0.00     0.003 A 
ENDROOT
BRANCH   1   7
ATOM      7  C1' I4B d   1      -4.582  -1.564   4.424  0.00  0.00     0.060 C 
BRANCH   7   8
ATOM      8  C2' I4B d   1      -5.897  -1.760   3.697  0.00  0.00    -0.013 C 
ATOM      9  C4' I4B d   1      -5.993  -0.862   2.492  0.00  0.00     0.013 C 
ATOM     10  C3' I4B d   1      -5.999  -3.204   3.305  0.00  0.00     0.013 C 
ENDBRANCH   7   8
ENDBRANCH   1   7
TORSDOF 2
ENDMDL
