MODEL 1
REMARK minimizedAffinity 5.7660923
REMARK minimizedRMSD -1
REMARK  0 active torsions:
REMARK  status: ('A' for Active; 'I' for Inactive)
ROOT
ATOM      1  C2' OXE d   1      -2.473  -0.483  -0.273  0.00  0.00     0.078 C 
ATOM      2  C1' OXE d   1      -0.331  -2.046  -1.197  0.00  0.00     0.078 C 
ATOM      3  C1  OXE d   1      -0.033  -0.979  -0.173  0.00  0.00    -0.078 A 
ATOM      4  C2  OXE d   1      -1.079  -0.188   0.238  0.00  0.00    -0.078 A 
ATOM      5  C3  OXE d   1      -0.869   0.775   1.221  0.00  0.00     0.003 A 
ATOM      6  C4  OXE d   1       0.424   1.048   1.681  0.00  0.00    -0.002 A 
ATOM      7  C5  OXE d   1       1.510   0.280   1.246  0.00  0.00    -0.002 A 
ATOM      8  C6  OXE d   1       1.292  -0.763   0.353  0.00  0.00     0.003 A 
ENDROOT
TORSDOF 0
ENDMDL
