MODEL 1
REMARK minimizedAffinity 0.470382035
REMARK minimizedRMSD -1
REMARK  0 active torsions:
REMARK  status: ('A' for Active; 'I' for Inactive)
ROOT
ATOM      1  C2' OXE d   1       2.091   1.772   2.630  0.00  0.00     0.078 C 
ATOM      2  C1' OXE d   1      -0.254   3.301   2.839  0.00  0.00     0.078 C 
ATOM      3  C1  OXE d   1      -0.400   1.811   2.658  0.00  0.00    -0.078 A 
ATOM      4  C2  OXE d   1       0.752   1.076   2.510  0.00  0.00    -0.078 A 
ATOM      5  C3  OXE d   1       0.677  -0.309   2.394  0.00  0.00     0.003 A 
ATOM      6  C4  OXE d   1      -0.565  -0.943   2.273  0.00  0.00    -0.002 A 
ATOM      7  C5  OXE d   1      -1.751  -0.209   2.381  0.00  0.00    -0.002 A 
ATOM      8  C6  OXE d   1      -1.686   1.160   2.616  0.00  0.00     0.003 A 
ENDROOT
TORSDOF 0
ENDMDL
