MODEL 1
REMARK minimizedAffinity 10.7722654
REMARK minimizedRMSD -1
REMARK  0 active torsions:
REMARK  status: ('A' for Active; 'I' for Inactive)
ROOT
ATOM      1  C2' OXE d   1       0.760  -0.025   0.754  0.00  0.00     0.078 C 
ATOM      2  C1' OXE d   1      -1.121   1.677   1.956  0.00  0.00     0.078 C 
ATOM      3  C1  OXE d   1      -1.620   0.689   0.931  0.00  0.00    -0.078 A 
ATOM      4  C2  OXE d   1      -0.685  -0.108   0.314  0.00  0.00    -0.078 A 
ATOM      5  C3  OXE d   1      -1.098  -1.074  -0.599  0.00  0.00     0.003 A 
ATOM      6  C4  OXE d   1      -2.435  -1.138  -1.008  0.00  0.00    -0.002 A 
ATOM      7  C5  OXE d   1      -3.397  -0.309  -0.421  0.00  0.00    -0.002 A 
ATOM      8  C6  OXE d   1      -3.014   0.579   0.578  0.00  0.00     0.003 A 
ENDROOT
TORSDOF 0
ENDMDL
