MODEL 1
REMARK minimizedAffinity 6.85691118
REMARK minimizedRMSD -1
REMARK  0 active torsions:
REMARK  status: ('A' for Active; 'I' for Inactive)
ROOT
ATOM      1  C2' OXE d   1      -0.479   5.884  -0.792  0.00  0.00     0.078 C 
ATOM      2  C1' OXE d   1      -0.316   5.920   2.010  0.00  0.00     0.078 C 
ATOM      3  C1  OXE d   1       0.975   5.938   1.230  0.00  0.00    -0.078 A 
ATOM      4  C2  OXE d   1       0.887   5.873  -0.140  0.00  0.00    -0.078 A 
ATOM      5  C3  OXE d   1       2.045   5.942  -0.909  0.00  0.00     0.003 A 
ATOM      6  C4  OXE d   1       3.304   5.922  -0.298  0.00  0.00    -0.002 A 
ATOM      7  C5  OXE d   1       3.417   5.948   1.096  0.00  0.00    -0.002 A 
ATOM      8  C6  OXE d   1       2.264   6.000   1.872  0.00  0.00     0.003 A 
ENDROOT
TORSDOF 0
ENDMDL
