MODEL 1
REMARK minimizedAffinity 8.27318764
REMARK minimizedRMSD -1
REMARK  0 active torsions:
REMARK  status: ('A' for Active; 'I' for Inactive)
ROOT
ATOM      1  C2' OXE d   1       1.882   5.999  -1.084  0.00  0.00     0.078 C 
ATOM      2  C1' OXE d   1       1.751   5.814   1.714  0.00  0.00     0.078 C 
ATOM      3  C1  OXE d   1       0.451   5.861   0.951  0.00  0.00    -0.078 A 
ATOM      4  C2  OXE d   1       0.525   5.998  -0.414  0.00  0.00    -0.078 A 
ATOM      5  C3  OXE d   1      -0.643   5.991  -1.172  0.00  0.00     0.003 A 
ATOM      6  C4  OXE d   1      -1.895   6.000  -0.544  0.00  0.00    -0.002 A 
ATOM      7  C5  OXE d   1      -1.992   5.900   0.848  0.00  0.00    -0.002 A 
ATOM      8  C6  OXE d   1      -0.831   5.787   1.605  0.00  0.00     0.003 A 
ENDROOT
TORSDOF 0
ENDMDL
