MODEL 1
REMARK minimizedAffinity -2.54902339
REMARK minimizedRMSD -1
REMARK  0 active torsions:
REMARK  status: ('A' for Active; 'I' for Inactive)
ROOT
ATOM      1  C1  BNZ d   1       0.917  -1.787   0.100  0.00  0.00     0.000 A 
ATOM      2  C2  BNZ d   1      -0.435  -1.577   0.046  0.00  0.00     0.000 A 
ATOM      3  C3  BNZ d   1      -1.018  -0.584   0.783  0.00  0.00     0.000 A 
ATOM      4  C4  BNZ d   1      -0.256   0.169   1.602  0.00  0.00     0.000 A 
ATOM      5  C5  BNZ d   1       1.107  -0.037   1.674  0.00  0.00     0.000 A 
ATOM      6  C6  BNZ d   1       1.697  -1.011   0.901  0.00  0.00     0.000 A 
ENDROOT
TORSDOF 0
ENDMDL
