MODEL 1
REMARK minimizedAffinity -4.8720541
REMARK minimizedRMSD -1
REMARK  0 active torsions:
REMARK  status: ('A' for Active; 'I' for Inactive)
ROOT
ATOM      1  C1  BNZ d   1      -0.578  -0.613   1.123  0.00  0.00     0.000 A 
ATOM      2  C2  BNZ d   1       0.774  -0.395   1.144  0.00  0.00     0.000 A 
ATOM      3  C3  BNZ d   1       1.638  -1.300   0.593  0.00  0.00     0.000 A 
ATOM      4  C4  BNZ d   1       1.153  -2.439   0.058  0.00  0.00     0.000 A 
ATOM      5  C5  BNZ d   1      -0.207  -2.677   0.037  0.00  0.00     0.000 A 
ATOM      6  C6  BNZ d   1      -1.076  -1.746   0.558  0.00  0.00     0.000 A 
ENDROOT
TORSDOF 0
ENDMDL
