MODEL 1
REMARK minimizedAffinity -3.45443106
REMARK minimizedRMSD -1
REMARK  0 active torsions:
REMARK  status: ('A' for Active; 'I' for Inactive)
ROOT
ATOM      1  C1  BNZ d   1       1.404  -1.712  -0.074  0.00  0.00     0.000 A 
ATOM      2  C2  BNZ d   1       0.082  -1.528  -0.381  0.00  0.00     0.000 A 
ATOM      3  C3  BNZ d   1      -0.670  -0.604   0.290  0.00  0.00     0.000 A 
ATOM      4  C4  BNZ d   1      -0.111   0.105   1.292  0.00  0.00     0.000 A 
ATOM      5  C5  BNZ d   1       1.218  -0.076   1.619  0.00  0.00     0.000 A 
ATOM      6  C6  BNZ d   1       1.982  -0.979   0.916  0.00  0.00     0.000 A 
ENDROOT
TORSDOF 0
ENDMDL
