MODEL 1
REMARK minimizedAffinity -0.316591144
REMARK minimizedRMSD -1
REMARK  0 active torsions:
REMARK  status: ('A' for Active; 'I' for Inactive)
ROOT
ATOM      1  C1  BNZ d   1      -0.459  -0.685   1.258  0.00  0.00     0.000 A 
ATOM      2  C2  BNZ d   1       0.833  -0.450   0.869  0.00  0.00     0.000 A 
ATOM      3  C3  BNZ d   1       1.514  -1.365   0.115  0.00  0.00     0.000 A 
ATOM      4  C4  BNZ d   1       0.918  -2.529  -0.214  0.00  0.00     0.000 A 
ATOM      5  C5  BNZ d   1      -0.381  -2.784   0.179  0.00  0.00     0.000 A 
ATOM      6  C6  BNZ d   1      -1.077  -1.844   0.904  0.00  0.00     0.000 A 
ENDROOT
TORSDOF 0
ENDMDL
