MODEL 1
REMARK minimizedAffinity -0.260107934
REMARK minimizedRMSD -1
REMARK  0 active torsions:
REMARK  status: ('A' for Active; 'I' for Inactive)
ROOT
ATOM      1  C1  BNZ d   1      -1.142  -1.779   0.286  0.00  0.00     0.000 A 
ATOM      2  C2  BNZ d   1      -1.958  -0.766   0.713  0.00  0.00     0.000 A 
ATOM      3  C3  BNZ d   1      -1.521   0.144   1.634  0.00  0.00     0.000 A 
ATOM      4  C4  BNZ d   1      -0.284   0.018   2.156  0.00  0.00     0.000 A 
ATOM      5  C5  BNZ d   1       0.548  -1.004   1.743  0.00  0.00     0.000 A 
ATOM      6  C6  BNZ d   1       0.118  -1.896   0.787  0.00  0.00     0.000 A 
ENDROOT
TORSDOF 0
ENDMDL
