MODEL 1
REMARK minimizedAffinity 1.62413931
REMARK minimizedRMSD -1
REMARK  0 active torsions:
REMARK  status: ('A' for Active; 'I' for Inactive)
ROOT
ATOM      1  C1  BNZ d   1      -0.981  -2.559   0.054  0.00  0.00     0.000 A 
ATOM      2  C2  BNZ d   1      -0.231  -3.461  -0.652  0.00  0.00     0.000 A 
ATOM      3  C3  BNZ d   1       1.130  -3.494  -0.522  0.00  0.00     0.000 A 
ATOM      4  C4  BNZ d   1       1.741  -2.601   0.283  0.00  0.00     0.000 A 
ATOM      5  C5  BNZ d   1       0.999  -1.679   0.994  0.00  0.00     0.000 A 
ATOM      6  C6  BNZ d   1      -0.373  -1.674   0.891  0.00  0.00     0.000 A 
ENDROOT
TORSDOF 0
ENDMDL
