MODEL 1
REMARK minimizedAffinity -0.618204713
REMARK minimizedRMSD -1
REMARK  0 active torsions:
REMARK  status: ('A' for Active; 'I' for Inactive)
ROOT
ATOM      1  C1  BNZ d   1       1.873  -2.723  -0.370  0.00  0.00     0.000 A 
ATOM      2  C2  BNZ d   1       0.547  -3.023  -0.201  0.00  0.00     0.000 A 
ATOM      3  C3  BNZ d   1      -0.244  -2.262   0.613  0.00  0.00     0.000 A 
ATOM      4  C4  BNZ d   1       0.300  -1.229   1.289  0.00  0.00     0.000 A 
ATOM      5  C5  BNZ d   1       1.637  -0.920   1.137  0.00  0.00     0.000 A 
ATOM      6  C6  BNZ d   1       2.421  -1.665   0.286  0.00  0.00     0.000 A 
ENDROOT
TORSDOF 0
ENDMDL
