MODEL 1
REMARK minimizedAffinity -1.03777492
REMARK minimizedRMSD -1
REMARK  0 active torsions:
REMARK  status: ('A' for Active; 'I' for Inactive)
ROOT
ATOM      1  C1  BNZ d   1       0.034  -0.233   1.462  0.00  0.00     0.000 A 
ATOM      2  C2  BNZ d   1      -0.761  -1.236   0.973  0.00  0.00     0.000 A 
ATOM      3  C3  BNZ d   1      -0.285  -2.113   0.039  0.00  0.00     0.000 A 
ATOM      4  C4  BNZ d   1       0.969  -1.964  -0.433  0.00  0.00     0.000 A 
ATOM      5  C5  BNZ d   1       1.780  -0.953   0.043  0.00  0.00     0.000 A 
ATOM      6  C6  BNZ d   1       1.310  -0.095   1.012  0.00  0.00     0.000 A 
ENDROOT
TORSDOF 0
ENDMDL
