MODEL 1
REMARK minimizedAffinity -4.3767705
REMARK minimizedRMSD -1
REMARK  0 active torsions:
REMARK  status: ('A' for Active; 'I' for Inactive)
ROOT
ATOM      1  C1  BNZ d   1       2.217  -1.640   0.125  0.00  0.00     0.000 A 
ATOM      2  C2  BNZ d   1       1.514  -0.516   0.468  0.00  0.00     0.000 A 
ATOM      3  C3  BNZ d   1       0.150  -0.542   0.552  0.00  0.00     0.000 A 
ATOM      4  C4  BNZ d   1      -0.511  -1.679   0.254  0.00  0.00     0.000 A 
ATOM      5  C5  BNZ d   1       0.183  -2.818  -0.103  0.00  0.00     0.000 A 
ATOM      6  C6  BNZ d   1       1.558  -2.799  -0.148  0.00  0.00     0.000 A 
ENDROOT
TORSDOF 0
ENDMDL
