MODEL 1
REMARK minimizedAffinity -0.537763059
REMARK minimizedRMSD -1
REMARK  0 active torsions:
REMARK  status: ('A' for Active; 'I' for Inactive)
ROOT
ATOM      1  C1  BNZ d   1       1.978  -0.964   0.176  0.00  0.00     0.000 A 
ATOM      2  C2  BNZ d   1       2.764  -1.957  -0.343  0.00  0.00     0.000 A 
ATOM      3  C3  BNZ d   1       2.240  -3.186  -0.633  0.00  0.00     0.000 A 
ATOM      4  C4  BNZ d   1       0.941  -3.431  -0.366  0.00  0.00     0.000 A 
ATOM      5  C5  BNZ d   1       0.137  -2.443   0.167  0.00  0.00     0.000 A 
ATOM      6  C6  BNZ d   1       0.660  -1.196   0.421  0.00  0.00     0.000 A 
ENDROOT
TORSDOF 0
ENDMDL
