MODEL 1
REMARK minimizedAffinity -0.481048346
REMARK minimizedRMSD -1
REMARK  0 active torsions:
REMARK  status: ('A' for Active; 'I' for Inactive)
ROOT
ATOM      1  C1  BNZ d   1       0.438  -0.369   1.797  0.00  0.00     0.000 A 
ATOM      2  C2  BNZ d   1      -0.437  -1.095   1.034  0.00  0.00     0.000 A 
ATOM      3  C3  BNZ d   1       0.010  -1.865  -0.003  0.00  0.00     0.000 A 
ATOM      4  C4  BNZ d   1       1.325  -1.877  -0.301  0.00  0.00     0.000 A 
ATOM      5  C5  BNZ d   1       2.219  -1.144   0.453  0.00  0.00     0.000 A 
ATOM      6  C6  BNZ d   1       1.771  -0.400   1.520  0.00  0.00     0.000 A 
ENDROOT
TORSDOF 0
ENDMDL
