MODEL 1
REMARK minimizedAffinity 0.781715095
REMARK minimizedRMSD -1
REMARK  0 active torsions:
REMARK  status: ('A' for Active; 'I' for Inactive)
ROOT
ATOM      1  C1  BNZ d   1      -0.032  -1.901  -0.458  0.00  0.00     0.000 A 
ATOM      2  C2  BNZ d   1      -0.894  -1.515   0.533  0.00  0.00     0.000 A 
ATOM      3  C3  BNZ d   1      -0.518  -0.591   1.468  0.00  0.00     0.000 A 
ATOM      4  C4  BNZ d   1       0.731  -0.085   1.434  0.00  0.00     0.000 A 
ATOM      5  C5  BNZ d   1       1.616  -0.471   0.447  0.00  0.00     0.000 A 
ATOM      6  C6  BNZ d   1       1.221  -1.372  -0.515  0.00  0.00     0.000 A 
ENDROOT
TORSDOF 0
ENDMDL
