MODEL 1
REMARK minimizedAffinity 2.92224693
REMARK minimizedRMSD -1
REMARK  0 active torsions:
REMARK  status: ('A' for Active; 'I' for Inactive)
ROOT
ATOM      1  C1  BNZ d   1       1.418  -2.339  -0.122  0.00  0.00     0.000 A 
ATOM      2  C2  BNZ d   1       0.054  -2.277  -0.022  0.00  0.00     0.000 A 
ATOM      3  C3  BNZ d   1      -0.545  -1.417   0.856  0.00  0.00     0.000 A 
ATOM      4  C4  BNZ d   1       0.221  -0.651   1.660  0.00  0.00     0.000 A 
ATOM      5  C5  BNZ d   1       1.598  -0.710   1.577  0.00  0.00     0.000 A 
ATOM      6  C6  BNZ d   1       2.196  -1.548   0.665  0.00  0.00     0.000 A 
ENDROOT
TORSDOF 0
ENDMDL
