MODEL 1
REMARK minimizedAffinity -0.657327831
REMARK minimizedRMSD -1
REMARK  0 active torsions:
REMARK  status: ('A' for Active; 'I' for Inactive)
ROOT
ATOM      1  C1  BNZ d   1       1.159  -0.427   1.502  0.00  0.00     0.000 A 
ATOM      2  C2  BNZ d   1       2.263  -0.673   0.730  0.00  0.00     0.000 A 
ATOM      3  C3  BNZ d   1       2.296  -1.740  -0.124  0.00  0.00     0.000 A 
ATOM      4  C4  BNZ d   1       1.243  -2.581  -0.175  0.00  0.00     0.000 A 
ATOM      5  C5  BNZ d   1       0.127  -2.352   0.605  0.00  0.00     0.000 A 
ATOM      6  C6  BNZ d   1       0.081  -1.255   1.434  0.00  0.00     0.000 A 
ENDROOT
TORSDOF 0
ENDMDL
