MODEL 1
REMARK minimizedAffinity 3.77417779
REMARK minimizedRMSD -1
REMARK  0 active torsions:
REMARK  status: ('A' for Active; 'I' for Inactive)
ROOT
ATOM      1  C1  BNZ d   1       1.400   1.377  -3.717  0.00  0.00     0.000 A 
ATOM      2  C2  BNZ d   1       2.119   0.710  -2.762  0.00  0.00     0.000 A 
ATOM      3  C3  BNZ d   1       3.290   1.225  -2.280  0.00  0.00     0.000 A 
ATOM      4  C4  BNZ d   1       3.761   2.385  -2.782  0.00  0.00     0.000 A 
ATOM      5  C5  BNZ d   1       3.052   3.065  -3.753  0.00  0.00     0.000 A 
ATOM      6  C6  BNZ d   1       1.855   2.563  -4.208  0.00  0.00     0.000 A 
ENDROOT
TORSDOF 0
ENDMDL
