MODEL 1
REMARK minimizedAffinity -2.85675955
REMARK minimizedRMSD -1
REMARK  0 active torsions:
REMARK  status: ('A' for Active; 'I' for Inactive)
ROOT
ATOM      1  C1  BNZ d   1      -0.856  -1.589   0.533  0.00  0.00     0.000 A 
ATOM      2  C2  BNZ d   1      -0.583  -2.740  -0.156  0.00  0.00     0.000 A 
ATOM      3  C3  BNZ d   1       0.707  -3.124  -0.396  0.00  0.00     0.000 A 
ATOM      4  C4  BNZ d   1       1.720  -2.336   0.018  0.00  0.00     0.000 A 
ATOM      5  C5  BNZ d   1       1.461  -1.167   0.706  0.00  0.00     0.000 A 
ATOM      6  C6  BNZ d   1       0.163  -0.804   0.979  0.00  0.00     0.000 A 
ENDROOT
TORSDOF 0
ENDMDL
