MODEL 1
REMARK minimizedAffinity -0.0813009888
REMARK minimizedRMSD -1
REMARK  0 active torsions:
REMARK  status: ('A' for Active; 'I' for Inactive)
ROOT
ATOM      1  C   UNL d   1      -2.307   3.821   1.553  0.00  0.00    -0.002 A 
ATOM      2  C1  UNL d   1      -1.914   2.586   2.048  0.00  0.00     0.010 A 
ATOM      3  C2  UNL d   1      -1.220   1.684   1.239  0.00  0.00     0.041 A 
ATOM      4  C3  UNL d   1      -0.923   2.049  -0.089  0.00  0.00    -0.075 A 
ATOM      5  S   UNL d   1      -0.082   1.107  -1.263  0.00  0.00     0.015 SA
ATOM      6  C4  UNL d   1      -0.224   2.323  -2.449  0.00  0.00     0.022 A 
ATOM      7  C5  UNL d   1      -0.894   3.427  -1.978  0.00  0.00     0.026 A 
ATOM      8  C6  UNL d   1      -1.307   3.288  -0.610  0.00  0.00    -0.082 A 
ATOM      9  C7  UNL d   1      -2.010   4.180   0.235  0.00  0.00     0.045 A 
ENDROOT
TORSDOF 0
ENDMDL
