MODEL 1
REMARK minimizedAffinity 19.1876793
REMARK minimizedRMSD -1
REMARK  0 active torsions:
REMARK  status: ('A' for Active; 'I' for Inactive)
ROOT
ATOM      1  C   UNL d   1      -0.756   1.934  -0.000  0.00  0.00    -0.002 A 
ATOM      2  C1  UNL d   1      -1.449   2.751  -0.882  0.00  0.00     0.010 A 
ATOM      3  C2  UNL d   1      -0.889   3.949  -1.330  0.00  0.00     0.041 A 
ATOM      4  C3  UNL d   1       0.393   4.315  -0.874  0.00  0.00    -0.075 A 
ATOM      5  S   UNL d   1       1.278   5.735  -1.288  0.00  0.00     0.015 SA
ATOM      6  C4  UNL d   1       2.598   5.290  -0.306  0.00  0.00     0.022 A 
ATOM      7  C5  UNL d   1       2.385   4.090   0.330  0.00  0.00     0.026 A 
ATOM      8  C6  UNL d   1       1.111   3.508   0.013  0.00  0.00    -0.082 A 
ATOM      9  C7  UNL d   1       0.516   2.300   0.450  0.00  0.00     0.045 A 
ENDROOT
TORSDOF 0
ENDMDL
