MODEL 1
REMARK minimizedAffinity 10.6093235
REMARK minimizedRMSD -1
REMARK  0 active torsions:
REMARK  status: ('A' for Active; 'I' for Inactive)
ROOT
ATOM      1  C   UNL d   1      -1.517   1.446  -2.568  0.00  0.00    -0.002 A 
ATOM      2  C1  UNL d   1      -0.366   0.810  -2.125  0.00  0.00     0.010 A 
ATOM      3  C2  UNL d   1       0.092   0.998  -0.820  0.00  0.00     0.041 A 
ATOM      4  C3  UNL d   1      -0.635   1.843   0.042  0.00  0.00    -0.075 A 
ATOM      5  S   UNL d   1      -0.264   2.222   1.683  0.00  0.00     0.015 SA
ATOM      6  C4  UNL d   1      -1.626   3.236   1.835  0.00  0.00     0.022 A 
ATOM      7  C5  UNL d   1      -2.356   3.296   0.672  0.00  0.00     0.026 A 
ATOM      8  C6  UNL d   1      -1.798   2.494  -0.380  0.00  0.00    -0.082 A 
ATOM      9  C7  UNL d   1      -2.235   2.283  -1.710  0.00  0.00     0.045 A 
ENDROOT
TORSDOF 0
ENDMDL
