MODEL 1
REMARK minimizedAffinity 6.52453279
REMARK minimizedRMSD -1
REMARK  0 active torsions:
REMARK  status: ('A' for Active; 'I' for Inactive)
ROOT
ATOM      1  C   UNL d   1       0.005   2.294   2.453  0.00  0.00    -0.002 A 
ATOM      2  C1  UNL d   1       0.246   0.930   2.365  0.00  0.00     0.010 A 
ATOM      3  C2  UNL d   1       0.184   0.276   1.133  0.00  0.00     0.041 A 
ATOM      4  C3  UNL d   1      -0.126   1.023  -0.021  0.00  0.00    -0.075 A 
ATOM      5  S   UNL d   1      -0.256   0.435  -1.636  0.00  0.00     0.015 SA
ATOM      6  C4  UNL d   1      -0.634   1.981  -2.248  0.00  0.00     0.022 A 
ATOM      7  C5  UNL d   1      -0.664   2.934  -1.257  0.00  0.00     0.026 A 
ATOM      8  C6  UNL d   1      -0.371   2.398   0.042  0.00  0.00    -0.082 A 
ATOM      9  C7  UNL d   1      -0.301   3.032   1.306  0.00  0.00     0.045 A 
ENDROOT
TORSDOF 0
ENDMDL
