MODEL 1
REMARK minimizedAffinity 0.338151962
REMARK minimizedRMSD -1
REMARK  1 active torsions:
REMARK  status: ('A' for Active; 'I' for Inactive)
REMARK    1  A    between atoms: N_2  and  C1_3 
ROOT
ATOM      1  C1  UNL d   1      -4.333   2.663  -5.383  0.00  0.00     0.143 A 
ATOM      2  C2  UNL d   1      -5.378   3.358  -5.999  0.00  0.00    -0.057 A 
ATOM      3  C3  UNL d   1      -6.000   4.443  -5.369  0.00  0.00     0.033 A 
ATOM      4  C4  UNL d   1      -5.604   4.835  -4.095  0.00  0.00    -0.042 A 
ATOM      5  C5  UNL d   1      -4.584   4.142  -3.452  0.00  0.00     0.033 A 
ATOM      6  C6  UNL d   1      -3.963   3.064  -4.090  0.00  0.00    -0.057 A 
ENDROOT
BRANCH   1   7
ATOM      7  N   UNL d   1      -3.742   1.515  -5.916  0.00  0.00    -0.732 N 
ATOM      8  C   UNL d   1      -2.667   0.845  -5.214  0.00  0.00     0.284 C 
ATOM      9  H3  UNL d   1      -4.423   0.884  -6.331  0.00  0.00     0.395 HD
ENDBRANCH   1   7
TORSDOF 1
ENDMDL
