MODEL 1
REMARK minimizedAffinity 1.53249109
REMARK minimizedRMSD -1
REMARK  1 active torsions:
REMARK  status: ('A' for Active; 'I' for Inactive)
REMARK    1  A    between atoms: N_2  and  C1_3 
ROOT
ATOM      1  C1  UNL d   1      -5.603   3.747  -3.226  0.00  0.00     0.143 A 
ATOM      2  C2  UNL d   1      -5.589   5.039  -3.762  0.00  0.00    -0.057 A 
ATOM      3  C3  UNL d   1      -5.800   5.260  -5.129  0.00  0.00     0.033 A 
ATOM      4  C4  UNL d   1      -5.999   4.187  -5.991  0.00  0.00    -0.042 A 
ATOM      5  C5  UNL d   1      -5.992   2.892  -5.484  0.00  0.00     0.033 A 
ATOM      6  C6  UNL d   1      -5.788   2.678  -4.117  0.00  0.00    -0.057 A 
ENDROOT
BRANCH   1   7
ATOM      7  N   UNL d   1      -5.303   3.454  -1.893  0.00  0.00    -0.732 N 
ATOM      8  C   UNL d   1      -5.980   2.377  -1.204  0.00  0.00     0.284 C 
ATOM      9  H3  UNL d   1      -4.305   3.510  -1.699  0.00  0.00     0.395 HD
ENDBRANCH   1   7
TORSDOF 1
ENDMDL
