MODEL 1
REMARK minimizedAffinity 7.02776146
REMARK minimizedRMSD -1
REMARK  1 active torsions:
REMARK  status: ('A' for Active; 'I' for Inactive)
REMARK    1  A    between atoms: N_2  and  C1_3 
ROOT
ATOM      1  C1  UNL d   1       0.376   3.954   0.831  0.00  0.00     0.143 A 
ATOM      2  C2  UNL d   1       1.427   4.874   0.748  0.00  0.00    -0.057 A 
ATOM      3  C3  UNL d   1       1.423   5.896  -0.209  0.00  0.00     0.033 A 
ATOM      4  C4  UNL d   1       0.378   6.000  -1.121  0.00  0.00    -0.042 A 
ATOM      5  C5  UNL d   1      -0.665   5.082  -1.073  0.00  0.00     0.033 A 
ATOM      6  C6  UNL d   1      -0.659   4.067  -0.111  0.00  0.00    -0.057 A 
ENDROOT
BRANCH   1   7
ATOM      7  N   UNL d   1       0.369   2.856   1.695  0.00  0.00    -0.732 N 
ATOM      8  C   UNL d   1       1.466   2.634   2.613  0.00  0.00     0.284 C 
ATOM      9  H3  UNL d   1      -0.550   2.682   2.095  0.00  0.00     0.395 HD
ENDBRANCH   1   7
TORSDOF 1
ENDMDL
