MODEL 1
REMARK minimizedAffinity 5.16512203
REMARK minimizedRMSD -1
REMARK  1 active torsions:
REMARK  status: ('A' for Active; 'I' for Inactive)
REMARK    1  A    between atoms: N_2  and  C1_3 
ROOT
ATOM      1  C1  UNL d   1      -3.369  -5.605  -3.491  0.00  0.00     0.143 A 
ATOM      2  C2  UNL d   1      -3.622  -5.792  -4.854  0.00  0.00    -0.057 A 
ATOM      3  C3  UNL d   1      -4.925  -5.973  -5.332  0.00  0.00     0.033 A 
ATOM      4  C4  UNL d   1      -6.000  -6.000  -4.449  0.00  0.00    -0.042 A 
ATOM      5  C5  UNL d   1      -5.769  -5.841  -3.087  0.00  0.00     0.033 A 
ATOM      6  C6  UNL d   1      -4.466  -5.653  -2.616  0.00  0.00    -0.057 A 
ENDROOT
BRANCH   1   7
ATOM      7  N   UNL d   1      -2.087  -5.518  -2.942  0.00  0.00    -0.732 N 
ATOM      8  C   UNL d   1      -1.319  -4.296  -3.053  0.00  0.00     0.284 C 
ATOM      9  H3  UNL d   1      -2.023  -5.969  -2.032  0.00  0.00     0.395 HD
ENDBRANCH   1   7
TORSDOF 1
ENDMDL
