MODEL 1
REMARK minimizedAffinity 8.11808586
REMARK minimizedRMSD -1
REMARK  1 active torsions:
REMARK  status: ('A' for Active; 'I' for Inactive)
REMARK    1  A    between atoms: N_2  and  C1_3 
ROOT
ATOM      1  C1  UNL d   1       0.308   1.881   0.232  0.00  0.00     0.143 A 
ATOM      2  C2  UNL d   1      -0.961   1.386  -0.086  0.00  0.00    -0.057 A 
ATOM      3  C3  UNL d   1      -1.128   0.103  -0.621  0.00  0.00     0.033 A 
ATOM      4  C4  UNL d   1      -0.021  -0.700  -0.875  0.00  0.00    -0.042 A 
ATOM      5  C5  UNL d   1       1.253  -0.219  -0.590  0.00  0.00     0.033 A 
ATOM      6  C6  UNL d   1       1.412   1.060  -0.049  0.00  0.00    -0.057 A 
ENDROOT
BRANCH   1   7
ATOM      7  N   UNL d   1       0.547   3.184   0.674  0.00  0.00    -0.732 N 
ATOM      8  C   UNL d   1       0.697   4.268  -0.273  0.00  0.00     0.284 C 
ATOM      9  H3  UNL d   1      -0.005   3.423   1.495  0.00  0.00     0.395 HD
ENDBRANCH   1   7
TORSDOF 1
ENDMDL
