MODEL 1
REMARK minimizedAffinity 9.92768669
REMARK minimizedRMSD -1
REMARK  1 active torsions:
REMARK  status: ('A' for Active; 'I' for Inactive)
REMARK    1  A    between atoms: N_2  and  C1_3 
ROOT
ATOM      1  C1  UNL d   1      -0.197   1.491  -0.156  0.00  0.00     0.143 A 
ATOM      2  C2  UNL d   1       0.685   0.567  -0.728  0.00  0.00    -0.057 A 
ATOM      3  C3  UNL d   1       0.213  -0.519  -1.475  0.00  0.00     0.033 A 
ATOM      4  C4  UNL d   1      -1.154  -0.718  -1.639  0.00  0.00    -0.042 A 
ATOM      5  C5  UNL d   1      -2.049   0.174  -1.058  0.00  0.00     0.033 A 
ATOM      6  C6  UNL d   1      -1.572   1.261  -0.319  0.00  0.00    -0.057 A 
ENDROOT
BRANCH   1   7
ATOM      7  N   UNL d   1       0.206   2.536   0.679  0.00  0.00    -0.732 N 
ATOM      8  C   UNL d   1       0.040   3.914   0.268  0.00  0.00     0.284 C 
ATOM      9  H3  UNL d   1      -0.022   2.363   1.655  0.00  0.00     0.395 HD
ENDBRANCH   1   7
TORSDOF 1
ENDMDL
