MODEL 1
REMARK minimizedAffinity 5.40448141
REMARK minimizedRMSD -1
REMARK  1 active torsions:
REMARK  status: ('A' for Active; 'I' for Inactive)
REMARK    1  A    between atoms: N_2  and  C1_3 
ROOT
ATOM      1  C1  UNL d   1       1.099   3.947   0.847  0.00  0.00     0.143 A 
ATOM      2  C2  UNL d   1       0.938   3.303   2.079  0.00  0.00    -0.057 A 
ATOM      3  C3  UNL d   1       1.731   3.639   3.183  0.00  0.00     0.033 A 
ATOM      4  C4  UNL d   1       2.721   4.608   3.066  0.00  0.00    -0.042 A 
ATOM      5  C5  UNL d   1       2.916   5.244   1.845  0.00  0.00     0.033 A 
ATOM      6  C6  UNL d   1       2.117   4.908   0.748  0.00  0.00    -0.057 A 
ENDROOT
BRANCH   1   7
ATOM      7  N   UNL d   1       0.409   3.589  -0.313  0.00  0.00    -0.732 N 
ATOM      8  C   UNL d   1      -0.758   4.332  -0.736  0.00  0.00     0.284 C 
ATOM      9  H3  UNL d   1       1.035   3.330  -1.073  0.00  0.00     0.395 HD
ENDBRANCH   1   7
TORSDOF 1
ENDMDL
