MODEL 1
REMARK minimizedAffinity 5.37100029
REMARK minimizedRMSD -1
REMARK  1 active torsions:
REMARK  status: ('A' for Active; 'I' for Inactive)
REMARK    1  A    between atoms: C3_4  and  O_7 
ROOT
ATOM      1  C   UNL d   1      -0.232  -2.717  -4.039  0.00  0.00    -0.033 A 
ATOM      2  C1  UNL d   1       0.569  -2.857  -5.174  0.00  0.00     0.039 A 
ATOM      3  C2  UNL d   1       1.842  -2.284  -5.207  0.00  0.00    -0.080 A 
ATOM      4  C3  UNL d   1       2.302  -1.577  -4.100  0.00  0.00     0.150 A 
ATOM      5  C4  UNL d   1       1.511  -1.437  -2.964  0.00  0.00    -0.007 A 
ATOM      6  C5  UNL d   1       0.239  -2.009  -2.933  0.00  0.00     0.039 A 
ENDROOT
BRANCH   4   7
ATOM      7  O   UNL d   1       3.535  -0.996  -4.087  0.00  0.00    -0.526 OA
ATOM      8  H5  UNL d   1       3.957  -1.151  -4.949  0.00  0.00     0.418 HD
ENDBRANCH   4   7
TORSDOF 1
ENDMDL
