MODEL 1
REMARK minimizedAffinity -2.66277099
REMARK minimizedRMSD -1
REMARK  1 active torsions:
REMARK  status: ('A' for Active; 'I' for Inactive)
REMARK    1  A    between atoms: C3_4  and  O_7 
ROOT
ATOM      1  C   UNL d   1       1.745  -6.000   2.058  0.00  0.00    -0.033 A 
ATOM      2  C1  UNL d   1       0.372  -5.959   2.310  0.00  0.00     0.039 A 
ATOM      3  C2  UNL d   1      -0.098  -5.918   3.624  0.00  0.00    -0.080 A 
ATOM      4  C3  UNL d   1       0.814  -5.918   4.676  0.00  0.00     0.150 A 
ATOM      5  C4  UNL d   1       2.183  -5.954   4.432  0.00  0.00    -0.007 A 
ATOM      6  C5  UNL d   1       2.650  -5.996   3.119  0.00  0.00     0.039 A 
ENDROOT
BRANCH   4   7
ATOM      7  O   UNL d   1       0.403  -5.884   5.975  0.00  0.00    -0.526 OA
ATOM      8  H5  UNL d   1      -0.568  -5.890   5.991  0.00  0.00     0.418 HD
ENDBRANCH   4   7
TORSDOF 1
ENDMDL
