MODEL 1
REMARK minimizedAffinity 1.27854896
REMARK minimizedRMSD -1
REMARK  1 active torsions:
REMARK  status: ('A' for Active; 'I' for Inactive)
REMARK    1  A    between atoms: C3_4  and  O_7 
ROOT
ATOM      1  C   UNL d   1      -0.213  -6.000   3.986  0.00  0.00    -0.033 A 
ATOM      2  C1  UNL d   1       0.833  -6.000   4.911  0.00  0.00     0.039 A 
ATOM      3  C2  UNL d   1       2.158  -5.999   4.469  0.00  0.00    -0.080 A 
ATOM      4  C3  UNL d   1       2.422  -5.996   3.102  0.00  0.00     0.150 A 
ATOM      5  C4  UNL d   1       1.385  -5.992   2.176  0.00  0.00    -0.007 A 
ATOM      6  C5  UNL d   1       0.063  -5.995   2.618  0.00  0.00     0.039 A 
ENDROOT
BRANCH   4   7
ATOM      7  O   UNL d   1       3.699  -6.000   2.624  0.00  0.00    -0.526 OA
ATOM      8  H5  UNL d   1       4.310  -6.032   3.378  0.00  0.00     0.418 HD
ENDBRANCH   4   7
TORSDOF 1
ENDMDL
