MODEL 1
REMARK minimizedAffinity 1.59186029
REMARK minimizedRMSD -1
REMARK  1 active torsions:
REMARK  status: ('A' for Active; 'I' for Inactive)
REMARK    1  A    between atoms: C3_4  and  O_7 
ROOT
ATOM      1  C   UNL d   1      -1.647  -0.184  -2.765  0.00  0.00    -0.033 A 
ATOM      2  C1  UNL d   1      -2.703  -0.862  -2.151  0.00  0.00     0.039 A 
ATOM      3  C2  UNL d   1      -3.041  -2.151  -2.566  0.00  0.00    -0.080 A 
ATOM      4  C3  UNL d   1      -2.316  -2.752  -3.591  0.00  0.00     0.150 A 
ATOM      5  C4  UNL d   1      -1.261  -2.084  -4.204  0.00  0.00    -0.007 A 
ATOM      6  C5  UNL d   1      -0.925  -0.796  -3.790  0.00  0.00     0.039 A 
ENDROOT
BRANCH   4   7
ATOM      7  O   UNL d   1      -2.613  -4.007  -4.033  0.00  0.00    -0.526 OA
ATOM      8  H5  UNL d   1      -3.382  -4.334  -3.538  0.00  0.00     0.418 HD
ENDBRANCH   4   7
TORSDOF 1
ENDMDL
