MODEL 1
REMARK minimizedAffinity -2.28372502
REMARK minimizedRMSD -1
REMARK  1 active torsions:
REMARK  status: ('A' for Active; 'I' for Inactive)
REMARK    1  A    between atoms: C3_4  and  O_7 
ROOT
ATOM      1  C   UNL d   1       1.257  -5.994   1.510  0.00  0.00    -0.033 A 
ATOM      2  C1  UNL d   1      -0.034  -5.984   2.040  0.00  0.00     0.039 A 
ATOM      3  C2  UNL d   1      -0.224  -5.984   3.423  0.00  0.00    -0.080 A 
ATOM      4  C3  UNL d   1       0.885  -5.992   4.265  0.00  0.00     0.150 A 
ATOM      5  C4  UNL d   1       2.175  -5.998   3.744  0.00  0.00    -0.007 A 
ATOM      6  C5  UNL d   1       2.362  -6.000   2.362  0.00  0.00     0.039 A 
ENDROOT
BRANCH   4   7
ATOM      7  O   UNL d   1       0.750  -5.997   5.621  0.00  0.00    -0.526 OA
ATOM      8  H5  UNL d   1      -0.197  -6.021   5.836  0.00  0.00     0.418 HD
ENDBRANCH   4   7
TORSDOF 1
ENDMDL
