MODEL 1
REMARK minimizedAffinity -2.38852072
REMARK minimizedRMSD -1
REMARK  1 active torsions:
REMARK  status: ('A' for Active; 'I' for Inactive)
REMARK    1  A    between atoms: C3_4  and  O_7 
ROOT
ATOM      1  C   UNL d   1       1.013  -5.998   1.876  0.00  0.00    -0.033 A 
ATOM      2  C1  UNL d   1       2.237  -5.616   2.428  0.00  0.00     0.039 A 
ATOM      3  C2  UNL d   1       2.312  -5.228   3.767  0.00  0.00    -0.080 A 
ATOM      4  C3  UNL d   1       1.156  -5.228   4.543  0.00  0.00     0.150 A 
ATOM      5  C4  UNL d   1      -0.067  -5.611   4.001  0.00  0.00    -0.007 A 
ATOM      6  C5  UNL d   1      -0.139  -5.996   2.663  0.00  0.00     0.039 A 
ENDROOT
BRANCH   4   7
ATOM      7  O   UNL d   1       1.178  -4.853   5.853  0.00  0.00    -0.526 OA
ATOM      8  H5  UNL d   1       2.084  -4.587   6.082  0.00  0.00     0.418 HD
ENDBRANCH   4   7
TORSDOF 1
ENDMDL
