MODEL 1
REMARK minimizedAffinity 1.55294859
REMARK minimizedRMSD -1
REMARK  1 active torsions:
REMARK  status: ('A' for Active; 'I' for Inactive)
REMARK    1  A    between atoms: C3_4  and  O_7 
ROOT
ATOM      1  C   UNL d   1      -1.142  -5.983   2.846  0.00  0.00    -0.033 A 
ATOM      2  C1  UNL d   1      -0.714  -5.980   1.517  0.00  0.00     0.039 A 
ATOM      3  C2  UNL d   1       0.650  -5.984   1.221  0.00  0.00    -0.080 A 
ATOM      4  C3  UNL d   1       1.575  -5.992   2.261  0.00  0.00     0.150 A 
ATOM      5  C4  UNL d   1       1.156  -6.000   3.587  0.00  0.00    -0.007 A 
ATOM      6  C5  UNL d   1      -0.207  -5.995   3.881  0.00  0.00     0.039 A 
ENDROOT
BRANCH   4   7
ATOM      7  O   UNL d   1       2.917  -5.992   2.021  0.00  0.00    -0.526 OA
ATOM      8  H5  UNL d   1       3.058  -5.957   1.060  0.00  0.00     0.418 HD
ENDBRANCH   4   7
TORSDOF 1
ENDMDL
