MODEL 1
REMARK minimizedAffinity 2.06069016
REMARK minimizedRMSD -1
REMARK  1 active torsions:
REMARK  status: ('A' for Active; 'I' for Inactive)
REMARK    1  A    between atoms: C3_4  and  O_7 
ROOT
ATOM      1  C   UNL d   1       0.034  -6.000   4.038  0.00  0.00    -0.033 A 
ATOM      2  C1  UNL d   1       0.976  -5.993   5.069  0.00  0.00     0.039 A 
ATOM      3  C2  UNL d   1       2.340  -5.990   4.771  0.00  0.00    -0.080 A 
ATOM      4  C3  UNL d   1       2.749  -5.993   3.441  0.00  0.00     0.150 A 
ATOM      5  C4  UNL d   1       1.817  -5.996   2.408  0.00  0.00    -0.007 A 
ATOM      6  C5  UNL d   1       0.455  -6.000   2.707  0.00  0.00     0.039 A 
ENDROOT
BRANCH   4   7
ATOM      7  O   UNL d   1       4.069  -5.995   3.101  0.00  0.00    -0.526 OA
ATOM      8  H5  UNL d   1       4.597  -6.021   3.917  0.00  0.00     0.418 HD
ENDBRANCH   4   7
TORSDOF 1
ENDMDL
