MODEL 1
REMARK minimizedAffinity 1.55810654
REMARK minimizedRMSD -1
REMARK  1 active torsions:
REMARK  status: ('A' for Active; 'I' for Inactive)
REMARK    1  A    between atoms: C3_4  and  O_7 
ROOT
ATOM      1  C   UNL d   1      -1.493  -5.991   2.396  0.00  0.00    -0.033 A 
ATOM      2  C1  UNL d   1      -0.636  -5.997   3.499  0.00  0.00     0.039 A 
ATOM      3  C2  UNL d   1       0.747  -5.999   3.310  0.00  0.00    -0.080 A 
ATOM      4  C3  UNL d   1       1.261  -5.993   2.016  0.00  0.00     0.150 A 
ATOM      5  C4  UNL d   1       0.413  -5.983   0.913  0.00  0.00    -0.007 A 
ATOM      6  C5  UNL d   1      -0.968  -5.982   1.104  0.00  0.00     0.039 A 
ENDROOT
BRANCH   4   7
ATOM      7  O   UNL d   1       2.604  -6.000   1.782  0.00  0.00    -0.526 OA
ATOM      8  H5  UNL d   1       3.065  -6.036   2.637  0.00  0.00     0.418 HD
ENDBRANCH   4   7
TORSDOF 1
ENDMDL
