MODEL 1
REMARK minimizedAffinity 4.58924294
REMARK minimizedRMSD -1
REMARK  1 active torsions:
REMARK  status: ('A' for Active; 'I' for Inactive)
REMARK    1  A    between atoms: C3_4  and  O_7 
ROOT
ATOM      1  C   UNL d   1       0.823   0.653   0.889  0.00  0.00    -0.033 A 
ATOM      2  C1  UNL d   1       0.684  -0.707   0.610  0.00  0.00     0.039 A 
ATOM      3  C2  UNL d   1      -0.070  -1.522   1.457  0.00  0.00    -0.080 A 
ATOM      4  C3  UNL d   1      -0.679  -0.964   2.578  0.00  0.00     0.150 A 
ATOM      5  C4  UNL d   1      -0.547   0.392   2.860  0.00  0.00    -0.007 A 
ATOM      6  C5  UNL d   1       0.207   1.203   2.013  0.00  0.00     0.039 A 
ENDROOT
BRANCH   4   7
ATOM      7  O   UNL d   1      -1.421  -1.719   3.436  0.00  0.00    -0.526 OA
ATOM      8  H5  UNL d   1      -1.400  -2.642   3.131  0.00  0.00     0.418 HD
ENDBRANCH   4   7
TORSDOF 1
ENDMDL
