MODEL 1
REMARK minimizedAffinity 3.35395718
REMARK minimizedRMSD -1
REMARK  1 active torsions:
REMARK  status: ('A' for Active; 'I' for Inactive)
REMARK    1  A    between atoms: C3_4  and  O_7 
ROOT
ATOM      1  C   UNL d   1      -0.515  -5.996   1.160  0.00  0.00    -0.033 A 
ATOM      2  C1  UNL d   1      -1.539  -6.000   2.109  0.00  0.00     0.039 A 
ATOM      3  C2  UNL d   1      -1.231  -6.000   3.471  0.00  0.00    -0.080 A 
ATOM      4  C3  UNL d   1       0.103  -5.994   3.869  0.00  0.00     0.150 A 
ATOM      5  C4  UNL d   1       1.128  -5.986   2.929  0.00  0.00    -0.007 A 
ATOM      6  C5  UNL d   1       0.818  -5.987   1.570  0.00  0.00     0.039 A 
ENDROOT
BRANCH   4   7
ATOM      7  O   UNL d   1       0.453  -5.999   5.187  0.00  0.00    -0.526 OA
ATOM      8  H5  UNL d   1      -0.359  -6.034   5.721  0.00  0.00     0.418 HD
ENDBRANCH   4   7
TORSDOF 1
ENDMDL
