MODEL 1
REMARK minimizedAffinity 1.72711778
REMARK minimizedRMSD -1
REMARK  1 active torsions:
REMARK  status: ('A' for Active; 'I' for Inactive)
REMARK    1  A    between atoms: C3_4  and  O_7 
ROOT
ATOM      1  C   UNL d   1      -0.253   0.643   1.588  0.00  0.00    -0.033 A 
ATOM      2  C1  UNL d   1      -0.124  -0.744   1.494  0.00  0.00     0.039 A 
ATOM      3  C2  UNL d   1       1.137  -1.337   1.583  0.00  0.00    -0.080 A 
ATOM      4  C3  UNL d   1       2.259  -0.533   1.766  0.00  0.00     0.150 A 
ATOM      5  C4  UNL d   1       2.137   0.849   1.864  0.00  0.00    -0.007 A 
ATOM      6  C5  UNL d   1       0.877   1.440   1.774  0.00  0.00     0.039 A 
ENDROOT
BRANCH   4   7
ATOM      7  O   UNL d   1       3.511  -1.066   1.854  0.00  0.00    -0.526 OA
ATOM      8  H5  UNL d   1       3.444  -2.029   1.741  0.00  0.00     0.418 HD
ENDBRANCH   4   7
TORSDOF 1
ENDMDL
