MODEL 1
REMARK minimizedAffinity 0.0222793575
REMARK minimizedRMSD -1
REMARK  1 active torsions:
REMARK  status: ('A' for Active; 'I' for Inactive)
REMARK    1  A    between atoms: C3_4  and  O_7 
ROOT
ATOM      1  C   UNL d   1      -4.077  -5.754   0.455  0.00  0.00    -0.033 A 
ATOM      2  C1  UNL d   1      -3.156  -5.901   1.493  0.00  0.00     0.039 A 
ATOM      3  C2  UNL d   1      -3.598  -5.984   2.815  0.00  0.00    -0.080 A 
ATOM      4  C3  UNL d   1      -4.962  -5.921   3.084  0.00  0.00     0.150 A 
ATOM      5  C4  UNL d   1      -5.886  -5.778   2.054  0.00  0.00    -0.007 A 
ATOM      6  C5  UNL d   1      -5.443  -5.694   0.735  0.00  0.00     0.039 A 
ENDROOT
BRANCH   4   7
ATOM      7  O   UNL d   1      -5.441  -5.993   4.359  0.00  0.00    -0.526 OA
ATOM      8  H5  UNL d   1      -4.686  -6.061   4.967  0.00  0.00     0.418 HD
ENDBRANCH   4   7
TORSDOF 1
ENDMDL
