MODEL 1
REMARK minimizedAffinity 2.7724123
REMARK minimizedRMSD -1
REMARK  1 active torsions:
REMARK  status: ('A' for Active; 'I' for Inactive)
REMARK    1  A    between atoms: C3_4  and  O_7 
ROOT
ATOM      1  C   UNL d   1      -5.258  -0.751   4.072  0.00  0.00    -0.033 A 
ATOM      2  C1  UNL d   1      -5.636   0.363   3.320  0.00  0.00     0.039 A 
ATOM      3  C2  UNL d   1      -5.659   1.629   3.908  0.00  0.00    -0.080 A 
ATOM      4  C3  UNL d   1      -5.301   1.768   5.246  0.00  0.00     0.150 A 
ATOM      5  C4  UNL d   1      -4.920   0.663   6.000  0.00  0.00    -0.007 A 
ATOM      6  C5  UNL d   1      -4.899  -0.601   5.411  0.00  0.00     0.039 A 
ENDROOT
BRANCH   4   7
ATOM      7  O   UNL d   1      -5.312   2.982   5.864  0.00  0.00    -0.526 OA
ATOM      8  H5  UNL d   1      -5.624   3.648   5.229  0.00  0.00     0.418 HD
ENDBRANCH   4   7
TORSDOF 1
ENDMDL
