MODEL 1
REMARK minimizedAffinity 3.03367829
REMARK minimizedRMSD -1
REMARK  1 active torsions:
REMARK  status: ('A' for Active; 'I' for Inactive)
REMARK    1  A    between atoms: C3_4  and  O_7 
ROOT
ATOM      1  C   UNL d   1      -3.015  -1.479  -2.752  0.00  0.00    -0.033 A 
ATOM      2  C1  UNL d   1      -2.930  -2.730  -3.366  0.00  0.00     0.039 A 
ATOM      3  C2  UNL d   1      -1.752  -3.117  -4.008  0.00  0.00    -0.080 A 
ATOM      4  C3  UNL d   1      -0.667  -2.245  -4.027  0.00  0.00     0.150 A 
ATOM      5  C4  UNL d   1      -0.743  -0.998  -3.415  0.00  0.00    -0.007 A 
ATOM      6  C5  UNL d   1      -1.921  -0.614  -2.775  0.00  0.00     0.039 A 
ENDROOT
BRANCH   4   7
ATOM      7  O   UNL d   1       0.502  -2.576  -4.645  0.00  0.00    -0.526 OA
ATOM      8  H5  UNL d   1       0.399  -3.454  -5.049  0.00  0.00     0.418 HD
ENDBRANCH   4   7
TORSDOF 1
ENDMDL
