MODEL 1
REMARK minimizedAffinity 1.08156955
REMARK minimizedRMSD -1
REMARK  1 active torsions:
REMARK  status: ('A' for Active; 'I' for Inactive)
REMARK    1  A    between atoms: C3_4  and  O_7 
ROOT
ATOM      1  C   UNL d   1      -1.058   0.491   3.298  0.00  0.00    -0.033 A 
ATOM      2  C1  UNL d   1      -1.713  -0.498   4.033  0.00  0.00     0.039 A 
ATOM      3  C2  UNL d   1      -3.064  -0.351   4.356  0.00  0.00    -0.080 A 
ATOM      4  C3  UNL d   1      -3.746   0.788   3.937  0.00  0.00     0.150 A 
ATOM      5  C4  UNL d   1      -3.101   1.775   3.200  0.00  0.00    -0.007 A 
ATOM      6  C5  UNL d   1      -1.752   1.627   2.880  0.00  0.00     0.039 A 
ENDROOT
BRANCH   4   7
ATOM      7  O   UNL d   1      -5.064   0.978   4.231  0.00  0.00    -0.526 OA
ATOM      8  H5  UNL d   1      -5.370   0.228   4.769  0.00  0.00     0.418 HD
ENDBRANCH   4   7
TORSDOF 1
ENDMDL
