MODEL 1
REMARK minimizedAffinity -2.81148314
REMARK minimizedRMSD -1
REMARK  1 active torsions:
REMARK  status: ('A' for Active; 'I' for Inactive)
REMARK    1  A    between atoms: C3_4  and  O_7 
ROOT
ATOM      1  C   UNL d   1      -4.858   2.399   4.308  0.00  0.00    -0.033 A 
ATOM      2  C1  UNL d   1      -4.333   1.233   3.747  0.00  0.00     0.039 A 
ATOM      3  C2  UNL d   1      -4.639  -0.010   4.304  0.00  0.00    -0.080 A 
ATOM      4  C3  UNL d   1      -5.471  -0.074   5.419  0.00  0.00     0.150 A 
ATOM      5  C4  UNL d   1      -6.000   1.084   5.980  0.00  0.00    -0.007 A 
ATOM      6  C5  UNL d   1      -5.692   2.324   5.423  0.00  0.00     0.039 A 
ENDROOT
BRANCH   4   7
ATOM      7  O   UNL d   1      -5.794  -1.264   6.000  0.00  0.00    -0.526 OA
ATOM      8  H5  UNL d   1      -5.333  -1.974   5.523  0.00  0.00     0.418 HD
ENDBRANCH   4   7
TORSDOF 1
ENDMDL
