MODEL 1
REMARK minimizedAffinity -5.20593977
REMARK minimizedRMSD -1
REMARK  1 active torsions:
REMARK  status: ('A' for Active; 'I' for Inactive)
REMARK    1  A    between atoms: C1_2  and  C2_3 
ROOT
ATOM      1  C2  UNL d   1      -0.838   0.122   0.520  0.00  0.00    -0.081 A 
ATOM      2  C3  UNL d   1      -0.420  -1.213   0.464  0.00  0.00     0.006 A 
ATOM      3  C4  UNL d   1       0.807  -1.548  -0.113  0.00  0.00     0.002 A 
ATOM      4  C5  UNL d   1       1.640  -0.553  -0.636  0.00  0.00    -0.080 A 
ATOM      5  C6  UNL d   1       2.974  -0.895  -1.230  0.00  0.00     0.076 C 
ATOM      6  C7  UNL d   1       1.215   0.779  -0.596  0.00  0.00     0.002 A 
ATOM      7  C8  UNL d   1      -0.012   1.115  -0.020  0.00  0.00     0.006 A 
ENDROOT
BRANCH   1   8
ATOM      8  C1  UNL d   1      -2.131   0.493   1.199  0.00  0.00     0.054 C 
ATOM      9  C   UNL d   1      -1.879   1.158   2.545  0.00  0.00     0.018 C 
ENDBRANCH   1   8
TORSDOF 1
ENDMDL
