MODEL 1
REMARK minimizedAffinity -5.20085239
REMARK minimizedRMSD -1
REMARK  1 active torsions:
REMARK  status: ('A' for Active; 'I' for Inactive)
REMARK    1  A    between atoms: C1_2  and  C2_3 
ROOT
ATOM      1  C2  UNL d   1       0.160   0.962  -1.064  0.00  0.00    -0.081 A 
ATOM      2  C3  UNL d   1       0.889  -0.210  -0.828  0.00  0.00     0.006 A 
ATOM      3  C4  UNL d   1       2.095  -0.440  -1.494  0.00  0.00     0.002 A 
ATOM      4  C5  UNL d   1       2.595   0.500  -2.401  0.00  0.00    -0.080 A 
ATOM      5  C6  UNL d   1       3.904   0.279  -3.100  0.00  0.00     0.076 C 
ATOM      6  C7  UNL d   1       1.858   1.663  -2.650  0.00  0.00     0.002 A 
ATOM      7  C8  UNL d   1       0.652   1.893  -1.985  0.00  0.00     0.006 A 
ENDROOT
BRANCH   1   8
ATOM      8  C1  UNL d   1      -1.109   1.243  -0.300  0.00  0.00     0.054 C 
ATOM      9  C   UNL d   1      -1.791  -0.046   0.133  0.00  0.00     0.018 C 
ENDBRANCH   1   8
TORSDOF 1
ENDMDL
