MODEL 1
REMARK minimizedAffinity -4.41123199
REMARK minimizedRMSD -1
REMARK  1 active torsions:
REMARK  status: ('A' for Active; 'I' for Inactive)
REMARK    1  A    between atoms: C1_2  and  C2_3 
ROOT
ATOM      1  C2  UNL d   1       1.886   0.032  -1.212  0.00  0.00    -0.081 A 
ATOM      2  C3  UNL d   1       1.465   1.072  -2.050  0.00  0.00     0.006 A 
ATOM      3  C4  UNL d   1       1.322   0.861  -3.423  0.00  0.00     0.002 A 
ATOM      4  C5  UNL d   1       1.589  -0.394  -3.980  0.00  0.00    -0.080 A 
ATOM      5  C6  UNL d   1       1.411  -0.642  -5.449  0.00  0.00     0.076 C 
ATOM      6  C7  UNL d   1       2.027  -1.428  -3.146  0.00  0.00     0.002 A 
ATOM      7  C8  UNL d   1       2.171  -1.218  -1.773  0.00  0.00     0.006 A 
ENDROOT
BRANCH   1   8
ATOM      8  C1  UNL d   1       1.979   0.238   0.278  0.00  0.00     0.054 C 
ATOM      9  C   UNL d   1       0.661  -0.090   0.966  0.00  0.00     0.018 C 
ENDBRANCH   1   8
TORSDOF 1
ENDMDL
