MODEL 1
REMARK minimizedAffinity -2.67743659
REMARK minimizedRMSD -1
REMARK  1 active torsions:
REMARK  status: ('A' for Active; 'I' for Inactive)
REMARK    1  A    between atoms: C1_2  and  C2_3 
ROOT
ATOM      1  C2  UNL d   1       1.513  -0.204  -1.466  0.00  0.00    -0.081 A 
ATOM      2  C3  UNL d   1       0.915   1.060  -1.539  0.00  0.00     0.006 A 
ATOM      3  C4  UNL d   1      -0.189   1.369  -0.741  0.00  0.00     0.002 A 
ATOM      4  C5  UNL d   1      -0.708   0.423   0.149  0.00  0.00    -0.080 A 
ATOM      5  C6  UNL d   1      -1.874   0.752   1.034  0.00  0.00     0.076 C 
ATOM      6  C7  UNL d   1      -0.122  -0.846   0.210  0.00  0.00     0.002 A 
ATOM      7  C8  UNL d   1       0.981  -1.156  -0.588  0.00  0.00     0.006 A 
ENDROOT
BRANCH   1   8
ATOM      8  C1  UNL d   1       2.743  -0.519  -2.278  0.00  0.00     0.054 C 
ATOM      9  C   UNL d   1       2.754   0.256  -3.588  0.00  0.00     0.018 C 
ENDBRANCH   1   8
TORSDOF 1
ENDMDL
