MODEL 1
REMARK minimizedAffinity -4.49837542
REMARK minimizedRMSD -1
REMARK  1 active torsions:
REMARK  status: ('A' for Active; 'I' for Inactive)
REMARK    1  A    between atoms: C1_2  and  C2_3 
ROOT
ATOM      1  C2  UNL d   1      -0.602   0.291  -0.071  0.00  0.00    -0.081 A 
ATOM      2  C3  UNL d   1       0.014   1.334  -0.774  0.00  0.00     0.006 A 
ATOM      3  C4  UNL d   1       1.219   1.120  -1.446  0.00  0.00     0.002 A 
ATOM      4  C5  UNL d   1       1.825  -0.140  -1.434  0.00  0.00    -0.080 A 
ATOM      5  C6  UNL d   1       3.104  -0.391  -2.176  0.00  0.00     0.076 C 
ATOM      6  C7  UNL d   1       1.220  -1.178  -0.717  0.00  0.00     0.002 A 
ATOM      7  C8  UNL d   1       0.015  -0.965  -0.044  0.00  0.00     0.006 A 
ENDROOT
BRANCH   1   8
ATOM      8  C1  UNL d   1      -1.935   0.501   0.601  0.00  0.00     0.054 C 
ATOM      9  C   UNL d   1      -1.775   0.681   2.103  0.00  0.00     0.018 C 
ENDBRANCH   1   8
TORSDOF 1
ENDMDL
