MODEL 1
REMARK minimizedAffinity -4.22927761
REMARK minimizedRMSD -1
REMARK  1 active torsions:
REMARK  status: ('A' for Active; 'I' for Inactive)
REMARK    1  A    between atoms: C1_2  and  C2_3 
ROOT
ATOM      1  C2  UNL d   1      -0.532   0.017   0.573  0.00  0.00    -0.081 A 
ATOM      2  C3  UNL d   1       0.397   1.059   0.677  0.00  0.00     0.006 A 
ATOM      3  C4  UNL d   1       1.624   0.983   0.014  0.00  0.00     0.002 A 
ATOM      4  C5  UNL d   1       1.939  -0.132  -0.770  0.00  0.00    -0.080 A 
ATOM      5  C6  UNL d   1       3.240  -0.212  -1.512  0.00  0.00     0.076 C 
ATOM      6  C7  UNL d   1       1.018  -1.181  -0.860  0.00  0.00     0.002 A 
ATOM      7  C8  UNL d   1      -0.208  -1.106  -0.197  0.00  0.00     0.006 A 
ENDROOT
BRANCH   1   8
ATOM      8  C1  UNL d   1      -1.882   0.125   1.235  0.00  0.00     0.054 C 
ATOM      9  C   UNL d   1      -1.776   0.777   2.606  0.00  0.00     0.018 C 
ENDBRANCH   1   8
TORSDOF 1
ENDMDL
