MODEL 1
REMARK minimizedAffinity -3.76668
REMARK minimizedRMSD -1
REMARK  1 active torsions:
REMARK  status: ('A' for Active; 'I' for Inactive)
REMARK    1  A    between atoms: C1_2  and  C2_3 
ROOT
ATOM      1  C2  UNL d   1      -1.169  -0.185   0.709  0.00  0.00    -0.081 A 
ATOM      2  C3  UNL d   1      -0.823  -1.537   0.815  0.00  0.00     0.006 A 
ATOM      3  C4  UNL d   1       0.384  -2.003   0.286  0.00  0.00     0.002 A 
ATOM      4  C5  UNL d   1       1.267  -1.123  -0.349  0.00  0.00    -0.080 A 
ATOM      5  C6  UNL d   1       2.579  -1.604  -0.894  0.00  0.00     0.076 C 
ATOM      6  C7  UNL d   1       0.913   0.225  -0.469  0.00  0.00     0.002 A 
ATOM      7  C8  UNL d   1      -0.293   0.691   0.058  0.00  0.00     0.006 A 
ENDROOT
BRANCH   1   8
ATOM      8  C1  UNL d   1      -2.439   0.332   1.335  0.00  0.00     0.054 C 
ATOM      9  C   UNL d   1      -2.156   1.061   2.641  0.00  0.00     0.018 C 
ENDBRANCH   1   8
TORSDOF 1
ENDMDL
