MODEL 1
REMARK minimizedAffinity -4.08519173
REMARK minimizedRMSD -1
REMARK  1 active torsions:
REMARK  status: ('A' for Active; 'I' for Inactive)
REMARK    1  A    between atoms: C1_2  and  C2_3 
ROOT
ATOM      1  C2  UNL d   1      -0.830   0.527  -0.217  0.00  0.00    -0.081 A 
ATOM      2  C3  UNL d   1      -0.257  -0.672   0.222  0.00  0.00     0.006 A 
ATOM      3  C4  UNL d   1       1.020  -1.046  -0.206  0.00  0.00     0.002 A 
ATOM      4  C5  UNL d   1       1.746  -0.223  -1.074  0.00  0.00    -0.080 A 
ATOM      5  C6  UNL d   1       3.129  -0.598  -1.517  0.00  0.00     0.076 C 
ATOM      6  C7  UNL d   1       1.166   0.967  -1.526  0.00  0.00     0.002 A 
ATOM      7  C8  UNL d   1      -0.110   1.340  -1.099  0.00  0.00     0.006 A 
ENDROOT
BRANCH   1   8
ATOM      8  C1  UNL d   1      -2.179   0.964   0.294  0.00  0.00     0.054 C 
ATOM      9  C   UNL d   1      -2.197   1.040   1.814  0.00  0.00     0.018 C 
ENDBRANCH   1   8
TORSDOF 1
ENDMDL
