MODEL 1
REMARK minimizedAffinity -6.62663031
REMARK minimizedRMSD -1
REMARK  1 active torsions:
REMARK  status: ('A' for Active; 'I' for Inactive)
REMARK    1  A    between atoms: C1_2  and  C2_3 
ROOT
ATOM      1  C2  UNL d   1      -0.377   0.558  -0.528  0.00  0.00    -0.081 A 
ATOM      2  C3  UNL d   1       0.141  -0.660  -0.070  0.00  0.00     0.006 A 
ATOM      3  C4  UNL d   1       1.439  -1.048  -0.409  0.00  0.00     0.002 A 
ATOM      4  C5  UNL d   1       2.243  -0.223  -1.204  0.00  0.00    -0.080 A 
ATOM      5  C6  UNL d   1       3.649  -0.615  -1.549  0.00  0.00     0.076 C 
ATOM      6  C7  UNL d   1       1.719   0.985  -1.675  0.00  0.00     0.002 A 
ATOM      7  C8  UNL d   1       0.420   1.374  -1.337  0.00  0.00     0.006 A 
ENDROOT
BRANCH   1   8
ATOM      8  C1  UNL d   1      -1.754   1.009  -0.111  0.00  0.00     0.054 C 
ATOM      9  C   UNL d   1      -1.971   0.815   1.383  0.00  0.00     0.018 C 
ENDBRANCH   1   8
TORSDOF 1
ENDMDL
