MODEL 1
REMARK minimizedAffinity -3.58627844
REMARK minimizedRMSD -1
REMARK  1 active torsions:
REMARK  status: ('A' for Active; 'I' for Inactive)
REMARK    1  A    between atoms: C1_2  and  C2_3 
ROOT
ATOM      1  C2  UNL d   1       1.572   0.693  -1.783  0.00  0.00    -0.081 A 
ATOM      2  C3  UNL d   1       0.479   0.765  -0.910  0.00  0.00     0.006 A 
ATOM      3  C4  UNL d   1       0.223  -0.271  -0.008  0.00  0.00     0.002 A 
ATOM      4  C5  UNL d   1       1.059  -1.392   0.041  0.00  0.00    -0.080 A 
ATOM      5  C6  UNL d   1       0.813  -2.497   1.024  0.00  0.00     0.076 C 
ATOM      6  C7  UNL d   1       2.141  -1.472  -0.843  0.00  0.00     0.002 A 
ATOM      7  C8  UNL d   1       2.397  -0.437  -1.745  0.00  0.00     0.006 A 
ENDROOT
BRANCH   1   8
ATOM      8  C1  UNL d   1       1.888   1.837  -2.711  0.00  0.00     0.054 C 
ATOM      9  C   UNL d   1       0.700   2.779  -2.853  0.00  0.00     0.018 C 
ENDBRANCH   1   8
TORSDOF 1
ENDMDL
