MODEL 1
REMARK minimizedAffinity -4.7088089
REMARK minimizedRMSD -1
REMARK  1 active torsions:
REMARK  status: ('A' for Active; 'I' for Inactive)
REMARK    1  A    between atoms: C1_2  and  C2_3 
ROOT
ATOM      1  C2  UNL d   1      -0.942  -0.223   0.489  0.00  0.00    -0.081 A 
ATOM      2  C3  UNL d   1      -0.455  -1.533   0.406  0.00  0.00     0.006 A 
ATOM      3  C4  UNL d   1       0.847  -1.778  -0.035  0.00  0.00     0.002 A 
ATOM      4  C5  UNL d   1       1.687  -0.718  -0.392  0.00  0.00    -0.080 A 
ATOM      5  C6  UNL d   1       3.097  -0.965  -0.838  0.00  0.00     0.076 C 
ATOM      6  C7  UNL d   1       1.195   0.590  -0.326  0.00  0.00     0.002 A 
ATOM      7  C8  UNL d   1      -0.108   0.836   0.114  0.00  0.00     0.006 A 
ENDROOT
BRANCH   1   8
ATOM      8  C1  UNL d   1      -2.324   0.049   1.026  0.00  0.00     0.054 C 
ATOM      9  C   UNL d   1      -2.266   0.695   2.403  0.00  0.00     0.018 C 
ENDBRANCH   1   8
TORSDOF 1
ENDMDL
