MODEL 1
REMARK minimizedAffinity -5.15923405
REMARK minimizedRMSD -1
REMARK  1 active torsions:
REMARK  status: ('A' for Active; 'I' for Inactive)
REMARK    1  A    between atoms: C1_2  and  C2_3 
ROOT
ATOM      1  C2  UNL d   1       1.379   1.553  -1.773  0.00  0.00    -0.081 A 
ATOM      2  C3  UNL d   1       2.203   0.436  -1.954  0.00  0.00     0.006 A 
ATOM      3  C4  UNL d   1       1.881  -0.786  -1.358  0.00  0.00     0.002 A 
ATOM      4  C5  UNL d   1       0.725  -0.914  -0.580  0.00  0.00    -0.080 A 
ATOM      5  C6  UNL d   1       0.352  -2.228   0.039  0.00  0.00     0.076 C 
ATOM      6  C7  UNL d   1      -0.089   0.206  -0.385  0.00  0.00     0.002 A 
ATOM      7  C8  UNL d   1       0.233   1.429  -0.980  0.00  0.00     0.006 A 
ENDROOT
BRANCH   1   8
ATOM      8  C1  UNL d   1       1.689   2.855  -2.466  0.00  0.00     0.054 C 
ATOM      9  C   UNL d   1       0.715   3.948  -2.052  0.00  0.00     0.018 C 
ENDBRANCH   1   8
TORSDOF 1
ENDMDL
