MODEL 1
REMARK minimizedAffinity 0.906262636
REMARK minimizedRMSD -1
REMARK  2 active torsions:
REMARK  status: ('A' for Active; 'I' for Inactive)
REMARK    1  A    between atoms: C1_2  and  C2_3 
REMARK    2  A    between atoms: C2_3  and  C3_4 
ROOT
ATOM      1  C3  UNL d   1       1.031   0.833  -0.914  0.00  0.00    -0.075 A 
ATOM      2  C4  UNL d   1       0.491   0.709   0.375  0.00  0.00     0.002 A 
ATOM      3  C5  UNL d   1      -0.417  -0.309   0.667  0.00  0.00     0.002 A 
ATOM      4  C6  UNL d   1      -0.803  -1.208  -0.325  0.00  0.00    -0.004 A 
ATOM      5  C7  UNL d   1      -0.286  -1.084  -1.612  0.00  0.00     0.002 A 
ATOM      6  C8  UNL d   1       0.626  -0.069  -1.907  0.00  0.00     0.002 A 
ENDROOT
BRANCH   1   7
ATOM      7  C2  UNL d   1       2.037   1.914  -1.229  0.00  0.00     0.056 C 
BRANCH   7   8
ATOM      8  C1  UNL d   1       2.899   2.333  -0.033  0.00  0.00     0.007 C 
ATOM      9  C   UNL d   1       4.393   2.281  -0.323  0.00  0.00     0.009 C 
ENDBRANCH   7   8
ENDBRANCH   1   7
TORSDOF 2
ENDMDL
