MODEL 1
REMARK minimizedAffinity -2.56771851
REMARK minimizedRMSD -1
REMARK  2 active torsions:
REMARK  status: ('A' for Active; 'I' for Inactive)
REMARK    1  A    between atoms: C1_2  and  C2_3 
REMARK    2  A    between atoms: C2_3  and  C3_4 
ROOT
ATOM      1  C3  UNL d   1      -4.819   1.800  -5.953  0.00  0.00    -0.075 A 
ATOM      2  C4  UNL d   1      -5.262   0.470  -5.982  0.00  0.00     0.002 A 
ATOM      3  C5  UNL d   1      -4.345  -0.582  -6.000  0.00  0.00     0.002 A 
ATOM      4  C6  UNL d   1      -2.977  -0.318  -6.000  0.00  0.00    -0.004 A 
ATOM      5  C7  UNL d   1      -2.526   1.000  -5.988  0.00  0.00     0.002 A 
ATOM      6  C8  UNL d   1      -3.441   2.055  -5.966  0.00  0.00     0.002 A 
ENDROOT
BRANCH   1   7
ATOM      7  C2  UNL d   1      -5.806   2.942  -5.904  0.00  0.00     0.056 C 
BRANCH   7   8
ATOM      8  C1  UNL d   1      -5.216   4.253  -5.373  0.00  0.00     0.007 C 
ATOM      9  C   UNL d   1      -5.850   5.491  -5.995  0.00  0.00     0.009 C 
ENDBRANCH   7   8
ENDBRANCH   1   7
TORSDOF 2
ENDMDL
