MODEL 1
REMARK minimizedAffinity -0.10976056
REMARK minimizedRMSD -1
REMARK  2 active torsions:
REMARK  status: ('A' for Active; 'I' for Inactive)
REMARK    1  A    between atoms: C1_2  and  C2_3 
REMARK    2  A    between atoms: C2_3  and  C3_4 
ROOT
ATOM      1  C3  UNL d   1      -3.800   0.941  -5.918  0.00  0.00    -0.075 A 
ATOM      2  C4  UNL d   1      -2.409   0.769  -5.947  0.00  0.00     0.002 A 
ATOM      3  C5  UNL d   1      -1.557   1.869  -5.844  0.00  0.00     0.002 A 
ATOM      4  C6  UNL d   1      -2.084   3.153  -5.721  0.00  0.00    -0.004 A 
ATOM      5  C7  UNL d   1      -3.464   3.337  -5.707  0.00  0.00     0.002 A 
ATOM      6  C8  UNL d   1      -4.319   2.238  -5.806  0.00  0.00     0.002 A 
ENDROOT
BRANCH   1   7
ATOM      7  C2  UNL d   1      -4.728  -0.248  -6.000  0.00  0.00     0.056 C 
BRANCH   7   8
ATOM      8  C1  UNL d   1      -4.253  -1.466  -5.200  0.00  0.00     0.007 C 
ATOM      9  C   UNL d   1      -4.419  -2.779  -5.952  0.00  0.00     0.009 C 
ENDBRANCH   7   8
ENDBRANCH   1   7
TORSDOF 2
ENDMDL
