MODEL 1
REMARK minimizedAffinity -2.2810173
REMARK minimizedRMSD -1
REMARK  2 active torsions:
REMARK  status: ('A' for Active; 'I' for Inactive)
REMARK    1  A    between atoms: C1_2  and  C2_3 
REMARK    2  A    between atoms: C2_3  and  C3_4 
ROOT
ATOM      1  C3  UNL d   1      -4.809   2.075  -5.855  0.00  0.00    -0.075 A 
ATOM      2  C4  UNL d   1      -5.716   3.108  -5.581  0.00  0.00     0.002 A 
ATOM      3  C5  UNL d   1      -5.276   4.428  -5.476  0.00  0.00     0.002 A 
ATOM      4  C6  UNL d   1      -3.925   4.730  -5.634  0.00  0.00    -0.004 A 
ATOM      5  C7  UNL d   1      -3.013   3.709  -5.890  0.00  0.00     0.002 A 
ATOM      6  C8  UNL d   1      -3.450   2.389  -6.000  0.00  0.00     0.002 A 
ENDROOT
BRANCH   1   7
ATOM      7  C2  UNL d   1      -5.282   0.649  -5.999  0.00  0.00     0.056 C 
BRANCH   7   8
ATOM      8  C1  UNL d   1      -4.154  -0.388  -5.987  0.00  0.00     0.007 C 
ATOM      9  C   UNL d   1      -4.658  -1.824  -5.943  0.00  0.00     0.009 C 
ENDBRANCH   7   8
ENDBRANCH   1   7
TORSDOF 2
ENDMDL
