MODEL 1
REMARK minimizedAffinity 0.0829632059
REMARK minimizedRMSD -1
REMARK  2 active torsions:
REMARK  status: ('A' for Active; 'I' for Inactive)
REMARK    1  A    between atoms: C1_2  and  C2_3 
REMARK    2  A    between atoms: C2_3  and  C3_4 
ROOT
ATOM      1  C3  UNL d   1      -4.822   2.190  -5.915  0.00  0.00    -0.075 A 
ATOM      2  C4  UNL d   1      -3.441   2.427  -5.967  0.00  0.00     0.002 A 
ATOM      3  C5  UNL d   1      -2.941   3.725  -5.865  0.00  0.00     0.002 A 
ATOM      4  C6  UNL d   1      -3.814   4.802  -5.720  0.00  0.00    -0.004 A 
ATOM      5  C7  UNL d   1      -5.188   4.579  -5.683  0.00  0.00     0.002 A 
ATOM      6  C8  UNL d   1      -5.691   3.281  -5.781  0.00  0.00     0.002 A 
ENDROOT
BRANCH   1   7
ATOM      7  C2  UNL d   1      -5.368   0.784  -5.995  0.00  0.00     0.056 C 
BRANCH   7   8
ATOM      8  C1  UNL d   1      -4.293  -0.307  -5.947  0.00  0.00     0.007 C 
ATOM      9  C   UNL d   1      -4.865  -1.717  -5.992  0.00  0.00     0.009 C 
ENDBRANCH   7   8
ENDBRANCH   1   7
TORSDOF 2
ENDMDL
