MODEL 1
REMARK minimizedAffinity -2.11692119
REMARK minimizedRMSD -1
REMARK  2 active torsions:
REMARK  status: ('A' for Active; 'I' for Inactive)
REMARK    1  A    between atoms: C1_2  and  C2_3 
REMARK    2  A    between atoms: C2_3  and  C3_4 
ROOT
ATOM      1  C3  UNL d   1      -2.109  -4.157  -2.951  0.00  0.00    -0.075 A 
ATOM      2  C4  UNL d   1      -2.007  -5.277  -2.113  0.00  0.00     0.002 A 
ATOM      3  C5  UNL d   1      -1.933  -5.122  -0.728  0.00  0.00     0.002 A 
ATOM      4  C6  UNL d   1      -1.948  -3.847  -0.166  0.00  0.00    -0.004 A 
ATOM      5  C7  UNL d   1      -2.031  -2.727  -0.990  0.00  0.00     0.002 A 
ATOM      6  C8  UNL d   1      -2.111  -2.880  -2.375  0.00  0.00     0.002 A 
ENDROOT
BRANCH   1   7
ATOM      7  C2  UNL d   1      -2.220  -4.320  -4.448  0.00  0.00     0.056 C 
BRANCH   7   8
ATOM      8  C1  UNL d   1      -3.618  -4.030  -5.005  0.00  0.00     0.007 C 
ATOM      9  C   UNL d   1      -3.686  -2.744  -5.818  0.00  0.00     0.009 C 
ENDBRANCH   7   8
ENDBRANCH   1   7
TORSDOF 2
ENDMDL
