MODEL 1
REMARK minimizedAffinity 5.95631504
REMARK minimizedRMSD -1
REMARK  2 active torsions:
REMARK  status: ('A' for Active; 'I' for Inactive)
REMARK    1  A    between atoms: C1_2  and  C2_3 
REMARK    2  A    between atoms: C2_3  and  C3_4 
ROOT
ATOM      1  C3  UNL d   1      -4.706   2.235  -5.980  0.00  0.00    -0.075 A 
ATOM      2  C4  UNL d   1      -5.415   3.445  -5.976  0.00  0.00     0.002 A 
ATOM      3  C5  UNL d   1      -4.736   4.664  -5.985  0.00  0.00     0.002 A 
ATOM      4  C6  UNL d   1      -3.343   4.689  -5.987  0.00  0.00    -0.004 A 
ATOM      5  C7  UNL d   1      -2.629   3.494  -5.974  0.00  0.00     0.002 A 
ATOM      6  C8  UNL d   1      -3.305   2.273  -5.969  0.00  0.00     0.002 A 
ENDROOT
BRANCH   1   7
ATOM      7  C2  UNL d   1      -5.434   0.913  -6.000  0.00  0.00     0.056 C 
BRANCH   7   8
ATOM      8  C1  UNL d   1      -4.509  -0.309  -6.000  0.00  0.00     0.007 C 
ATOM      9  C   UNL d   1      -5.262  -1.632  -5.947  0.00  0.00     0.009 C 
ENDBRANCH   7   8
ENDBRANCH   1   7
TORSDOF 2
ENDMDL
