MODEL 1
REMARK minimizedAffinity -0.539919078
REMARK minimizedRMSD -1
REMARK  2 active torsions:
REMARK  status: ('A' for Active; 'I' for Inactive)
REMARK    1  A    between atoms: C1_2  and  C2_3 
REMARK    2  A    between atoms: C2_3  and  C3_4 
ROOT
ATOM      1  C3  UNL d   1      -3.815   1.537  -5.961  0.00  0.00    -0.075 A 
ATOM      2  C4  UNL d   1      -2.416   1.472  -5.885  0.00  0.00     0.002 A 
ATOM      3  C5  UNL d   1      -1.654   2.639  -5.826  0.00  0.00     0.002 A 
ATOM      4  C6  UNL d   1      -2.278   3.884  -5.853  0.00  0.00    -0.004 A 
ATOM      5  C7  UNL d   1      -3.666   3.961  -5.945  0.00  0.00     0.002 A 
ATOM      6  C8  UNL d   1      -4.432   2.795  -6.000  0.00  0.00     0.002 A 
ENDROOT
BRANCH   1   7
ATOM      7  C2  UNL d   1      -4.647   0.278  -5.995  0.00  0.00     0.056 C 
BRANCH   7   8
ATOM      8  C1  UNL d   1      -3.825  -1.014  -5.944  0.00  0.00     0.007 C 
ATOM      9  C   UNL d   1      -4.673  -2.257  -5.710  0.00  0.00     0.009 C 
ENDBRANCH   7   8
ENDBRANCH   1   7
TORSDOF 2
ENDMDL
