MODEL 1
REMARK minimizedAffinity -3.51307154
REMARK minimizedRMSD -1
REMARK  2 active torsions:
REMARK  status: ('A' for Active; 'I' for Inactive)
REMARK    1  A    between atoms: C1_2  and  C2_3 
REMARK    2  A    between atoms: C2_3  and  C3_4 
ROOT
ATOM      1  C3  UNL d   1      -4.081   0.906  -5.916  0.00  0.00    -0.075 A 
ATOM      2  C4  UNL d   1      -2.790   1.453  -5.912  0.00  0.00     0.002 A 
ATOM      3  C5  UNL d   1      -2.606   2.833  -5.813  0.00  0.00     0.002 A 
ATOM      4  C6  UNL d   1      -3.707   3.681  -5.726  0.00  0.00    -0.004 A 
ATOM      5  C7  UNL d   1      -4.995   3.150  -5.746  0.00  0.00     0.002 A 
ATOM      6  C8  UNL d   1      -5.182   1.770  -5.841  0.00  0.00     0.002 A 
ENDROOT
BRANCH   1   7
ATOM      7  C2  UNL d   1      -4.287  -0.588  -5.994  0.00  0.00     0.056 C 
BRANCH   7   8
ATOM      8  C1  UNL d   1      -2.986  -1.397  -6.000  0.00  0.00     0.007 C 
ATOM      9  C   UNL d   1      -3.215  -2.902  -5.965  0.00  0.00     0.009 C 
ENDBRANCH   7   8
ENDBRANCH   1   7
TORSDOF 2
ENDMDL
