MODEL 1
REMARK minimizedAffinity -3.46690202
REMARK minimizedRMSD -1
REMARK  2 active torsions:
REMARK  status: ('A' for Active; 'I' for Inactive)
REMARK    1  A    between atoms: C1_2  and  C2_3 
REMARK    2  A    between atoms: C2_3  and  C3_4 
ROOT
ATOM      1  C3  UNL d   1      -3.964   0.773  -5.970  0.00  0.00    -0.075 A 
ATOM      2  C4  UNL d   1      -5.274   1.272  -6.000  0.00  0.00     0.002 A 
ATOM      3  C5  UNL d   1      -5.509   2.647  -6.000  0.00  0.00     0.002 A 
ATOM      4  C6  UNL d   1      -4.440   3.539  -5.960  0.00  0.00    -0.004 A 
ATOM      5  C7  UNL d   1      -3.134   3.054  -5.914  0.00  0.00     0.002 A 
ATOM      6  C8  UNL d   1      -2.896   1.679  -5.918  0.00  0.00     0.002 A 
ENDROOT
BRANCH   1   7
ATOM      7  C2  UNL d   1      -3.703  -0.714  -5.999  0.00  0.00     0.056 C 
BRANCH   7   8
ATOM      8  C1  UNL d   1      -4.824  -1.557  -5.383  0.00  0.00     0.007 C 
ATOM      9  C   UNL d   1      -4.611  -3.055  -5.552  0.00  0.00     0.009 C 
ENDBRANCH   7   8
ENDBRANCH   1   7
TORSDOF 2
ENDMDL
