MODEL 1
REMARK minimizedAffinity -2.2489841
REMARK minimizedRMSD -1
REMARK  2 active torsions:
REMARK  status: ('A' for Active; 'I' for Inactive)
REMARK    1  A    between atoms: C1_2  and  C2_3 
REMARK    2  A    between atoms: C2_3  and  C3_4 
ROOT
ATOM      1  C3  UNL d   1      -3.150   4.658  -5.807  0.00  0.00    -0.075 A 
ATOM      2  C4  UNL d   1      -3.936   3.502  -5.920  0.00  0.00     0.002 A 
ATOM      3  C5  UNL d   1      -5.326   3.595  -5.996  0.00  0.00     0.002 A 
ATOM      4  C6  UNL d   1      -5.947   4.841  -5.949  0.00  0.00    -0.004 A 
ATOM      5  C7  UNL d   1      -5.177   5.995  -5.820  0.00  0.00     0.002 A 
ATOM      6  C8  UNL d   1      -3.786   5.905  -5.748  0.00  0.00     0.002 A 
ENDROOT
BRANCH   1   7
ATOM      7  C2  UNL d   1      -1.644   4.566  -5.754  0.00  0.00     0.056 C 
BRANCH   7   8
ATOM      8  C1  UNL d   1      -1.120   3.298  -5.071  0.00  0.00     0.007 C 
ATOM      9  C   UNL d   1      -1.082   2.090  -5.997  0.00  0.00     0.009 C 
ENDBRANCH   7   8
ENDBRANCH   1   7
TORSDOF 2
ENDMDL
