MODEL 1
REMARK minimizedAffinity 1.5462296
REMARK minimizedRMSD -1
REMARK  2 active torsions:
REMARK  status: ('A' for Active; 'I' for Inactive)
REMARK    1  A    between atoms: C1_2  and  C2_3 
REMARK    2  A    between atoms: C2_3  and  C3_4 
ROOT
ATOM      1  C3  UNL d   1       0.396  -0.065   0.147  0.00  0.00    -0.075 A 
ATOM      2  C4  UNL d   1       1.426   0.115  -0.787  0.00  0.00     0.002 A 
ATOM      3  C5  UNL d   1       1.502  -0.692  -1.923  0.00  0.00     0.002 A 
ATOM      4  C6  UNL d   1       0.557  -1.693  -2.134  0.00  0.00    -0.004 A 
ATOM      5  C7  UNL d   1      -0.462  -1.892  -1.204  0.00  0.00     0.002 A 
ATOM      6  C8  UNL d   1      -0.543  -1.083  -0.069  0.00  0.00     0.002 A 
ENDROOT
BRANCH   1   7
ATOM      7  C2  UNL d   1       0.291   0.824   1.363  0.00  0.00     0.056 C 
BRANCH   7   8
ATOM      8  C1  UNL d   1       0.716   2.275   1.113  0.00  0.00     0.007 C 
ATOM      9  C   UNL d   1      -0.269   3.048   0.247  0.00  0.00     0.009 C 
ENDBRANCH   7   8
ENDBRANCH   1   7
TORSDOF 2
ENDMDL
