MODEL 1
REMARK minimizedAffinity -1.22267771
REMARK minimizedRMSD -1
REMARK  2 active torsions:
REMARK  status: ('A' for Active; 'I' for Inactive)
REMARK    1  A    between atoms: C1_2  and  C2_3 
REMARK    2  A    between atoms: C2_3  and  C3_4 
ROOT
ATOM      1  C3  UNL d   1      -3.827   3.302  -5.848  0.00  0.00    -0.075 A 
ATOM      2  C4  UNL d   1      -3.597   4.681  -5.953  0.00  0.00     0.002 A 
ATOM      3  C5  UNL d   1      -2.305   5.195  -5.840  0.00  0.00     0.002 A 
ATOM      4  C6  UNL d   1      -1.230   4.340  -5.611  0.00  0.00    -0.004 A 
ATOM      5  C7  UNL d   1      -1.448   2.969  -5.489  0.00  0.00     0.002 A 
ATOM      6  C8  UNL d   1      -2.739   2.452  -5.606  0.00  0.00     0.002 A 
ENDROOT
BRANCH   1   7
ATOM      7  C2  UNL d   1      -5.219   2.736  -5.999  0.00  0.00     0.056 C 
BRANCH   7   8
ATOM      8  C1  UNL d   1      -5.273   1.205  -5.997  0.00  0.00     0.007 C 
ATOM      9  C   UNL d   1      -3.897   0.555  -5.968  0.00  0.00     0.009 C 
ENDBRANCH   7   8
ENDBRANCH   1   7
TORSDOF 2
ENDMDL
