MODEL 1
REMARK minimizedAffinity -0.922525644
REMARK minimizedRMSD -1
REMARK  2 active torsions:
REMARK  status: ('A' for Active; 'I' for Inactive)
REMARK    1  A    between atoms: C1_2  and  C2_3 
REMARK    2  A    between atoms: C2_3  and  C3_4 
ROOT
ATOM      1  C3  UNL d   1       1.121   1.000  -0.026  0.00  0.00    -0.075 A 
ATOM      2  C4  UNL d   1       2.230   0.852  -0.872  0.00  0.00     0.002 A 
ATOM      3  C5  UNL d   1       2.147   0.061  -2.018  0.00  0.00     0.002 A 
ATOM      4  C6  UNL d   1       0.959  -0.599  -2.328  0.00  0.00    -0.004 A 
ATOM      5  C7  UNL d   1      -0.144  -0.472  -1.486  0.00  0.00     0.002 A 
ATOM      6  C8  UNL d   1      -0.064   0.322  -0.341  0.00  0.00     0.002 A 
ENDROOT
BRANCH   1   7
ATOM      7  C2  UNL d   1       1.197   1.878   1.200  0.00  0.00     0.056 C 
BRANCH   7   8
ATOM      8  C1  UNL d   1       1.802   3.261   0.940  0.00  0.00     0.007 C 
ATOM      9  C   UNL d   1       1.949   4.099   2.204  0.00  0.00     0.009 C 
ENDBRANCH   7   8
ENDBRANCH   1   7
TORSDOF 2
ENDMDL
