MODEL 1
REMARK minimizedAffinity 3.93404531
REMARK minimizedRMSD -1
REMARK  2 active torsions:
REMARK  status: ('A' for Active; 'I' for Inactive)
REMARK    1  A    between atoms: C1_2  and  C2_3 
REMARK    2  A    between atoms: C2_3  and  C3_4 
ROOT
ATOM      1  C3  UNL d   1       0.530  -0.273  -0.390  0.00  0.00    -0.075 A 
ATOM      2  C4  UNL d   1       1.478   0.048  -1.372  0.00  0.00     0.002 A 
ATOM      3  C5  UNL d   1       1.308  -0.384  -2.688  0.00  0.00     0.002 A 
ATOM      4  C6  UNL d   1       0.198  -1.150  -3.035  0.00  0.00    -0.004 A 
ATOM      5  C7  UNL d   1      -0.742  -1.489  -2.064  0.00  0.00     0.002 A 
ATOM      6  C8  UNL d   1      -0.578  -1.054  -0.748  0.00  0.00     0.002 A 
ENDROOT
BRANCH   1   7
ATOM      7  C2  UNL d   1       0.692   0.216   1.030  0.00  0.00     0.056 C 
BRANCH   7   8
ATOM      8  C1  UNL d   1       0.392   1.707   1.213  0.00  0.00     0.007 C 
ATOM      9  C   UNL d   1       1.615   2.594   1.019  0.00  0.00     0.009 C 
ENDBRANCH   7   8
ENDBRANCH   1   7
TORSDOF 2
ENDMDL
