MODEL 1
REMARK minimizedAffinity 4.49281311
REMARK minimizedRMSD -1
REMARK  2 active torsions:
REMARK  status: ('A' for Active; 'I' for Inactive)
REMARK    1  A    between atoms: C1_2  and  C2_3 
REMARK    2  A    between atoms: C2_3  and  C3_4 
ROOT
ATOM      1  C3  UNL d   1       1.728   0.190  -1.088  0.00  0.00    -0.075 A 
ATOM      2  C4  UNL d   1       1.545  -0.256  -2.405  0.00  0.00     0.002 A 
ATOM      3  C5  UNL d   1       0.415  -0.996  -2.751  0.00  0.00     0.002 A 
ATOM      4  C6  UNL d   1      -0.541  -1.307  -1.786  0.00  0.00    -0.004 A 
ATOM      5  C7  UNL d   1      -0.362  -0.883  -0.472  0.00  0.00     0.002 A 
ATOM      6  C8  UNL d   1       0.767  -0.139  -0.123  0.00  0.00     0.002 A 
ENDROOT
BRANCH   1   7
ATOM      7  C2  UNL d   1       2.935   1.017  -0.712  0.00  0.00     0.056 C 
BRANCH   7   8
ATOM      8  C1  UNL d   1       4.269   0.414  -1.166  0.00  0.00     0.007 C 
ATOM      9  C   UNL d   1       5.445   1.368  -1.003  0.00  0.00     0.009 C 
ENDBRANCH   7   8
ENDBRANCH   1   7
TORSDOF 2
ENDMDL
