MODEL 1
REMARK minimizedAffinity -5.03117371
REMARK minimizedRMSD -1
REMARK  0 active torsions:
REMARK  status: ('A' for Active; 'I' for Inactive)
ROOT
ATOM      1  C1  DEN d   1       0.375   0.845  -1.290  0.00  0.00     0.130 A 
ATOM      2  C2  DEN d   1       1.338   0.184  -0.413  0.00  0.00    -0.031 A 
ATOM      3  C3  DEN d   1       0.591  -0.717   0.488  0.00  0.00     0.027 A 
ATOM      4  C4  DEN d   1      -1.948  -1.154   0.606  0.00  0.00     0.027 A 
ATOM      5  C5  DEN d   1      -3.171  -0.817   0.070  0.00  0.00    -0.003 A 
ATOM      6  C6  DEN d   1      -3.300   0.115  -0.926  0.00  0.00     0.001 A 
ATOM      7  C7  DEN d   1      -2.182   0.710  -1.448  0.00  0.00     0.017 A 
ATOM      8  C8  DEN d   1      -0.946   0.381  -0.907  0.00  0.00    -0.094 A 
ATOM      9  C9  DEN d   1      -0.835  -0.573   0.090  0.00  0.00    -0.072 A 
ENDROOT
TORSDOF 0
ENDMDL
