MODEL 1
REMARK minimizedAffinity -2.810745
REMARK minimizedRMSD -1
REMARK  0 active torsions:
REMARK  status: ('A' for Active; 'I' for Inactive)
ROOT
ATOM      1  C1  DEN d   1       0.201  -0.349   1.136  0.00  0.00     0.130 A 
ATOM      2  C2  DEN d   1      -0.045  -0.422  -0.302  0.00  0.00    -0.031 A 
ATOM      3  C3  DEN d   1       0.772   0.618  -0.958  0.00  0.00     0.027 A 
ATOM      4  C4  DEN d   1       2.389   2.322   0.106  0.00  0.00     0.027 A 
ATOM      5  C5  DEN d   1       2.920   2.777   1.293  0.00  0.00    -0.003 A 
ATOM      6  C6  DEN d   1       2.558   2.248   2.504  0.00  0.00     0.001 A 
ATOM      7  C7  DEN d   1       1.674   1.203   2.551  0.00  0.00     0.017 A 
ATOM      8  C8  DEN d   1       1.130   0.744   1.359  0.00  0.00    -0.094 A 
ATOM      9  C9  DEN d   1       1.517   1.284   0.144  0.00  0.00    -0.072 A 
ENDROOT
TORSDOF 0
ENDMDL
