MODEL 1
REMARK minimizedAffinity -3.89123821
REMARK minimizedRMSD -1
REMARK  0 active torsions:
REMARK  status: ('A' for Active; 'I' for Inactive)
ROOT
ATOM      1  C1  DEN d   1      -2.084  -1.267   0.731  0.00  0.00     0.130 A 
ATOM      2  C2  DEN d   1      -3.077  -1.072  -0.322  0.00  0.00    -0.031 A 
ATOM      3  C3  DEN d   1      -2.453  -0.272  -1.395  0.00  0.00     0.027 A 
ATOM      4  C4  DEN d   1      -0.058   0.675  -1.530  0.00  0.00     0.027 A 
ATOM      5  C5  DEN d   1       1.147   0.779  -0.870  0.00  0.00    -0.003 A 
ATOM      6  C6  DEN d   1       1.347   0.243   0.374  0.00  0.00     0.001 A 
ATOM      7  C7  DEN d   1       0.340  -0.463   0.979  0.00  0.00     0.017 A 
ATOM      8  C8  DEN d   1      -0.880  -0.566   0.323  0.00  0.00    -0.094 A 
ATOM      9  C9  DEN d   1      -1.058  -0.027  -0.940  0.00  0.00    -0.072 A 
ENDROOT
TORSDOF 0
ENDMDL
