MODEL 1
REMARK minimizedAffinity -4.963552
REMARK minimizedRMSD -1
REMARK  0 active torsions:
REMARK  status: ('A' for Active; 'I' for Inactive)
ROOT
ATOM      1  C1  DEN d   1       1.603   0.403   0.619  0.00  0.00     0.130 A 
ATOM      2  C2  DEN d   1       1.420   1.498  -0.329  0.00  0.00    -0.031 A 
ATOM      3  C3  DEN d   1       0.007   1.498  -0.758  0.00  0.00     0.027 A 
ATOM      4  C4  DEN d   1      -1.905  -0.080  -0.048  0.00  0.00     0.027 A 
ATOM      5  C5  DEN d   1      -2.230  -1.172   0.727  0.00  0.00    -0.003 A 
ATOM      6  C6  DEN d   1      -1.301  -1.830   1.488  0.00  0.00     0.001 A 
ATOM      7  C7  DEN d   1      -0.009  -1.375   1.525  0.00  0.00     0.017 A 
ATOM      8  C8  DEN d   1       0.328  -0.280   0.741  0.00  0.00    -0.094 A 
ATOM      9  C9  DEN d   1      -0.629   0.379  -0.012  0.00  0.00    -0.072 A 
ENDROOT
TORSDOF 0
ENDMDL
