MODEL 1
REMARK minimizedAffinity 0.824496269
REMARK minimizedRMSD -1
REMARK  0 active torsions:
REMARK  status: ('A' for Active; 'I' for Inactive)
ROOT
ATOM      1  C1  DEN d   1      -0.791  -2.331   0.980  0.00  0.00     0.130 A 
ATOM      2  C2  DEN d   1       0.420  -2.101   1.764  0.00  0.00    -0.031 A 
ATOM      3  C3  DEN d   1       1.036  -0.845   1.293  0.00  0.00     0.027 A 
ATOM      4  C4  DEN d   1       0.236   0.761  -0.559  0.00  0.00     0.027 A 
ATOM      5  C5  DEN d   1      -0.734   0.981  -1.512  0.00  0.00    -0.003 A 
ATOM      6  C6  DEN d   1      -1.764   0.102  -1.723  0.00  0.00     0.001 A 
ATOM      7  C7  DEN d   1      -1.873  -1.016  -0.939  0.00  0.00     0.017 A 
ATOM      8  C8  DEN d   1      -0.894  -1.248   0.019  0.00  0.00    -0.094 A 
ATOM      9  C9  DEN d   1       0.132  -0.342   0.225  0.00  0.00    -0.072 A 
ENDROOT
TORSDOF 0
ENDMDL
