MODEL 1
REMARK minimizedAffinity -5.78251648
REMARK minimizedRMSD -1
REMARK  0 active torsions:
REMARK  status: ('A' for Active; 'I' for Inactive)
ROOT
ATOM      1  C1  DEN d   1       0.826  -1.235   1.199  0.00  0.00     0.130 A 
ATOM      2  C2  DEN d   1       2.063  -0.577   0.788  0.00  0.00    -0.031 A 
ATOM      3  C3  DEN d   1       1.750   0.315  -0.346  0.00  0.00     0.027 A 
ATOM      4  C4  DEN d   1      -0.520   0.744  -1.495  0.00  0.00     0.027 A 
ATOM      5  C5  DEN d   1      -1.855   0.407  -1.503  0.00  0.00    -0.003 A 
ATOM      6  C6  DEN d   1      -2.380  -0.519  -0.641  0.00  0.00     0.001 A 
ATOM      7  C7  DEN d   1      -1.573  -1.107   0.297  0.00  0.00     0.017 A 
ATOM      8  C8  DEN d   1      -0.224  -0.778   0.307  0.00  0.00    -0.094 A 
ATOM      9  C9  DEN d   1       0.285   0.170  -0.565  0.00  0.00    -0.072 A 
ENDROOT
TORSDOF 0
ENDMDL
