MODEL 1
REMARK minimizedAffinity -2.93097091
REMARK minimizedRMSD -1
REMARK  0 active torsions:
REMARK  status: ('A' for Active; 'I' for Inactive)
ROOT
ATOM      1  C1  DEN d   1       0.052  -0.272  -1.782  0.00  0.00     0.130 A 
ATOM      2  C2  DEN d   1       1.072   0.222  -0.860  0.00  0.00    -0.031 A 
ATOM      3  C3  DEN d   1       0.501   0.206   0.502  0.00  0.00     0.027 A 
ATOM      4  C4  DEN d   1      -1.847  -0.535   1.269  0.00  0.00     0.027 A 
ATOM      5  C5  DEN d   1      -3.065  -1.019   0.846  0.00  0.00    -0.003 A 
ATOM      6  C6  DEN d   1      -3.339  -1.254  -0.475  0.00  0.00     0.001 A 
ATOM      7  C7  DEN d   1      -2.366  -1.047  -1.417  0.00  0.00     0.017 A 
ATOM      8  C8  DEN d   1      -1.138  -0.552  -0.999  0.00  0.00    -0.094 A 
ATOM      9  C9  DEN d   1      -0.876  -0.333   0.342  0.00  0.00    -0.072 A 
ENDROOT
TORSDOF 0
ENDMDL
