MODEL 1
REMARK minimizedAffinity -4.11152554
REMARK minimizedRMSD -1
REMARK  0 active torsions:
REMARK  status: ('A' for Active; 'I' for Inactive)
ROOT
ATOM      1  C1  DEN d   1      -2.492  -1.183   0.834  0.00  0.00     0.130 A 
ATOM      2  C2  DEN d   1      -3.416  -1.303  -0.290  0.00  0.00    -0.031 A 
ATOM      3  C3  DEN d   1      -2.748  -0.759  -1.490  0.00  0.00     0.027 A 
ATOM      4  C4  DEN d   1      -0.384   0.247  -1.716  0.00  0.00     0.027 A 
ATOM      5  C5  DEN d   1       0.768   0.571  -1.033  0.00  0.00    -0.003 A 
ATOM      6  C6  DEN d   1       0.900   0.367   0.315  0.00  0.00     0.001 A 
ATOM      7  C7  DEN d   1      -0.121  -0.219   1.016  0.00  0.00     0.017 A 
ATOM      8  C8  DEN d   1      -1.288  -0.542   0.336  0.00  0.00    -0.094 A 
ATOM      9  C9  DEN d   1      -1.398  -0.339  -1.029  0.00  0.00    -0.072 A 
ENDROOT
TORSDOF 0
ENDMDL
