MODEL 1
REMARK minimizedAffinity -4.61858606
REMARK minimizedRMSD -1
REMARK  0 active torsions:
REMARK  status: ('A' for Active; 'I' for Inactive)
ROOT
ATOM      1  C1  DEN d   1      -0.145  -1.123   1.491  0.00  0.00     0.130 A 
ATOM      2  C2  DEN d   1       1.218  -0.663   1.238  0.00  0.00    -0.031 A 
ATOM      3  C3  DEN d   1       1.211   0.115  -0.017  0.00  0.00     0.027 A 
ATOM      4  C4  DEN d   1      -0.768   0.653  -1.582  0.00  0.00     0.027 A 
ATOM      5  C5  DEN d   1      -2.117   0.469  -1.789  0.00  0.00    -0.003 A 
ATOM      6  C6  DEN d   1      -2.890  -0.280  -0.943  0.00  0.00     0.001 A 
ATOM      7  C7  DEN d   1      -2.329  -0.837   0.176  0.00  0.00     0.017 A 
ATOM      8  C8  DEN d   1      -0.968  -0.662   0.388  0.00  0.00    -0.094 A 
ATOM      9  C9  DEN d   1      -0.205   0.110  -0.473  0.00  0.00    -0.072 A 
ENDROOT
TORSDOF 0
ENDMDL
