MODEL 1
REMARK minimizedAffinity -4.00948906
REMARK minimizedRMSD -1
REMARK  0 active torsions:
REMARK  status: ('A' for Active; 'I' for Inactive)
ROOT
ATOM      1  C1  DEN d   1       0.393  -0.186   1.289  0.00  0.00     0.130 A 
ATOM      2  C2  DEN d   1       1.543   0.561   0.789  0.00  0.00    -0.031 A 
ATOM      3  C3  DEN d   1       1.254   0.967  -0.602  0.00  0.00     0.027 A 
ATOM      4  C4  DEN d   1      -0.853   0.516  -2.019  0.00  0.00     0.027 A 
ATOM      5  C5  DEN d   1      -2.091  -0.087  -2.028  0.00  0.00    -0.003 A 
ATOM      6  C6  DEN d   1      -2.570  -0.789  -0.954  0.00  0.00     0.001 A 
ATOM      7  C7  DEN d   1      -1.825  -0.867   0.193  0.00  0.00     0.017 A 
ATOM      8  C8  DEN d   1      -0.572  -0.267   0.208  0.00  0.00    -0.094 A 
ATOM      9  C9  DEN d   1      -0.111   0.448  -0.885  0.00  0.00    -0.072 A 
ENDROOT
TORSDOF 0
ENDMDL
