MODEL 1
REMARK minimizedAffinity 1.8825314
REMARK minimizedRMSD -1
REMARK  0 active torsions:
REMARK  status: ('A' for Active; 'I' for Inactive)
ROOT
ATOM      1  C1  DEN d   1       1.467   0.201  -0.298  0.00  0.00     0.130 A 
ATOM      2  C2  DEN d   1       0.851   1.090  -1.279  0.00  0.00    -0.031 A 
ATOM      3  C3  DEN d   1      -0.612   1.041  -1.085  0.00  0.00     0.027 A 
ATOM      4  C4  DEN d   1      -1.976  -0.316   0.632  0.00  0.00     0.027 A 
ATOM      5  C5  DEN d   1      -1.895  -1.223   1.666  0.00  0.00    -0.003 A 
ATOM      6  C6  DEN d   1      -0.700  -1.740   2.091  0.00  0.00     0.001 A 
ATOM      7  C7  DEN d   1       0.467  -1.320   1.510  0.00  0.00     0.017 A 
ATOM      8  C8  DEN d   1       0.392  -0.412   0.462  0.00  0.00    -0.094 A 
ATOM      9  C9  DEN d   1      -0.824   0.109   0.055  0.00  0.00    -0.072 A 
ENDROOT
TORSDOF 0
ENDMDL
