MODEL 1
REMARK minimizedAffinity -3.44052124
REMARK minimizedRMSD -1
REMARK  0 active torsions:
REMARK  status: ('A' for Active; 'I' for Inactive)
ROOT
ATOM      1  C1  DEN d   1       0.752   1.554   0.042  0.00  0.00     0.130 A 
ATOM      2  C2  DEN d   1       1.961   1.050   0.689  0.00  0.00    -0.031 A 
ATOM      3  C3  DEN d   1       1.652  -0.275   1.263  0.00  0.00     0.027 A 
ATOM      4  C4  DEN d   1      -0.565  -1.591   1.208  0.00  0.00     0.027 A 
ATOM      5  C5  DEN d   1      -1.875  -1.566   0.783  0.00  0.00    -0.003 A 
ATOM      6  C6  DEN d   1      -2.407  -0.493   0.117  0.00  0.00     0.001 A 
ATOM      7  C7  DEN d   1      -1.611   0.581  -0.184  0.00  0.00     0.017 A 
ATOM      8  C8  DEN d   1      -0.291   0.565   0.247  0.00  0.00    -0.094 A 
ATOM      9  C9  DEN d   1       0.231  -0.534   0.909  0.00  0.00    -0.072 A 
ENDROOT
TORSDOF 0
ENDMDL
