MODEL 1
REMARK minimizedAffinity -5.10018349
REMARK minimizedRMSD -1
REMARK  0 active torsions:
REMARK  status: ('A' for Active; 'I' for Inactive)
ROOT
ATOM      1  C1  DEN d   1       0.391   0.367  -0.885  0.00  0.00     0.130 A 
ATOM      2  C2  DEN d   1       1.550  -0.008  -0.081  0.00  0.00    -0.031 A 
ATOM      3  C3  DEN d   1       1.094  -0.936   0.974  0.00  0.00     0.027 A 
ATOM      4  C4  DEN d   1      -1.282  -1.827   1.434  0.00  0.00     0.027 A 
ATOM      5  C5  DEN d   1      -2.597  -1.781   1.025  0.00  0.00    -0.003 A 
ATOM      6  C6  DEN d   1      -3.010  -0.997  -0.019  0.00  0.00     0.001 A 
ATOM      7  C7  DEN d   1      -2.092  -0.260  -0.719  0.00  0.00     0.017 A 
ATOM      8  C8  DEN d   1      -0.766  -0.295  -0.308  0.00  0.00    -0.094 A 
ATOM      9  C9  DEN d   1      -0.366  -1.103   0.742  0.00  0.00    -0.072 A 
ENDROOT
TORSDOF 0
ENDMDL
