MODEL 1
REMARK minimizedAffinity 0.48625195
REMARK minimizedRMSD -1
REMARK  0 active torsions:
REMARK  status: ('A' for Active; 'I' for Inactive)
ROOT
ATOM      1  N1  IND d   1       2.035  -2.819   0.467  0.00  0.00    -0.196 N 
ATOM      2  C2  IND d   1       1.799  -3.457   1.653  0.00  0.00     0.054 A 
ATOM      3  C3  IND d   1       0.898  -2.767   2.387  0.00  0.00    -0.031 A 
ATOM      4  C4  IND d   1      -0.394  -0.621   1.795  0.00  0.00     0.051 A 
ATOM      5  C5  IND d   1      -0.491   0.349   0.836  0.00  0.00    -0.031 A 
ATOM      6  C6  IND d   1       0.263   0.310  -0.319  0.00  0.00     0.015 A 
ATOM      7  C7  IND d   1       1.137  -0.711  -0.565  0.00  0.00    -0.016 A 
ATOM      8  C8  IND d   1       1.243  -1.694   0.409  0.00  0.00    -0.047 A 
ATOM      9  C9  IND d   1       0.512  -1.637   1.603  0.00  0.00    -0.096 A 
ATOM     10  HN1 IND d   1       2.585  -3.078  -0.141  0.00  0.00     0.298 HD
ENDROOT
TORSDOF 0
ENDMDL
