MODEL 1
REMARK minimizedAffinity -3.86299038
REMARK minimizedRMSD -1
REMARK  0 active torsions:
REMARK  status: ('A' for Active; 'I' for Inactive)
ROOT
ATOM      1  N1  IND d   1       1.306  -1.218   1.040  0.00  0.00    -0.196 N 
ATOM      2  C2  IND d   1       1.030  -1.329   2.375  0.00  0.00     0.054 A 
ATOM      3  C3  IND d   1      -0.036  -0.564   2.700  0.00  0.00    -0.031 A 
ATOM      4  C4  IND d   1      -1.542   0.872   1.185  0.00  0.00     0.051 A 
ATOM      5  C5  IND d   1      -1.665   1.317  -0.102  0.00  0.00    -0.031 A 
ATOM      6  C6  IND d   1      -0.787   0.929  -1.094  0.00  0.00     0.015 A 
ATOM      7  C7  IND d   1       0.243   0.069  -0.838  0.00  0.00    -0.016 A 
ATOM      8  C8  IND d   1       0.375  -0.378   0.469  0.00  0.00    -0.047 A 
ATOM      9  C9  IND d   1      -0.486   0.045   1.489  0.00  0.00    -0.096 A 
ATOM     10  HN1 IND d   1       1.952  -1.607   0.628  0.00  0.00     0.298 HD
ENDROOT
TORSDOF 0
ENDMDL
