MODEL 1
REMARK minimizedAffinity -1.28080475
REMARK minimizedRMSD -1
REMARK  0 active torsions:
REMARK  status: ('A' for Active; 'I' for Inactive)
ROOT
ATOM      1  N1  IND d   1       0.956   1.651  -3.328  0.00  0.00    -0.196 N 
ATOM      2  C2  IND d   1       0.798   0.298  -3.214  0.00  0.00     0.054 A 
ATOM      3  C3  IND d   1      -0.409   0.008  -2.677  0.00  0.00    -0.031 A 
ATOM      4  C4  IND d   1      -2.322   1.594  -2.005  0.00  0.00     0.051 A 
ATOM      5  C5  IND d   1      -2.632   2.920  -1.889  0.00  0.00    -0.031 A 
ATOM      6  C6  IND d   1      -1.745   3.911  -2.257  0.00  0.00     0.015 A 
ATOM      7  C7  IND d   1      -0.513   3.611  -2.767  0.00  0.00    -0.016 A 
ATOM      8  C8  IND d   1      -0.193   2.265  -2.880  0.00  0.00    -0.047 A 
ATOM      9  C9  IND d   1      -1.072   1.256  -2.468  0.00  0.00    -0.096 A 
ATOM     10  HN1 IND d   1       1.655   2.051  -3.628  0.00  0.00     0.298 HD
ENDROOT
TORSDOF 0
ENDMDL
