MODEL 1
REMARK minimizedAffinity -0.792036951
REMARK minimizedRMSD -1
REMARK  0 active torsions:
REMARK  status: ('A' for Active; 'I' for Inactive)
ROOT
ATOM      1  N1  IND d   1       0.030  -0.084   0.011  0.00  0.00    -0.196 N 
ATOM      2  C2  IND d   1      -0.744  -0.041   1.137  0.00  0.00     0.054 A 
ATOM      3  C3  IND d   1      -1.689   0.920   1.021  0.00  0.00    -0.031 A 
ATOM      4  C4  IND d   1      -2.212   2.469  -0.967  0.00  0.00     0.051 A 
ATOM      5  C5  IND d   1      -1.754   2.826  -2.204  0.00  0.00    -0.031 A 
ATOM      6  C6  IND d   1      -0.658   2.216  -2.780  0.00  0.00     0.015 A 
ATOM      7  C7  IND d   1       0.018   1.215  -2.140  0.00  0.00    -0.016 A 
ATOM      8  C8  IND d   1      -0.440   0.856  -0.881  0.00  0.00    -0.047 A 
ATOM      9  C9  IND d   1      -1.526   1.500  -0.274  0.00  0.00    -0.096 A 
ATOM     10  HN1 IND d   1       0.698  -0.610  -0.119  0.00  0.00     0.298 HD
ENDROOT
TORSDOF 0
ENDMDL
