MODEL 1
REMARK minimizedAffinity -1.04096663
REMARK minimizedRMSD -1
REMARK  0 active torsions:
REMARK  status: ('A' for Active; 'I' for Inactive)
ROOT
ATOM      1  N1  IND d   1       0.435  -0.031  -1.070  0.00  0.00    -0.196 N 
ATOM      2  C2  IND d   1      -0.609   0.468  -0.343  0.00  0.00     0.054 A 
ATOM      3  C3  IND d   1      -0.697  -0.165   0.849  0.00  0.00    -0.031 A 
ATOM      4  C4  IND d   1       0.828  -1.978   1.855  0.00  0.00     0.051 A 
ATOM      5  C5  IND d   1       1.892  -2.780   1.552  0.00  0.00    -0.031 A 
ATOM      6  C6  IND d   1       2.540  -2.704   0.336  0.00  0.00     0.015 A 
ATOM      7  C7  IND d   1       2.153  -1.810  -0.622  0.00  0.00    -0.016 A 
ATOM      8  C8  IND d   1       1.068  -0.999  -0.320  0.00  0.00    -0.047 A 
ATOM      9  C9  IND d   1       0.380  -1.101   0.895  0.00  0.00    -0.096 A 
ATOM     10  HN1 IND d   1       0.659   0.217  -1.862  0.00  0.00     0.298 HD
ENDROOT
TORSDOF 0
ENDMDL
