MODEL 1
REMARK minimizedAffinity -3.21218467
REMARK minimizedRMSD -1
REMARK  0 active torsions:
REMARK  status: ('A' for Active; 'I' for Inactive)
ROOT
ATOM      1  N1  IND d   1       0.623   0.904   0.432  0.00  0.00    -0.196 N 
ATOM      2  C2  IND d   1       0.060  -0.325   0.637  0.00  0.00     0.054 A 
ATOM      3  C3  IND d   1      -0.907  -0.558  -0.278  0.00  0.00    -0.031 A 
ATOM      4  C4  IND d   1      -1.664   0.893  -2.265  0.00  0.00     0.051 A 
ATOM      5  C5  IND d   1      -1.469   2.118  -2.840  0.00  0.00    -0.031 A 
ATOM      6  C6  IND d   1      -0.547   3.017  -2.345  0.00  0.00     0.015 A 
ATOM      7  C7  IND d   1       0.227   2.720  -1.259  0.00  0.00    -0.016 A 
ATOM      8  C8  IND d   1       0.027   1.480  -0.669  0.00  0.00    -0.047 A 
ATOM      9  C9  IND d   1      -0.937   0.580  -1.140  0.00  0.00    -0.096 A 
ATOM     10  HN1 IND d   1       1.244   1.257   0.909  0.00  0.00     0.298 HD
ENDROOT
TORSDOF 0
ENDMDL
