MODEL 1
REMARK minimizedAffinity -1.26640749
REMARK minimizedRMSD -1
REMARK  0 active torsions:
REMARK  status: ('A' for Active; 'I' for Inactive)
ROOT
ATOM      1  N1  IND d   1       0.819  -0.441  -1.030  0.00  0.00    -0.196 N 
ATOM      2  C2  IND d   1      -0.225   0.432  -0.904  0.00  0.00     0.054 A 
ATOM      3  C3  IND d   1      -0.751   0.359   0.340  0.00  0.00    -0.031 A 
ATOM      4  C4  IND d   1       0.010  -1.048   2.357  0.00  0.00     0.051 A 
ATOM      5  C5  IND d   1       0.897  -2.023   2.717  0.00  0.00    -0.031 A 
ATOM      6  C6  IND d   1       1.824  -2.530   1.829  0.00  0.00     0.015 A 
ATOM      7  C7  IND d   1       1.906  -2.069   0.545  0.00  0.00    -0.016 A 
ATOM      8  C8  IND d   1       1.003  -1.084   0.174  0.00  0.00    -0.047 A 
ATOM      9  C9  IND d   1       0.032  -0.596   1.059  0.00  0.00    -0.096 A 
ATOM     10  HN1 IND d   1       1.284  -0.568  -1.743  0.00  0.00     0.298 HD
ENDROOT
TORSDOF 0
ENDMDL
