MODEL 1
REMARK minimizedAffinity -4.66538954
REMARK minimizedRMSD -1
REMARK  0 active torsions:
REMARK  status: ('A' for Active; 'I' for Inactive)
ROOT
ATOM      1  N1  IND d   1       1.469   1.059  -0.547  0.00  0.00    -0.196 N 
ATOM      2  C2  IND d   1       0.887  -0.177  -0.497  0.00  0.00     0.054 A 
ATOM      3  C3  IND d   1      -0.294  -0.168  -1.154  0.00  0.00    -0.031 A 
ATOM      4  C4  IND d   1      -1.418   1.737  -2.471  0.00  0.00     0.051 A 
ATOM      5  C5  IND d   1      -1.285   3.064  -2.771  0.00  0.00    -0.031 A 
ATOM      6  C6  IND d   1      -0.204   3.804  -2.339  0.00  0.00     0.015 A 
ATOM      7  C7  IND d   1       0.795   3.240  -1.597  0.00  0.00    -0.016 A 
ATOM      8  C8  IND d   1       0.659   1.895  -1.284  0.00  0.00    -0.047 A 
ATOM      9  C9  IND d   1      -0.457   1.149  -1.684  0.00  0.00    -0.096 A 
ATOM     10  HN1 IND d   1       2.216   1.277  -0.180  0.00  0.00     0.298 HD
ENDROOT
TORSDOF 0
ENDMDL
