MODEL 1
REMARK minimizedAffinity -2.46104193
REMARK minimizedRMSD -1
REMARK  0 active torsions:
REMARK  status: ('A' for Active; 'I' for Inactive)
ROOT
ATOM      1  N1  IND d   1      -1.508   3.339  -1.055  0.00  0.00    -0.196 N 
ATOM      2  C2  IND d   1      -1.708   3.374  -2.407  0.00  0.00     0.054 A 
ATOM      3  C3  IND d   1      -1.364   2.191  -2.964  0.00  0.00    -0.031 A 
ATOM      4  C4  IND d   1      -0.547   0.027  -1.833  0.00  0.00     0.051 A 
ATOM      5  C5  IND d   1      -0.175  -0.480  -0.620  0.00  0.00    -0.031 A 
ATOM      6  C6  IND d   1      -0.232   0.274   0.534  0.00  0.00     0.015 A 
ATOM      7  C7  IND d   1      -0.676   1.566   0.520  0.00  0.00    -0.016 A 
ATOM      8  C8  IND d   1      -1.048   2.086  -0.712  0.00  0.00    -0.047 A 
ATOM      9  C9  IND d   1      -0.952   1.339  -1.893  0.00  0.00    -0.096 A 
ATOM     10  HN1 IND d   1      -1.647   3.990  -0.510  0.00  0.00     0.298 HD
ENDROOT
TORSDOF 0
ENDMDL
