MODEL 1
REMARK minimizedAffinity -1.60235834
REMARK minimizedRMSD -1
REMARK  0 active torsions:
REMARK  status: ('A' for Active; 'I' for Inactive)
ROOT
ATOM      1  N1  IND d   1       1.949  -1.616  -0.149  0.00  0.00    -0.196 N 
ATOM      2  C2  IND d   1       1.764  -1.196  -1.437  0.00  0.00     0.054 A 
ATOM      3  C3  IND d   1       0.583  -0.550  -1.556  0.00  0.00    -0.031 A 
ATOM      4  C4  IND d   1      -1.157   0.024   0.252  0.00  0.00     0.051 A 
ATOM      5  C5  IND d   1      -1.447  -0.181   1.572  0.00  0.00    -0.031 A 
ATOM      6  C6  IND d   1      -0.601  -0.887   2.403  0.00  0.00     0.015 A 
ATOM      7  C7  IND d   1       0.577  -1.406   1.945  0.00  0.00    -0.016 A 
ATOM      8  C8  IND d   1       0.871  -1.206   0.604  0.00  0.00    -0.047 A 
ATOM      9  C9  IND d   1      -0.004  -0.527  -0.254  0.00  0.00    -0.096 A 
ATOM     10  HN1 IND d   1       2.625  -2.060   0.141  0.00  0.00     0.298 HD
ENDROOT
TORSDOF 0
ENDMDL
