MODEL 1
REMARK minimizedAffinity 5.29013157
REMARK minimizedRMSD -1
REMARK  0 active torsions:
REMARK  status: ('A' for Active; 'I' for Inactive)
ROOT
ATOM      1  C1  DEN d   1      -4.260   2.262   5.999  0.00  0.00     0.130 A 
ATOM      2  C2  DEN d   1      -5.607   2.698   5.643  0.00  0.00    -0.031 A 
ATOM      3  C3  DEN d   1      -5.884   2.248   4.265  0.00  0.00     0.027 A 
ATOM      4  C4  DEN d   1      -4.368   0.919   2.656  0.00  0.00     0.027 A 
ATOM      5  C5  DEN d   1      -3.130   0.333   2.507  0.00  0.00    -0.003 A 
ATOM      6  C6  DEN d   1      -2.177   0.379   3.491  0.00  0.00     0.001 A 
ATOM      7  C7  DEN d   1      -2.464   0.984   4.686  0.00  0.00     0.017 A 
ATOM      8  C8  DEN d   1      -3.707   1.583   4.841  0.00  0.00    -0.094 A 
ATOM      9  C9  DEN d   1      -4.661   1.516   3.839  0.00  0.00    -0.072 A 
ENDROOT
TORSDOF 0
ENDMDL
