MODEL 1
REMARK minimizedAffinity 11.2475195
REMARK minimizedRMSD -1
REMARK  0 active torsions:
REMARK  status: ('A' for Active; 'I' for Inactive)
ROOT
ATOM      1  C1  DEN d   1      -5.433   2.377   3.709  0.00  0.00     0.130 A 
ATOM      2  C2  DEN d   1      -5.839   2.853   5.028  0.00  0.00    -0.031 A 
ATOM      3  C3  DEN d   1      -4.804   2.446   5.999  0.00  0.00     0.027 A 
ATOM      4  C4  DEN d   1      -2.620   1.137   5.589  0.00  0.00     0.027 A 
ATOM      5  C5  DEN d   1      -1.849   0.510   4.635  0.00  0.00    -0.003 A 
ATOM      6  C6  DEN d   1      -2.232   0.432   3.323  0.00  0.00     0.001 A 
ATOM      7  C7  DEN d   1      -3.396   1.030   2.919  0.00  0.00     0.017 A 
ATOM      8  C8  DEN d   1      -4.182   1.658   3.876  0.00  0.00    -0.094 A 
ATOM      9  C9  DEN d   1      -3.772   1.737   5.196  0.00  0.00    -0.072 A 
ENDROOT
TORSDOF 0
ENDMDL
