MODEL 1
REMARK minimizedAffinity 8.80586052
REMARK minimizedRMSD -1
REMARK  0 active torsions:
REMARK  status: ('A' for Active; 'I' for Inactive)
ROOT
ATOM      1  C1  DEN d   1       0.200  -3.660   1.647  0.00  0.00     0.130 A 
ATOM      2  C2  DEN d   1       1.425  -2.937   1.981  0.00  0.00    -0.031 A 
ATOM      3  C3  DEN d   1       1.066  -1.531   2.253  0.00  0.00     0.027 A 
ATOM      4  C4  DEN d   1      -1.256  -0.409   2.195  0.00  0.00     0.027 A 
ATOM      5  C5  DEN d   1      -2.596  -0.615   1.952  0.00  0.00    -0.003 A 
ATOM      6  C6  DEN d   1      -3.090  -1.831   1.561  0.00  0.00     0.001 A 
ATOM      7  C7  DEN d   1      -2.243  -2.901   1.445  0.00  0.00     0.017 A 
ATOM      8  C8  DEN d   1      -0.889  -2.700   1.681  0.00  0.00    -0.094 A 
ATOM      9  C9  DEN d   1      -0.411  -1.466   2.087  0.00  0.00    -0.072 A 
ENDROOT
TORSDOF 0
ENDMDL
