MODEL 1
REMARK minimizedAffinity 13.2914362
REMARK minimizedRMSD -1
REMARK  0 active torsions:
REMARK  status: ('A' for Active; 'I' for Inactive)
ROOT
ATOM      1  C1  DEN d   1      -1.855   0.713   3.885  0.00  0.00     0.130 A 
ATOM      2  C2  DEN d   1      -1.823  -0.065   2.650  0.00  0.00    -0.031 A 
ATOM      3  C3  DEN d   1      -3.181  -0.056   2.070  0.00  0.00     0.027 A 
ATOM      4  C4  DEN d   1      -5.317   1.087   2.956  0.00  0.00     0.027 A 
ATOM      5  C5  DEN d   1      -5.840   1.853   3.975  0.00  0.00    -0.003 A 
ATOM      6  C6  DEN d   1      -5.086   2.260   5.044  0.00  0.00     0.001 A 
ATOM      7  C7  DEN d   1      -3.755   1.942   5.096  0.00  0.00     0.017 A 
ATOM      8  C8  DEN d   1      -3.222   1.164   4.076  0.00  0.00    -0.094 A 
ATOM      9  C9  DEN d   1      -3.997   0.772   2.998  0.00  0.00    -0.072 A 
ENDROOT
TORSDOF 0
ENDMDL
