MODEL 1
REMARK minimizedAffinity 14.004487
REMARK minimizedRMSD -1
REMARK  0 active torsions:
REMARK  status: ('A' for Active; 'I' for Inactive)
ROOT
ATOM      1  C1  DEN d   1      -5.283   2.213   3.941  0.00  0.00     0.130 A 
ATOM      2  C2  DEN d   1      -5.350   2.755   5.296  0.00  0.00    -0.031 A 
ATOM      3  C3  DEN d   1      -4.106   2.382   5.999  0.00  0.00     0.027 A 
ATOM      4  C4  DEN d   1      -2.091   1.031   5.126  0.00  0.00     0.027 A 
ATOM      5  C5  DEN d   1      -1.580   0.352   4.042  0.00  0.00    -0.003 A 
ATOM      6  C6  DEN d   1      -2.276   0.217   2.870  0.00  0.00     0.001 A 
ATOM      7  C7  DEN d   1      -3.504   0.808   2.738  0.00  0.00     0.017 A 
ATOM      8  C8  DEN d   1      -4.029   1.489   3.829  0.00  0.00    -0.094 A 
ATOM      9  C9  DEN d   1      -3.305   1.625   5.001  0.00  0.00    -0.072 A 
ENDROOT
TORSDOF 0
ENDMDL
