MODEL 1
REMARK minimizedAffinity 15.3328075
REMARK minimizedRMSD -1
REMARK  0 active torsions:
REMARK  status: ('A' for Active; 'I' for Inactive)
ROOT
ATOM      1  C1  DEN d   1      -4.046   2.032   4.879  0.00  0.00     0.130 A 
ATOM      2  C2  DEN d   1      -5.489   2.244   4.806  0.00  0.00    -0.031 A 
ATOM      3  C3  DEN d   1      -6.000   1.509   3.632  0.00  0.00     0.027 A 
ATOM      4  C4  DEN d   1      -4.704   0.068   1.930  0.00  0.00     0.027 A 
ATOM      5  C5  DEN d   1      -3.458  -0.398   1.572  0.00  0.00    -0.003 A 
ATOM      6  C6  DEN d   1      -2.325  -0.061   2.265  0.00  0.00     0.001 A 
ATOM      7  C7  DEN d   1      -2.422   0.728   3.380  0.00  0.00     0.017 A 
ATOM      8  C8  DEN d   1      -3.674   1.208   3.743  0.00  0.00    -0.094 A 
ATOM      9  C9  DEN d   1      -4.808   0.846   3.037  0.00  0.00    -0.072 A 
ENDROOT
TORSDOF 0
ENDMDL
