MODEL 1
REMARK minimizedAffinity 13.1632776
REMARK minimizedRMSD -1
REMARK  0 active torsions:
REMARK  status: ('A' for Active; 'I' for Inactive)
ROOT
ATOM      1  C1  DEN d   1      -2.835  -0.221   1.697  0.00  0.00     0.130 A 
ATOM      2  C2  DEN d   1      -1.537  -0.890   1.714  0.00  0.00    -0.031 A 
ATOM      3  C3  DEN d   1      -0.844  -0.510   2.961  0.00  0.00     0.027 A 
ATOM      4  C4  DEN d   1      -1.653   1.036   4.861  0.00  0.00     0.027 A 
ATOM      5  C5  DEN d   1      -2.683   1.843   5.289  0.00  0.00    -0.003 A 
ATOM      6  C6  DEN d   1      -3.812   2.045   4.541  0.00  0.00     0.001 A 
ATOM      7  C7  DEN d   1      -3.958   1.395   3.344  0.00  0.00     0.017 A 
ATOM      8  C8  DEN d   1      -2.921   0.585   2.902  0.00  0.00    -0.094 A 
ATOM      9  C9  DEN d   1      -1.792   0.384   3.679  0.00  0.00    -0.072 A 
ENDROOT
TORSDOF 0
ENDMDL
