MODEL 1
REMARK minimizedAffinity 8.42623234
REMARK minimizedRMSD -1
REMARK  0 active torsions:
REMARK  status: ('A' for Active; 'I' for Inactive)
ROOT
ATOM      1  C1  DEN d   1      -2.415   0.603   3.322  0.00  0.00     0.130 A 
ATOM      2  C2  DEN d   1      -1.469   0.696   4.430  0.00  0.00    -0.031 A 
ATOM      3  C3  DEN d   1      -2.169   1.307   5.578  0.00  0.00     0.027 A 
ATOM      4  C4  DEN d   1      -4.614   2.112   5.745  0.00  0.00     0.027 A 
ATOM      5  C5  DEN d   1      -5.800   2.251   5.058  0.00  0.00    -0.003 A 
ATOM      6  C6  DEN d   1      -5.930   1.885   3.745  0.00  0.00     0.001 A 
ATOM      7  C7  DEN d   1      -4.868   1.320   3.089  0.00  0.00     0.017 A 
ATOM      8  C8  DEN d   1      -3.667   1.183   3.773  0.00  0.00    -0.094 A 
ATOM      9  C9  DEN d   1      -3.559   1.548   5.105  0.00  0.00    -0.072 A 
ENDROOT
TORSDOF 0
ENDMDL
