MODEL 1
REMARK minimizedAffinity 12.5464449
REMARK minimizedRMSD -1
REMARK  0 active torsions:
REMARK  status: ('A' for Active; 'I' for Inactive)
ROOT
ATOM      1  C1  DEN d   1       2.583  -3.411   0.389  0.00  0.00     0.130 A 
ATOM      2  C2  DEN d   1       1.776  -4.567   0.768  0.00  0.00    -0.031 A 
ATOM      3  C3  DEN d   1       2.554  -5.785   0.468  0.00  0.00     0.027 A 
ATOM      4  C4  DEN d   1       4.921  -5.993  -0.536  0.00  0.00     0.027 A 
ATOM      5  C5  DEN d   1       5.996  -5.289  -1.029  0.00  0.00    -0.003 A 
ATOM      6  C6  DEN d   1       5.997  -3.922  -1.116  0.00  0.00     0.001 A 
ATOM      7  C7  DEN d   1       4.917  -3.213  -0.660  0.00  0.00     0.017 A 
ATOM      8  C8  DEN d   1       3.825  -3.916  -0.168  0.00  0.00    -0.094 A 
ATOM      9  C9  DEN d   1       3.849  -5.298  -0.078  0.00  0.00    -0.072 A 
ENDROOT
TORSDOF 0
ENDMDL
