MODEL 1
REMARK minimizedAffinity 15.603878
REMARK minimizedRMSD -1
REMARK  0 active torsions:
REMARK  status: ('A' for Active; 'I' for Inactive)
ROOT
ATOM      1  C1  DEN d   1      -1.147   0.673   4.554  0.00  0.00     0.130 A 
ATOM      2  C2  DEN d   1      -2.317   1.538   4.438  0.00  0.00    -0.031 A 
ATOM      3  C3  DEN d   1      -2.983   1.237   3.155  0.00  0.00     0.027 A 
ATOM      4  C4  DEN d   1      -2.321  -0.481   1.348  0.00  0.00     0.027 A 
ATOM      5  C5  DEN d   1      -1.396  -1.439   0.995  0.00  0.00    -0.003 A 
ATOM      6  C6  DEN d   1      -0.314  -1.734   1.782  0.00  0.00     0.001 A 
ATOM      7  C7  DEN d   1      -0.154  -1.096   2.983  0.00  0.00     0.017 A 
ATOM      8  C8  DEN d   1      -1.078  -0.123   3.342  0.00  0.00    -0.094 A 
ATOM      9  C9  DEN d   1      -2.172   0.152   2.539  0.00  0.00    -0.072 A 
ENDROOT
TORSDOF 0
ENDMDL
