MODEL 1
REMARK minimizedAffinity 6.47002888
REMARK minimizedRMSD -1
REMARK  0 active torsions:
REMARK  status: ('A' for Active; 'I' for Inactive)
ROOT
ATOM      1  C1  DEN d   1       0.227  -0.996   2.135  0.00  0.00     0.130 A 
ATOM      2  C2  DEN d   1       1.149  -1.864   2.862  0.00  0.00    -0.031 A 
ATOM      3  C3  DEN d   1       0.986  -1.596   4.305  0.00  0.00     0.027 A 
ATOM      4  C4  DEN d   1      -0.601   0.066   5.478  0.00  0.00     0.027 A 
ATOM      5  C5  DEN d   1      -1.565   1.029   5.277  0.00  0.00    -0.003 A 
ATOM      6  C6  DEN d   1      -1.971   1.406   4.025  0.00  0.00     0.001 A 
ATOM      7  C7  DEN d   1      -1.444   0.784   2.924  0.00  0.00     0.017 A 
ATOM      8  C8  DEN d   1      -0.466  -0.183   3.118  0.00  0.00    -0.094 A 
ATOM      9  C9  DEN d   1      -0.077  -0.559   4.392  0.00  0.00    -0.072 A 
ENDROOT
TORSDOF 0
ENDMDL
