MODEL 1
REMARK minimizedAffinity 14.8023682
REMARK minimizedRMSD -1
REMARK  0 active torsions:
REMARK  status: ('A' for Active; 'I' for Inactive)
ROOT
ATOM      1  C1  DEN d   1       5.001   6.000  -1.503  0.00  0.00     0.130 A 
ATOM      2  C2  DEN d   1       5.999   4.934  -1.515  0.00  0.00    -0.031 A 
ATOM      3  C3  DEN d   1       5.322   3.680  -1.903  0.00  0.00     0.027 A 
ATOM      4  C4  DEN d   1       2.841   3.288  -2.487  0.00  0.00     0.027 A 
ATOM      5  C5  DEN d   1       1.607   3.889  -2.605  0.00  0.00    -0.003 A 
ATOM      6  C6  DEN d   1       1.413   5.217  -2.332  0.00  0.00     0.001 A 
ATOM      7  C7  DEN d   1       2.478   5.999  -1.972  0.00  0.00     0.017 A 
ATOM      8  C8  DEN d   1       3.724   5.399  -1.845  0.00  0.00    -0.094 A 
ATOM      9  C9  DEN d   1       3.902   4.057  -2.136  0.00  0.00    -0.072 A 
ENDROOT
TORSDOF 0
ENDMDL
