MODEL 1
REMARK minimizedAffinity 9.65830231
REMARK minimizedRMSD -1
REMARK  0 active torsions:
REMARK  status: ('A' for Active; 'I' for Inactive)
ROOT
ATOM      1  C1  DEN d   1       1.351  -0.700   4.100  0.00  0.00     0.130 A 
ATOM      2  C2  DEN d   1       2.023  -1.722   3.303  0.00  0.00    -0.031 A 
ATOM      3  C3  DEN d   1       1.195  -1.991   2.111  0.00  0.00     0.027 A 
ATOM      4  C4  DEN d   1      -1.051  -0.925   1.422  0.00  0.00     0.027 A 
ATOM      5  C5  DEN d   1      -2.021  -0.017   1.786  0.00  0.00    -0.003 A 
ATOM      6  C6  DEN d   1      -1.953   0.695   2.954  0.00  0.00     0.001 A 
ATOM      7  C7  DEN d   1      -0.869   0.546   3.778  0.00  0.00     0.017 A 
ATOM      8  C8  DEN d   1       0.109  -0.373   3.422  0.00  0.00    -0.094 A 
ATOM      9  C9  DEN d   1       0.029  -1.075   2.231  0.00  0.00    -0.072 A 
ENDROOT
TORSDOF 0
ENDMDL
