MODEL 1
REMARK minimizedAffinity -3.68135953
REMARK minimizedRMSD -1
REMARK  0 active torsions:
REMARK  status: ('A' for Active; 'I' for Inactive)
ROOT
ATOM      1  O1  BZF d   1       0.171   1.358   2.774  0.00  0.00    -0.204 OA
ATOM      2  C2  BZF d   1      -1.120   1.467   3.254  0.00  0.00     0.174 A 
ATOM      3  C3  BZF d   1      -2.002   0.944   2.379  0.00  0.00    -0.012 A 
ATOM      4  C3A BZF d   1      -1.206   0.396   1.324  0.00  0.00    -0.107 A 
ATOM      5  C4  BZF d   1      -1.505  -0.272   0.171  0.00  0.00     0.055 A 
ATOM      6  C5  BZF d   1      -0.499  -0.607  -0.679  0.00  0.00    -0.016 A 
ATOM      7  C6  BZF d   1       0.815  -0.285  -0.410  0.00  0.00     0.022 A 
ATOM      8  C7  BZF d   1       1.162   0.372   0.723  0.00  0.00     0.029 A 
ATOM      9  C7A BZF d   1       0.151   0.682   1.600  0.00  0.00     0.058 A 
ENDROOT
TORSDOF 0
ENDMDL
