MODEL 1
REMARK minimizedAffinity 0.764203012
REMARK minimizedRMSD -1
REMARK  0 active torsions:
REMARK  status: ('A' for Active; 'I' for Inactive)
ROOT
ATOM      1  O1  BZF d   1      -1.052  -1.654  -0.401  0.00  0.00    -0.204 OA
ATOM      2  C2  BZF d   1       0.081  -1.036   0.091  0.00  0.00     0.174 A 
ATOM      3  C3  BZF d   1      -0.159   0.266   0.351  0.00  0.00    -0.012 A 
ATOM      4  C3A BZF d   1      -1.553   0.451   0.087  0.00  0.00    -0.107 A 
ATOM      5  C4  BZF d   1      -2.390   1.527   0.176  0.00  0.00     0.055 A 
ATOM      6  C5  BZF d   1      -3.681   1.393  -0.226  0.00  0.00    -0.016 A 
ATOM      7  C6  BZF d   1      -4.167   0.202  -0.726  0.00  0.00     0.022 A 
ATOM      8  C7  BZF d   1      -3.375  -0.893  -0.829  0.00  0.00     0.029 A 
ATOM      9  C7A BZF d   1      -2.079  -0.771  -0.392  0.00  0.00     0.058 A 
ENDROOT
TORSDOF 0
ENDMDL
