MODEL 1
REMARK minimizedAffinity -6.48688698
REMARK minimizedRMSD -1
REMARK  0 active torsions:
REMARK  status: ('A' for Active; 'I' for Inactive)
ROOT
ATOM      1  O1  BZF d   1       0.798  -0.792  -0.136  0.00  0.00    -0.204 OA
ATOM      2  C2  BZF d   1      -0.318  -0.543  -0.912  0.00  0.00     0.174 A 
ATOM      3  C3  BZF d   1      -1.267   0.092  -0.194  0.00  0.00    -0.012 A 
ATOM      4  C3A BZF d   1      -0.673   0.332   1.085  0.00  0.00    -0.107 A 
ATOM      5  C4  BZF d   1      -1.114   0.941   2.225  0.00  0.00     0.055 A 
ATOM      6  C5  BZF d   1      -0.315   0.944   3.324  0.00  0.00    -0.016 A 
ATOM      7  C6  BZF d   1       0.927   0.343   3.320  0.00  0.00     0.022 A 
ATOM      8  C7  BZF d   1       1.409  -0.269   2.212  0.00  0.00     0.029 A 
ATOM      9  C7A BZF d   1       0.618  -0.245   1.090  0.00  0.00     0.058 A 
ENDROOT
TORSDOF 0
ENDMDL
