MODEL 1
REMARK minimizedAffinity -3.71830702
REMARK minimizedRMSD -1
REMARK  0 active torsions:
REMARK  status: ('A' for Active; 'I' for Inactive)
ROOT
ATOM      1  O1  BZF d   1       0.802   0.218   2.576  0.00  0.00    -0.204 OA
ATOM      2  C2  BZF d   1      -0.248   0.968   3.070  0.00  0.00     0.174 A 
ATOM      3  C3  BZF d   1      -1.073   1.351   2.074  0.00  0.00    -0.012 A 
ATOM      4  C3A BZF d   1      -0.553   0.729   0.895  0.00  0.00    -0.107 A 
ATOM      5  C4  BZF d   1      -0.947   0.718  -0.412  0.00  0.00     0.055 A 
ATOM      6  C5  BZF d   1      -0.178   0.072  -1.329  0.00  0.00    -0.016 A 
ATOM      7  C6  BZF d   1       0.991  -0.568  -0.974  0.00  0.00     0.022 A 
ATOM      8  C7  BZF d   1       1.420  -0.589   0.312  0.00  0.00     0.029 A 
ATOM      9  C7A BZF d   1       0.629   0.035   1.245  0.00  0.00     0.058 A 
ENDROOT
TORSDOF 0
ENDMDL
