MODEL 1
REMARK minimizedAffinity -1.96681547
REMARK minimizedRMSD -1
REMARK  0 active torsions:
REMARK  status: ('A' for Active; 'I' for Inactive)
ROOT
ATOM      1  O1  BZF d   1       0.117   1.450  -3.702  0.00  0.00    -0.204 OA
ATOM      2  C2  BZF d   1       1.312   1.026  -4.251  0.00  0.00     0.174 A 
ATOM      3  C3  BZF d   1       1.911   0.121  -3.450  0.00  0.00    -0.012 A 
ATOM      4  C3A BZF d   1       0.992  -0.098  -2.376  0.00  0.00    -0.107 A 
ATOM      5  C4  BZF d   1       1.012  -0.901  -1.271  0.00  0.00     0.055 A 
ATOM      6  C5  BZF d   1      -0.011  -0.825  -0.380  0.00  0.00    -0.016 A 
ATOM      7  C6  BZF d   1      -1.067   0.045  -0.560  0.00  0.00     0.022 A 
ATOM      8  C7  BZF d   1      -1.134   0.857  -1.642  0.00  0.00     0.029 A 
ATOM      9  C7A BZF d   1      -0.117   0.759  -2.561  0.00  0.00     0.058 A 
ENDROOT
TORSDOF 0
ENDMDL
