MODEL 1
REMARK minimizedAffinity -4.56056643
REMARK minimizedRMSD -1
REMARK  0 active torsions:
REMARK  status: ('A' for Active; 'I' for Inactive)
ROOT
ATOM      1  O1  BZF d   1      -0.588  -1.200  -0.502  0.00  0.00    -0.204 OA
ATOM      2  C2  BZF d   1      -1.877  -0.735  -0.328  0.00  0.00     0.174 A 
ATOM      3  C3  BZF d   1      -1.980  -0.029   0.816  0.00  0.00    -0.012 A 
ATOM      4  C3A BZF d   1      -0.653   0.024   1.347  0.00  0.00    -0.107 A 
ATOM      5  C4  BZF d   1      -0.109   0.598   2.460  0.00  0.00     0.055 A 
ATOM      6  C5  BZF d   1       1.209   0.401   2.728  0.00  0.00    -0.016 A 
ATOM      7  C6  BZF d   1       2.009  -0.368   1.910  0.00  0.00     0.022 A 
ATOM      8  C7  BZF d   1       1.516  -0.955   0.792  0.00  0.00     0.029 A 
ATOM      9  C7A BZF d   1       0.192  -0.730   0.500  0.00  0.00     0.058 A 
ENDROOT
TORSDOF 0
ENDMDL
