MODEL 1
REMARK minimizedAffinity -4.23749447
REMARK minimizedRMSD -1
REMARK  0 active torsions:
REMARK  status: ('A' for Active; 'I' for Inactive)
ROOT
ATOM      1  O1  BZF d   1      -0.506  -0.344  -0.825  0.00  0.00    -0.204 OA
ATOM      2  C2  BZF d   1       0.777  -0.513  -1.309  0.00  0.00     0.174 A 
ATOM      3  C3  BZF d   1       1.683  -0.003  -0.450  0.00  0.00    -0.012 A 
ATOM      4  C3A BZF d   1       0.924   0.435   0.681  0.00  0.00    -0.107 A 
ATOM      5  C4  BZF d   1       1.262   1.016   1.870  0.00  0.00     0.055 A 
ATOM      6  C5  BZF d   1       0.275   1.387   2.728  0.00  0.00    -0.016 A 
ATOM      7  C6  BZF d   1      -1.058   1.198   2.426  0.00  0.00     0.022 A 
ATOM      8  C7  BZF d   1      -1.442   0.621   1.261  0.00  0.00     0.029 A 
ATOM      9  C7A BZF d   1      -0.446   0.215   0.407  0.00  0.00     0.058 A 
ENDROOT
TORSDOF 0
ENDMDL
