MODEL 1
REMARK minimizedAffinity -5.49356937
REMARK minimizedRMSD -1
REMARK  0 active torsions:
REMARK  status: ('A' for Active; 'I' for Inactive)
ROOT
ATOM      1  O1  BZF d   1       1.949  -0.551   1.408  0.00  0.00    -0.204 OA
ATOM      2  C2  BZF d   1       2.026  -1.477   0.385  0.00  0.00     0.174 A 
ATOM      3  C3  BZF d   1       0.840  -1.591  -0.248  0.00  0.00    -0.012 A 
ATOM      4  C3A BZF d   1      -0.007  -0.611   0.361  0.00  0.00    -0.107 A 
ATOM      5  C4  BZF d   1      -1.302  -0.231   0.153  0.00  0.00     0.055 A 
ATOM      6  C5  BZF d   1      -1.853   0.707   0.968  0.00  0.00    -0.016 A 
ATOM      7  C6  BZF d   1      -1.142   1.280   2.001  0.00  0.00     0.022 A 
ATOM      8  C7  BZF d   1       0.147   0.938   2.244  0.00  0.00     0.029 A 
ATOM      9  C7A BZF d   1       0.718   0.015   1.402  0.00  0.00     0.058 A 
ENDROOT
TORSDOF 0
ENDMDL
