MODEL 1
REMARK minimizedAffinity -5.60068989
REMARK minimizedRMSD -1
REMARK  0 active torsions:
REMARK  status: ('A' for Active; 'I' for Inactive)
ROOT
ATOM      1  O1  BZF d   1       2.210  -0.949   0.436  0.00  0.00    -0.204 OA
ATOM      2  C2  BZF d   1       2.928  -0.651   1.578  0.00  0.00     0.174 A 
ATOM      3  C3  BZF d   1       2.168   0.035   2.455  0.00  0.00    -0.012 A 
ATOM      4  C3A BZF d   1       0.867   0.094   1.861  0.00  0.00    -0.107 A 
ATOM      5  C4  BZF d   1      -0.323   0.632   2.259  0.00  0.00     0.055 A 
ATOM      6  C5  BZF d   1      -1.386   0.582   1.414  0.00  0.00    -0.016 A 
ATOM      7  C6  BZF d   1      -1.292   0.008   0.163  0.00  0.00     0.022 A 
ATOM      8  C7  BZF d   1      -0.134  -0.544  -0.274  0.00  0.00     0.029 A 
ATOM      9  C7A BZF d   1       0.933  -0.524   0.591  0.00  0.00     0.058 A 
ENDROOT
TORSDOF 0
ENDMDL
