MODEL 1
REMARK minimizedAffinity -4.30232048
REMARK minimizedRMSD -1
REMARK  0 active torsions:
REMARK  status: ('A' for Active; 'I' for Inactive)
ROOT
ATOM      1  O1  BZF d   1       0.673   0.998   2.519  0.00  0.00    -0.204 OA
ATOM      2  C2  BZF d   1      -0.589   1.311   2.984  0.00  0.00     0.174 A 
ATOM      3  C3  BZF d   1      -1.523   1.049   2.046  0.00  0.00    -0.012 A 
ATOM      4  C3A BZF d   1      -0.808   0.454   0.960  0.00  0.00    -0.107 A 
ATOM      5  C4  BZF d   1      -1.187  -0.038  -0.257  0.00  0.00     0.055 A 
ATOM      6  C5  BZF d   1      -0.233  -0.484  -1.116  0.00  0.00    -0.016 A 
ATOM      7  C6  BZF d   1       1.108  -0.448  -0.793  0.00  0.00     0.022 A 
ATOM      8  C7  BZF d   1       1.532   0.025   0.403  0.00  0.00     0.029 A 
ATOM      9  C7A BZF d   1       0.568   0.446   1.286  0.00  0.00     0.058 A 
ENDROOT
TORSDOF 0
ENDMDL
