MODEL 1
REMARK minimizedAffinity 1.43911898
REMARK minimizedRMSD -1
REMARK  1 active torsions:
REMARK  status: ('A' for Active; 'I' for Inactive)
REMARK    1  A    between atoms: C1_2  and  C2_3 
ROOT
ATOM      1  C2  UNL d   1      -5.387  -5.271   2.783  0.00  0.00    -0.077 A 
ATOM      2  C3  UNL d   1      -4.224  -4.540   2.502  0.00  0.00     0.002 A 
ATOM      3  C4  UNL d   1      -3.684  -4.541   1.215  0.00  0.00     0.002 A 
ATOM      4  C5  UNL d   1      -4.301  -5.267   0.199  0.00  0.00    -0.004 A 
ATOM      5  C6  UNL d   1      -5.457  -5.999   0.469  0.00  0.00     0.002 A 
ATOM      6  C7  UNL d   1      -5.998  -6.000   1.755  0.00  0.00     0.002 A 
ENDROOT
BRANCH   1   7
ATOM      7  C1  UNL d   1      -5.999  -5.231   4.159  0.00  0.00     0.055 C 
ATOM      8  C   UNL d   1      -5.908  -3.839   4.766  0.00  0.00     0.019 C 
ENDBRANCH   1   7
TORSDOF 1
ENDMDL
