MODEL 1
REMARK minimizedAffinity 1.81868637
REMARK minimizedRMSD -1
REMARK  1 active torsions:
REMARK  status: ('A' for Active; 'I' for Inactive)
REMARK    1  A    between atoms: C1_2  and  C2_3 
ROOT
ATOM      1  C2  UNL d   1      -1.554  -6.000  -3.151  0.00  0.00    -0.077 A 
ATOM      2  C3  UNL d   1      -0.156  -5.991  -3.045  0.00  0.00     0.002 A 
ATOM      3  C4  UNL d   1       0.639  -5.982  -4.193  0.00  0.00     0.002 A 
ATOM      4  C5  UNL d   1       0.045  -5.978  -5.454  0.00  0.00    -0.004 A 
ATOM      5  C6  UNL d   1      -1.344  -5.989  -5.569  0.00  0.00     0.002 A 
ATOM      6  C7  UNL d   1      -2.140  -5.999  -4.423  0.00  0.00     0.002 A 
ENDROOT
BRANCH   1   7
ATOM      7  C1  UNL d   1      -2.413  -5.960  -1.914  0.00  0.00     0.055 C 
ATOM      8  C   UNL d   1      -3.893  -5.995  -2.267  0.00  0.00     0.019 C 
ENDBRANCH   1   7
TORSDOF 1
ENDMDL
