MODEL 1
REMARK minimizedAffinity 2.90327311
REMARK minimizedRMSD -1
REMARK  1 active torsions:
REMARK  status: ('A' for Active; 'I' for Inactive)
REMARK    1  A    between atoms: C1_2  and  C2_3 
ROOT
ATOM      1  C2  UNL d   1       0.765  -1.989   0.712  0.00  0.00    -0.077 A 
ATOM      2  C3  UNL d   1       2.086  -1.906   1.175  0.00  0.00     0.002 A 
ATOM      3  C4  UNL d   1       2.798  -0.710   1.068  0.00  0.00     0.002 A 
ATOM      4  C5  UNL d   1       2.197   0.413   0.503  0.00  0.00    -0.004 A 
ATOM      5  C6  UNL d   1       0.885   0.340   0.037  0.00  0.00     0.002 A 
ATOM      6  C7  UNL d   1       0.172  -0.855   0.142  0.00  0.00     0.002 A 
ENDROOT
BRANCH   1   7
ATOM      7  C1  UNL d   1      -0.021  -3.263   0.871  0.00  0.00     0.055 C 
ATOM      8  C   UNL d   1       0.251  -4.229  -0.274  0.00  0.00     0.019 C 
ENDBRANCH   1   7
TORSDOF 1
ENDMDL
