MODEL 1
REMARK minimizedAffinity -2.62560582
REMARK minimizedRMSD -1
REMARK  1 active torsions:
REMARK  status: ('A' for Active; 'I' for Inactive)
REMARK    1  A    between atoms: C1_2  and  C2_3 
ROOT
ATOM      1  C2  UNL d   1      -0.881  -5.863  -3.577  0.00  0.00    -0.077 A 
ATOM      2  C3  UNL d   1      -1.502  -5.851  -4.833  0.00  0.00     0.002 A 
ATOM      3  C4  UNL d   1      -0.738  -5.771  -5.999  0.00  0.00     0.002 A 
ATOM      4  C5  UNL d   1       0.652  -5.705  -5.919  0.00  0.00    -0.004 A 
ATOM      5  C6  UNL d   1       1.279  -5.714  -4.674  0.00  0.00     0.002 A 
ATOM      6  C7  UNL d   1       0.516  -5.793  -3.508  0.00  0.00     0.002 A 
ENDROOT
BRANCH   1   7
ATOM      7  C1  UNL d   1      -1.701  -5.999  -2.321  0.00  0.00     0.055 C 
ATOM      8  C   UNL d   1      -3.191  -5.999  -2.630  0.00  0.00     0.019 C 
ENDBRANCH   1   7
TORSDOF 1
ENDMDL
