MODEL 1
REMARK minimizedAffinity 2.57769608
REMARK minimizedRMSD -1
REMARK  1 active torsions:
REMARK  status: ('A' for Active; 'I' for Inactive)
REMARK    1  A    between atoms: C1_2  and  C2_3 
ROOT
ATOM      1  C2  UNL d   1      -1.119  -5.907  -3.408  0.00  0.00    -0.077 A 
ATOM      2  C3  UNL d   1      -1.574  -5.892  -4.734  0.00  0.00     0.002 A 
ATOM      3  C4  UNL d   1      -0.664  -5.904  -5.793  0.00  0.00     0.002 A 
ATOM      4  C5  UNL d   1       0.705  -5.934  -5.538  0.00  0.00    -0.004 A 
ATOM      5  C6  UNL d   1       1.168  -5.947  -4.223  0.00  0.00     0.002 A 
ATOM      6  C7  UNL d   1       0.260  -5.934  -3.163  0.00  0.00     0.002 A 
ENDROOT
BRANCH   1   7
ATOM      7  C1  UNL d   1      -2.099  -5.945  -2.265  0.00  0.00     0.055 C 
ATOM      8  C   UNL d   1      -3.526  -5.744  -2.753  0.00  0.00     0.019 C 
ENDBRANCH   1   7
TORSDOF 1
ENDMDL
