MODEL 1
REMARK minimizedAffinity 9.27075768
REMARK minimizedRMSD -1
REMARK  1 active torsions:
REMARK  status: ('A' for Active; 'I' for Inactive)
REMARK    1  A    between atoms: C1_2  and  C2_3 
ROOT
ATOM      1  C2  UNL d   1       1.017  -1.441   1.042  0.00  0.00    -0.077 A 
ATOM      2  C3  UNL d   1       0.379  -0.320   0.491  0.00  0.00     0.002 A 
ATOM      3  C4  UNL d   1       1.130   0.755   0.011  0.00  0.00     0.002 A 
ATOM      4  C5  UNL d   1       2.521   0.718   0.072  0.00  0.00    -0.004 A 
ATOM      5  C6  UNL d   1       3.165  -0.391   0.620  0.00  0.00     0.002 A 
ATOM      6  C7  UNL d   1       2.416  -1.466   1.102  0.00  0.00     0.002 A 
ENDROOT
BRANCH   1   7
ATOM      7  C1  UNL d   1       0.211  -2.622   1.515  0.00  0.00     0.055 C 
ATOM      8  C   UNL d   1       0.725  -3.921   0.911  0.00  0.00     0.019 C 
ENDBRANCH   1   7
TORSDOF 1
ENDMDL
