MODEL 1
REMARK minimizedAffinity -1.4811933
REMARK minimizedRMSD -1
REMARK  1 active torsions:
REMARK  status: ('A' for Active; 'I' for Inactive)
REMARK    1  A    between atoms: C1_2  and  C2_3 
ROOT
ATOM      1  C2  UNL d   1       1.199  -0.901   0.566  0.00  0.00    -0.077 A 
ATOM      2  C3  UNL d   1       1.097  -2.293   0.691  0.00  0.00     0.002 A 
ATOM      3  C4  UNL d   1      -0.132  -2.887   0.984  0.00  0.00     0.002 A 
ATOM      4  C5  UNL d   1      -1.268  -2.097   1.151  0.00  0.00    -0.004 A 
ATOM      5  C6  UNL d   1      -1.175  -0.711   1.031  0.00  0.00     0.002 A 
ATOM      6  C7  UNL d   1       0.052  -0.115   0.739  0.00  0.00     0.002 A 
ENDROOT
BRANCH   1   7
ATOM      7  C1  UNL d   1       2.514  -0.262   0.201  0.00  0.00     0.055 C 
ATOM      8  C   UNL d   1       3.689  -1.102   0.678  0.00  0.00     0.019 C 
ENDBRANCH   1   7
TORSDOF 1
ENDMDL
