MODEL 1
REMARK minimizedAffinity -4.30890512
REMARK minimizedRMSD -1
REMARK  1 active torsions:
REMARK  status: ('A' for Active; 'I' for Inactive)
REMARK    1  A    between atoms: C1_2  and  C2_3 
ROOT
ATOM      1  C2  UNL d   1      -1.643  -5.736  -3.981  0.00  0.00    -0.077 A 
ATOM      2  C3  UNL d   1      -0.760  -5.732  -2.893  0.00  0.00     0.002 A 
ATOM      3  C4  UNL d   1       0.617  -5.629  -3.101  0.00  0.00     0.002 A 
ATOM      4  C5  UNL d   1       1.121  -5.524  -4.396  0.00  0.00    -0.004 A 
ATOM      5  C6  UNL d   1       0.251  -5.529  -5.485  0.00  0.00     0.002 A 
ATOM      6  C7  UNL d   1      -1.125  -5.634  -5.279  0.00  0.00     0.002 A 
ENDROOT
BRANCH   1   7
ATOM      7  C1  UNL d   1      -3.132  -5.798  -3.756  0.00  0.00     0.055 C 
ATOM      8  C   UNL d   1      -3.461  -6.000  -2.284  0.00  0.00     0.019 C 
ENDBRANCH   1   7
TORSDOF 1
ENDMDL
