MODEL 1
REMARK minimizedAffinity 4.96007109
REMARK minimizedRMSD -1
REMARK  1 active torsions:
REMARK  status: ('A' for Active; 'I' for Inactive)
REMARK    1  A    between atoms: C1_2  and  C2_3 
ROOT
ATOM      1  C2  UNL d   1       2.143  -1.277   0.767  0.00  0.00    -0.077 A 
ATOM      2  C3  UNL d   1       1.009  -0.478   0.565  0.00  0.00     0.002 A 
ATOM      3  C4  UNL d   1      -0.254  -1.062   0.445  0.00  0.00     0.002 A 
ATOM      4  C5  UNL d   1      -0.395  -2.445   0.528  0.00  0.00    -0.004 A 
ATOM      5  C6  UNL d   1       0.728  -3.248   0.727  0.00  0.00     0.002 A 
ATOM      6  C7  UNL d   1       1.990  -2.667   0.847  0.00  0.00     0.002 A 
ENDROOT
BRANCH   1   7
ATOM      7  C1  UNL d   1       3.499  -0.646   0.947  0.00  0.00     0.055 C 
ATOM      8  C   UNL d   1       4.072  -0.177  -0.382  0.00  0.00     0.019 C 
ENDBRANCH   1   7
TORSDOF 1
ENDMDL
