MODEL 1
REMARK minimizedAffinity 4.38796186
REMARK minimizedRMSD -1
REMARK  1 active torsions:
REMARK  status: ('A' for Active; 'I' for Inactive)
REMARK    1  A    between atoms: C1_2  and  C2_3 
ROOT
ATOM      1  C2  UNL d   1       0.465  -5.982  -4.979  0.00  0.00    -0.077 A 
ATOM      2  C3  UNL d   1      -0.538  -5.974  -5.959  0.00  0.00     0.002 A 
ATOM      3  C4  UNL d   1      -1.885  -5.977  -5.591  0.00  0.00     0.002 A 
ATOM      4  C5  UNL d   1      -2.241  -5.985  -4.244  0.00  0.00    -0.004 A 
ATOM      5  C6  UNL d   1      -1.251  -5.996  -3.263  0.00  0.00     0.002 A 
ATOM      6  C7  UNL d   1       0.096  -5.994  -3.628  0.00  0.00     0.002 A 
ENDROOT
BRANCH   1   7
ATOM      7  C1  UNL d   1       1.918  -5.929  -5.374  0.00  0.00     0.055 C 
ATOM      8  C   UNL d   1       2.296  -4.556  -5.909  0.00  0.00     0.019 C 
ENDBRANCH   1   7
TORSDOF 1
ENDMDL
