MODEL 1
REMARK minimizedAffinity 0.744992733
REMARK minimizedRMSD -1
REMARK  1 active torsions:
REMARK  status: ('A' for Active; 'I' for Inactive)
REMARK    1  A    between atoms: C1_2  and  C2_3 
ROOT
ATOM      1  C2  UNL d   1      -1.839  -5.996  -3.308  0.00  0.00    -0.077 A 
ATOM      2  C3  UNL d   1      -0.477  -5.967  -2.975  0.00  0.00     0.002 A 
ATOM      3  C4  UNL d   1       0.494  -5.921  -3.978  0.00  0.00     0.002 A 
ATOM      4  C5  UNL d   1       0.113  -5.899  -5.318  0.00  0.00    -0.004 A 
ATOM      5  C6  UNL d   1      -1.238  -5.930  -5.659  0.00  0.00     0.002 A 
ATOM      6  C7  UNL d   1      -2.210  -5.977  -4.659  0.00  0.00     0.002 A 
ENDROOT
BRANCH   1   7
ATOM      7  C1  UNL d   1      -2.889  -5.997  -2.228  0.00  0.00     0.055 C 
ATOM      8  C   UNL d   1      -4.259  -5.643  -2.787  0.00  0.00     0.019 C 
ENDBRANCH   1   7
TORSDOF 1
ENDMDL
