MODEL 1
REMARK minimizedAffinity -0.788232923
REMARK minimizedRMSD -1
REMARK  1 active torsions:
REMARK  status: ('A' for Active; 'I' for Inactive)
REMARK    1  A    between atoms: C1_2  and  C2_3 
ROOT
ATOM      1  C2  UNL d   1       2.970  -0.429   0.367  0.00  0.00    -0.077 A 
ATOM      2  C3  UNL d   1       2.647  -1.705   0.849  0.00  0.00     0.002 A 
ATOM      3  C4  UNL d   1       1.330  -2.167   0.798  0.00  0.00     0.002 A 
ATOM      4  C5  UNL d   1       0.328  -1.362   0.263  0.00  0.00    -0.004 A 
ATOM      5  C6  UNL d   1       0.638  -0.090  -0.218  0.00  0.00     0.002 A 
ATOM      6  C7  UNL d   1       1.953   0.374  -0.167  0.00  0.00     0.002 A 
ENDROOT
BRANCH   1   7
ATOM      7  C1  UNL d   1       4.397   0.052   0.375  0.00  0.00     0.055 C 
ATOM      8  C   UNL d   1       5.057  -0.197   1.724  0.00  0.00     0.019 C 
ENDBRANCH   1   7
TORSDOF 1
ENDMDL
