MODEL 1
REMARK minimizedAffinity -1.07634819
REMARK minimizedRMSD -1
REMARK  0 active torsions:
REMARK  status: ('A' for Active; 'I' for Inactive)
ROOT
ATOM      1  C1  BNZ d   1       4.554   0.960  -5.999  0.00  0.00     0.000 A 
ATOM      2  C2  BNZ d   1       4.552   2.253  -5.549  0.00  0.00     0.000 A 
ATOM      3  C3  BNZ d   1       5.288   2.616  -4.456  0.00  0.00     0.000 A 
ATOM      4  C4  BNZ d   1       5.993   1.678  -3.791  0.00  0.00     0.000 A 
ATOM      5  C5  BNZ d   1       5.998   0.368  -4.226  0.00  0.00     0.000 A 
ATOM      6  C6  BNZ d   1       5.287   0.014  -5.350  0.00  0.00     0.000 A 
ENDROOT
TORSDOF 0
ENDMDL
