MODEL 1
REMARK minimizedAffinity 0.730824828
REMARK minimizedRMSD -1
REMARK  0 active torsions:
REMARK  status: ('A' for Active; 'I' for Inactive)
ROOT
ATOM      1  C1  BNZ d   1      -0.147  -5.087   1.504  0.00  0.00     0.000 A 
ATOM      2  C2  BNZ d   1       1.117  -4.579   1.362  0.00  0.00     0.000 A 
ATOM      3  C3  BNZ d   1       1.341  -3.462   0.607  0.00  0.00     0.000 A 
ATOM      4  C4  BNZ d   1       0.309  -2.878  -0.036  0.00  0.00     0.000 A 
ATOM      5  C5  BNZ d   1      -0.969  -3.384   0.090  0.00  0.00     0.000 A 
ATOM      6  C6  BNZ d   1      -1.197  -4.486   0.882  0.00  0.00     0.000 A 
ENDROOT
TORSDOF 0
ENDMDL
