MODEL 1
REMARK minimizedAffinity -0.933385968
REMARK minimizedRMSD -1
REMARK  0 active torsions:
REMARK  status: ('A' for Active; 'I' for Inactive)
ROOT
ATOM      1  C1  BNZ d   1       4.380  -5.996   3.332  0.00  0.00     0.000 A 
ATOM      2  C2  BNZ d   1       3.064  -5.992   3.711  0.00  0.00     0.000 A 
ATOM      3  C3  BNZ d   1       2.716  -5.967   5.032  0.00  0.00     0.000 A 
ATOM      4  C4  BNZ d   1       3.682  -5.987   5.973  0.00  0.00     0.000 A 
ATOM      5  C5  BNZ d   1       5.013  -6.000   5.608  0.00  0.00     0.000 A 
ATOM      6  C6  BNZ d   1       5.360  -5.986   4.276  0.00  0.00     0.000 A 
ENDROOT
TORSDOF 0
ENDMDL
