MODEL 1
REMARK minimizedAffinity -2.01429605
REMARK minimizedRMSD -1
REMARK  0 active torsions:
REMARK  status: ('A' for Active; 'I' for Inactive)
ROOT
ATOM      1  C1  BNZ d   1       4.530   2.998  -5.219  0.00  0.00     0.000 A 
ATOM      2  C2  BNZ d   1       5.680   2.255  -5.214  0.00  0.00     0.000 A 
ATOM      3  C3  BNZ d   1       5.672   0.951  -5.624  0.00  0.00     0.000 A 
ATOM      4  C4  BNZ d   1       4.508   0.381  -5.998  0.00  0.00     0.000 A 
ATOM      5  C5  BNZ d   1       3.339   1.114  -5.999  0.00  0.00     0.000 A 
ATOM      6  C6  BNZ d   1       3.357   2.438  -5.624  0.00  0.00     0.000 A 
ENDROOT
TORSDOF 0
ENDMDL
