MODEL 1
REMARK minimizedAffinity -1.20608771
REMARK minimizedRMSD -1
REMARK  0 active torsions:
REMARK  status: ('A' for Active; 'I' for Inactive)
ROOT
ATOM      1  C1  BNZ d   1       1.346  -0.822  -1.175  0.00  0.00     0.000 A 
ATOM      2  C2  BNZ d   1       1.554  -0.919  -2.525  0.00  0.00     0.000 A 
ATOM      3  C3  BNZ d   1       1.355   0.157  -3.343  0.00  0.00     0.000 A 
ATOM      4  C4  BNZ d   1       0.910   1.316  -2.818  0.00  0.00     0.000 A 
ATOM      5  C5  BNZ d   1       0.685   1.428  -1.460  0.00  0.00     0.000 A 
ATOM      6  C6  BNZ d   1       0.924   0.354  -0.634  0.00  0.00     0.000 A 
ENDROOT
TORSDOF 0
ENDMDL
