MODEL 1
REMARK minimizedAffinity -3.19492722
REMARK minimizedRMSD -1
REMARK  0 active torsions:
REMARK  status: ('A' for Active; 'I' for Inactive)
ROOT
ATOM      1  C1  BNZ d   1       0.780   1.142  -2.667  0.00  0.00     0.000 A 
ATOM      2  C2  BNZ d   1       1.324   0.150  -3.439  0.00  0.00     0.000 A 
ATOM      3  C3  BNZ d   1       1.570  -1.088  -2.915  0.00  0.00     0.000 A 
ATOM      4  C4  BNZ d   1       1.309  -1.321  -1.612  0.00  0.00     0.000 A 
ATOM      5  C5  BNZ d   1       0.769  -0.328  -0.819  0.00  0.00     0.000 A 
ATOM      6  C6  BNZ d   1       0.486   0.906  -1.360  0.00  0.00     0.000 A 
ENDROOT
TORSDOF 0
ENDMDL
