MODEL 1
REMARK minimizedAffinity -4.29850435
REMARK minimizedRMSD -1
REMARK  0 active torsions:
REMARK  status: ('A' for Active; 'I' for Inactive)
ROOT
ATOM      1  C1  BNZ d   1       0.680   1.151  -1.366  0.00  0.00     0.000 A 
ATOM      2  C2  BNZ d   1       0.899   1.176  -2.717  0.00  0.00     0.000 A 
ATOM      3  C3  BNZ d   1       1.384   0.077  -3.368  0.00  0.00     0.000 A 
ATOM      4  C4  BNZ d   1       1.689  -1.031  -2.662  0.00  0.00     0.000 A 
ATOM      5  C5  BNZ d   1       1.483  -1.069  -1.298  0.00  0.00     0.000 A 
ATOM      6  C6  BNZ d   1       0.957   0.026  -0.651  0.00  0.00     0.000 A 
ENDROOT
TORSDOF 0
ENDMDL
