MODEL 1
REMARK minimizedAffinity -0.168873295
REMARK minimizedRMSD -1
REMARK  0 active torsions:
REMARK  status: ('A' for Active; 'I' for Inactive)
ROOT
ATOM      1  C1  BNZ d   1       1.170  -0.888  -1.435  0.00  0.00     0.000 A 
ATOM      2  C2  BNZ d   1       1.435  -0.035  -2.473  0.00  0.00     0.000 A 
ATOM      3  C3  BNZ d   1       1.597  -0.509  -3.744  0.00  0.00     0.000 A 
ATOM      4  C4  BNZ d   1       1.536  -1.838  -3.969  0.00  0.00     0.000 A 
ATOM      5  C5  BNZ d   1       1.279  -2.711  -2.931  0.00  0.00     0.000 A 
ATOM      6  C6  BNZ d   1       1.077  -2.227  -1.659  0.00  0.00     0.000 A 
ENDROOT
TORSDOF 0
ENDMDL
