MODEL 1
REMARK minimizedAffinity 0.599639177
REMARK minimizedRMSD -1
REMARK  0 active torsions:
REMARK  status: ('A' for Active; 'I' for Inactive)
ROOT
ATOM      1  C1  BNZ d   1       1.178  -1.577  -1.708  0.00  0.00     0.000 A 
ATOM      2  C2  BNZ d   1       0.586  -0.567  -0.997  0.00  0.00     0.000 A 
ATOM      3  C3  BNZ d   1       0.400   0.666  -1.556  0.00  0.00     0.000 A 
ATOM      4  C4  BNZ d   1       0.842   0.900  -2.809  0.00  0.00     0.000 A 
ATOM      5  C5  BNZ d   1       1.448  -0.106  -3.535  0.00  0.00     0.000 A 
ATOM      6  C6  BNZ d   1       1.599  -1.357  -2.983  0.00  0.00     0.000 A 
ENDROOT
TORSDOF 0
ENDMDL
