MODEL 1
REMARK minimizedAffinity -0.629133284
REMARK minimizedRMSD -1
REMARK  0 active torsions:
REMARK  status: ('A' for Active; 'I' for Inactive)
ROOT
ATOM      1  C1  BNZ d   1       4.462   2.814  -5.571  0.00  0.00     0.000 A 
ATOM      2  C2  BNZ d   1       4.478   1.513  -5.997  0.00  0.00     0.000 A 
ATOM      3  C3  BNZ d   1       5.231   0.574  -5.349  0.00  0.00     0.000 A 
ATOM      4  C4  BNZ d   1       5.998   0.945  -4.304  0.00  0.00     0.000 A 
ATOM      5  C5  BNZ d   1       5.999   2.255  -3.868  0.00  0.00     0.000 A 
ATOM      6  C6  BNZ d   1       5.210   3.189  -4.498  0.00  0.00     0.000 A 
ENDROOT
TORSDOF 0
ENDMDL
