MODEL 1
REMARK minimizedAffinity -0.354545742
REMARK minimizedRMSD -1
REMARK  0 active torsions:
REMARK  status: ('A' for Active; 'I' for Inactive)
ROOT
ATOM      1  C1  BNZ d   1       1.509  -1.452  -2.460  0.00  0.00     0.000 A 
ATOM      2  C2  BNZ d   1       1.313  -1.305  -1.113  0.00  0.00     0.000 A 
ATOM      3  C3  BNZ d   1       0.786  -0.152  -0.603  0.00  0.00     0.000 A 
ATOM      4  C4  BNZ d   1       0.494   0.868  -1.436  0.00  0.00     0.000 A 
ATOM      5  C5  BNZ d   1       0.694   0.739  -2.796  0.00  0.00     0.000 A 
ATOM      6  C6  BNZ d   1       1.189  -0.438  -3.309  0.00  0.00     0.000 A 
ENDROOT
TORSDOF 0
ENDMDL
