MODEL 1
REMARK minimizedAffinity -0.371786237
REMARK minimizedRMSD -1
REMARK  0 active torsions:
REMARK  status: ('A' for Active; 'I' for Inactive)
ROOT
ATOM      1  C1  BNZ d   1       1.122  -1.044  -0.906  0.00  0.00     0.000 A 
ATOM      2  C2  BNZ d   1       0.953  -1.171  -2.259  0.00  0.00     0.000 A 
ATOM      3  C3  BNZ d   1       0.851  -0.067  -3.058  0.00  0.00     0.000 A 
ATOM      4  C4  BNZ d   1       0.878   1.160  -2.500  0.00  0.00     0.000 A 
ATOM      5  C5  BNZ d   1       1.039   1.305  -1.137  0.00  0.00     0.000 A 
ATOM      6  C6  BNZ d   1       1.181   0.192  -0.340  0.00  0.00     0.000 A 
ENDROOT
TORSDOF 0
ENDMDL
