MODEL 1
REMARK minimizedAffinity 0.308571517
REMARK minimizedRMSD -1
REMARK  0 active torsions:
REMARK  status: ('A' for Active; 'I' for Inactive)
ROOT
ATOM      1  C1  BNZ d   1       4.891   3.375  -4.691  0.00  0.00     0.000 A 
ATOM      2  C2  BNZ d   1       5.988   2.577  -4.503  0.00  0.00     0.000 A 
ATOM      3  C3  BNZ d   1       5.999   1.286  -4.951  0.00  0.00     0.000 A 
ATOM      4  C4  BNZ d   1       4.900   0.782  -5.550  0.00  0.00     0.000 A 
ATOM      5  C5  BNZ d   1       3.783   1.571  -5.738  0.00  0.00     0.000 A 
ATOM      6  C6  BNZ d   1       3.790   2.883  -5.320  0.00  0.00     0.000 A 
ENDROOT
TORSDOF 0
ENDMDL
