MODEL 1
REMARK minimizedAffinity -1.5077008
REMARK minimizedRMSD -1
REMARK  0 active torsions:
REMARK  status: ('A' for Active; 'I' for Inactive)
ROOT
ATOM      1  C1  BNZ d   1       1.505  -1.046  -2.495  0.00  0.00     0.000 A 
ATOM      2  C2  BNZ d   1       0.947  -0.798  -1.269  0.00  0.00     0.000 A 
ATOM      3  C3  BNZ d   1       0.538   0.461  -0.928  0.00  0.00     0.000 A 
ATOM      4  C4  BNZ d   1       0.725   1.476  -1.796  0.00  0.00     0.000 A 
ATOM      5  C5  BNZ d   1       1.294   1.244  -3.032  0.00  0.00     0.000 A 
ATOM      6  C6  BNZ d   1       1.669  -0.032  -3.387  0.00  0.00     0.000 A 
ENDROOT
TORSDOF 0
ENDMDL
