MODEL 1
REMARK minimizedAffinity -0.512963474
REMARK minimizedRMSD -1
REMARK  0 active torsions:
REMARK  status: ('A' for Active; 'I' for Inactive)
ROOT
ATOM      1  C1  BNZ d   1      -3.361   3.661   4.450  0.00  0.00     0.000 A 
ATOM      2  C2  BNZ d   1      -3.168   4.828   3.760  0.00  0.00     0.000 A 
ATOM      3  C3  BNZ d   1      -3.722   5.999   4.197  0.00  0.00     0.000 A 
ATOM      4  C4  BNZ d   1      -4.500   5.994   5.299  0.00  0.00     0.000 A 
ATOM      5  C5  BNZ d   1      -4.712   4.824   6.000  0.00  0.00     0.000 A 
ATOM      6  C6  BNZ d   1      -4.121   3.655   5.579  0.00  0.00     0.000 A 
ENDROOT
TORSDOF 0
ENDMDL
