MODEL 1
REMARK minimizedAffinity -0.773980916
REMARK minimizedRMSD -1
REMARK  0 active torsions:
REMARK  status: ('A' for Active; 'I' for Inactive)
ROOT
ATOM      1  C1  BNZ d   1       0.621   0.973  -1.877  0.00  0.00     0.000 A 
ATOM      2  C2  BNZ d   1       0.551  -0.259  -1.284  0.00  0.00     0.000 A 
ATOM      3  C3  BNZ d   1       0.942  -1.383  -1.957  0.00  0.00     0.000 A 
ATOM      4  C4  BNZ d   1       1.363  -1.278  -3.234  0.00  0.00     0.000 A 
ATOM      5  C5  BNZ d   1       1.431  -0.044  -3.849  0.00  0.00     0.000 A 
ATOM      6  C6  BNZ d   1       1.074   1.090  -3.155  0.00  0.00     0.000 A 
ENDROOT
TORSDOF 0
ENDMDL
