MODEL 1
REMARK minimizedAffinity -2.12369442
REMARK minimizedRMSD -1
REMARK  0 active torsions:
REMARK  status: ('A' for Active; 'I' for Inactive)
ROOT
ATOM      1  C1  BNZ d   1       1.760   0.132  -4.442  0.00  0.00     0.000 A 
ATOM      2  C2  BNZ d   1       1.704  -1.214  -4.689  0.00  0.00     0.000 A 
ATOM      3  C3  BNZ d   1       1.320  -2.090  -3.713  0.00  0.00     0.000 A 
ATOM      4  C4  BNZ d   1       1.032  -1.623  -2.480  0.00  0.00     0.000 A 
ATOM      5  C5  BNZ d   1       1.092  -0.270  -2.213  0.00  0.00     0.000 A 
ATOM      6  C6  BNZ d   1       1.441   0.612  -3.209  0.00  0.00     0.000 A 
ENDROOT
TORSDOF 0
ENDMDL
