MODEL 1
REMARK minimizedAffinity 1.44095266
REMARK minimizedRMSD -1
REMARK  1 active torsions:
REMARK  status: ('A' for Active; 'I' for Inactive)
REMARK    1  A    between atoms: N_2  and  C1_3 
ROOT
ATOM      1  C1  UNL d   1       1.091  -2.163   0.948  0.00  0.00     0.143 A 
ATOM      2  C2  UNL d   1       0.521  -1.179   0.133  0.00  0.00    -0.057 A 
ATOM      3  C3  UNL d   1      -0.436  -0.287   0.634  0.00  0.00     0.033 A 
ATOM      4  C4  UNL d   1      -0.862  -0.384   1.954  0.00  0.00    -0.042 A 
ATOM      5  C5  UNL d   1      -0.327  -1.370   2.775  0.00  0.00     0.033 A 
ATOM      6  C6  UNL d   1       0.633  -2.254   2.272  0.00  0.00    -0.057 A 
ENDROOT
BRANCH   1   7
ATOM      7  N   UNL d   1       1.974  -3.142   0.484  0.00  0.00    -0.732 N 
ATOM      8  C   UNL d   1       2.878  -3.811   1.394  0.00  0.00     0.284 C 
ATOM      9  H3  UNL d   1       1.545  -3.757  -0.204  0.00  0.00     0.395 HD
ENDBRANCH   1   7
TORSDOF 1
ENDMDL
