MODEL 1
REMARK minimizedAffinity 3.36403441
REMARK minimizedRMSD -1
REMARK  1 active torsions:
REMARK  status: ('A' for Active; 'I' for Inactive)
REMARK    1  A    between atoms: N_2  and  C1_3 
ROOT
ATOM      1  C1  UNL d   1       2.053   0.987  -0.620  0.00  0.00     0.143 A 
ATOM      2  C2  UNL d   1       2.120   2.360  -0.880  0.00  0.00    -0.057 A 
ATOM      3  C3  UNL d   1       3.288   3.091  -0.627  0.00  0.00     0.033 A 
ATOM      4  C4  UNL d   1       4.404   2.463  -0.082  0.00  0.00    -0.042 A 
ATOM      5  C5  UNL d   1       4.351   1.104   0.207  0.00  0.00     0.033 A 
ATOM      6  C6  UNL d   1       3.184   0.380  -0.053  0.00  0.00    -0.057 A 
ENDROOT
BRANCH   1   7
ATOM      7  N   UNL d   1       0.889   0.226  -0.757  0.00  0.00    -0.732 N 
ATOM      8  C   UNL d   1      -0.321   0.597  -0.056  0.00  0.00     0.284 C 
ATOM      9  H3  UNL d   1       0.737  -0.081  -1.715  0.00  0.00     0.395 HD
ENDBRANCH   1   7
TORSDOF 1
ENDMDL
