MODEL 1
REMARK minimizedAffinity -3.14710021
REMARK minimizedRMSD -1
REMARK  1 active torsions:
REMARK  status: ('A' for Active; 'I' for Inactive)
REMARK    1  A    between atoms: N_2  and  C1_3 
ROOT
ATOM      1  C1  UNL d   1       4.192  -3.630   2.943  0.00  0.00     0.143 A 
ATOM      2  C2  UNL d   1       2.962  -3.061   2.594  0.00  0.00    -0.057 A 
ATOM      3  C3  UNL d   1       2.589  -2.902   1.254  0.00  0.00     0.033 A 
ATOM      4  C4  UNL d   1       3.456  -3.284   0.235  0.00  0.00    -0.042 A 
ATOM      5  C5  UNL d   1       4.694  -3.828   0.558  0.00  0.00     0.033 A 
ATOM      6  C6  UNL d   1       5.057  -3.990   1.898  0.00  0.00    -0.057 A 
ENDROOT
BRANCH   1   7
ATOM      7  N   UNL d   1       4.661  -3.724   4.255  0.00  0.00    -0.732 N 
ATOM      8  C   UNL d   1       4.454  -2.640   5.192  0.00  0.00     0.284 C 
ATOM      9  H3  UNL d   1       4.519  -4.649   4.653  0.00  0.00     0.395 HD
ENDBRANCH   1   7
TORSDOF 1
ENDMDL
