MODEL 1
REMARK minimizedAffinity 2.64375854
REMARK minimizedRMSD -1
REMARK  1 active torsions:
REMARK  status: ('A' for Active; 'I' for Inactive)
REMARK    1  A    between atoms: N_2  and  C1_3 
ROOT
ATOM      1  C1  UNL d   1       2.967   5.302   3.497  0.00  0.00     0.143 A 
ATOM      2  C2  UNL d   1       2.833   3.917   3.349  0.00  0.00    -0.057 A 
ATOM      3  C3  UNL d   1       1.651   3.260   3.709  0.00  0.00     0.033 A 
ATOM      4  C4  UNL d   1       0.588   3.974   4.251  0.00  0.00    -0.042 A 
ATOM      5  C5  UNL d   1       0.707   5.348   4.430  0.00  0.00     0.033 A 
ATOM      6  C6  UNL d   1       1.888   6.000   4.063  0.00  0.00    -0.057 A 
ENDROOT
BRANCH   1   7
ATOM      7  N   UNL d   1       4.152   6.000   3.250  0.00  0.00    -0.732 N 
ATOM      8  C   UNL d   1       4.746   5.999   1.931  0.00  0.00     0.284 C 
ATOM      9  H3  UNL d   1       4.174   6.904   3.716  0.00  0.00     0.395 HD
ENDBRANCH   1   7
TORSDOF 1
ENDMDL
