MODEL 1
REMARK minimizedAffinity 5.31849098
REMARK minimizedRMSD -1
REMARK  1 active torsions:
REMARK  status: ('A' for Active; 'I' for Inactive)
REMARK    1  A    between atoms: N_2  and  C1_3 
ROOT
ATOM      1  C1  UNL d   1      -3.542  -0.575   1.205  0.00  0.00     0.143 A 
ATOM      2  C2  UNL d   1      -2.311  -0.786   0.575  0.00  0.00    -0.057 A 
ATOM      3  C3  UNL d   1      -1.158  -0.107   0.989  0.00  0.00     0.033 A 
ATOM      4  C4  UNL d   1      -1.223   0.820   2.024  0.00  0.00    -0.042 A 
ATOM      5  C5  UNL d   1      -2.441   1.064   2.648  0.00  0.00     0.033 A 
ATOM      6  C6  UNL d   1      -3.588   0.378   2.235  0.00  0.00    -0.057 A 
ENDROOT
BRANCH   1   7
ATOM      7  N   UNL d   1      -4.743  -1.146   0.776  0.00  0.00    -0.732 N 
ATOM      8  C   UNL d   1      -6.000  -0.761   1.382  0.00  0.00     0.284 C 
ATOM      9  H3  UNL d   1      -4.784  -1.251  -0.235  0.00  0.00     0.395 HD
ENDBRANCH   1   7
TORSDOF 1
ENDMDL
