MODEL 1
REMARK minimizedAffinity -0.471728653
REMARK minimizedRMSD -1
REMARK  1 active torsions:
REMARK  status: ('A' for Active; 'I' for Inactive)
REMARK    1  A    between atoms: N_2  and  C1_3 
ROOT
ATOM      1  C1  UNL d   1       2.303  -1.012  -0.193  0.00  0.00     0.143 A 
ATOM      2  C2  UNL d   1       1.661  -0.579  -1.358  0.00  0.00    -0.057 A 
ATOM      3  C3  UNL d   1       2.132   0.524  -2.080  0.00  0.00     0.033 A 
ATOM      4  C4  UNL d   1       3.242   1.233  -1.632  0.00  0.00    -0.042 A 
ATOM      5  C5  UNL d   1       3.881   0.836  -0.464  0.00  0.00     0.033 A 
ATOM      6  C6  UNL d   1       3.410  -0.270   0.249  0.00  0.00    -0.057 A 
ENDROOT
BRANCH   1   7
ATOM      7  N   UNL d   1       1.825  -2.041   0.622  0.00  0.00    -0.732 N 
ATOM      8  C   UNL d   1       2.559  -3.282   0.749  0.00  0.00     0.284 C 
ATOM      9  H3  UNL d   1       1.439  -1.695   1.498  0.00  0.00     0.395 HD
ENDBRANCH   1   7
TORSDOF 1
ENDMDL
