MODEL 1
REMARK minimizedAffinity -5.25222874
REMARK minimizedRMSD -1
REMARK  1 active torsions:
REMARK  status: ('A' for Active; 'I' for Inactive)
REMARK    1  A    between atoms: N_2  and  C1_3 
ROOT
ATOM      1  C1  UNL d   1       1.356   0.137   0.391  0.00  0.00     0.143 A 
ATOM      2  C2  UNL d   1       1.732  -1.171   0.719  0.00  0.00    -0.057 A 
ATOM      3  C3  UNL d   1       3.052  -1.481   1.069  0.00  0.00     0.033 A 
ATOM      4  C4  UNL d   1       4.029  -0.491   1.069  0.00  0.00    -0.042 A 
ATOM      5  C5  UNL d   1       3.683   0.811   0.723  0.00  0.00     0.033 A 
ATOM      6  C6  UNL d   1       2.363   1.115   0.381  0.00  0.00    -0.057 A 
ENDROOT
BRANCH   1   7
ATOM      7  N   UNL d   1       0.083   0.490  -0.061  0.00  0.00    -0.732 N 
ATOM      8  C   UNL d   1      -0.758  -0.480  -0.730  0.00  0.00     0.284 C 
ATOM      9  H3  UNL d   1      -0.413   1.084   0.600  0.00  0.00     0.395 HD
ENDBRANCH   1   7
TORSDOF 1
ENDMDL
