MODEL 1
REMARK minimizedAffinity -2.80546403
REMARK minimizedRMSD -1
REMARK  1 active torsions:
REMARK  status: ('A' for Active; 'I' for Inactive)
REMARK    1  A    between atoms: N_2  and  C1_3 
ROOT
ATOM      1  C1  UNL d   1       0.231   0.024  -0.090  0.00  0.00     0.143 A 
ATOM      2  C2  UNL d   1       1.021   0.357   1.015  0.00  0.00    -0.057 A 
ATOM      3  C3  UNL d   1       2.098  -0.446   1.406  0.00  0.00     0.033 A 
ATOM      4  C4  UNL d   1       2.388  -1.617   0.714  0.00  0.00    -0.042 A 
ATOM      5  C5  UNL d   1       1.601  -1.981  -0.373  0.00  0.00     0.033 A 
ATOM      6  C6  UNL d   1       0.530  -1.171  -0.763  0.00  0.00    -0.057 A 
ENDROOT
BRANCH   1   7
ATOM      7  N   UNL d   1      -0.914   0.729  -0.469  0.00  0.00    -0.732 N 
ATOM      8  C   UNL d   1      -2.202   0.409   0.108  0.00  0.00     0.284 C 
ATOM      9  H3  UNL d   1      -0.740   1.727  -0.570  0.00  0.00     0.395 HD
ENDBRANCH   1   7
TORSDOF 1
ENDMDL
