MODEL 1
REMARK minimizedAffinity -5.28683424
REMARK minimizedRMSD -1
REMARK  1 active torsions:
REMARK  status: ('A' for Active; 'I' for Inactive)
REMARK    1  A    between atoms: N_2  and  C1_3 
ROOT
ATOM      1  C1  UNL d   1       1.231   0.391   0.053  0.00  0.00     0.143 A 
ATOM      2  C2  UNL d   1       1.214  -1.008   0.048  0.00  0.00    -0.057 A 
ATOM      3  C3  UNL d   1       2.383  -1.749   0.257  0.00  0.00     0.033 A 
ATOM      4  C4  UNL d   1       3.600  -1.102   0.447  0.00  0.00    -0.042 A 
ATOM      5  C5  UNL d   1       3.644   0.288   0.430  0.00  0.00     0.033 A 
ATOM      6  C6  UNL d   1       2.472   1.022   0.228  0.00  0.00    -0.057 A 
ENDROOT
BRANCH   1   7
ATOM      7  N   UNL d   1       0.120   1.183  -0.247  0.00  0.00    -0.732 N 
ATOM      8  C   UNL d   1      -1.112   0.581  -0.710  0.00  0.00     0.284 C 
ATOM      9  H3  UNL d   1      -0.012   1.937   0.423  0.00  0.00     0.395 HD
ENDBRANCH   1   7
TORSDOF 1
ENDMDL
