MODEL 1
REMARK minimizedAffinity -2.59025002
REMARK minimizedRMSD -1
REMARK  1 active torsions:
REMARK  status: ('A' for Active; 'I' for Inactive)
REMARK    1  A    between atoms: N_2  and  C1_3 
ROOT
ATOM      1  C1  UNL d   1      -0.167   0.081  -0.084  0.00  0.00     0.143 A 
ATOM      2  C2  UNL d   1      -0.167  -1.153  -0.743  0.00  0.00    -0.057 A 
ATOM      3  C3  UNL d   1       0.908  -2.042  -0.622  0.00  0.00     0.033 A 
ATOM      4  C4  UNL d   1       2.019  -1.698   0.141  0.00  0.00    -0.042 A 
ATOM      5  C5  UNL d   1       2.053  -0.466   0.785  0.00  0.00     0.033 A 
ATOM      6  C6  UNL d   1       0.973   0.414   0.665  0.00  0.00    -0.057 A 
ENDROOT
BRANCH   1   7
ATOM      7  N   UNL d   1      -1.161   1.049  -0.245  0.00  0.00    -0.732 N 
ATOM      8  C   UNL d   1      -2.526   0.777   0.151  0.00  0.00     0.284 C 
ATOM      9  H3  UNL d   1      -0.836   1.983  -0.004  0.00  0.00     0.395 HD
ENDBRANCH   1   7
TORSDOF 1
ENDMDL
