MODEL 1
REMARK minimizedAffinity -4.02157927
REMARK minimizedRMSD -1
REMARK  1 active torsions:
REMARK  status: ('A' for Active; 'I' for Inactive)
REMARK    1  A    between atoms: N_2  and  C1_3 
ROOT
ATOM      1  C1  UNL d   1       0.118   0.011   0.186  0.00  0.00     0.143 A 
ATOM      2  C2  UNL d   1       0.310  -1.303  -0.251  0.00  0.00    -0.057 A 
ATOM      3  C3  UNL d   1       1.457  -2.025   0.101  0.00  0.00     0.033 A 
ATOM      4  C4  UNL d   1       2.448  -1.433   0.876  0.00  0.00    -0.042 A 
ATOM      5  C5  UNL d   1       2.290  -0.118   1.302  0.00  0.00     0.033 A 
ATOM      6  C6  UNL d   1       1.139   0.595   0.952  0.00  0.00    -0.057 A 
ENDROOT
BRANCH   1   7
ATOM      7  N   UNL d   1      -0.954   0.814  -0.212  0.00  0.00    -0.732 N 
ATOM      8  C   UNL d   1      -2.135   0.932   0.617  0.00  0.00     0.284 C 
ATOM      9  H3  UNL d   1      -0.649   1.692  -0.627  0.00  0.00     0.395 HD
ENDBRANCH   1   7
TORSDOF 1
ENDMDL
