MODEL 1
REMARK minimizedAffinity 0.393217236
REMARK minimizedRMSD -1
REMARK  3 active torsions:
REMARK  status: ('A' for Active; 'I' for Inactive)
REMARK    1  A    between atoms: C3'_2  and  C2'_3 
REMARK    2  A    between atoms: C2'_3  and  C1'_4 
REMARK    3  A    between atoms: C1'_4  and  C1_5 
ROOT
ATOM      1  C1  N4B d   1       3.188   4.692  -2.630  0.00  0.00    -0.075 A 
ATOM      2  C2  N4B d   1       3.239   5.311  -3.898  0.00  0.00     0.002 A 
ATOM      3  C3  N4B d   1       4.417   5.851  -4.352  0.00  0.00     0.002 A 
ATOM      4  C4  N4B d   1       5.548   5.801  -3.550  0.00  0.00    -0.004 A 
ATOM      5  C5  N4B d   1       5.497   5.179  -2.337  0.00  0.00     0.002 A 
ATOM      6  C6  N4B d   1       4.320   4.628  -1.871  0.00  0.00     0.002 A 
ENDROOT
BRANCH   1   7
ATOM      7  C1' N4B d   1       1.902   4.164  -2.055  0.00  0.00     0.057 C 
BRANCH   7   8
ATOM      8  C2' N4B d   1       2.046   4.034  -0.542  0.00  0.00     0.009 C 
BRANCH   8   9
ATOM      9  C3' N4B d   1       0.744   3.617   0.119  0.00  0.00     0.004 C 
ATOM     10  C4' N4B d   1       0.409   4.451   1.320  0.00  0.00     0.003 C 
ENDBRANCH   8   9
ENDBRANCH   7   8
ENDBRANCH   1   7
TORSDOF 3
ENDMDL
