MODEL 1
REMARK minimizedAffinity 2.54801106
REMARK minimizedRMSD -1
REMARK  3 active torsions:
REMARK  status: ('A' for Active; 'I' for Inactive)
REMARK    1  A    between atoms: C3'_2  and  C2'_3 
REMARK    2  A    between atoms: C2'_3  and  C1'_4 
REMARK    3  A    between atoms: C1'_4  and  C1_5 
ROOT
ATOM      1  C1  N4B d   1       3.771   5.184  -2.043  0.00  0.00    -0.075 A 
ATOM      2  C2  N4B d   1       5.107   5.631  -1.939  0.00  0.00     0.002 A 
ATOM      3  C3  N4B d   1       5.999   5.369  -2.949  0.00  0.00     0.002 A 
ATOM      4  C4  N4B d   1       5.585   4.650  -4.060  0.00  0.00    -0.004 A 
ATOM      5  C5  N4B d   1       4.287   4.244  -4.165  0.00  0.00     0.002 A 
ATOM      6  C6  N4B d   1       3.378   4.503  -3.159  0.00  0.00     0.002 A 
ENDROOT
BRANCH   1   7
ATOM      7  C1' N4B d   1       2.782   5.372  -0.925  0.00  0.00     0.057 C 
BRANCH   7   8
ATOM      8  C2' N4B d   1       2.325   4.004  -0.427  0.00  0.00     0.009 C 
BRANCH   8   9
ATOM      9  C3' N4B d   1       1.140   4.110   0.518  0.00  0.00     0.004 C 
ATOM     10  C4' N4B d   1       0.369   2.829   0.630  0.00  0.00     0.003 C 
ENDBRANCH   8   9
ENDBRANCH   7   8
ENDBRANCH   1   7
TORSDOF 3
ENDMDL
