MODEL 1
REMARK minimizedAffinity 1.77019835
REMARK minimizedRMSD -1
REMARK  3 active torsions:
REMARK  status: ('A' for Active; 'I' for Inactive)
REMARK    1  A    between atoms: C3'_2  and  C2'_3 
REMARK    2  A    between atoms: C2'_3  and  C1'_4 
REMARK    3  A    between atoms: C1'_4  and  C1_5 
ROOT
ATOM      1  C1  N4B d   1       3.596   4.377  -3.214  0.00  0.00    -0.075 A 
ATOM      2  C2  N4B d   1       4.008   3.738  -4.404  0.00  0.00     0.002 A 
ATOM      3  C3  N4B d   1       5.206   4.074  -4.984  0.00  0.00     0.002 A 
ATOM      4  C4  N4B d   1       5.998   5.055  -4.405  0.00  0.00    -0.004 A 
ATOM      5  C5  N4B d   1       5.605   5.649  -3.242  0.00  0.00     0.002 A 
ATOM      6  C6  N4B d   1       4.404   5.318  -2.646  0.00  0.00     0.002 A 
ENDROOT
BRANCH   1   7
ATOM      7  C1' N4B d   1       2.254   4.105  -2.590  0.00  0.00     0.057 C 
BRANCH   7   8
ATOM      8  C2' N4B d   1       2.316   4.442  -1.103  0.00  0.00     0.009 C 
BRANCH   8   9
ATOM      9  C3' N4B d   1       1.514   3.463  -0.265  0.00  0.00     0.004 C 
ATOM     10  C4' N4B d   1       0.729   4.135   0.822  0.00  0.00     0.003 C 
ENDBRANCH   8   9
ENDBRANCH   7   8
ENDBRANCH   1   7
TORSDOF 3
ENDMDL
