MODEL 1
REMARK minimizedAffinity -0.00671684835
REMARK minimizedRMSD -1
REMARK  3 active torsions:
REMARK  status: ('A' for Active; 'I' for Inactive)
REMARK    1  A    between atoms: C3'_2  and  C2'_3 
REMARK    2  A    between atoms: C2'_3  and  C1'_4 
REMARK    3  A    between atoms: C1'_4  and  C1_5 
ROOT
ATOM      1  C1  N4B d   1       4.678   5.390  -2.961  0.00  0.00    -0.075 A 
ATOM      2  C2  N4B d   1       3.482   5.999  -3.400  0.00  0.00     0.002 A 
ATOM      3  C3  N4B d   1       2.286   5.669  -2.810  0.00  0.00     0.002 A 
ATOM      4  C4  N4B d   1       2.260   4.722  -1.797  0.00  0.00    -0.004 A 
ATOM      5  C5  N4B d   1       3.423   4.157  -1.361  0.00  0.00     0.002 A 
ATOM      6  C6  N4B d   1       4.632   4.483  -1.942  0.00  0.00     0.002 A 
ENDROOT
BRANCH   1   7
ATOM      7  C1' N4B d   1       5.997   5.656  -3.632  0.00  0.00     0.057 C 
BRANCH   7   8
ATOM      8  C2' N4B d   1       5.848   5.433  -5.134  0.00  0.00     0.009 C 
BRANCH   8   9
ATOM      9  C3' N4B d   1       5.200   4.096  -5.449  0.00  0.00     0.004 C 
ATOM     10  C4' N4B d   1       5.964   2.934  -4.888  0.00  0.00     0.003 C 
ENDBRANCH   8   9
ENDBRANCH   7   8
ENDBRANCH   1   7
TORSDOF 3
ENDMDL
