MODEL 1
REMARK minimizedAffinity 14.9573851
REMARK minimizedRMSD -1
REMARK  3 active torsions:
REMARK  status: ('A' for Active; 'I' for Inactive)
REMARK    1  A    between atoms: C3'_2  and  C2'_3 
REMARK    2  A    between atoms: C2'_3  and  C1'_4 
REMARK    3  A    between atoms: C1'_4  and  C1_5 
ROOT
ATOM      1  C1  N4B d   1       3.720   5.353  -2.026  0.00  0.00    -0.075 A 
ATOM      2  C2  N4B d   1       3.406   5.362  -3.403  0.00  0.00     0.002 A 
ATOM      3  C3  N4B d   1       4.374   5.675  -4.326  0.00  0.00     0.002 A 
ATOM      4  C4  N4B d   1       5.652   6.000  -3.896  0.00  0.00    -0.004 A 
ATOM      5  C5  N4B d   1       5.953   5.964  -2.566  0.00  0.00     0.002 A 
ATOM      6  C6  N4B d   1       4.992   5.647  -1.628  0.00  0.00     0.002 A 
ENDROOT
BRANCH   1   7
ATOM      7  C1' N4B d   1       2.674   5.100  -0.975  0.00  0.00     0.057 C 
BRANCH   7   8
ATOM      8  C2' N4B d   1       2.113   3.693  -1.154  0.00  0.00     0.009 C 
BRANCH   8   9
ATOM      9  C3' N4B d   1       1.767   3.045   0.176  0.00  0.00     0.004 C 
ATOM     10  C4' N4B d   1       0.584   2.128   0.085  0.00  0.00     0.003 C 
ENDBRANCH   8   9
ENDBRANCH   7   8
ENDBRANCH   1   7
TORSDOF 3
ENDMDL
