MODEL 1
REMARK minimizedAffinity 3.25058389
REMARK minimizedRMSD -1
REMARK  3 active torsions:
REMARK  status: ('A' for Active; 'I' for Inactive)
REMARK    1  A    between atoms: C3'_2  and  C2'_3 
REMARK    2  A    between atoms: C2'_3  and  C1'_4 
REMARK    3  A    between atoms: C1'_4  and  C1_5 
ROOT
ATOM      1  C1  N4B d   1       5.087   3.774  -4.785  0.00  0.00    -0.075 A 
ATOM      2  C2  N4B d   1       4.013   4.672  -4.971  0.00  0.00     0.002 A 
ATOM      3  C3  N4B d   1       3.889   5.771  -4.158  0.00  0.00     0.002 A 
ATOM      4  C4  N4B d   1       4.811   5.982  -3.144  0.00  0.00    -0.004 A 
ATOM      5  C5  N4B d   1       5.860   5.124  -2.987  0.00  0.00     0.002 A 
ATOM      6  C6  N4B d   1       6.000   4.018  -3.800  0.00  0.00     0.002 A 
ENDROOT
BRANCH   1   7
ATOM      7  C1' N4B d   1       5.217   2.513  -5.594  0.00  0.00     0.057 C 
BRANCH   7   8
ATOM      8  C2' N4B d   1       5.602   1.362  -4.669  0.00  0.00     0.009 C 
BRANCH   8   9
ATOM      9  C3' N4B d   1       5.155   0.018  -5.218  0.00  0.00     0.004 C 
ATOM     10  C4' N4B d   1       4.799  -0.961  -4.139  0.00  0.00     0.003 C 
ENDBRANCH   8   9
ENDBRANCH   7   8
ENDBRANCH   1   7
TORSDOF 3
ENDMDL
