MODEL 1
REMARK minimizedAffinity 11.2431917
REMARK minimizedRMSD -1
REMARK  3 active torsions:
REMARK  status: ('A' for Active; 'I' for Inactive)
REMARK    1  A    between atoms: C3'_2  and  C2'_3 
REMARK    2  A    between atoms: C2'_3  and  C1'_4 
REMARK    3  A    between atoms: C1'_4  and  C1_5 
ROOT
ATOM      1  C1  N4B d   1       3.595   5.878  -3.058  0.00  0.00    -0.075 A 
ATOM      2  C2  N4B d   1       4.814   5.736  -2.359  0.00  0.00     0.002 A 
ATOM      3  C3  N4B d   1       5.999   5.683  -3.051  0.00  0.00     0.002 A 
ATOM      4  C4  N4B d   1       5.989   5.752  -4.436  0.00  0.00    -0.004 A 
ATOM      5  C5  N4B d   1       4.809   5.915  -5.102  0.00  0.00     0.002 A 
ATOM      6  C6  N4B d   1       3.611   5.974  -4.419  0.00  0.00     0.002 A 
ENDROOT
BRANCH   1   7
ATOM      7  C1' N4B d   1       2.268   5.854  -2.351  0.00  0.00     0.057 C 
BRANCH   7   8
ATOM      8  C2' N4B d   1       1.955   4.424  -1.920  0.00  0.00     0.009 C 
BRANCH   8   9
ATOM      9  C3' N4B d   1       3.111   3.480  -2.205  0.00  0.00     0.004 C 
ATOM     10  C4' N4B d   1       3.078   2.925  -3.598  0.00  0.00     0.003 C 
ENDBRANCH   8   9
ENDBRANCH   7   8
ENDBRANCH   1   7
TORSDOF 3
ENDMDL
