MODEL 1
REMARK minimizedAffinity -1.93620276
REMARK minimizedRMSD -1
REMARK  3 active torsions:
REMARK  status: ('A' for Active; 'I' for Inactive)
REMARK    1  A    between atoms: C3'_2  and  C2'_3 
REMARK    2  A    between atoms: C2'_3  and  C1'_4 
REMARK    3  A    between atoms: C1'_4  and  C1_5 
ROOT
ATOM      1  C1  N4B d   1       5.439   5.298  -3.562  0.00  0.00    -0.075 A 
ATOM      2  C2  N4B d   1       6.000   4.012  -3.724  0.00  0.00     0.002 A 
ATOM      3  C3  N4B d   1       5.926   3.379  -4.941  0.00  0.00     0.002 A 
ATOM      4  C4  N4B d   1       5.284   4.002  -6.000  0.00  0.00    -0.004 A 
ATOM      5  C5  N4B d   1       4.767   5.255  -5.842  0.00  0.00     0.002 A 
ATOM      6  C6  N4B d   1       4.837   5.904  -4.626  0.00  0.00     0.002 A 
ENDROOT
BRANCH   1   7
ATOM      7  C1' N4B d   1       5.420   5.993  -2.228  0.00  0.00     0.057 C 
BRANCH   7   8
ATOM      8  C2' N4B d   1       4.125   5.644  -1.501  0.00  0.00     0.009 C 
BRANCH   8   9
ATOM      9  C3' N4B d   1       3.388   4.496  -2.170  0.00  0.00     0.004 C 
ATOM     10  C4' N4B d   1       2.111   4.139  -1.471  0.00  0.00     0.003 C 
ENDBRANCH   8   9
ENDBRANCH   7   8
ENDBRANCH   1   7
TORSDOF 3
ENDMDL
