MODEL 1
REMARK minimizedAffinity 2.06226254
REMARK minimizedRMSD -1
REMARK  3 active torsions:
REMARK  status: ('A' for Active; 'I' for Inactive)
REMARK    1  A    between atoms: C3'_2  and  C2'_3 
REMARK    2  A    between atoms: C2'_3  and  C1'_4 
REMARK    3  A    between atoms: C1'_4  and  C1_5 
ROOT
ATOM      1  C1  N4B d   1       3.518   4.516  -2.922  0.00  0.00    -0.075 A 
ATOM      2  C2  N4B d   1       3.759   3.754  -4.087  0.00  0.00     0.002 A 
ATOM      3  C3  N4B d   1       4.997   3.781  -4.681  0.00  0.00     0.002 A 
ATOM      4  C4  N4B d   1       5.999   4.573  -4.143  0.00  0.00    -0.004 A 
ATOM      5  C5  N4B d   1       5.766   5.287  -3.003  0.00  0.00     0.002 A 
ATOM      6  C6  N4B d   1       4.529   5.266  -2.393  0.00  0.00     0.002 A 
ENDROOT
BRANCH   1   7
ATOM      7  C1' N4B d   1       2.157   4.586  -2.286  0.00  0.00     0.057 C 
BRANCH   7   8
ATOM      8  C2' N4B d   1       2.161   3.760  -1.003  0.00  0.00     0.009 C 
BRANCH   8   9
ATOM      9  C3' N4B d   1       1.159   4.282   0.012  0.00  0.00     0.004 C 
ATOM     10  C4' N4B d   1       0.087   3.286   0.336  0.00  0.00     0.003 C 
ENDBRANCH   8   9
ENDBRANCH   7   8
ENDBRANCH   1   7
TORSDOF 3
ENDMDL
