MODEL 1
REMARK minimizedAffinity 9.61081696
REMARK minimizedRMSD -1
REMARK  3 active torsions:
REMARK  status: ('A' for Active; 'I' for Inactive)
REMARK    1  A    between atoms: C3'_2  and  C2'_3 
REMARK    2  A    between atoms: C2'_3  and  C1'_4 
REMARK    3  A    between atoms: C1'_4  and  C1_5 
ROOT
ATOM      1  C1  N4B d   1       3.485   5.010  -1.953  0.00  0.00    -0.075 A 
ATOM      2  C2  N4B d   1       3.696   4.188  -3.081  0.00  0.00     0.002 A 
ATOM      3  C3  N4B d   1       4.950   4.086  -3.631  0.00  0.00     0.002 A 
ATOM      4  C4  N4B d   1       6.000   4.809  -3.084  0.00  0.00    -0.004 A 
ATOM      5  C5  N4B d   1       5.792   5.581  -1.979  0.00  0.00     0.002 A 
ATOM      6  C6  N4B d   1       4.538   5.690  -1.413  0.00  0.00     0.002 A 
ENDROOT
BRANCH   1   7
ATOM      7  C1' N4B d   1       2.114   5.220  -1.369  0.00  0.00     0.057 C 
BRANCH   7   8
ATOM      8  C2' N4B d   1       1.998   4.432  -0.068  0.00  0.00     0.009 C 
BRANCH   8   9
ATOM      9  C3' N4B d   1       0.717   4.757   0.681  0.00  0.00     0.004 C 
ATOM     10  C4' N4B d   1      -0.087   3.536   1.013  0.00  0.00     0.003 C 
ENDBRANCH   8   9
ENDBRANCH   7   8
ENDBRANCH   1   7
TORSDOF 3
ENDMDL
