MODEL 1
REMARK minimizedAffinity -2.74163294
REMARK minimizedRMSD -1
REMARK  0 active torsions:
REMARK  status: ('A' for Active; 'I' for Inactive)
ROOT
ATOM      1  C   UNL d   1       1.654  -0.623  -0.273  0.00  0.00     0.020 A 
ATOM      2  C1  UNL d   1       1.184   0.686  -0.372  0.00  0.00     0.020 A 
ATOM      3  C2  UNL d   1      -0.136   0.982  -0.025  0.00  0.00     0.034 A 
ATOM      4  C3  UNL d   1      -0.990  -0.032   0.423  0.00  0.00     0.017 A 
ATOM      5  C4  UNL d   1      -0.518  -1.346   0.522  0.00  0.00     0.017 A 
ATOM      6  C5  UNL d   1       0.805  -1.637   0.173  0.00  0.00     0.034 A 
ATOM      7 Cl   UNL d   1      -1.513  -2.650   1.066  0.00  0.00    -0.070 Cl
ATOM      8 Cl1  UNL d   1      -2.610   0.406   0.835  0.00  0.00    -0.070 Cl
ENDROOT
TORSDOF 0
ENDMDL
