MODEL 1
REMARK minimizedAffinity -3.32267928
REMARK minimizedRMSD -1
REMARK  0 active torsions:
REMARK  status: ('A' for Active; 'I' for Inactive)
ROOT
ATOM      1  C   UNL d   1       1.080   0.455   0.030  0.00  0.00     0.020 A 
ATOM      2  C1  UNL d   1       1.508  -0.871   0.097  0.00  0.00     0.020 A 
ATOM      3  C2  UNL d   1       0.587  -1.890   0.345  0.00  0.00     0.034 A 
ATOM      4  C3  UNL d   1      -0.767  -1.587   0.527  0.00  0.00     0.017 A 
ATOM      5  C4  UNL d   1      -1.196  -0.257   0.460  0.00  0.00     0.017 A 
ATOM      6  C5  UNL d   1      -0.269   0.761   0.211  0.00  0.00     0.034 A 
ATOM      7 Cl   UNL d   1      -2.850   0.196   0.674  0.00  0.00    -0.070 Cl
ATOM      8 Cl1  UNL d   1      -1.850  -2.898   0.830  0.00  0.00    -0.070 Cl
ENDROOT
TORSDOF 0
ENDMDL
