MODEL 1
REMARK minimizedAffinity -2.40723252
REMARK minimizedRMSD -1
REMARK  0 active torsions:
REMARK  status: ('A' for Active; 'I' for Inactive)
ROOT
ATOM      1  C   UNL d   1      -1.441   1.115   0.072  0.00  0.00     0.020 A 
ATOM      2  C1  UNL d   1      -0.170   1.517  -0.338  0.00  0.00     0.020 A 
ATOM      3  C2  UNL d   1       0.908   0.635  -0.232  0.00  0.00     0.034 A 
ATOM      4  C3  UNL d   1       0.717  -0.652   0.284  0.00  0.00     0.017 A 
ATOM      5  C4  UNL d   1      -0.560  -1.053   0.694  0.00  0.00     0.017 A 
ATOM      6  C5  UNL d   1      -1.636  -0.167   0.586  0.00  0.00     0.034 A 
ATOM      7 Cl   UNL d   1      -0.873  -2.625   1.341  0.00  0.00    -0.070 Cl
ATOM      8 Cl1  UNL d   1       2.094  -1.689   0.386  0.00  0.00    -0.070 Cl
ENDROOT
TORSDOF 0
ENDMDL
