MODEL 1
REMARK minimizedAffinity -3.59684396
REMARK minimizedRMSD -1
REMARK  0 active torsions:
REMARK  status: ('A' for Active; 'I' for Inactive)
ROOT
ATOM      1  C   UNL d   1      -2.207  -1.567   0.677  0.00  0.00     0.020 A 
ATOM      2  C1  UNL d   1      -1.493  -2.728   0.971  0.00  0.00     0.020 A 
ATOM      3  C2  UNL d   1      -0.100  -2.735   0.872  0.00  0.00     0.034 A 
ATOM      4  C3  UNL d   1       0.584  -1.578   0.479  0.00  0.00     0.017 A 
ATOM      5  C4  UNL d   1      -0.134  -0.413   0.184  0.00  0.00     0.017 A 
ATOM      6  C5  UNL d   1      -1.529  -0.412   0.285  0.00  0.00     0.034 A 
ATOM      7 Cl   UNL d   1       0.638   1.052  -0.308  0.00  0.00    -0.070 Cl
ATOM      8 Cl1  UNL d   1       2.307  -1.658   0.378  0.00  0.00    -0.070 Cl
ENDROOT
TORSDOF 0
ENDMDL
