MODEL 1
REMARK minimizedAffinity -1.53661966
REMARK minimizedRMSD -1
REMARK  0 active torsions:
REMARK  status: ('A' for Active; 'I' for Inactive)
ROOT
ATOM      1  C   UNL d   1      -1.370   1.171   0.099  0.00  0.00     0.020 A 
ATOM      2  C1  UNL d   1      -0.073   1.508  -0.287  0.00  0.00     0.020 A 
ATOM      3  C2  UNL d   1       0.972   0.603  -0.088  0.00  0.00     0.034 A 
ATOM      4  C3  UNL d   1       0.722  -0.644   0.498  0.00  0.00     0.017 A 
ATOM      5  C4  UNL d   1      -0.580  -0.981   0.885  0.00  0.00     0.017 A 
ATOM      6  C5  UNL d   1      -1.623  -0.071   0.684  0.00  0.00     0.034 A 
ATOM      7 Cl   UNL d   1      -0.966  -2.499   1.614  0.00  0.00    -0.070 Cl
ATOM      8 Cl1  UNL d   1       2.061  -1.714   0.713  0.00  0.00    -0.070 Cl
ENDROOT
TORSDOF 0
ENDMDL
