MODEL 1
REMARK minimizedAffinity -1.81538355
REMARK minimizedRMSD -1
REMARK  0 active torsions:
REMARK  status: ('A' for Active; 'I' for Inactive)
ROOT
ATOM      1  C   UNL d   1      -0.529  -1.935   0.941  0.00  0.00     0.020 A 
ATOM      2  C1  UNL d   1       0.273  -2.075  -0.190  0.00  0.00     0.020 A 
ATOM      3  C2  UNL d   1       0.565  -0.963  -0.982  0.00  0.00     0.034 A 
ATOM      4  C3  UNL d   1       0.053   0.295  -0.644  0.00  0.00     0.017 A 
ATOM      5  C4  UNL d   1      -0.753   0.435   0.492  0.00  0.00     0.017 A 
ATOM      6  C5  UNL d   1      -1.041  -0.682   1.281  0.00  0.00     0.034 A 
ATOM      7 Cl   UNL d   1      -1.421   1.955   0.973  0.00  0.00    -0.070 Cl
ATOM      8 Cl1  UNL d   1       0.454   1.628  -1.668  0.00  0.00    -0.070 Cl
ENDROOT
TORSDOF 0
ENDMDL
