MODEL 1
REMARK minimizedAffinity -4.97028112
REMARK minimizedRMSD -1
REMARK  0 active torsions:
REMARK  status: ('A' for Active; 'I' for Inactive)
ROOT
ATOM      1  C   UNL d   1      -2.399  -0.857   0.977  0.00  0.00     0.020 A 
ATOM      2  C1  UNL d   1      -1.905  -2.129   1.265  0.00  0.00     0.020 A 
ATOM      3  C2  UNL d   1      -0.610  -2.479   0.876  0.00  0.00     0.034 A 
ATOM      4  C3  UNL d   1       0.195  -1.556   0.198  0.00  0.00     0.017 A 
ATOM      5  C4  UNL d   1      -0.302  -0.280  -0.090  0.00  0.00     0.017 A 
ATOM      6  C5  UNL d   1      -1.599   0.065   0.301  0.00  0.00     0.034 A 
ATOM      7 Cl   UNL d   1       0.632   0.912  -0.923  0.00  0.00    -0.070 Cl
ATOM      8 Cl1  UNL d   1       1.787  -2.056  -0.251  0.00  0.00    -0.070 Cl
ENDROOT
TORSDOF 0
ENDMDL
