MODEL 1
REMARK minimizedAffinity -1.64029253
REMARK minimizedRMSD -1
REMARK  0 active torsions:
REMARK  status: ('A' for Active; 'I' for Inactive)
ROOT
ATOM      1  C   UNL d   1       0.854  -2.377   0.279  0.00  0.00     0.020 A 
ATOM      2  C1  UNL d   1      -0.282  -2.563   1.065  0.00  0.00     0.020 A 
ATOM      3  C2  UNL d   1      -1.154  -1.498   1.296  0.00  0.00     0.034 A 
ATOM      4  C3  UNL d   1      -0.892  -0.240   0.739  0.00  0.00     0.017 A 
ATOM      5  C4  UNL d   1       0.248  -0.054  -0.050  0.00  0.00     0.017 A 
ATOM      6  C5  UNL d   1       1.118  -1.125  -0.278  0.00  0.00     0.034 A 
ATOM      7 Cl   UNL d   1       0.638   1.468  -0.771  0.00  0.00    -0.070 Cl
ATOM      8 Cl1  UNL d   1      -2.014   1.032   1.066  0.00  0.00    -0.070 Cl
ENDROOT
TORSDOF 0
ENDMDL
