MODEL 1
REMARK minimizedAffinity -3.60310578
REMARK minimizedRMSD -1
REMARK  0 active torsions:
REMARK  status: ('A' for Active; 'I' for Inactive)
ROOT
ATOM      1  C   UNL d   1      -1.215   1.344   0.465  0.00  0.00     0.020 A 
ATOM      2  C1  UNL d   1       0.136   1.633   0.278  0.00  0.00     0.020 A 
ATOM      3  C2  UNL d   1       1.065   0.596   0.179  0.00  0.00     0.034 A 
ATOM      4  C3  UNL d   1       0.645  -0.736   0.267  0.00  0.00     0.017 A 
ATOM      5  C4  UNL d   1      -0.712  -1.026   0.455  0.00  0.00     0.017 A 
ATOM      6  C5  UNL d   1      -1.638   0.017   0.554  0.00  0.00     0.034 A 
ATOM      7 Cl   UNL d   1      -1.306  -2.645   0.573  0.00  0.00    -0.070 Cl
ATOM      8 Cl1  UNL d   1       1.848  -1.969   0.136  0.00  0.00    -0.070 Cl
ENDROOT
TORSDOF 0
ENDMDL
