MODEL 1
REMARK minimizedAffinity -2.79083872
REMARK minimizedRMSD -1
REMARK  0 active torsions:
REMARK  status: ('A' for Active; 'I' for Inactive)
ROOT
ATOM      1  C   UNL d   1       1.521  -1.042   0.120  0.00  0.00     0.020 A 
ATOM      2  C1  UNL d   1       1.152   0.302   0.127  0.00  0.00     0.020 A 
ATOM      3  C2  UNL d   1      -0.189   0.658   0.285  0.00  0.00     0.034 A 
ATOM      4  C3  UNL d   1      -1.166  -0.333   0.436  0.00  0.00     0.017 A 
ATOM      5  C4  UNL d   1      -0.795  -1.682   0.428  0.00  0.00     0.017 A 
ATOM      6  C5  UNL d   1       0.549  -2.032   0.270  0.00  0.00     0.034 A 
ATOM      7 Cl   UNL d   1      -1.945  -2.960   0.609  0.00  0.00    -0.070 Cl
ATOM      8 Cl1  UNL d   1      -2.806   0.179   0.627  0.00  0.00    -0.070 Cl
ENDROOT
TORSDOF 0
ENDMDL
