MODEL 1
REMARK minimizedAffinity -4.19782925
REMARK minimizedRMSD -1
REMARK  0 active torsions:
REMARK  status: ('A' for Active; 'I' for Inactive)
ROOT
ATOM      1  C   UNL d   1      -1.579   1.280   0.025  0.00  0.00     0.020 A 
ATOM      2  C1  UNL d   1      -0.256   1.656  -0.201  0.00  0.00     0.020 A 
ATOM      3  C2  UNL d   1       0.773   0.727  -0.030  0.00  0.00     0.034 A 
ATOM      4  C3  UNL d   1       0.480  -0.582   0.368  0.00  0.00     0.017 A 
ATOM      5  C4  UNL d   1      -0.848  -0.959   0.595  0.00  0.00     0.017 A 
ATOM      6  C5  UNL d   1      -1.875  -0.025   0.423  0.00  0.00     0.034 A 
ATOM      7 Cl   UNL d   1      -1.288  -2.556   1.089  0.00  0.00    -0.070 Cl
ATOM      8 Cl1  UNL d   1       1.802  -1.678   0.560  0.00  0.00    -0.070 Cl
ENDROOT
TORSDOF 0
ENDMDL
