MODEL 1
REMARK minimizedAffinity -5.19338465
REMARK minimizedRMSD -1
REMARK  0 active torsions:
REMARK  status: ('A' for Active; 'I' for Inactive)
ROOT
ATOM      1  C   UNL d   1      -2.034  -1.845   1.770  0.00  0.00     0.020 A 
ATOM      2  C1  UNL d   1      -1.061  -2.294   0.878  0.00  0.00     0.020 A 
ATOM      3  C2  UNL d   1      -0.330  -1.376   0.121  0.00  0.00     0.034 A 
ATOM      4  C3  UNL d   1      -0.572  -0.004   0.254  0.00  0.00     0.017 A 
ATOM      5  C4  UNL d   1      -1.550   0.446   1.149  0.00  0.00     0.017 A 
ATOM      6  C5  UNL d   1      -2.278  -0.478   1.905  0.00  0.00     0.034 A 
ATOM      7 Cl   UNL d   1      -1.905   2.123   1.368  0.00  0.00    -0.070 Cl
ATOM      8 Cl1  UNL d   1       0.368   1.075  -0.714  0.00  0.00    -0.070 Cl
ENDROOT
TORSDOF 0
ENDMDL
