MODEL 1
REMARK minimizedAffinity -4.03878069
REMARK minimizedRMSD -1
REMARK  0 active torsions:
REMARK  status: ('A' for Active; 'I' for Inactive)
ROOT
ATOM      1  C   UNL d   1      -1.482  -2.281   0.720  0.00  0.00     0.020 A 
ATOM      2  C1  UNL d   1      -0.220  -2.546   0.190  0.00  0.00     0.020 A 
ATOM      3  C2  UNL d   1       0.619  -1.492  -0.177  0.00  0.00     0.034 A 
ATOM      4  C3  UNL d   1       0.197  -0.168  -0.016  0.00  0.00     0.017 A 
ATOM      5  C4  UNL d   1      -1.070   0.098   0.516  0.00  0.00     0.017 A 
ATOM      6  C5  UNL d   1      -1.906  -0.961   0.883  0.00  0.00     0.034 A 
ATOM      7 Cl   UNL d   1      -1.660   1.706   0.745  0.00  0.00    -0.070 Cl
ATOM      8 Cl1  UNL d   1       1.287   1.087  -0.491  0.00  0.00    -0.070 Cl
ENDROOT
TORSDOF 0
ENDMDL
