MODEL 1
REMARK minimizedAffinity -1.91092074
REMARK minimizedRMSD -1
REMARK  0 active torsions:
REMARK  status: ('A' for Active; 'I' for Inactive)
ROOT
ATOM      1  C   UNL d   1      -1.937  -1.282   0.637  0.00  0.00     0.020 A 
ATOM      2  C1  UNL d   1      -1.172  -2.292   1.218  0.00  0.00     0.020 A 
ATOM      3  C2  UNL d   1       0.214  -2.307   1.041  0.00  0.00     0.034 A 
ATOM      4  C3  UNL d   1       0.837  -1.311   0.282  0.00  0.00     0.017 A 
ATOM      5  C4  UNL d   1       0.068  -0.297  -0.301  0.00  0.00     0.017 A 
ATOM      6  C5  UNL d   1      -1.319  -0.286  -0.121  0.00  0.00     0.034 A 
ATOM      7 Cl   UNL d   1       0.766   0.967  -1.251  0.00  0.00    -0.070 Cl
ATOM      8 Cl1  UNL d   1       2.554  -1.392   0.105  0.00  0.00    -0.070 Cl
ENDROOT
TORSDOF 0
ENDMDL
