MODEL 1
REMARK minimizedAffinity -4.43243599
REMARK minimizedRMSD -1
REMARK  0 active torsions:
REMARK  status: ('A' for Active; 'I' for Inactive)
ROOT
ATOM      1  C   UNL d   1      -2.185  -2.086   0.729  0.00  0.00     0.020 A 
ATOM      2  C1  UNL d   1      -1.261  -2.828   1.463  0.00  0.00     0.020 A 
ATOM      3  C2  UNL d   1       0.089  -2.468   1.454  0.00  0.00     0.034 A 
ATOM      4  C3  UNL d   1       0.517  -1.362   0.710  0.00  0.00     0.017 A 
ATOM      5  C4  UNL d   1      -0.411  -0.618  -0.026  0.00  0.00     0.017 A 
ATOM      6  C5  UNL d   1      -1.761  -0.983  -0.014  0.00  0.00     0.034 A 
ATOM      7 Cl   UNL d   1       0.042   0.759  -0.968  0.00  0.00    -0.070 Cl
ATOM      8 Cl1  UNL d   1       2.201  -0.974   0.746  0.00  0.00    -0.070 Cl
ENDROOT
TORSDOF 0
ENDMDL
