MODEL 1
REMARK minimizedAffinity -4.30518198
REMARK minimizedRMSD -1
REMARK  0 active torsions:
REMARK  status: ('A' for Active; 'I' for Inactive)
ROOT
ATOM      1  C   UNL d   1       1.311  -0.826   0.339  0.00  0.00     0.020 A 
ATOM      2  C1  UNL d   1       1.001   0.534   0.332  0.00  0.00     0.020 A 
ATOM      3  C2  UNL d   1      -0.318   0.951   0.520  0.00  0.00     0.034 A 
ATOM      4  C3  UNL d   1      -1.333   0.007   0.717  0.00  0.00     0.017 A 
ATOM      5  C4  UNL d   1      -1.022  -1.357   0.724  0.00  0.00     0.017 A 
ATOM      6  C5  UNL d   1       0.301  -1.769   0.535  0.00  0.00     0.034 A 
ATOM      7 Cl   UNL d   1      -2.220  -2.580   0.961  0.00  0.00    -0.070 Cl
ATOM      8 Cl1  UNL d   1      -2.942   0.594   0.944  0.00  0.00    -0.070 Cl
ENDROOT
TORSDOF 0
ENDMDL
