MODEL 1
REMARK minimizedAffinity -3.09926772
REMARK minimizedRMSD -1
REMARK  0 active torsions:
REMARK  status: ('A' for Active; 'I' for Inactive)
ROOT
ATOM      1  C   UNL d   1      -2.878  -1.382   0.082  0.00  0.00     0.020 A 
ATOM      2  C1  UNL d   1      -1.681  -2.004  -0.271  0.00  0.00     0.020 A 
ATOM      3  C2  UNL d   1      -0.471  -1.320  -0.132  0.00  0.00     0.034 A 
ATOM      4  C3  UNL d   1      -0.455  -0.010   0.361  0.00  0.00     0.017 A 
ATOM      5  C4  UNL d   1      -1.657   0.613   0.714  0.00  0.00     0.017 A 
ATOM      6  C5  UNL d   1      -2.866  -0.076   0.573  0.00  0.00     0.034 A 
ATOM      7 Cl   UNL d   1      -1.718   2.228   1.329  0.00  0.00    -0.070 Cl
ATOM      8 Cl1  UNL d   1       1.077   0.775   0.507  0.00  0.00    -0.070 Cl
ENDROOT
TORSDOF 0
ENDMDL
