MODEL 1
REMARK minimizedAffinity -3.83621311
REMARK minimizedRMSD -1
REMARK  0 active torsions:
REMARK  status: ('A' for Active; 'I' for Inactive)
ROOT
ATOM      1  C   UNL d   1      -3.012  -3.774  -5.622  0.00  0.00     0.020 A 
ATOM      2  C1  UNL d   1      -3.009  -4.266  -4.317  0.00  0.00     0.020 A 
ATOM      3  C2  UNL d   1      -3.937  -3.790  -3.389  0.00  0.00     0.034 A 
ATOM      4  C3  UNL d   1      -4.873  -2.819  -3.764  0.00  0.00     0.017 A 
ATOM      5  C4  UNL d   1      -4.875  -2.326  -5.074  0.00  0.00     0.017 A 
ATOM      6  C5  UNL d   1      -3.944  -2.806  -5.999  0.00  0.00     0.034 A 
ATOM      7 Cl   UNL d   1      -5.999  -1.127  -5.611  0.00  0.00    -0.070 Cl
ATOM      8 Cl1  UNL d   1      -5.992  -2.275  -2.565  0.00  0.00    -0.070 Cl
ENDROOT
TORSDOF 0
ENDMDL
