MODEL 1
REMARK minimizedAffinity 19.2091732
REMARK minimizedRMSD -1
REMARK  1 active torsions:
REMARK  status: ('A' for Active; 'I' for Inactive)
REMARK    1  A    between atoms: C1_2  and  C2_3 
ROOT
ATOM      1  C2  UNL d   1      -0.881   1.576   3.809  0.00  0.00    -0.077 A 
ATOM      2  C3  UNL d   1      -0.980   2.160   5.080  0.00  0.00     0.002 A 
ATOM      3  C4  UNL d   1       0.065   2.039   5.997  0.00  0.00     0.002 A 
ATOM      4  C5  UNL d   1       1.219   1.338   5.652  0.00  0.00    -0.004 A 
ATOM      5  C6  UNL d   1       1.327   0.752   4.392  0.00  0.00     0.002 A 
ATOM      6  C7  UNL d   1       0.282   0.871   3.474  0.00  0.00     0.002 A 
ENDROOT
BRANCH   1   7
ATOM      7  C1  UNL d   1      -1.987   1.748   2.801  0.00  0.00     0.055 C 
ATOM      8  C   UNL d   1      -3.344   1.425   3.409  0.00  0.00     0.019 C 
ENDBRANCH   1   7
TORSDOF 1
ENDMDL
