MODEL 1
REMARK minimizedAffinity 10.9774418
REMARK minimizedRMSD -1
REMARK  1 active torsions:
REMARK  status: ('A' for Active; 'I' for Inactive)
REMARK    1  A    between atoms: C1_2  and  C2_3 
ROOT
ATOM      1  C2  UNL d   1      -0.829   1.880   3.981  0.00  0.00    -0.077 A 
ATOM      2  C3  UNL d   1       0.163   1.126   3.339  0.00  0.00     0.002 A 
ATOM      3  C4  UNL d   1       1.323   0.756   4.023  0.00  0.00     0.002 A 
ATOM      4  C5  UNL d   1       1.499   1.131   5.353  0.00  0.00    -0.004 A 
ATOM      5  C6  UNL d   1       0.519   1.883   6.000  0.00  0.00     0.002 A 
ATOM      6  C7  UNL d   1      -0.640   2.255   5.317  0.00  0.00     0.002 A 
ENDROOT
BRANCH   1   7
ATOM      7  C1  UNL d   1      -2.102   2.238   3.260  0.00  0.00     0.055 C 
ATOM      8  C   UNL d   1      -3.135   1.127   3.376  0.00  0.00     0.019 C 
ENDBRANCH   1   7
TORSDOF 1
ENDMDL
