MODEL 1
REMARK minimizedAffinity 8.4076376
REMARK minimizedRMSD -1
REMARK  1 active torsions:
REMARK  status: ('A' for Active; 'I' for Inactive)
REMARK    1  A    between atoms: C1_2  and  C2_3 
ROOT
ATOM      1  C2  UNL d   1       2.952  -1.184  -0.490  0.00  0.00    -0.077 A 
ATOM      2  C3  UNL d   1       2.418  -0.521  -1.603  0.00  0.00     0.002 A 
ATOM      3  C4  UNL d   1       1.182  -0.904  -2.128  0.00  0.00     0.002 A 
ATOM      4  C5  UNL d   1       0.469  -1.949  -1.544  0.00  0.00    -0.004 A 
ATOM      5  C6  UNL d   1       0.992  -2.616  -0.438  0.00  0.00     0.002 A 
ATOM      6  C7  UNL d   1       2.228  -2.235   0.088  0.00  0.00     0.002 A 
ENDROOT
BRANCH   1   7
ATOM      7  C1  UNL d   1       4.261  -0.740   0.108  0.00  0.00     0.055 C 
ATOM      8  C   UNL d   1       4.467   0.758  -0.061  0.00  0.00     0.019 C 
ENDBRANCH   1   7
TORSDOF 1
ENDMDL
