MODEL 1
REMARK minimizedAffinity 8.92927933
REMARK minimizedRMSD -1
REMARK  1 active torsions:
REMARK  status: ('A' for Active; 'I' for Inactive)
REMARK    1  A    between atoms: C1_2  and  C2_3 
ROOT
ATOM      1  C2  UNL d   1      -0.023  -2.622  -1.556  0.00  0.00    -0.077 A 
ATOM      2  C3  UNL d   1       0.112  -1.784  -2.672  0.00  0.00     0.002 A 
ATOM      3  C4  UNL d   1       1.052  -0.752  -2.670  0.00  0.00     0.002 A 
ATOM      4  C5  UNL d   1       1.867  -0.551  -1.558  0.00  0.00    -0.004 A 
ATOM      5  C6  UNL d   1       1.739  -1.378  -0.443  0.00  0.00     0.002 A 
ATOM      6  C7  UNL d   1       0.798  -2.409  -0.442  0.00  0.00     0.002 A 
ENDROOT
BRANCH   1   7
ATOM      7  C1  UNL d   1      -1.003  -3.766  -1.575  0.00  0.00     0.055 C 
ATOM      8  C   UNL d   1      -1.773  -3.814  -2.886  0.00  0.00     0.019 C 
ENDBRANCH   1   7
TORSDOF 1
ENDMDL
