MODEL 1
REMARK minimizedAffinity 19.0837059
REMARK minimizedRMSD -1
REMARK  1 active torsions:
REMARK  status: ('A' for Active; 'I' for Inactive)
REMARK    1  A    between atoms: C1_2  and  C2_3 
ROOT
ATOM      1  C2  UNL d   1      -3.298   3.020  -5.524  0.00  0.00    -0.077 A 
ATOM      2  C3  UNL d   1      -2.484   4.162  -5.548  0.00  0.00     0.002 A 
ATOM      3  C4  UNL d   1      -3.040   5.420  -5.787  0.00  0.00     0.002 A 
ATOM      4  C5  UNL d   1      -4.411   5.550  -5.998  0.00  0.00    -0.004 A 
ATOM      5  C6  UNL d   1      -5.228   4.421  -5.978  0.00  0.00     0.002 A 
ATOM      6  C7  UNL d   1      -4.674   3.162  -5.742  0.00  0.00     0.002 A 
ENDROOT
BRANCH   1   7
ATOM      7  C1  UNL d   1      -2.708   1.668  -5.219  0.00  0.00     0.055 C 
ATOM      8  C   UNL d   1      -2.901   1.298  -3.755  0.00  0.00     0.019 C 
ENDBRANCH   1   7
TORSDOF 1
ENDMDL
