MODEL 1
REMARK minimizedAffinity 17.711174
REMARK minimizedRMSD -1
REMARK  1 active torsions:
REMARK  status: ('A' for Active; 'I' for Inactive)
REMARK    1  A    between atoms: C1_2  and  C2_3 
ROOT
ATOM      1  C2  UNL d   1       1.986   3.405  -0.784  0.00  0.00    -0.077 A 
ATOM      2  C3  UNL d   1       2.294   4.480  -1.629  0.00  0.00     0.002 A 
ATOM      3  C4  UNL d   1       1.864   5.771  -1.315  0.00  0.00     0.002 A 
ATOM      4  C5  UNL d   1       1.127   5.998  -0.155  0.00  0.00    -0.004 A 
ATOM      5  C6  UNL d   1       0.813   4.935   0.691  0.00  0.00     0.002 A 
ATOM      6  C7  UNL d   1       1.242   3.644   0.378  0.00  0.00     0.002 A 
ENDROOT
BRANCH   1   7
ATOM      7  C1  UNL d   1       2.492   2.020  -1.096  0.00  0.00     0.055 C 
ATOM      8  C   UNL d   1       2.321   1.088   0.095  0.00  0.00     0.019 C 
ENDBRANCH   1   7
TORSDOF 1
ENDMDL
