MODEL 1
REMARK minimizedAffinity 18.6319504
REMARK minimizedRMSD -1
REMARK  1 active torsions:
REMARK  status: ('A' for Active; 'I' for Inactive)
REMARK    1  A    between atoms: C1_2  and  C2_3 
ROOT
ATOM      1  C2  UNL d   1       0.399  -5.045  -1.604  0.00  0.00    -0.077 A 
ATOM      2  C3  UNL d   1      -0.548  -4.013  -1.526  0.00  0.00     0.002 A 
ATOM      3  C4  UNL d   1      -1.589  -3.939  -2.452  0.00  0.00     0.002 A 
ATOM      4  C5  UNL d   1      -1.698  -4.895  -3.460  0.00  0.00    -0.004 A 
ATOM      5  C6  UNL d   1      -0.760  -5.924  -3.547  0.00  0.00     0.002 A 
ATOM      6  C7  UNL d   1       0.282  -5.999  -2.623  0.00  0.00     0.002 A 
ENDROOT
BRANCH   1   7
ATOM      7  C1  UNL d   1       1.495  -5.155  -0.576  0.00  0.00     0.055 C 
ATOM      8  C   UNL d   1       2.652  -5.999  -1.090  0.00  0.00     0.019 C 
ENDBRANCH   1   7
TORSDOF 1
ENDMDL
