MODEL 1
REMARK minimizedAffinity 21.7447281
REMARK minimizedRMSD -1
REMARK  1 active torsions:
REMARK  status: ('A' for Active; 'I' for Inactive)
REMARK    1  A    between atoms: C1_2  and  C2_3 
ROOT
ATOM      1  C2  UNL d   1       1.807  -3.993  -0.406  0.00  0.00    -0.077 A 
ATOM      2  C3  UNL d   1       2.976  -3.224  -0.487  0.00  0.00     0.002 A 
ATOM      3  C4  UNL d   1       4.215  -3.840  -0.675  0.00  0.00     0.002 A 
ATOM      4  C5  UNL d   1       4.296  -5.226  -0.788  0.00  0.00    -0.004 A 
ATOM      5  C6  UNL d   1       3.139  -6.000  -0.707  0.00  0.00     0.002 A 
ATOM      6  C7  UNL d   1       1.900  -5.386  -0.518  0.00  0.00     0.002 A 
ENDROOT
BRANCH   1   7
ATOM      7  C1  UNL d   1       0.464  -3.327  -0.253  0.00  0.00     0.055 C 
ATOM      8  C   UNL d   1      -0.389  -3.507  -1.500  0.00  0.00     0.019 C 
ENDBRANCH   1   7
TORSDOF 1
ENDMDL
