MODEL 1
REMARK minimizedAffinity 12.8183699
REMARK minimizedRMSD -1
REMARK  1 active torsions:
REMARK  status: ('A' for Active; 'I' for Inactive)
REMARK    1  A    between atoms: C1_2  and  C2_3 
ROOT
ATOM      1  C2  UNL d   1      -4.180   0.452   3.346  0.00  0.00    -0.077 A 
ATOM      2  C3  UNL d   1      -5.299   0.032   2.612  0.00  0.00     0.002 A 
ATOM      3  C4  UNL d   1      -6.000  -1.116   2.987  0.00  0.00     0.002 A 
ATOM      4  C5  UNL d   1      -5.593  -1.850   4.099  0.00  0.00    -0.004 A 
ATOM      5  C6  UNL d   1      -4.481  -1.442   4.834  0.00  0.00     0.002 A 
ATOM      6  C7  UNL d   1      -3.778  -0.296   4.460  0.00  0.00     0.002 A 
ENDROOT
BRANCH   1   7
ATOM      7  C1  UNL d   1      -3.453   1.716   2.972  0.00  0.00     0.055 C 
ATOM      8  C   UNL d   1      -1.947   1.500   2.940  0.00  0.00     0.019 C 
ENDBRANCH   1   7
TORSDOF 1
ENDMDL
