MODEL 1
REMARK minimizedAffinity 12.2081594
REMARK minimizedRMSD -1
REMARK  1 active torsions:
REMARK  status: ('A' for Active; 'I' for Inactive)
REMARK    1  A    between atoms: C1_2  and  C2_3 
ROOT
ATOM      1  C2  UNL d   1       4.548  -4.961  -1.144  0.00  0.00    -0.077 A 
ATOM      2  C3  UNL d   1       3.586  -5.978  -1.070  0.00  0.00     0.002 A 
ATOM      3  C4  UNL d   1       2.282  -5.689  -0.662  0.00  0.00     0.002 A 
ATOM      4  C5  UNL d   1       1.928  -4.383  -0.330  0.00  0.00    -0.004 A 
ATOM      5  C6  UNL d   1       2.878  -3.365  -0.399  0.00  0.00     0.002 A 
ATOM      6  C7  UNL d   1       4.181  -3.652  -0.805  0.00  0.00     0.002 A 
ENDROOT
BRANCH   1   7
ATOM      7  C1  UNL d   1       5.941  -5.262  -1.631  0.00  0.00     0.055 C 
ATOM      8  C   UNL d   1       5.994  -5.330  -3.150  0.00  0.00     0.019 C 
ENDBRANCH   1   7
TORSDOF 1
ENDMDL
