MODEL 1
REMARK minimizedAffinity 9.3222208
REMARK minimizedRMSD -1
REMARK  1 active torsions:
REMARK  status: ('A' for Active; 'I' for Inactive)
REMARK    1  A    between atoms: C1_2  and  C2_3 
ROOT
ATOM      1  C2  UNL d   1      -3.977  -0.726   4.907  0.00  0.00    -0.077 A 
ATOM      2  C3  UNL d   1      -3.605   0.268   5.824  0.00  0.00     0.002 A 
ATOM      3  C4  UNL d   1      -3.434   1.588   5.403  0.00  0.00     0.002 A 
ATOM      4  C5  UNL d   1      -3.636   1.927   4.067  0.00  0.00    -0.004 A 
ATOM      5  C6  UNL d   1      -4.004   0.946   3.147  0.00  0.00     0.002 A 
ATOM      6  C7  UNL d   1      -4.175  -0.374   3.566  0.00  0.00     0.002 A 
ENDROOT
BRANCH   1   7
ATOM      7  C1  UNL d   1      -4.210  -2.141   5.368  0.00  0.00     0.055 C 
ATOM      8  C   UNL d   1      -5.586  -2.298   5.999  0.00  0.00     0.019 C 
ENDBRANCH   1   7
TORSDOF 1
ENDMDL
