MODEL 1
REMARK minimizedAffinity 10.1331596
REMARK minimizedRMSD -1
REMARK  1 active torsions:
REMARK  status: ('A' for Active; 'I' for Inactive)
REMARK    1  A    between atoms: C1_2  and  C2_3 
ROOT
ATOM      1  C2  UNL d   1      -0.775   1.478   2.436  0.00  0.00    -0.077 A 
ATOM      2  C3  UNL d   1      -1.873   1.445   1.565  0.00  0.00     0.002 A 
ATOM      3  C4  UNL d   1      -3.172   1.357   2.070  0.00  0.00     0.002 A 
ATOM      4  C5  UNL d   1      -3.385   1.305   3.446  0.00  0.00    -0.004 A 
ATOM      5  C6  UNL d   1      -2.299   1.335   4.320  0.00  0.00     0.002 A 
ATOM      6  C7  UNL d   1      -1.000   1.422   3.817  0.00  0.00     0.002 A 
ENDROOT
BRANCH   1   7
ATOM      7  C1  UNL d   1       0.624   1.622   1.896  0.00  0.00     0.055 C 
ATOM      8  C   UNL d   1       0.961   0.500   0.924  0.00  0.00     0.019 C 
ENDBRANCH   1   7
TORSDOF 1
ENDMDL
