MODEL 1
REMARK minimizedAffinity -2.12205434
REMARK minimizedRMSD -1
REMARK  0 active torsions:
REMARK  status: ('A' for Active; 'I' for Inactive)
ROOT
ATOM      1  O1  BZF d   1      -1.730   2.013   0.087  0.00  0.00    -0.204 OA
ATOM      2  C2  BZF d   1      -2.255   2.029   1.365  0.00  0.00     0.174 A 
ATOM      3  C3  BZF d   1      -1.820   0.968   2.074  0.00  0.00    -0.012 A 
ATOM      4  C3A BZF d   1      -0.897   0.292   1.213  0.00  0.00    -0.107 A 
ATOM      5  C4  BZF d   1      -0.124  -0.824   1.357  0.00  0.00     0.055 A 
ATOM      6  C5  BZF d   1       0.611  -1.259   0.300  0.00  0.00    -0.016 A 
ATOM      7  C6  BZF d   1       0.592  -0.606  -0.915  0.00  0.00     0.022 A 
ATOM      8  C7  BZF d   1      -0.156   0.508  -1.104  0.00  0.00     0.029 A 
ATOM      9  C7A BZF d   1      -0.874   0.969  -0.028  0.00  0.00     0.058 A 
ENDROOT
TORSDOF 0
ENDMDL
