MODEL 1
REMARK minimizedAffinity -1.65989625
REMARK minimizedRMSD -1
REMARK  0 active torsions:
REMARK  status: ('A' for Active; 'I' for Inactive)
ROOT
ATOM      1  O1  BZF d   1      -1.170   2.018   0.717  0.00  0.00    -0.204 OA
ATOM      2  C2  BZF d   1      -1.566   1.242   1.790  0.00  0.00     0.174 A 
ATOM      3  C3  BZF d   1      -0.961   0.038   1.759  0.00  0.00    -0.012 A 
ATOM      4  C3A BZF d   1      -0.065   0.095   0.645  0.00  0.00    -0.107 A 
ATOM      5  C4  BZF d   1       0.826  -0.791   0.110  0.00  0.00     0.055 A 
ATOM      6  C5  BZF d   1       1.494  -0.453  -1.024  0.00  0.00    -0.016 A 
ATOM      7  C6  BZF d   1       1.292   0.759  -1.651  0.00  0.00     0.022 A 
ATOM      8  C7  BZF d   1       0.422   1.673  -1.155  0.00  0.00     0.029 A 
ATOM      9  C7A BZF d   1      -0.230   1.347   0.009  0.00  0.00     0.058 A 
ENDROOT
TORSDOF 0
ENDMDL
