MODEL 1
REMARK minimizedAffinity -3.17307138
REMARK minimizedRMSD -1
REMARK  0 active torsions:
REMARK  status: ('A' for Active; 'I' for Inactive)
ROOT
ATOM      1  O1  BZF d   1       1.162  -0.248   1.078  0.00  0.00    -0.204 OA
ATOM      2  C2  BZF d   1       1.445  -0.505  -0.250  0.00  0.00     0.174 A 
ATOM      3  C3  BZF d   1       0.591   0.156  -1.058  0.00  0.00    -0.012 A 
ATOM      4  C3A BZF d   1      -0.222   0.944  -0.182  0.00  0.00    -0.107 A 
ATOM      5  C4  BZF d   1      -1.242   1.827  -0.390  0.00  0.00     0.055 A 
ATOM      6  C5  BZF d   1      -1.873   2.371   0.684  0.00  0.00    -0.016 A 
ATOM      7  C6  BZF d   1      -1.513   2.052   1.977  0.00  0.00     0.022 A 
ATOM      8  C7  BZF d   1      -0.503   1.185   2.233  0.00  0.00     0.029 A 
ATOM      9  C7A BZF d   1       0.158   0.658   1.150  0.00  0.00     0.058 A 
ENDROOT
TORSDOF 0
ENDMDL
