MODEL 1
REMARK minimizedAffinity -4.31392813
REMARK minimizedRMSD -1
REMARK  0 active torsions:
REMARK  status: ('A' for Active; 'I' for Inactive)
ROOT
ATOM      1  O1  BZF d   1      -1.191   2.226   0.596  0.00  0.00    -0.204 OA
ATOM      2  C2  BZF d   1      -1.781   2.252   1.845  0.00  0.00     0.174 A 
ATOM      3  C3  BZF d   1      -1.454   1.151   2.552  0.00  0.00    -0.012 A 
ATOM      4  C3A BZF d   1      -0.532   0.434   1.726  0.00  0.00    -0.107 A 
ATOM      5  C4  BZF d   1       0.159  -0.733   1.885  0.00  0.00     0.055 A 
ATOM      6  C5  BZF d   1       0.920  -1.195   0.859  0.00  0.00    -0.016 A 
ATOM      7  C6  BZF d   1       1.009  -0.520  -0.341  0.00  0.00     0.022 A 
ATOM      8  C7  BZF d   1       0.345   0.644  -0.544  0.00  0.00     0.029 A 
ATOM      9  C7A BZF d   1      -0.399   1.131   0.503  0.00  0.00     0.058 A 
ENDROOT
TORSDOF 0
ENDMDL
