MODEL 1
REMARK minimizedAffinity -4.33785582
REMARK minimizedRMSD -1
REMARK  0 active torsions:
REMARK  status: ('A' for Active; 'I' for Inactive)
ROOT
ATOM      1  O1  BZF d   1       0.599  -0.004  -0.659  0.00  0.00    -0.204 OA
ATOM      2  C2  BZF d   1       0.510  -0.987   0.308  0.00  0.00     0.174 A 
ATOM      3  C3  BZF d   1      -0.220  -0.561   1.358  0.00  0.00    -0.012 A 
ATOM      4  C3A BZF d   1      -0.690   0.739   0.987  0.00  0.00    -0.107 A 
ATOM      5  C4  BZF d   1      -1.478   1.665   1.609  0.00  0.00     0.055 A 
ATOM      6  C5  BZF d   1      -1.686   2.866   1.007  0.00  0.00    -0.016 A 
ATOM      7  C6  BZF d   1      -1.119   3.175  -0.212  0.00  0.00     0.022 A 
ATOM      8  C7  BZF d   1      -0.334   2.286  -0.869  0.00  0.00     0.029 A 
ATOM      9  C7A BZF d   1      -0.148   1.060  -0.279  0.00  0.00     0.058 A 
ENDROOT
TORSDOF 0
ENDMDL
