MODEL 1
REMARK minimizedAffinity 0.834878027
REMARK minimizedRMSD -1
REMARK  0 active torsions:
REMARK  status: ('A' for Active; 'I' for Inactive)
ROOT
ATOM      1  O1  BZF d   1       1.564  -0.744  -0.511  0.00  0.00    -0.204 OA
ATOM      2  C2  BZF d   1       0.964  -1.541   0.445  0.00  0.00     0.174 A 
ATOM      3  C3  BZF d   1      -0.167  -0.967   0.905  0.00  0.00    -0.012 A 
ATOM      4  C3A BZF d   1      -0.329   0.222   0.125  0.00  0.00    -0.107 A 
ATOM      5  C4  BZF d   1      -1.275   1.207   0.101  0.00  0.00     0.055 A 
ATOM      6  C5  BZF d   1      -1.102   2.268  -0.730  0.00  0.00    -0.016 A 
ATOM      7  C6  BZF d   1       0.006   2.379  -1.545  0.00  0.00     0.022 A 
ATOM      8  C7  BZF d   1       0.968   1.425  -1.560  0.00  0.00     0.029 A 
ATOM      9  C7A BZF d   1       0.779   0.335  -0.745  0.00  0.00     0.058 A 
ENDROOT
TORSDOF 0
ENDMDL
