MODEL 1
REMARK minimizedAffinity -4.2815032
REMARK minimizedRMSD -1
REMARK  0 active torsions:
REMARK  status: ('A' for Active; 'I' for Inactive)
ROOT
ATOM      1  O1  BZF d   1      -0.149  -0.412  -1.276  0.00  0.00    -0.204 OA
ATOM      2  C2  BZF d   1       1.135  -0.840  -1.000  0.00  0.00     0.174 A 
ATOM      3  C3  BZF d   1       1.494  -0.500   0.254  0.00  0.00    -0.012 A 
ATOM      4  C3A BZF d   1       0.329   0.102   0.828  0.00  0.00    -0.107 A 
ATOM      5  C4  BZF d   1       0.054   0.629   2.058  0.00  0.00     0.055 A 
ATOM      6  C5  BZF d   1      -1.158   1.205   2.273  0.00  0.00    -0.016 A 
ATOM      7  C6  BZF d   1      -2.115   1.275   1.282  0.00  0.00     0.022 A 
ATOM      8  C7  BZF d   1      -1.890   0.761   0.048  0.00  0.00     0.029 A 
ATOM      9  C7A BZF d   1      -0.678   0.150  -0.163  0.00  0.00     0.058 A 
ENDROOT
TORSDOF 0
ENDMDL
