MODEL 1
REMARK minimizedAffinity -4.10056114
REMARK minimizedRMSD -1
REMARK  0 active torsions:
REMARK  status: ('A' for Active; 'I' for Inactive)
ROOT
ATOM      1  O1  BZF d   1      -1.120   1.215   2.153  0.00  0.00    -0.204 OA
ATOM      2  C2  BZF d   1      -1.931   2.133   1.515  0.00  0.00     0.174 A 
ATOM      3  C3  BZF d   1      -1.793   2.045   0.177  0.00  0.00    -0.012 A 
ATOM      4  C3A BZF d   1      -0.905   0.944  -0.038  0.00  0.00    -0.107 A 
ATOM      5  C4  BZF d   1      -0.396   0.353  -1.159  0.00  0.00     0.055 A 
ATOM      6  C5  BZF d   1       0.503  -0.657  -1.023  0.00  0.00    -0.016 A 
ATOM      7  C6  BZF d   1       0.919  -1.097   0.216  0.00  0.00     0.022 A 
ATOM      8  C7  BZF d   1       0.439  -0.545   1.357  0.00  0.00     0.029 A 
ATOM      9  C7A BZF d   1      -0.495   0.454   1.223  0.00  0.00     0.058 A 
ENDROOT
TORSDOF 0
ENDMDL
