MODEL 1
REMARK minimizedAffinity -3.31680036
REMARK minimizedRMSD -1
REMARK  0 active torsions:
REMARK  status: ('A' for Active; 'I' for Inactive)
ROOT
ATOM      1  O1  BZF d   1       2.073  -0.899  -1.983  0.00  0.00    -0.204 OA
ATOM      2  C2  BZF d   1       1.852  -2.224  -1.662  0.00  0.00     0.174 A 
ATOM      3  C3  BZF d   1       0.954  -2.331  -0.662  0.00  0.00    -0.012 A 
ATOM      4  C3A BZF d   1       0.523  -0.992  -0.399  0.00  0.00    -0.107 A 
ATOM      5  C4  BZF d   1      -0.373  -0.450   0.477  0.00  0.00     0.055 A 
ATOM      6  C5  BZF d   1      -0.508   0.901   0.532  0.00  0.00    -0.016 A 
ATOM      7  C6  BZF d   1       0.240   1.739  -0.270  0.00  0.00     0.022 A 
ATOM      8  C7  BZF d   1       1.138   1.247  -1.157  0.00  0.00     0.029 A 
ATOM      9  C7A BZF d   1       1.253  -0.119  -1.238  0.00  0.00     0.058 A 
ENDROOT
TORSDOF 0
ENDMDL
