MODEL 1
REMARK minimizedAffinity -0.986163735
REMARK minimizedRMSD -1
REMARK  0 active torsions:
REMARK  status: ('A' for Active; 'I' for Inactive)
ROOT
ATOM      1  O1  BZF d   1      -0.753   1.263   1.697  0.00  0.00    -0.204 OA
ATOM      2  C2  BZF d   1      -1.499   2.093   0.882  0.00  0.00     0.174 A 
ATOM      3  C3  BZF d   1      -1.352   1.749  -0.414  0.00  0.00    -0.012 A 
ATOM      4  C3A BZF d   1      -0.532   0.576  -0.402  0.00  0.00    -0.107 A 
ATOM      5  C4  BZF d   1      -0.049  -0.242  -1.382  0.00  0.00     0.055 A 
ATOM      6  C5  BZF d   1       0.784  -1.260  -1.042  0.00  0.00    -0.016 A 
ATOM      7  C6  BZF d   1       1.159  -1.485   0.266  0.00  0.00     0.022 A 
ATOM      8  C7  BZF d   1       0.702  -0.703   1.274  0.00  0.00     0.029 A 
ATOM      9  C7A BZF d   1      -0.167   0.306   0.938  0.00  0.00     0.058 A 
ENDROOT
TORSDOF 0
ENDMDL
