MODEL 1
REMARK minimizedAffinity -3.99026036
REMARK minimizedRMSD -1
REMARK  0 active torsions:
REMARK  status: ('A' for Active; 'I' for Inactive)
ROOT
ATOM      1  O1  BZF d   1      -2.199   1.736   0.429  0.00  0.00    -0.204 OA
ATOM      2  C2  BZF d   1      -2.319   1.673   1.804  0.00  0.00     0.174 A 
ATOM      3  C3  BZF d   1      -1.448   0.783   2.320  0.00  0.00    -0.012 A 
ATOM      4  C3A BZF d   1      -0.675   0.324   1.207  0.00  0.00    -0.107 A 
ATOM      5  C4  BZF d   1       0.360  -0.559   1.083  0.00  0.00     0.055 A 
ATOM      6  C5  BZF d   1       0.843  -0.840  -0.156  0.00  0.00    -0.016 A 
ATOM      7  C6  BZF d   1       0.313  -0.261  -1.291  0.00  0.00     0.022 A 
ATOM      8  C7  BZF d   1      -0.711   0.624  -1.217  0.00  0.00     0.029 A 
ATOM      9  C7A BZF d   1      -1.180   0.935   0.036  0.00  0.00     0.058 A 
ENDROOT
TORSDOF 0
ENDMDL
