MODEL 1
REMARK minimizedAffinity -4.01914024
REMARK minimizedRMSD -1
REMARK  0 active torsions:
REMARK  status: ('A' for Active; 'I' for Inactive)
ROOT
ATOM      1  O1  BZF d   1      -1.833   1.100   1.627  0.00  0.00    -0.204 OA
ATOM      2  C2  BZF d   1      -2.330   2.308   1.176  0.00  0.00     0.174 A 
ATOM      3  C3  BZF d   1      -1.575   2.790   0.168  0.00  0.00    -0.012 A 
ATOM      4  C3A BZF d   1      -0.595   1.778  -0.085  0.00  0.00    -0.107 A 
ATOM      5  C4  BZF d   1       0.430   1.667  -0.981  0.00  0.00     0.055 A 
ATOM      6  C5  BZF d   1       1.248   0.584  -0.917  0.00  0.00    -0.016 A 
ATOM      7  C6  BZF d   1       1.074  -0.403   0.032  0.00  0.00     0.022 A 
ATOM      8  C7  BZF d   1       0.069  -0.339   0.938  0.00  0.00     0.029 A 
ATOM      9  C7A BZF d   1      -0.780   0.738   0.855  0.00  0.00     0.058 A 
ENDROOT
TORSDOF 0
ENDMDL
