MODEL 1
REMARK minimizedAffinity -1.3323921
REMARK minimizedRMSD -1
REMARK  0 active torsions:
REMARK  status: ('A' for Active; 'I' for Inactive)
ROOT
ATOM      1  O1  BZF d   1       0.543  -0.115  -1.289  0.00  0.00    -0.204 OA
ATOM      2  C2  BZF d   1       1.325  -1.127  -0.767  0.00  0.00     0.174 A 
ATOM      3  C3  BZF d   1       1.139  -1.238   0.564  0.00  0.00    -0.012 A 
ATOM      4  C3A BZF d   1       0.112  -0.293   0.880  0.00  0.00    -0.107 A 
ATOM      5  C4  BZF d   1      -0.520   0.054   2.040  0.00  0.00     0.055 A 
ATOM      6  C5  BZF d   1      -1.426   1.067   2.021  0.00  0.00    -0.016 A 
ATOM      7  C6  BZF d   1      -1.720   1.756   0.863  0.00  0.00     0.022 A 
ATOM      8  C7  BZF d   1      -1.123   1.445  -0.313  0.00  0.00     0.029 A 
ATOM      9  C7A BZF d   1      -0.231   0.400  -0.304  0.00  0.00     0.058 A 
ENDROOT
TORSDOF 0
ENDMDL
