MODEL 1
REMARK minimizedAffinity -1.24217391
REMARK minimizedRMSD -1
REMARK  0 active torsions:
REMARK  status: ('A' for Active; 'I' for Inactive)
ROOT
ATOM      1  O1  BZF d   1       0.499   1.840  -0.814  0.00  0.00    -0.204 OA
ATOM      2  C2  BZF d   1       1.250   0.779  -1.283  0.00  0.00     0.174 A 
ATOM      3  C3  BZF d   1       1.190  -0.263  -0.429  0.00  0.00    -0.012 A 
ATOM      4  C3A BZF d   1       0.275   0.140   0.594  0.00  0.00    -0.107 A 
ATOM      5  C4  BZF d   1      -0.210  -0.472   1.714  0.00  0.00     0.055 A 
ATOM      6  C5  BZF d   1      -1.034   0.222   2.542  0.00  0.00    -0.016 A 
ATOM      7  C6  BZF d   1      -1.389   1.530   2.283  0.00  0.00     0.022 A 
ATOM      8  C7  BZF d   1      -0.938   2.177   1.181  0.00  0.00     0.029 A 
ATOM      9  C7A BZF d   1      -0.131   1.468   0.326  0.00  0.00     0.058 A 
ENDROOT
TORSDOF 0
ENDMDL
