MODEL 1
REMARK minimizedAffinity -3.48803043
REMARK minimizedRMSD -1
REMARK  0 active torsions:
REMARK  status: ('A' for Active; 'I' for Inactive)
ROOT
ATOM      1  O1  BZF d   1       0.756   1.136  -1.639  0.00  0.00    -0.204 OA
ATOM      2  C2  BZF d   1       0.435   2.434  -1.986  0.00  0.00     0.174 A 
ATOM      3  C3  BZF d   1      -0.330   3.009  -1.036  0.00  0.00    -0.012 A 
ATOM      4  C3A BZF d   1      -0.421   2.038   0.011  0.00  0.00    -0.107 A 
ATOM      5  C4  BZF d   1      -1.036   2.028   1.231  0.00  0.00     0.055 A 
ATOM      6  C5  BZF d   1      -0.994   0.897   1.982  0.00  0.00    -0.016 A 
ATOM      7  C6  BZF d   1      -0.353  -0.243   1.543  0.00  0.00     0.022 A 
ATOM      8  C7  BZF d   1       0.275  -0.280   0.342  0.00  0.00     0.029 A 
ATOM      9  C7A BZF d   1       0.263   0.873  -0.405  0.00  0.00     0.058 A 
ENDROOT
TORSDOF 0
ENDMDL
