MODEL 1
REMARK minimizedAffinity -2.5225513
REMARK minimizedRMSD -1
REMARK  1 active torsions:
REMARK  status: ('A' for Active; 'I' for Inactive)
REMARK    1  A    between atoms: N_2  and  C1_3 
ROOT
ATOM      1  C1  UNL d   1       3.112  -3.269  -0.053  0.00  0.00     0.143 A 
ATOM      2  C2  UNL d   1       3.179  -1.915   0.292  0.00  0.00    -0.057 A 
ATOM      3  C3  UNL d   1       2.023  -1.183   0.587  0.00  0.00     0.033 A 
ATOM      4  C4  UNL d   1       0.772  -1.787   0.513  0.00  0.00    -0.042 A 
ATOM      5  C5  UNL d   1       0.680  -3.126   0.148  0.00  0.00     0.033 A 
ATOM      6  C6  UNL d   1       1.839  -3.853  -0.139  0.00  0.00    -0.057 A 
ENDROOT
BRANCH   1   7
ATOM      7  N   UNL d   1       4.217  -4.025  -0.453  0.00  0.00    -0.732 N 
ATOM      8  C   UNL d   1       4.646  -5.170   0.321  0.00  0.00     0.284 C 
ATOM      9  H3  UNL d   1       4.244  -4.170  -1.460  0.00  0.00     0.395 HD
ENDBRANCH   1   7
TORSDOF 1
ENDMDL
