MODEL 1
REMARK minimizedAffinity -3.32833982
REMARK minimizedRMSD -1
REMARK  1 active torsions:
REMARK  status: ('A' for Active; 'I' for Inactive)
REMARK    1  A    between atoms: N_2  and  C1_3 
ROOT
ATOM      1  C1  UNL d   1       3.882  -4.269   0.003  0.00  0.00     0.143 A 
ATOM      2  C2  UNL d   1       2.677  -4.425   0.695  0.00  0.00    -0.057 A 
ATOM      3  C3  UNL d   1       1.851  -3.328   0.973  0.00  0.00     0.033 A 
ATOM      4  C4  UNL d   1       2.233  -2.048   0.587  0.00  0.00    -0.042 A 
ATOM      5  C5  UNL d   1       3.439  -1.865  -0.081  0.00  0.00     0.033 A 
ATOM      6  C6  UNL d   1       4.255  -2.965  -0.361  0.00  0.00    -0.057 A 
ENDROOT
BRANCH   1   7
ATOM      7  N   UNL d   1       4.793  -5.305  -0.217  0.00  0.00    -0.732 N 
ATOM      8  C   UNL d   1       5.401  -6.000   0.897  0.00  0.00     0.284 C 
ATOM      9  H3  UNL d   1       4.512  -5.913  -0.983  0.00  0.00     0.395 HD
ENDBRANCH   1   7
TORSDOF 1
ENDMDL
