MODEL 1
REMARK minimizedAffinity -0.852157295
REMARK minimizedRMSD -1
REMARK  1 active torsions:
REMARK  status: ('A' for Active; 'I' for Inactive)
REMARK    1  A    between atoms: N_2  and  C1_3 
ROOT
ATOM      1  C1  UNL d   1      -1.515  -0.188   1.411  0.00  0.00     0.143 A 
ATOM      2  C2  UNL d   1      -1.604   1.086   1.982  0.00  0.00    -0.057 A 
ATOM      3  C3  UNL d   1      -2.690   1.928   1.713  0.00  0.00     0.033 A 
ATOM      4  C4  UNL d   1      -3.696   1.520   0.843  0.00  0.00    -0.042 A 
ATOM      5  C5  UNL d   1      -3.615   0.267   0.245  0.00  0.00     0.033 A 
ATOM      6  C6  UNL d   1      -2.531  -0.571   0.522  0.00  0.00    -0.057 A 
ENDROOT
BRANCH   1   7
ATOM      7  N   UNL d   1      -0.412  -1.032   1.561  0.00  0.00    -0.732 N 
ATOM      8  C   UNL d   1       0.069  -1.821   0.447  0.00  0.00     0.284 C 
ATOM      9  H3  UNL d   1       0.325  -0.612   2.122  0.00  0.00     0.395 HD
ENDBRANCH   1   7
TORSDOF 1
ENDMDL
