MODEL 1
REMARK minimizedAffinity 0.125333145
REMARK minimizedRMSD -1
REMARK  1 active torsions:
REMARK  status: ('A' for Active; 'I' for Inactive)
REMARK    1  A    between atoms: N_2  and  C1_3 
ROOT
ATOM      1  C1  UNL d   1       0.824  -2.223  -0.451  0.00  0.00     0.143 A 
ATOM      2  C2  UNL d   1      -0.469  -2.166   0.080  0.00  0.00    -0.057 A 
ATOM      3  C3  UNL d   1      -0.802  -1.246   1.082  0.00  0.00     0.033 A 
ATOM      4  C4  UNL d   1       0.162  -0.384   1.592  0.00  0.00    -0.042 A 
ATOM      5  C5  UNL d   1       1.460  -0.440   1.097  0.00  0.00     0.033 A 
ATOM      6  C6  UNL d   1       1.786  -1.356   0.092  0.00  0.00    -0.057 A 
ENDROOT
BRANCH   1   7
ATOM      7  N   UNL d   1       1.243  -3.181  -1.377  0.00  0.00    -0.732 N 
ATOM      8  C   UNL d   1       0.569  -3.320  -2.650  0.00  0.00     0.284 C 
ATOM      9  H3  UNL d   1       2.257  -3.249  -1.435  0.00  0.00     0.395 HD
ENDBRANCH   1   7
TORSDOF 1
ENDMDL
