MODEL 1
REMARK minimizedAffinity 4.91163969
REMARK minimizedRMSD -1
REMARK  1 active torsions:
REMARK  status: ('A' for Active; 'I' for Inactive)
REMARK    1  A    between atoms: N_2  and  C1_3 
ROOT
ATOM      1  C1  UNL d   1       2.100  -1.557   0.389  0.00  0.00     0.143 A 
ATOM      2  C2  UNL d   1       1.286  -2.460  -0.303  0.00  0.00    -0.057 A 
ATOM      3  C3  UNL d   1      -0.004  -2.767   0.146  0.00  0.00     0.033 A 
ATOM      4  C4  UNL d   1      -0.494  -2.196   1.316  0.00  0.00    -0.042 A 
ATOM      5  C5  UNL d   1       0.307  -1.315   2.034  0.00  0.00     0.033 A 
ATOM      6  C6  UNL d   1       1.592  -1.007   1.577  0.00  0.00    -0.057 A 
ENDROOT
BRANCH   1   7
ATOM      7  N   UNL d   1       3.428  -1.287   0.048  0.00  0.00    -0.732 N 
ATOM      8  C   UNL d   1       4.488  -1.456   1.019  0.00  0.00     0.284 C 
ATOM      9  H3  UNL d   1       3.663  -1.615  -0.886  0.00  0.00     0.395 HD
ENDBRANCH   1   7
TORSDOF 1
ENDMDL
