MODEL 1
REMARK minimizedAffinity 0.253465176
REMARK minimizedRMSD -1
REMARK  1 active torsions:
REMARK  status: ('A' for Active; 'I' for Inactive)
REMARK    1  A    between atoms: N_2  and  C1_3 
ROOT
ATOM      1  C1  UNL d   1       3.922  -4.022  -0.011  0.00  0.00     0.143 A 
ATOM      2  C2  UNL d   1       4.058  -2.640   0.157  0.00  0.00    -0.057 A 
ATOM      3  C3  UNL d   1       2.940  -1.817   0.339  0.00  0.00     0.033 A 
ATOM      4  C4  UNL d   1       1.660  -2.361   0.329  0.00  0.00    -0.042 A 
ATOM      5  C5  UNL d   1       1.499  -3.729   0.139  0.00  0.00     0.033 A 
ATOM      6  C6  UNL d   1       2.620  -4.546  -0.037  0.00  0.00    -0.057 A 
ENDROOT
BRANCH   1   7
ATOM      7  N   UNL d   1       4.988  -4.880  -0.295  0.00  0.00    -0.732 N 
ATOM      8  C   UNL d   1       5.284  -6.000   0.572  0.00  0.00     0.284 C 
ATOM      9  H3  UNL d   1       5.061  -5.092  -1.288  0.00  0.00     0.395 HD
ENDBRANCH   1   7
TORSDOF 1
ENDMDL
