MODEL 1
REMARK minimizedAffinity -1.31026042
REMARK minimizedRMSD -1
REMARK  1 active torsions:
REMARK  status: ('A' for Active; 'I' for Inactive)
REMARK    1  A    between atoms: N_2  and  C1_3 
ROOT
ATOM      1  C1  UNL d   1       2.063  -2.319   0.063  0.00  0.00     0.143 A 
ATOM      2  C2  UNL d   1       0.918  -3.123   0.037  0.00  0.00    -0.057 A 
ATOM      3  C3  UNL d   1      -0.337  -2.610   0.389  0.00  0.00     0.033 A 
ATOM      4  C4  UNL d   1      -0.464  -1.288   0.801  0.00  0.00    -0.042 A 
ATOM      5  C5  UNL d   1       0.665  -0.477   0.858  0.00  0.00     0.033 A 
ATOM      6  C6  UNL d   1       1.914  -0.993   0.499  0.00  0.00    -0.057 A 
ENDROOT
BRANCH   1   7
ATOM      7  N   UNL d   1       3.353  -2.796  -0.180  0.00  0.00    -0.732 N 
ATOM      8  C   UNL d   1       3.639  -4.213  -0.120  0.00  0.00     0.284 C 
ATOM      9  H3  UNL d   1       3.807  -2.313  -0.953  0.00  0.00     0.395 HD
ENDBRANCH   1   7
TORSDOF 1
ENDMDL
