MODEL 1
REMARK minimizedAffinity 3.25683784
REMARK minimizedRMSD -1
REMARK  1 active torsions:
REMARK  status: ('A' for Active; 'I' for Inactive)
REMARK    1  A    between atoms: N_2  and  C1_3 
ROOT
ATOM      1  C1  UNL d   1       2.300  -3.191   0.028  0.00  0.00     0.143 A 
ATOM      2  C2  UNL d   1       2.100  -1.942   0.625  0.00  0.00    -0.057 A 
ATOM      3  C3  UNL d   1       0.816  -1.400   0.764  0.00  0.00     0.033 A 
ATOM      4  C4  UNL d   1      -0.292  -2.088   0.280  0.00  0.00    -0.042 A 
ATOM      5  C5  UNL d   1      -0.114  -3.320  -0.340  0.00  0.00     0.033 A 
ATOM      6  C6  UNL d   1       1.169  -3.859  -0.469  0.00  0.00    -0.057 A 
ENDROOT
BRANCH   1   7
ATOM      7  N   UNL d   1       3.559  -3.739  -0.228  0.00  0.00    -0.732 N 
ATOM      8  C   UNL d   1       3.784  -5.162  -0.101  0.00  0.00     0.284 C 
ATOM      9  H3  UNL d   1       4.008  -3.318  -1.038  0.00  0.00     0.395 HD
ENDBRANCH   1   7
TORSDOF 1
ENDMDL
