MODEL 1
REMARK minimizedAffinity -0.543402672
REMARK minimizedRMSD -1
REMARK  1 active torsions:
REMARK  status: ('A' for Active; 'I' for Inactive)
REMARK    1  A    between atoms: N_2  and  C1_3 
ROOT
ATOM      1  C1  UNL d   1       2.175  -1.417   0.624  0.00  0.00     0.143 A 
ATOM      2  C2  UNL d   1       2.306  -2.695   0.069  0.00  0.00    -0.057 A 
ATOM      3  C3  UNL d   1       1.196  -3.535  -0.089  0.00  0.00     0.033 A 
ATOM      4  C4  UNL d   1      -0.063  -3.121   0.333  0.00  0.00    -0.042 A 
ATOM      5  C5  UNL d   1      -0.212  -1.864   0.910  0.00  0.00     0.033 A 
ATOM      6  C6  UNL d   1       0.899  -1.028   1.059  0.00  0.00    -0.057 A 
ENDROOT
BRANCH   1   7
ATOM      7  N   UNL d   1       3.255  -0.575   0.898  0.00  0.00    -0.732 N 
ATOM      8  C   UNL d   1       3.458  -0.046   2.230  0.00  0.00     0.284 C 
ATOM      9  H3  UNL d   1       4.110  -0.875   0.435  0.00  0.00     0.395 HD
ENDBRANCH   1   7
TORSDOF 1
ENDMDL
