MODEL 1
REMARK minimizedAffinity -0.50612694
REMARK minimizedRMSD -1
REMARK  1 active torsions:
REMARK  status: ('A' for Active; 'I' for Inactive)
REMARK    1  A    between atoms: N_2  and  C1_3 
ROOT
ATOM      1  C1  UNL d   1       0.302  -2.609   0.947  0.00  0.00     0.143 A 
ATOM      2  C2  UNL d   1       0.594  -2.360   2.292  0.00  0.00    -0.057 A 
ATOM      3  C3  UNL d   1       0.089  -1.230   2.947  0.00  0.00     0.033 A 
ATOM      4  C4  UNL d   1      -0.695  -0.311   2.259  0.00  0.00    -0.042 A 
ATOM      5  C5  UNL d   1      -0.978  -0.526   0.914  0.00  0.00     0.033 A 
ATOM      6  C6  UNL d   1      -0.477  -1.659   0.267  0.00  0.00    -0.057 A 
ENDROOT
BRANCH   1   7
ATOM      7  N   UNL d   1       0.854  -3.661   0.213  0.00  0.00    -0.732 N 
ATOM      8  C   UNL d   1       2.289  -3.784   0.064  0.00  0.00     0.284 C 
ATOM      9  H3  UNL d   1       0.377  -4.544   0.380  0.00  0.00     0.395 HD
ENDBRANCH   1   7
TORSDOF 1
ENDMDL
