MODEL 1
REMARK minimizedAffinity 0.440427691
REMARK minimizedRMSD -1
REMARK  1 active torsions:
REMARK  status: ('A' for Active; 'I' for Inactive)
REMARK    1  A    between atoms: N_2  and  C1_3 
ROOT
ATOM      1  C1  UNL d   1       3.369  -4.504   0.220  0.00  0.00     0.143 A 
ATOM      2  C2  UNL d   1       3.778  -3.167   0.259  0.00  0.00    -0.057 A 
ATOM      3  C3  UNL d   1       2.845  -2.124   0.320  0.00  0.00     0.033 A 
ATOM      4  C4  UNL d   1       1.482  -2.401   0.312  0.00  0.00    -0.042 A 
ATOM      5  C5  UNL d   1       1.053  -3.722   0.248  0.00  0.00     0.033 A 
ATOM      6  C6  UNL d   1       1.989  -4.759   0.195  0.00  0.00    -0.057 A 
ENDROOT
BRANCH   1   7
ATOM      7  N   UNL d   1       4.245  -5.581   0.059  0.00  0.00    -0.732 N 
ATOM      8  C   UNL d   1       5.106  -5.998   1.145  0.00  0.00     0.284 C 
ATOM      9  H3  UNL d   1       3.825  -6.350  -0.457  0.00  0.00     0.395 HD
ENDBRANCH   1   7
TORSDOF 1
ENDMDL
