MODEL 1
REMARK minimizedAffinity -0.547917664
REMARK minimizedRMSD -1
REMARK  1 active torsions:
REMARK  status: ('A' for Active; 'I' for Inactive)
REMARK    1  A    between atoms: N_2  and  C1_3 
ROOT
ATOM      1  C1  UNL d   1       3.617  -4.003   0.048  0.00  0.00     0.143 A 
ATOM      2  C2  UNL d   1       2.293  -4.427   0.205  0.00  0.00    -0.057 A 
ATOM      3  C3  UNL d   1       1.283  -3.532   0.579  0.00  0.00     0.033 A 
ATOM      4  C4  UNL d   1       1.586  -2.198   0.831  0.00  0.00    -0.042 A 
ATOM      5  C5  UNL d   1       2.899  -1.759   0.706  0.00  0.00     0.033 A 
ATOM      6  C6  UNL d   1       3.902  -2.657   0.326  0.00  0.00    -0.057 A 
ENDROOT
BRANCH   1   7
ATOM      7  N   UNL d   1       4.682  -4.864  -0.225  0.00  0.00    -0.732 N 
ATOM      8  C   UNL d   1       4.967  -5.983   0.646  0.00  0.00     0.284 C 
ATOM      9  H3  UNL d   1       4.765  -5.077  -1.216  0.00  0.00     0.395 HD
ENDBRANCH   1   7
TORSDOF 1
ENDMDL
