MODEL 1
REMARK minimizedAffinity 7.01252556
REMARK minimizedRMSD -1
REMARK  1 active torsions:
REMARK  status: ('A' for Active; 'I' for Inactive)
REMARK    1  A    between atoms: C1_2  and  C2_3 
ROOT
ATOM      1  C2  UNL d   1      -0.711   0.204   1.476  0.00  0.00    -0.076 A 
ATOM      2  C3  UNL d   1       0.434   0.017   0.682  0.00  0.00     0.004 A 
ATOM      3  C4  UNL d   1       0.823  -1.257   0.272  0.00  0.00    -0.003 A 
ATOM      4  C5  UNL d   1       0.072  -2.365   0.648  0.00  0.00     0.000 A 
ATOM      5  C6  UNL d   1      -1.076  -2.197   1.421  0.00  0.00     0.000 A 
ATOM      6  C7  UNL d   1      -1.491  -0.918   1.829  0.00  0.00    -0.073 A 
ATOM      7  C8  UNL d   1      -2.734  -0.795   2.667  0.00  0.00     0.078 C 
ENDROOT
BRANCH   1   8
ATOM      8  C1  UNL d   1      -1.068   1.606   1.913  0.00  0.00     0.053 C 
ATOM      9  C   UNL d   1      -0.407   2.671   1.052  0.00  0.00     0.018 C 
ENDBRANCH   1   8
TORSDOF 1
ENDMDL
