MODEL 1
REMARK minimizedAffinity 3.46553421
REMARK minimizedRMSD -1
REMARK  1 active torsions:
REMARK  status: ('A' for Active; 'I' for Inactive)
REMARK    1  A    between atoms: C1_2  and  C2_3 
ROOT
ATOM      1  C2  UNL d   1       1.275   1.069   0.539  0.00  0.00    -0.076 A 
ATOM      2  C3  UNL d   1       0.065   1.755   0.332  0.00  0.00     0.004 A 
ATOM      3  C4  UNL d   1       0.041   3.142   0.195  0.00  0.00    -0.003 A 
ATOM      4  C5  UNL d   1       1.226   3.865   0.261  0.00  0.00     0.000 A 
ATOM      5  C6  UNL d   1       2.437   3.200   0.448  0.00  0.00     0.000 A 
ATOM      6  C7  UNL d   1       2.481   1.801   0.572  0.00  0.00    -0.073 A 
ATOM      7  C8  UNL d   1       3.814   1.136   0.777  0.00  0.00     0.078 C 
ENDROOT
BRANCH   1   8
ATOM      8  C1  UNL d   1       1.236  -0.433   0.708  0.00  0.00     0.053 C 
ATOM      9  C   UNL d   1       1.541  -1.173  -0.585  0.00  0.00     0.018 C 
ENDBRANCH   1   8
TORSDOF 1
ENDMDL
