MODEL 1
REMARK minimizedAffinity 4.43925476
REMARK minimizedRMSD -1
REMARK  1 active torsions:
REMARK  status: ('A' for Active; 'I' for Inactive)
REMARK    1  A    between atoms: C1_2  and  C2_3 
ROOT
ATOM      1  C2  UNL d   1       0.666   2.378   2.074  0.00  0.00    -0.076 A 
ATOM      2  C3  UNL d   1       1.876   2.146   2.750  0.00  0.00     0.004 A 
ATOM      3  C4  UNL d   1       3.090   2.129   2.065  0.00  0.00    -0.003 A 
ATOM      4  C5  UNL d   1       3.113   2.344   0.691  0.00  0.00     0.000 A 
ATOM      5  C6  UNL d   1       1.924   2.593   0.007  0.00  0.00     0.000 A 
ATOM      6  C7  UNL d   1       0.694   2.629   0.685  0.00  0.00    -0.073 A 
ATOM      7  C8  UNL d   1      -0.559   2.896  -0.104  0.00  0.00     0.078 C 
ENDROOT
BRANCH   1   8
ATOM      8  C1  UNL d   1      -0.622   2.357   2.865  0.00  0.00     0.053 C 
ATOM      9  C   UNL d   1      -1.188   3.751   3.093  0.00  0.00     0.018 C 
ENDBRANCH   1   8
TORSDOF 1
ENDMDL
