MODEL 1
REMARK minimizedAffinity 4.00161648
REMARK minimizedRMSD -1
REMARK  1 active torsions:
REMARK  status: ('A' for Active; 'I' for Inactive)
REMARK    1  A    between atoms: C1_2  and  C2_3 
ROOT
ATOM      1  C2  UNL d   1       0.339   1.648   1.362  0.00  0.00    -0.076 A 
ATOM      2  C3  UNL d   1       0.891   0.404   1.715  0.00  0.00     0.004 A 
ATOM      3  C4  UNL d   1       1.762  -0.264   0.856  0.00  0.00    -0.003 A 
ATOM      4  C5  UNL d   1       2.096   0.301  -0.369  0.00  0.00     0.000 A 
ATOM      5  C6  UNL d   1       1.573   1.543  -0.728  0.00  0.00     0.000 A 
ATOM      6  C7  UNL d   1       0.706   2.238   0.133  0.00  0.00    -0.073 A 
ATOM      7  C8  UNL d   1       0.167   3.571  -0.307  0.00  0.00     0.078 C 
ENDROOT
BRANCH   1   8
ATOM      8  C1  UNL d   1      -0.621   2.313   2.322  0.00  0.00     0.053 C 
ATOM      9  C   UNL d   1      -0.408   1.869   3.761  0.00  0.00     0.018 C 
ENDBRANCH   1   8
TORSDOF 1
ENDMDL
