MODEL 1
REMARK minimizedAffinity 1.28406489
REMARK minimizedRMSD -1
REMARK  1 active torsions:
REMARK  status: ('A' for Active; 'I' for Inactive)
REMARK    1  A    between atoms: C1_2  and  C2_3 
ROOT
ATOM      1  C2  UNL d   1       2.473   2.826   1.680  0.00  0.00    -0.076 A 
ATOM      2  C3  UNL d   1       2.317   4.216   1.540  0.00  0.00     0.004 A 
ATOM      3  C4  UNL d   1       1.195   4.752   0.909  0.00  0.00    -0.003 A 
ATOM      4  C5  UNL d   1       0.212   3.906   0.407  0.00  0.00     0.000 A 
ATOM      5  C6  UNL d   1       0.343   2.525   0.553  0.00  0.00     0.000 A 
ATOM      6  C7  UNL d   1       1.459   1.970   1.201  0.00  0.00    -0.073 A 
ATOM      7  C8  UNL d   1       1.551   0.474   1.325  0.00  0.00     0.078 C 
ENDROOT
BRANCH   1   8
ATOM      8  C1  UNL d   1       3.723   2.302   2.350  0.00  0.00     0.053 C 
ATOM      9  C   UNL d   1       4.971   3.065   1.934  0.00  0.00     0.018 C 
ENDBRANCH   1   8
TORSDOF 1
ENDMDL
