MODEL 1
REMARK minimizedAffinity 7.92983866
REMARK minimizedRMSD -1
REMARK  1 active torsions:
REMARK  status: ('A' for Active; 'I' for Inactive)
REMARK    1  A    between atoms: C1_2  and  C2_3 
ROOT
ATOM      1  C2  UNL d   1       2.726   1.754  -0.738  0.00  0.00    -0.076 A 
ATOM      2  C3  UNL d   1       1.446   1.920  -0.179  0.00  0.00     0.004 A 
ATOM      3  C4  UNL d   1       1.220   1.690   1.177  0.00  0.00    -0.003 A 
ATOM      4  C5  UNL d   1       2.270   1.292   1.997  0.00  0.00     0.000 A 
ATOM      5  C6  UNL d   1       3.550   1.140   1.464  0.00  0.00     0.000 A 
ATOM      6  C7  UNL d   1       3.798   1.383   0.102  0.00  0.00    -0.073 A 
ATOM      7  C8  UNL d   1       5.196   1.197  -0.421  0.00  0.00     0.078 C 
ENDROOT
BRANCH   1   8
ATOM      8  C1  UNL d   1       2.905   1.991  -2.220  0.00  0.00     0.053 C 
ATOM      9  C   UNL d   1       1.800   1.355  -3.050  0.00  0.00     0.018 C 
ENDBRANCH   1   8
TORSDOF 1
ENDMDL
