MODEL 1
REMARK minimizedAffinity 1.61206758
REMARK minimizedRMSD -1
REMARK  1 active torsions:
REMARK  status: ('A' for Active; 'I' for Inactive)
REMARK    1  A    between atoms: C1_2  and  C2_3 
ROOT
ATOM      1  C2  UNL d   1       3.159   2.837   1.127  0.00  0.00    -0.076 A 
ATOM      2  C3  UNL d   1       4.416   3.357   1.479  0.00  0.00     0.004 A 
ATOM      3  C4  UNL d   1       4.941   3.161   2.756  0.00  0.00    -0.003 A 
ATOM      4  C5  UNL d   1       4.218   2.442   3.700  0.00  0.00     0.000 A 
ATOM      5  C6  UNL d   1       2.976   1.904   3.363  0.00  0.00     0.000 A 
ATOM      6  C7  UNL d   1       2.440   2.078   2.075  0.00  0.00    -0.073 A 
ATOM      7  C8  UNL d   1       1.094   1.481   1.767  0.00  0.00     0.078 C 
ENDROOT
BRANCH   1   8
ATOM      8  C1  UNL d   1       2.628   3.104  -0.263  0.00  0.00     0.053 C 
ATOM      9  C   UNL d   1       3.732   3.157  -1.308  0.00  0.00     0.018 C 
ENDBRANCH   1   8
TORSDOF 1
ENDMDL
