MODEL 1
REMARK minimizedAffinity 4.13026142
REMARK minimizedRMSD -1
REMARK  1 active torsions:
REMARK  status: ('A' for Active; 'I' for Inactive)
REMARK    1  A    between atoms: C1_2  and  C2_3 
ROOT
ATOM      1  C2  UNL d   1       0.980   1.908   0.818  0.00  0.00    -0.076 A 
ATOM      2  C3  UNL d   1       1.488   3.193   1.076  0.00  0.00     0.004 A 
ATOM      3  C4  UNL d   1       2.861   3.416   1.173  0.00  0.00    -0.003 A 
ATOM      4  C5  UNL d   1       3.748   2.357   1.013  0.00  0.00     0.000 A 
ATOM      5  C6  UNL d   1       3.262   1.079   0.739  0.00  0.00     0.000 A 
ATOM      6  C7  UNL d   1       1.882   0.841   0.622  0.00  0.00    -0.073 A 
ATOM      7  C8  UNL d   1       1.414  -0.559   0.331  0.00  0.00     0.078 C 
ENDROOT
BRANCH   1   8
ATOM      8  C1  UNL d   1      -0.519   1.722   0.750  0.00  0.00     0.053 C 
ATOM      9  C   UNL d   1      -1.199   2.777  -0.109  0.00  0.00     0.018 C 
ENDBRANCH   1   8
TORSDOF 1
ENDMDL
