MODEL 1
REMARK minimizedAffinity 20.5694447
REMARK minimizedRMSD -1
REMARK  0 active torsions:
REMARK  status: ('A' for Active; 'I' for Inactive)
ROOT
ATOM      1  C   UNL d   1       1.336  -3.045  -2.252  0.00  0.00     0.124 A 
ATOM      2  C1  UNL d   1       2.151  -4.122  -2.573  0.00  0.00     0.062 A 
ATOM      3  C2  UNL d   1       1.812  -4.967  -3.625  0.00  0.00     0.162 A 
ATOM      4  C3  UNL d   1       0.653  -4.738  -4.366  0.00  0.00    -0.034 A 
ATOM      5  C4  UNL d   1      -0.163  -3.654  -4.037  0.00  0.00     0.162 A 
ATOM      6  C5  UNL d   1       0.181  -2.812  -2.984  0.00  0.00     0.062 A 
ATOM      7  F   UNL d   1      -0.608  -1.772  -2.676  0.00  0.00    -0.097 F 
ATOM      8  F1  UNL d   1      -1.285  -3.405  -4.729  0.00  0.00    -0.096 F 
ATOM      9  I   UNL d   1       0.142  -6.000  -5.941  0.00  0.00    -0.060 I 
ATOM     10  F2  UNL d   1       2.618  -6.000  -3.913  0.00  0.00    -0.096 F 
ATOM     11  F3  UNL d   1       3.268  -4.349  -1.866  0.00  0.00    -0.097 F 
ATOM     12  F4  UNL d   1       1.664  -2.234  -1.238  0.00  0.00    -0.092 F 
ENDROOT
TORSDOF 0
ENDMDL
