MODEL 1
REMARK minimizedAffinity 9.88371372
REMARK minimizedRMSD -1
REMARK  0 active torsions:
REMARK  status: ('A' for Active; 'I' for Inactive)
ROOT
ATOM      1  C   UNL d   1       3.302  -1.576  -2.860  0.00  0.00     0.124 A 
ATOM      2  C1  UNL d   1       3.291  -0.949  -4.098  0.00  0.00     0.062 A 
ATOM      3  C2  UNL d   1       2.099  -0.816  -4.805  0.00  0.00     0.162 A 
ATOM      4  C3  UNL d   1       0.907  -1.310  -4.274  0.00  0.00    -0.034 A 
ATOM      5  C4  UNL d   1       0.926  -1.939  -3.029  0.00  0.00     0.162 A 
ATOM      6  C5  UNL d   1       2.120  -2.070  -2.326  0.00  0.00     0.062 A 
ATOM      7  F   UNL d   1       2.128  -2.675  -1.130  0.00  0.00    -0.097 F 
ATOM      8  F1  UNL d   1      -0.201  -2.425  -2.489  0.00  0.00    -0.096 F 
ATOM      9  I   UNL d   1      -0.876  -1.112  -5.328  0.00  0.00    -0.060 I 
ATOM     10  F2  UNL d   1       2.119  -0.206  -6.000  0.00  0.00    -0.096 F 
ATOM     11  F3  UNL d   1       4.432  -0.471  -4.616  0.00  0.00    -0.097 F 
ATOM     12  F4  UNL d   1       4.450  -1.703  -2.182  0.00  0.00    -0.092 F 
ENDROOT
TORSDOF 0
ENDMDL
