MODEL 1
REMARK minimizedAffinity 15.0565119
REMARK minimizedRMSD -1
REMARK  0 active torsions:
REMARK  status: ('A' for Active; 'I' for Inactive)
ROOT
ATOM      1  C   UNL d   1       2.955  -1.664  -3.388  0.00  0.00     0.124 A 
ATOM      2  C1  UNL d   1       2.637  -0.844  -4.462  0.00  0.00     0.062 A 
ATOM      3  C2  UNL d   1       1.338  -0.816  -4.961  0.00  0.00     0.162 A 
ATOM      4  C3  UNL d   1       0.346  -1.611  -4.386  0.00  0.00    -0.034 A 
ATOM      5  C4  UNL d   1       0.674  -2.433  -3.307  0.00  0.00     0.162 A 
ATOM      6  C5  UNL d   1       1.973  -2.457  -2.811  0.00  0.00     0.062 A 
ATOM      7  F   UNL d   1       2.279  -3.250  -1.774  0.00  0.00    -0.097 F 
ATOM      8  F1  UNL d   1      -0.256  -3.210  -2.730  0.00  0.00    -0.096 F 
ATOM      9  I   UNL d   1      -1.598  -1.572  -5.129  0.00  0.00    -0.060 I 
ATOM     10  F2  UNL d   1       1.059  -0.015  -6.000  0.00  0.00    -0.096 F 
ATOM     11  F3  UNL d   1       3.584  -0.077  -5.021  0.00  0.00    -0.097 F 
ATOM     12  F4  UNL d   1       4.206  -1.689  -2.910  0.00  0.00    -0.092 F 
ENDROOT
TORSDOF 0
ENDMDL
