MODEL 1
REMARK minimizedAffinity 10.9282322
REMARK minimizedRMSD -1
REMARK  0 active torsions:
REMARK  status: ('A' for Active; 'I' for Inactive)
ROOT
ATOM      1  C   UNL d   1       3.003  -1.448  -3.541  0.00  0.00     0.124 A 
ATOM      2  C1  UNL d   1       2.728  -0.585  -4.594  0.00  0.00     0.062 A 
ATOM      3  C2  UNL d   1       1.412  -0.346  -4.978  0.00  0.00     0.162 A 
ATOM      4  C3  UNL d   1       0.359  -0.971  -4.309  0.00  0.00    -0.034 A 
ATOM      5  C4  UNL d   1       0.643  -1.838  -3.252  0.00  0.00     0.162 A 
ATOM      6  C5  UNL d   1       1.960  -2.073  -2.872  0.00  0.00     0.062 A 
ATOM      7  F   UNL d   1       2.223  -2.907  -1.855  0.00  0.00    -0.097 F 
ATOM      8  F1  UNL d   1      -0.345  -2.455  -2.588  0.00  0.00    -0.096 F 
ATOM      9  I   UNL d   1      -1.610  -0.617  -4.881  0.00  0.00    -0.060 I 
ATOM     10  F2  UNL d   1       1.176   0.492  -5.998  0.00  0.00    -0.096 F 
ATOM     11  F3  UNL d   1       3.734   0.020  -5.242  0.00  0.00    -0.097 F 
ATOM     12  F4  UNL d   1       4.270  -1.676  -3.174  0.00  0.00    -0.092 F 
ENDROOT
TORSDOF 0
ENDMDL
