MODEL 1
REMARK minimizedAffinity 24.1641579
REMARK minimizedRMSD -1
REMARK  0 active torsions:
REMARK  status: ('A' for Active; 'I' for Inactive)
ROOT
ATOM      1  C   UNL d   1       3.331  -1.405  -3.712  0.00  0.00     0.124 A 
ATOM      2  C1  UNL d   1       2.755  -0.701  -4.760  0.00  0.00     0.062 A 
ATOM      3  C2  UNL d   1       1.382  -0.770  -4.980  0.00  0.00     0.162 A 
ATOM      4  C3  UNL d   1       0.575  -1.546  -4.148  0.00  0.00    -0.034 A 
ATOM      5  C4  UNL d   1       1.161  -2.253  -3.097  0.00  0.00     0.162 A 
ATOM      6  C5  UNL d   1       2.534  -2.180  -2.882  0.00  0.00     0.062 A 
ATOM      7  F   UNL d   1       3.088  -2.862  -1.869  0.00  0.00    -0.097 F 
ATOM      8  F1  UNL d   1       0.414  -3.009  -2.278  0.00  0.00    -0.096 F 
ATOM      9  I   UNL d   1      -1.478  -1.652  -4.473  0.00  0.00    -0.060 I 
ATOM     10  F2  UNL d   1       0.853  -0.078  -6.000  0.00  0.00    -0.096 F 
ATOM     11  F3  UNL d   1       3.523   0.048  -5.565  0.00  0.00    -0.097 F 
ATOM     12  F4  UNL d   1       4.652  -1.338  -3.504  0.00  0.00    -0.092 F 
ENDROOT
TORSDOF 0
ENDMDL
