MODEL 1
REMARK minimizedAffinity 14.1806364
REMARK minimizedRMSD -1
REMARK  0 active torsions:
REMARK  status: ('A' for Active; 'I' for Inactive)
ROOT
ATOM      1  C   UNL d   1       3.128  -1.525  -2.917  0.00  0.00     0.124 A 
ATOM      2  C1  UNL d   1       3.072  -0.874  -4.142  0.00  0.00     0.062 A 
ATOM      3  C2  UNL d   1       1.861  -0.758  -4.818  0.00  0.00     0.162 A 
ATOM      4  C3  UNL d   1       0.695  -1.293  -4.270  0.00  0.00    -0.034 A 
ATOM      5  C4  UNL d   1       0.760  -1.948  -3.038  0.00  0.00     0.162 A 
ATOM      6  C5  UNL d   1       1.973  -2.061  -2.367  0.00  0.00     0.062 A 
ATOM      7  F   UNL d   1       2.025  -2.691  -1.184  0.00  0.00    -0.097 F 
ATOM      8  F1  UNL d   1      -0.342  -2.474  -2.483  0.00  0.00    -0.096 F 
ATOM      9  I   UNL d   1      -1.118  -1.122  -5.278  0.00  0.00    -0.060 I 
ATOM     10  F2  UNL d   1       1.836  -0.123  -5.999  0.00  0.00    -0.096 F 
ATOM     11  F3  UNL d   1       4.187  -0.356  -4.676  0.00  0.00    -0.097 F 
ATOM     12  F4  UNL d   1       4.295  -1.636  -2.269  0.00  0.00    -0.092 F 
ENDROOT
TORSDOF 0
ENDMDL
