MODEL 1
REMARK minimizedAffinity -1.04532743
REMARK minimizedRMSD -1
REMARK  0 active torsions:
REMARK  status: ('A' for Active; 'I' for Inactive)
ROOT
ATOM      1  C   UNL d   1      -1.382  -0.166   1.215  0.00  0.00     0.124 A 
ATOM      2  C1  UNL d   1      -0.160   0.483   1.112  0.00  0.00     0.062 A 
ATOM      3  C2  UNL d   1       0.935   0.033   1.844  0.00  0.00     0.162 A 
ATOM      4  C3  UNL d   1       0.813  -1.074   2.685  0.00  0.00    -0.034 A 
ATOM      5  C4  UNL d   1      -0.420  -1.720   2.784  0.00  0.00     0.162 A 
ATOM      6  C5  UNL d   1      -1.511  -1.267   2.050  0.00  0.00     0.062 A 
ATOM      7  F   UNL d   1      -2.692  -1.895   2.151  0.00  0.00    -0.097 F 
ATOM      8  F1  UNL d   1      -0.573  -2.787   3.583  0.00  0.00    -0.096 F 
ATOM      9  I   UNL d   1       2.448  -1.750   3.781  0.00  0.00    -0.060 I 
ATOM     10  F2  UNL d   1       2.105   0.679   1.726  0.00  0.00    -0.096 F 
ATOM     11  F3  UNL d   1      -0.033   1.547   0.307  0.00  0.00    -0.097 F 
ATOM     12  F4  UNL d   1      -2.435   0.270   0.511  0.00  0.00    -0.092 F 
ENDROOT
TORSDOF 0
ENDMDL
