MODEL 1
REMARK minimizedAffinity 11.2495489
REMARK minimizedRMSD -1
REMARK  0 active torsions:
REMARK  status: ('A' for Active; 'I' for Inactive)
ROOT
ATOM      1  C   UNL d   1       1.101  -3.002  -2.835  0.00  0.00     0.124 A 
ATOM      2  C1  UNL d   1       2.221  -2.214  -2.606  0.00  0.00     0.062 A 
ATOM      3  C2  UNL d   1       2.568  -1.213  -3.509  0.00  0.00     0.162 A 
ATOM      4  C3  UNL d   1       1.793  -0.993  -4.648  0.00  0.00    -0.034 A 
ATOM      5  C4  UNL d   1       0.669  -1.789  -4.871  0.00  0.00     0.162 A 
ATOM      6  C5  UNL d   1       0.327  -2.789  -3.966  0.00  0.00     0.062 A 
ATOM      7  F   UNL d   1      -0.756  -3.549  -4.188  0.00  0.00    -0.097 F 
ATOM      8  F1  UNL d   1      -0.098  -1.605  -5.956  0.00  0.00    -0.096 F 
ATOM      9  I   UNL d   1       2.309   0.504  -5.999  0.00  0.00    -0.060 I 
ATOM     10  F2  UNL d   1       3.655  -0.467  -3.263  0.00  0.00    -0.096 F 
ATOM     11  F3  UNL d   1       2.972  -2.419  -1.514  0.00  0.00    -0.097 F 
ATOM     12  F4  UNL d   1       0.770  -3.965  -1.965  0.00  0.00    -0.092 F 
ENDROOT
TORSDOF 0
ENDMDL
