MODEL 1
REMARK minimizedAffinity 17.506403
REMARK minimizedRMSD -1
REMARK  0 active torsions:
REMARK  status: ('A' for Active; 'I' for Inactive)
ROOT
ATOM      1  C   UNL d   1       3.754  -1.297  -2.980  0.00  0.00     0.124 A 
ATOM      2  C1  UNL d   1       2.583  -1.948  -2.621  0.00  0.00     0.062 A 
ATOM      3  C2  UNL d   1       1.437  -1.811  -3.400  0.00  0.00     0.162 A 
ATOM      4  C3  UNL d   1       1.458  -1.019  -4.547  0.00  0.00    -0.034 A 
ATOM      5  C4  UNL d   1       2.639  -0.366  -4.903  0.00  0.00     0.162 A 
ATOM      6  C5  UNL d   1       3.781  -0.506  -4.121  0.00  0.00     0.062 A 
ATOM      7  F   UNL d   1       4.912   0.124  -4.470  0.00  0.00    -0.097 F 
ATOM      8  F1  UNL d   1       2.694   0.404  -6.000  0.00  0.00    -0.096 F 
ATOM      9  I   UNL d   1      -0.252  -0.811  -5.715  0.00  0.00    -0.060 I 
ATOM     10  F2  UNL d   1       0.319  -2.452  -3.028  0.00  0.00    -0.096 F 
ATOM     11  F3  UNL d   1       2.553  -2.712  -1.519  0.00  0.00    -0.097 F 
ATOM     12  F4  UNL d   1       4.854  -1.430  -2.229  0.00  0.00    -0.092 F 
ENDROOT
TORSDOF 0
ENDMDL
