MODEL 1
REMARK minimizedAffinity 18.2469902
REMARK minimizedRMSD -1
REMARK  0 active torsions:
REMARK  status: ('A' for Active; 'I' for Inactive)
ROOT
ATOM      1  C   UNL d   1       2.280  -1.507   3.952  0.00  0.00     0.124 A 
ATOM      2  C1  UNL d   1       2.223  -1.393   2.570  0.00  0.00     0.062 A 
ATOM      3  C2  UNL d   1       1.025  -1.616   1.898  0.00  0.00     0.162 A 
ATOM      4  C3  UNL d   1      -0.128  -1.953   2.608  0.00  0.00    -0.034 A 
ATOM      5  C4  UNL d   1      -0.063  -2.066   3.997  0.00  0.00     0.162 A 
ATOM      6  C5  UNL d   1       1.137  -1.843   4.664  0.00  0.00     0.062 A 
ATOM      7  F   UNL d   1       1.190  -1.953   6.000  0.00  0.00    -0.097 F 
ATOM      8  F1  UNL d   1      -1.152  -2.389   4.711  0.00  0.00    -0.096 F 
ATOM      9  I   UNL d   1      -1.922  -2.287   1.606  0.00  0.00    -0.060 I 
ATOM     10  F2  UNL d   1       0.999  -1.499   0.562  0.00  0.00    -0.096 F 
ATOM     11  F3  UNL d   1       3.326  -1.070   1.879  0.00  0.00    -0.097 F 
ATOM     12  F4  UNL d   1       3.435  -1.293   4.596  0.00  0.00    -0.092 F 
ENDROOT
TORSDOF 0
ENDMDL
