MODEL 1
REMARK minimizedAffinity -2.37339926
REMARK minimizedRMSD -1
REMARK  0 active torsions:
REMARK  status: ('A' for Active; 'I' for Inactive)
ROOT
ATOM      1  C   UNL d   1      -0.786   1.563   3.296  0.00  0.00    -0.002 A 
ATOM      2  C1  UNL d   1      -1.643   0.656   2.687  0.00  0.00     0.010 A 
ATOM      3  C2  UNL d   1      -1.259  -0.014   1.524  0.00  0.00     0.041 A 
ATOM      4  C3  UNL d   1       0.015   0.243   0.979  0.00  0.00    -0.075 A 
ATOM      5  S   UNL d   1       0.700  -0.461  -0.438  0.00  0.00     0.015 SA
ATOM      6  C4  UNL d   1       2.147   0.424  -0.268  0.00  0.00     0.022 A 
ATOM      7  C5  UNL d   1       2.124   1.242   0.837  0.00  0.00     0.026 A 
ATOM      8  C6  UNL d   1       0.895   1.151   1.574  0.00  0.00    -0.082 A 
ATOM      9  C7  UNL d   1       0.476   1.815   2.752  0.00  0.00     0.045 A 
ENDROOT
TORSDOF 0
ENDMDL
