MODEL 1
REMARK minimizedAffinity 0.0218962226
REMARK minimizedRMSD -1
REMARK  0 active torsions:
REMARK  status: ('A' for Active; 'I' for Inactive)
ROOT
ATOM      1  C   UNL d   1       1.725   0.113   1.012  0.00  0.00    -0.002 A 
ATOM      2  C1  UNL d   1       0.423  -0.124   0.597  0.00  0.00     0.010 A 
ATOM      3  C2  UNL d   1       0.039   0.138  -0.720  0.00  0.00     0.041 A 
ATOM      4  C3  UNL d   1       0.996   0.645  -1.621  0.00  0.00    -0.075 A 
ATOM      5  S   UNL d   1       0.753   1.039  -3.282  0.00  0.00     0.015 SA
ATOM      6  C4  UNL d   1       2.373   1.529  -3.479  0.00  0.00     0.022 A 
ATOM      7  C5  UNL d   1       3.096   1.402  -2.316  0.00  0.00     0.026 A 
ATOM      8  C6  UNL d   1       2.314   0.890  -1.226  0.00  0.00    -0.082 A 
ATOM      9  C7  UNL d   1       2.672   0.615   0.116  0.00  0.00     0.045 A 
ENDROOT
TORSDOF 0
ENDMDL
