MODEL 1
REMARK minimizedAffinity -0.764393508
REMARK minimizedRMSD -1
REMARK  0 active torsions:
REMARK  status: ('A' for Active; 'I' for Inactive)
ROOT
ATOM      1  C   UNL d   1       1.550   0.036   1.438  0.00  0.00    -0.002 A 
ATOM      2  C1  UNL d   1       2.226  -1.008   0.822  0.00  0.00     0.010 A 
ATOM      3  C2  UNL d   1       2.253  -1.112  -0.570  0.00  0.00     0.041 A 
ATOM      4  C3  UNL d   1       1.585  -0.139  -1.340  0.00  0.00    -0.075 A 
ATOM      5  S   UNL d   1       1.485  -0.063  -3.060  0.00  0.00     0.015 SA
ATOM      6  C4  UNL d   1       0.543   1.357  -3.016  0.00  0.00     0.022 A 
ATOM      7  C5  UNL d   1       0.302   1.776  -1.729  0.00  0.00     0.026 A 
ATOM      8  C6  UNL d   1       0.899   0.921  -0.742  0.00  0.00    -0.082 A 
ATOM      9  C7  UNL d   1       0.888   0.999   0.671  0.00  0.00     0.045 A 
ENDROOT
TORSDOF 0
ENDMDL
