MODEL 1
REMARK minimizedAffinity 2.0910964
REMARK minimizedRMSD -1
REMARK  0 active torsions:
REMARK  status: ('A' for Active; 'I' for Inactive)
ROOT
ATOM      1  C   UNL d   1      -3.040  -2.281  -1.203  0.00  0.00    -0.002 A 
ATOM      2  C1  UNL d   1      -2.085  -3.158  -1.698  0.00  0.00     0.010 A 
ATOM      3  C2  UNL d   1      -0.729  -2.952  -1.439  0.00  0.00     0.041 A 
ATOM      4  C3  UNL d   1      -0.344  -1.840  -0.665  0.00  0.00    -0.075 A 
ATOM      5  S   UNL d   1       1.259  -1.388  -0.219  0.00  0.00     0.015 SA
ATOM      6  C4  UNL d   1       0.714  -0.021   0.640  0.00  0.00     0.022 A 
ATOM      7  C5  UNL d   1      -0.654   0.104   0.598  0.00  0.00     0.026 A 
ATOM      8  C6  UNL d   1      -1.287  -0.943  -0.154  0.00  0.00    -0.082 A 
ATOM      9  C7  UNL d   1      -2.654  -1.179  -0.436  0.00  0.00     0.045 A 
ENDROOT
TORSDOF 0
ENDMDL
