MODEL 1
REMARK minimizedAffinity -3.45300698
REMARK minimizedRMSD -1
REMARK  0 active torsions:
REMARK  status: ('A' for Active; 'I' for Inactive)
ROOT
ATOM      1  C   UNL d   1       0.562   1.554   3.019  0.00  0.00    -0.002 A 
ATOM      2  C1  UNL d   1      -0.674   1.197   3.540  0.00  0.00     0.010 A 
ATOM      3  C2  UNL d   1      -1.577   0.454   2.779  0.00  0.00     0.041 A 
ATOM      4  C3  UNL d   1      -1.214   0.069   1.473  0.00  0.00    -0.075 A 
ATOM      5  S   UNL d   1      -2.159  -0.844   0.358  0.00  0.00     0.015 SA
ATOM      6  C4  UNL d   1      -0.945  -0.783  -0.836  0.00  0.00     0.022 A 
ATOM      7  C5  UNL d   1       0.161  -0.086  -0.411  0.00  0.00     0.026 A 
ATOM      8  C6  UNL d   1       0.025   0.416   0.927  0.00  0.00    -0.082 A 
ATOM      9  C7  UNL d   1       0.919   1.171   1.724  0.00  0.00     0.045 A 
ENDROOT
TORSDOF 0
ENDMDL
