MODEL 1
REMARK minimizedAffinity -3.76771188
REMARK minimizedRMSD -1
REMARK  1 active torsions:
REMARK  status: ('A' for Active; 'I' for Inactive)
REMARK    1  A    between atoms: C1_2  and  C2_3 
ROOT
ATOM      1  C2  UNL d   1       0.621  -1.153  -2.767  0.00  0.00    -0.081 A 
ATOM      2  C3  UNL d   1       0.784  -0.021  -1.959  0.00  0.00     0.006 A 
ATOM      3  C4  UNL d   1      -0.286   0.475  -1.211  0.00  0.00     0.002 A 
ATOM      4  C5  UNL d   1      -1.534  -0.157  -1.252  0.00  0.00    -0.080 A 
ATOM      5  C6  UNL d   1      -2.683   0.348  -0.430  0.00  0.00     0.076 C 
ATOM      6  C7  UNL d   1      -1.702  -1.277  -2.073  0.00  0.00     0.002 A 
ATOM      7  C8  UNL d   1      -0.632  -1.773  -2.821  0.00  0.00     0.006 A 
ENDROOT
BRANCH   1   8
ATOM      8  C1  UNL d   1       1.790  -1.729  -3.525  0.00  0.00     0.054 C 
ATOM      9  C   UNL d   1       3.108  -1.148  -3.033  0.00  0.00     0.018 C 
ENDBRANCH   1   8
TORSDOF 1
ENDMDL
