MODEL 1
REMARK minimizedAffinity -3.94861484
REMARK minimizedRMSD -1
REMARK  1 active torsions:
REMARK  status: ('A' for Active; 'I' for Inactive)
REMARK    1  A    between atoms: C1_2  and  C2_3 
ROOT
ATOM      1  C2  UNL d   1      -1.312  -0.407   0.533  0.00  0.00    -0.081 A 
ATOM      2  C3  UNL d   1      -1.038  -0.737   1.866  0.00  0.00     0.006 A 
ATOM      3  C4  UNL d   1       0.235  -0.527   2.400  0.00  0.00     0.002 A 
ATOM      4  C5  UNL d   1       1.253   0.023   1.614  0.00  0.00    -0.080 A 
ATOM      5  C6  UNL d   1       2.616   0.282   2.184  0.00  0.00     0.076 C 
ATOM      6  C7  UNL d   1       0.984   0.337   0.277  0.00  0.00     0.002 A 
ATOM      7  C8  UNL d   1      -0.288   0.126  -0.258  0.00  0.00     0.006 A 
ENDROOT
BRANCH   1   8
ATOM      8  C1  UNL d   1      -2.702  -0.572  -0.027  0.00  0.00     0.054 C 
ATOM      9  C   UNL d   1      -3.134   0.662  -0.807  0.00  0.00     0.018 C 
ENDBRANCH   1   8
TORSDOF 1
ENDMDL
