MODEL 1
REMARK minimizedAffinity -6.29959774
REMARK minimizedRMSD -1
REMARK  1 active torsions:
REMARK  status: ('A' for Active; 'I' for Inactive)
REMARK    1  A    between atoms: C1_2  and  C2_3 
ROOT
ATOM      1  C2  UNL d   1      -2.006  -0.009   0.365  0.00  0.00    -0.081 A 
ATOM      2  C3  UNL d   1      -0.664  -0.341   0.586  0.00  0.00     0.006 A 
ATOM      3  C4  UNL d   1       0.265  -0.266  -0.455  0.00  0.00     0.002 A 
ATOM      4  C5  UNL d   1      -0.131   0.150  -1.731  0.00  0.00    -0.080 A 
ATOM      5  C6  UNL d   1       0.862   0.264  -2.849  0.00  0.00     0.076 C 
ATOM      6  C7  UNL d   1      -1.475   0.464  -1.956  0.00  0.00     0.002 A 
ATOM      7  C8  UNL d   1      -2.405   0.388  -0.916  0.00  0.00     0.006 A 
ENDROOT
BRANCH   1   8
ATOM      8  C1  UNL d   1      -2.997  -0.027   1.501  0.00  0.00     0.054 C 
ATOM      9  C   UNL d   1      -4.429  -0.026   0.985  0.00  0.00     0.018 C 
ENDBRANCH   1   8
TORSDOF 1
ENDMDL
