MODEL 1
REMARK minimizedAffinity -4.83515692
REMARK minimizedRMSD -1
REMARK  1 active torsions:
REMARK  status: ('A' for Active; 'I' for Inactive)
REMARK    1  A    between atoms: C1_2  and  C2_3 
ROOT
ATOM      1  C2  UNL d   1      -1.477  -0.399   2.027  0.00  0.00    -0.081 A 
ATOM      2  C3  UNL d   1      -0.693  -0.398   0.867  0.00  0.00     0.006 A 
ATOM      3  C4  UNL d   1      -1.239  -0.002  -0.356  0.00  0.00     0.002 A 
ATOM      4  C5  UNL d   1      -2.574   0.408  -0.438  0.00  0.00    -0.080 A 
ATOM      5  C6  UNL d   1      -3.164   0.865  -1.739  0.00  0.00     0.076 C 
ATOM      6  C7  UNL d   1      -3.362   0.390   0.717  0.00  0.00     0.002 A 
ATOM      7  C8  UNL d   1      -2.817  -0.007   1.940  0.00  0.00     0.006 A 
ENDROOT
BRANCH   1   8
ATOM      8  C1  UNL d   1      -0.874  -0.765   3.360  0.00  0.00     0.054 C 
ATOM      9  C   UNL d   1       0.485  -0.106   3.551  0.00  0.00     0.018 C 
ENDBRANCH   1   8
TORSDOF 1
ENDMDL
