MODEL 1
REMARK minimizedAffinity -6.89814281
REMARK minimizedRMSD -1
REMARK  1 active torsions:
REMARK  status: ('A' for Active; 'I' for Inactive)
REMARK    1  A    between atoms: C1_2  and  C2_3 
ROOT
ATOM      1  C2  UNL d   1      -0.523   0.031  -0.632  0.00  0.00    -0.081 A 
ATOM      2  C3  UNL d   1       0.647   0.021   0.136  0.00  0.00     0.006 A 
ATOM      3  C4  UNL d   1       0.580  -0.088   1.527  0.00  0.00     0.002 A 
ATOM      4  C5  UNL d   1      -0.657  -0.196   2.172  0.00  0.00    -0.080 A 
ATOM      5  C6  UNL d   1      -0.741  -0.344   3.662  0.00  0.00     0.076 C 
ATOM      6  C7  UNL d   1      -1.827  -0.168   1.405  0.00  0.00     0.002 A 
ATOM      7  C8  UNL d   1      -1.760  -0.059   0.015  0.00  0.00     0.006 A 
ENDROOT
BRANCH   1   8
ATOM      8  C1  UNL d   1      -0.451   0.084  -2.137  0.00  0.00     0.054 C 
ATOM      9  C   UNL d   1      -0.117  -1.281  -2.723  0.00  0.00     0.018 C 
ENDBRANCH   1   8
TORSDOF 1
ENDMDL
