MODEL 1
REMARK minimizedAffinity -6.35210562
REMARK minimizedRMSD -1
REMARK  1 active torsions:
REMARK  status: ('A' for Active; 'I' for Inactive)
REMARK    1  A    between atoms: C1_2  and  C2_3 
ROOT
ATOM      1  C2  UNL d   1      -1.282  -0.044   0.995  0.00  0.00    -0.081 A 
ATOM      2  C3  UNL d   1      -2.079   0.020  -0.154  0.00  0.00     0.006 A 
ATOM      3  C4  UNL d   1      -1.494   0.020  -1.423  0.00  0.00     0.002 A 
ATOM      4  C5  UNL d   1      -0.104  -0.052  -1.563  0.00  0.00    -0.080 A 
ATOM      5  C6  UNL d   1       0.536  -0.084  -2.919  0.00  0.00     0.076 C 
ATOM      6  C7  UNL d   1       0.694  -0.099  -0.414  0.00  0.00     0.002 A 
ATOM      7  C8  UNL d   1       0.109  -0.098   0.854  0.00  0.00     0.006 A 
ENDROOT
BRANCH   1   8
ATOM      8  C1  UNL d   1      -1.913  -0.109   2.363  0.00  0.00     0.054 C 
ATOM      9  C   UNL d   1      -1.011  -0.829   3.355  0.00  0.00     0.018 C 
ENDBRANCH   1   8
TORSDOF 1
ENDMDL
