MODEL 1
REMARK minimizedAffinity -6.17030764
REMARK minimizedRMSD -1
REMARK  1 active torsions:
REMARK  status: ('A' for Active; 'I' for Inactive)
REMARK    1  A    between atoms: C1_2  and  C2_3 
ROOT
ATOM      1  C2  UNL d   1      -0.492   0.010   0.295  0.00  0.00    -0.081 A 
ATOM      2  C3  UNL d   1       0.138  -0.278   1.512  0.00  0.00     0.006 A 
ATOM      3  C4  UNL d   1      -0.615  -0.455   2.675  0.00  0.00     0.002 A 
ATOM      4  C5  UNL d   1      -2.010  -0.354   2.639  0.00  0.00    -0.080 A 
ATOM      5  C6  UNL d   1      -2.832  -0.571   3.875  0.00  0.00     0.076 C 
ATOM      6  C7  UNL d   1      -2.638  -0.048   1.427  0.00  0.00     0.002 A 
ATOM      7  C8  UNL d   1      -1.886   0.129   0.264  0.00  0.00     0.006 A 
ENDROOT
BRANCH   1   8
ATOM      8  C1  UNL d   1       0.313   0.137  -0.973  0.00  0.00     0.054 C 
ATOM      9  C   UNL d   1      -0.376  -0.560  -2.138  0.00  0.00     0.018 C 
ENDBRANCH   1   8
TORSDOF 1
ENDMDL
