MODEL 1
REMARK minimizedAffinity -4.56184721
REMARK minimizedRMSD -1
REMARK  1 active torsions:
REMARK  status: ('A' for Active; 'I' for Inactive)
REMARK    1  A    between atoms: C1_2  and  C2_3 
ROOT
ATOM      1  C2  UNL d   1      -1.240   0.064  -1.574  0.00  0.00    -0.081 A 
ATOM      2  C3  UNL d   1      -1.417  -1.212  -2.123  0.00  0.00     0.006 A 
ATOM      3  C4  UNL d   1      -0.368  -1.847  -2.791  0.00  0.00     0.002 A 
ATOM      4  C5  UNL d   1       0.877  -1.222  -2.914  0.00  0.00    -0.080 A 
ATOM      5  C6  UNL d   1       2.021  -1.905  -3.603  0.00  0.00     0.076 C 
ATOM      6  C7  UNL d   1       1.049   0.060  -2.381  0.00  0.00     0.002 A 
ATOM      7  C8  UNL d   1       0.000   0.696  -1.713  0.00  0.00     0.006 A 
ENDROOT
BRANCH   1   8
ATOM      8  C1  UNL d   1      -2.350   0.725  -0.797  0.00  0.00     0.054 C 
ATOM      9  C   UNL d   1      -2.872  -0.186   0.305  0.00  0.00     0.018 C 
ENDBRANCH   1   8
TORSDOF 1
ENDMDL
