MODEL 1
REMARK minimizedAffinity -5.79963732
REMARK minimizedRMSD -1
REMARK  1 active torsions:
REMARK  status: ('A' for Active; 'I' for Inactive)
REMARK    1  A    between atoms: C1_2  and  C2_3 
ROOT
ATOM      1  C2  UNL d   1      -1.017  -1.180  -1.186  0.00  0.00    -0.081 A 
ATOM      2  C3  UNL d   1       0.148  -0.435  -0.967  0.00  0.00     0.006 A 
ATOM      3  C4  UNL d   1       0.496  -0.027   0.323  0.00  0.00     0.002 A 
ATOM      4  C5  UNL d   1      -0.310  -0.364   1.415  0.00  0.00    -0.080 A 
ATOM      5  C6  UNL d   1       0.068   0.041   2.809  0.00  0.00     0.076 C 
ATOM      6  C7  UNL d   1      -1.483  -1.093   1.195  0.00  0.00     0.002 A 
ATOM      7  C8  UNL d   1      -1.832  -1.500  -0.095  0.00  0.00     0.006 A 
ENDROOT
BRANCH   1   8
ATOM      8  C1  UNL d   1      -1.361  -1.676  -2.567  0.00  0.00     0.054 C 
ATOM      9  C   UNL d   1      -0.181  -2.390  -3.209  0.00  0.00     0.018 C 
ENDBRANCH   1   8
TORSDOF 1
ENDMDL
