MODEL 1
REMARK minimizedAffinity -4.17858982
REMARK minimizedRMSD -1
REMARK  1 active torsions:
REMARK  status: ('A' for Active; 'I' for Inactive)
REMARK    1  A    between atoms: C1_2  and  C2_3 
ROOT
ATOM      1  C2  UNL d   1      -0.067  -0.744  -0.995  0.00  0.00    -0.081 A 
ATOM      2  C3  UNL d   1       1.105  -1.023  -0.281  0.00  0.00     0.006 A 
ATOM      3  C4  UNL d   1       1.208  -0.684   1.070  0.00  0.00     0.002 A 
ATOM      4  C5  UNL d   1       0.140  -0.069   1.732  0.00  0.00    -0.080 A 
ATOM      5  C6  UNL d   1       0.227   0.272   3.190  0.00  0.00     0.076 C 
ATOM      6  C7  UNL d   1      -1.025   0.225   1.015  0.00  0.00     0.002 A 
ATOM      7  C8  UNL d   1      -1.129  -0.113  -0.336  0.00  0.00     0.006 A 
ENDROOT
BRANCH   1   8
ATOM      8  C1  UNL d   1      -0.206  -1.167  -2.435  0.00  0.00     0.054 C 
ATOM      9  C   UNL d   1       1.147  -1.222  -3.128  0.00  0.00     0.018 C 
ENDBRANCH   1   8
TORSDOF 1
ENDMDL
