MODEL 1
REMARK minimizedAffinity 5.30232334
REMARK minimizedRMSD -1
REMARK  0 active torsions:
REMARK  status: ('A' for Active; 'I' for Inactive)
ROOT
ATOM      1  C   UNL d   1       4.401   5.998  -5.185  0.00  0.00     0.172 C 
ATOM      2  N   UNL d   1       4.794   4.691  -4.714  0.00  0.00    -0.070 N 
ATOM      3  C1  UNL d   1       4.037   3.553  -4.793  0.00  0.00    -0.004 A 
ATOM      4  C2  UNL d   1       4.764   2.523  -4.236  0.00  0.00    -0.047 A 
ATOM      5  C3  UNL d   1       6.000   3.061  -3.806  0.00  0.00    -0.047 A 
ATOM      6  C4  UNL d   1       5.992   4.405  -4.114  0.00  0.00    -0.004 A 
ENDROOT
TORSDOF 0
ENDMDL
