MODEL 1
REMARK minimizedAffinity -2.09620452
REMARK minimizedRMSD -1
REMARK  0 active torsions:
REMARK  status: ('A' for Active; 'I' for Inactive)
ROOT
ATOM      1  C   UNL d   1       5.282  -1.490   5.936  0.00  0.00     0.172 C 
ATOM      2  N   UNL d   1       5.500  -0.210   5.303  0.00  0.00    -0.070 N 
ATOM      3  C1  UNL d   1       5.341   0.058   3.969  0.00  0.00    -0.004 A 
ATOM      4  C2  UNL d   1       5.644   1.387   3.767  0.00  0.00    -0.047 A 
ATOM      5  C3  UNL d   1       5.998   1.937   5.023  0.00  0.00    -0.047 A 
ATOM      6  C4  UNL d   1       5.900   0.926   5.955  0.00  0.00    -0.004 A 
ENDROOT
TORSDOF 0
ENDMDL
