MODEL 1
REMARK minimizedAffinity -2.76636553
REMARK minimizedRMSD -1
REMARK  0 active torsions:
REMARK  status: ('A' for Active; 'I' for Inactive)
ROOT
ATOM      1  C   UNL d   1       6.000   1.853   2.753  0.00  0.00     0.172 C 
ATOM      2  N   UNL d   1       5.699   1.041   3.909  0.00  0.00    -0.070 N 
ATOM      3  C1  UNL d   1       5.588   1.494   5.196  0.00  0.00    -0.004 A 
ATOM      4  C2  UNL d   1       5.293   0.414   6.000  0.00  0.00    -0.047 A 
ATOM      5  C3  UNL d   1       5.225  -0.727   5.167  0.00  0.00    -0.047 A 
ATOM      6  C4  UNL d   1       5.480  -0.311   3.877  0.00  0.00    -0.004 A 
ENDROOT
TORSDOF 0
ENDMDL
