MODEL 1
REMARK minimizedAffinity -2.12099409
REMARK minimizedRMSD -1
REMARK  0 active torsions:
REMARK  status: ('A' for Active; 'I' for Inactive)
ROOT
ATOM      1  C   UNL d   1       5.688  -0.329   4.177  0.00  0.00     0.172 C 
ATOM      2  N   UNL d   1       5.764   1.113   4.151  0.00  0.00    -0.070 N 
ATOM      3  C1  UNL d   1       5.993   1.880   3.040  0.00  0.00    -0.004 A 
ATOM      4  C2  UNL d   1       5.990   3.202   3.432  0.00  0.00    -0.047 A 
ATOM      5  C3  UNL d   1       5.752   3.229   4.827  0.00  0.00    -0.047 A 
ATOM      6  C4  UNL d   1       5.616   1.922   5.246  0.00  0.00    -0.004 A 
ENDROOT
TORSDOF 0
ENDMDL
