MODEL 1
REMARK minimizedAffinity -2.98367238
REMARK minimizedRMSD -1
REMARK  0 active torsions:
REMARK  status: ('A' for Active; 'I' for Inactive)
ROOT
ATOM      1  C   UNL d   1       4.912  -2.978   4.151  0.00  0.00     0.172 C 
ATOM      2  N   UNL d   1       5.271  -1.580   4.183  0.00  0.00    -0.070 N 
ATOM      3  C1  UNL d   1       5.311  -0.741   3.101  0.00  0.00    -0.004 A 
ATOM      4  C2  UNL d   1       5.697   0.504   3.546  0.00  0.00    -0.047 A 
ATOM      5  C3  UNL d   1       5.897   0.411   4.944  0.00  0.00    -0.047 A 
ATOM      6  C4  UNL d   1       5.627  -0.890   5.311  0.00  0.00    -0.004 A 
ENDROOT
TORSDOF 0
ENDMDL
