MODEL 1
REMARK minimizedAffinity -1.54766583
REMARK minimizedRMSD -1
REMARK  0 active torsions:
REMARK  status: ('A' for Active; 'I' for Inactive)
ROOT
ATOM      1  C   UNL d   1       4.929  -0.925   5.929  0.00  0.00     0.172 C 
ATOM      2  N   UNL d   1       5.168   0.225   5.088  0.00  0.00    -0.070 N 
ATOM      3  C1  UNL d   1       4.606   1.463   5.250  0.00  0.00    -0.004 A 
ATOM      4  C2  UNL d   1       5.086   2.279   4.249  0.00  0.00    -0.047 A 
ATOM      5  C3  UNL d   1       5.967   1.504   3.457  0.00  0.00    -0.047 A 
ATOM      6  C4  UNL d   1       5.999   0.237   3.999  0.00  0.00    -0.004 A 
ENDROOT
TORSDOF 0
ENDMDL
