MODEL 1
REMARK minimizedAffinity -1.62269104
REMARK minimizedRMSD -1
REMARK  0 active torsions:
REMARK  status: ('A' for Active; 'I' for Inactive)
ROOT
ATOM      1  C   UNL d   1       5.892   3.546   4.858  0.00  0.00     0.172 C 
ATOM      2  N   UNL d   1       5.860   2.102   4.884  0.00  0.00    -0.070 N 
ATOM      3  C1  UNL d   1       5.687   1.328   6.000  0.00  0.00    -0.004 A 
ATOM      4  C2  UNL d   1       5.716   0.007   5.606  0.00  0.00    -0.047 A 
ATOM      5  C3  UNL d   1       5.914  -0.012   4.205  0.00  0.00    -0.047 A 
ATOM      6  C4  UNL d   1       6.000   1.298   3.784  0.00  0.00    -0.004 A 
ENDROOT
TORSDOF 0
ENDMDL
