MODEL 1
REMARK minimizedAffinity -0.827715158
REMARK minimizedRMSD -1
REMARK  0 active torsions:
REMARK  status: ('A' for Active; 'I' for Inactive)
ROOT
ATOM      1  C   UNL d   1       5.972   2.708   4.647  0.00  0.00     0.172 C 
ATOM      2  N   UNL d   1       5.976   1.272   4.806  0.00  0.00    -0.070 N 
ATOM      3  C1  UNL d   1       5.957   0.601   6.000  0.00  0.00    -0.004 A 
ATOM      4  C2  UNL d   1       5.968  -0.749   5.725  0.00  0.00    -0.047 A 
ATOM      5  C3  UNL d   1       5.995  -0.895   4.317  0.00  0.00    -0.047 A 
ATOM      6  C4  UNL d   1       5.999   0.373   3.773  0.00  0.00    -0.004 A 
ENDROOT
TORSDOF 0
ENDMDL
