MODEL 1
REMARK minimizedAffinity -3.31687164
REMARK minimizedRMSD -1
REMARK  0 active torsions:
REMARK  status: ('A' for Active; 'I' for Inactive)
ROOT
ATOM      1  C   UNL d   1       5.726   1.463   5.167  0.00  0.00     0.172 C 
ATOM      2  N   UNL d   1       5.728   0.105   4.675  0.00  0.00    -0.070 N 
ATOM      3  C1  UNL d   1       5.717  -1.024   5.450  0.00  0.00    -0.004 A 
ATOM      4  C2  UNL d   1       5.722  -2.114   4.607  0.00  0.00    -0.047 A 
ATOM      5  C3  UNL d   1       5.739  -1.624   3.280  0.00  0.00    -0.047 A 
ATOM      6  C4  UNL d   1       5.742  -0.247   3.351  0.00  0.00    -0.004 A 
ENDROOT
TORSDOF 0
ENDMDL
