MODEL 1
REMARK minimizedAffinity -2.57788444
REMARK minimizedRMSD -1
REMARK  0 active torsions:
REMARK  status: ('A' for Active; 'I' for Inactive)
ROOT
ATOM      1  C   UNL d   1       5.235   3.535   4.125  0.00  0.00     0.172 C 
ATOM      2  N   UNL d   1       5.378   2.187   4.625  0.00  0.00    -0.070 N 
ATOM      3  C1  UNL d   1       4.917   1.054   4.009  0.00  0.00    -0.004 A 
ATOM      4  C2  UNL d   1       5.252  -0.022   4.802  0.00  0.00    -0.047 A 
ATOM      5  C3  UNL d   1       5.936   0.481   5.934  0.00  0.00    -0.047 A 
ATOM      6  C4  UNL d   1       6.000   1.852   5.799  0.00  0.00    -0.004 A 
ENDROOT
TORSDOF 0
ENDMDL
