MODEL 1
REMARK minimizedAffinity -1.24479377
REMARK minimizedRMSD -1
REMARK  0 active torsions:
REMARK  status: ('A' for Active; 'I' for Inactive)
ROOT
ATOM      1  C   UNL d   1       5.794  -2.633   5.318  0.00  0.00     0.172 C 
ATOM      2  N   UNL d   1       5.562  -1.233   5.049  0.00  0.00    -0.070 N 
ATOM      3  C1  UNL d   1       4.875  -0.368   5.859  0.00  0.00    -0.004 A 
ATOM      4  C2  UNL d   1       4.876   0.869   5.252  0.00  0.00    -0.047 A 
ATOM      5  C3  UNL d   1       5.587   0.743   4.034  0.00  0.00    -0.047 A 
ATOM      6  C4  UNL d   1       6.000  -0.569   3.934  0.00  0.00    -0.004 A 
ENDROOT
TORSDOF 0
ENDMDL
