MODEL 1
REMARK minimizedAffinity -3.04897976
REMARK minimizedRMSD -1
REMARK  0 active torsions:
REMARK  status: ('A' for Active; 'I' for Inactive)
ROOT
ATOM      1  C   UNL d   1       5.607   0.397   5.121  0.00  0.00     0.172 C 
ATOM      2  N   UNL d   1       5.578   1.602   4.325  0.00  0.00    -0.070 N 
ATOM      3  C1  UNL d   1       5.953   1.700   3.012  0.00  0.00    -0.004 A 
ATOM      4  C2  UNL d   1       5.778   3.009   2.620  0.00  0.00    -0.047 A 
ATOM      5  C3  UNL d   1       5.283   3.723   3.737  0.00  0.00    -0.047 A 
ATOM      6  C4  UNL d   1       5.169   2.828   4.779  0.00  0.00    -0.004 A 
ENDROOT
TORSDOF 0
ENDMDL
