MODEL 1
REMARK minimizedAffinity 1.10069704
REMARK minimizedRMSD -1
REMARK  0 active torsions:
REMARK  status: ('A' for Active; 'I' for Inactive)
ROOT
ATOM      1  C   UNL d   1       5.999   0.650   4.453  0.00  0.00     0.172 C 
ATOM      2  N   UNL d   1       5.998   2.082   4.264  0.00  0.00    -0.070 N 
ATOM      3  C1  UNL d   1       5.998   2.727   3.056  0.00  0.00    -0.004 A 
ATOM      4  C2  UNL d   1       5.997   4.083   3.302  0.00  0.00    -0.047 A 
ATOM      5  C3  UNL d   1       5.998   4.259   4.707  0.00  0.00    -0.047 A 
ATOM      6  C4  UNL d   1       5.999   3.003   5.277  0.00  0.00    -0.004 A 
ENDROOT
TORSDOF 0
ENDMDL
