MODEL 1
REMARK minimizedAffinity -1.91171908
REMARK minimizedRMSD -1
REMARK  0 active torsions:
REMARK  status: ('A' for Active; 'I' for Inactive)
ROOT
ATOM      1  C   UNL d   1       4.952   3.535   4.137  0.00  0.00     0.172 C 
ATOM      2  N   UNL d   1       5.217   2.117   4.193  0.00  0.00    -0.070 N 
ATOM      3  C1  UNL d   1       6.000   1.415   3.316  0.00  0.00    -0.004 A 
ATOM      4  C2  UNL d   1       6.000   0.095   3.712  0.00  0.00    -0.047 A 
ATOM      5  C3  UNL d   1       5.188   0.000   4.868  0.00  0.00    -0.047 A 
ATOM      6  C4  UNL d   1       4.717   1.266   5.144  0.00  0.00    -0.004 A 
ENDROOT
TORSDOF 0
ENDMDL
