MODEL 1
REMARK minimizedAffinity -2.64032555
REMARK minimizedRMSD -1
REMARK  0 active torsions:
REMARK  status: ('A' for Active; 'I' for Inactive)
ROOT
ATOM      1  C   UNL d   1       5.997  -0.086   5.012  0.00  0.00     0.172 C 
ATOM      2  N   UNL d   1       5.996   1.317   4.671  0.00  0.00    -0.070 N 
ATOM      3  C1  UNL d   1       5.995   2.355   5.564  0.00  0.00    -0.004 A 
ATOM      4  C2  UNL d   1       5.994   3.531   4.845  0.00  0.00    -0.047 A 
ATOM      5  C3  UNL d   1       5.993   3.187   3.472  0.00  0.00    -0.047 A 
ATOM      6  C4  UNL d   1       5.994   1.811   3.393  0.00  0.00    -0.004 A 
ENDROOT
TORSDOF 0
ENDMDL
