MODEL 1
REMARK minimizedAffinity -2.51643324
REMARK minimizedRMSD -1
REMARK  0 active torsions:
REMARK  status: ('A' for Active; 'I' for Inactive)
ROOT
ATOM      1  C   UNL d   1       5.243   1.719   3.752  0.00  0.00     0.172 C 
ATOM      2  N   UNL d   1       5.253   3.096   3.317  0.00  0.00    -0.070 N 
ATOM      3  C1  UNL d   1       6.000   3.602   2.287  0.00  0.00    -0.004 A 
ATOM      4  C2  UNL d   1       5.728   4.949   2.190  0.00  0.00    -0.047 A 
ATOM      5  C3  UNL d   1       4.785   5.264   3.198  0.00  0.00    -0.047 A 
ATOM      6  C4  UNL d   1       4.509   4.098   3.880  0.00  0.00    -0.004 A 
ENDROOT
TORSDOF 0
ENDMDL
