MODEL 1
REMARK minimizedAffinity 6.32006502
REMARK minimizedRMSD -1
REMARK  0 active torsions:
REMARK  status: ('A' for Active; 'I' for Inactive)
ROOT
ATOM      1  C   UNL d   1       2.047  -4.833   1.193  0.00  0.00     0.020 A 
ATOM      2  C1  UNL d   1       2.765  -4.319   0.114  0.00  0.00     0.020 A 
ATOM      3  C2  UNL d   1       2.842  -2.938  -0.079  0.00  0.00     0.034 A 
ATOM      4  C3  UNL d   1       2.201  -2.066   0.809  0.00  0.00     0.017 A 
ATOM      5  C4  UNL d   1       1.481  -2.583   1.892  0.00  0.00     0.017 A 
ATOM      6  C5  UNL d   1       1.407  -3.967   2.080  0.00  0.00     0.034 A 
ATOM      7 Cl   UNL d   1       0.664  -1.571   3.030  0.00  0.00    -0.070 Cl
ATOM      8 Cl1  UNL d   1       2.339  -0.370   0.510  0.00  0.00    -0.070 Cl
ENDROOT
TORSDOF 0
ENDMDL
