MODEL 1
REMARK minimizedAffinity 0.907773614
REMARK minimizedRMSD -1
REMARK  0 active torsions:
REMARK  status: ('A' for Active; 'I' for Inactive)
ROOT
ATOM      1  C   UNL d   1       0.281  -0.633   3.343  0.00  0.00     0.020 A 
ATOM      2  C1  UNL d   1      -0.731  -1.406   2.775  0.00  0.00     0.020 A 
ATOM      3  C2  UNL d   1      -0.406  -2.510   1.984  0.00  0.00     0.034 A 
ATOM      4  C3  UNL d   1       0.934  -2.844   1.759  0.00  0.00     0.017 A 
ATOM      5  C4  UNL d   1       1.949  -2.068   2.330  0.00  0.00     0.017 A 
ATOM      6  C5  UNL d   1       1.618  -0.963   3.121  0.00  0.00     0.034 A 
ATOM      7 Cl   UNL d   1       3.626  -2.417   2.097  0.00  0.00    -0.070 Cl
ATOM      8 Cl1  UNL d   1       1.264  -4.222   0.770  0.00  0.00    -0.070 Cl
ENDROOT
TORSDOF 0
ENDMDL
