MODEL 1
REMARK minimizedAffinity 0.270504773
REMARK minimizedRMSD -1
REMARK  0 active torsions:
REMARK  status: ('A' for Active; 'I' for Inactive)
ROOT
ATOM      1  C   UNL d   1       2.037  -2.292   1.114  0.00  0.00     0.020 A 
ATOM      2  C1  UNL d   1       1.057  -3.034   1.772  0.00  0.00     0.020 A 
ATOM      3  C2  UNL d   1       0.001  -2.384   2.413  0.00  0.00     0.034 A 
ATOM      4  C3  UNL d   1      -0.078  -0.986   2.398  0.00  0.00     0.017 A 
ATOM      5  C4  UNL d   1       0.905  -0.242   1.737  0.00  0.00     0.017 A 
ATOM      6  C5  UNL d   1       1.961  -0.899   1.096  0.00  0.00     0.034 A 
ATOM      7 Cl   UNL d   1       0.875   1.485   1.674  0.00  0.00    -0.070 Cl
ATOM      8 Cl1  UNL d   1      -1.412  -0.248   3.211  0.00  0.00    -0.070 Cl
ENDROOT
TORSDOF 0
ENDMDL
