MODEL 1
REMARK minimizedAffinity 4.78627586
REMARK minimizedRMSD -1
REMARK  0 active torsions:
REMARK  status: ('A' for Active; 'I' for Inactive)
ROOT
ATOM      1  C   UNL d   1       1.071  -2.291   0.237  0.00  0.00     0.020 A 
ATOM      2  C1  UNL d   1       1.725  -2.822   1.348  0.00  0.00     0.020 A 
ATOM      3  C2  UNL d   1       1.209  -2.611   2.629  0.00  0.00     0.034 A 
ATOM      4  C3  UNL d   1       0.035  -1.869   2.801  0.00  0.00     0.017 A 
ATOM      5  C4  UNL d   1      -0.621  -1.337   1.685  0.00  0.00     0.017 A 
ATOM      6  C5  UNL d   1      -0.100  -1.551   0.405  0.00  0.00     0.034 A 
ATOM      7 Cl   UNL d   1      -2.074  -0.411   1.818  0.00  0.00    -0.070 Cl
ATOM      8 Cl1  UNL d   1      -0.547  -1.649   4.413  0.00  0.00    -0.070 Cl
ENDROOT
TORSDOF 0
ENDMDL
