MODEL 1
REMARK minimizedAffinity 6.73388577
REMARK minimizedRMSD -1
REMARK  0 active torsions:
REMARK  status: ('A' for Active; 'I' for Inactive)
ROOT
ATOM      1  C   UNL d   1       5.999   2.240   0.143  0.00  0.00     0.020 A 
ATOM      2  C1  UNL d   1       5.999   1.779   1.459  0.00  0.00     0.020 A 
ATOM      3  C2  UNL d   1       5.998   0.406   1.718  0.00  0.00     0.034 A 
ATOM      4  C3  UNL d   1       5.997  -0.509   0.659  0.00  0.00     0.017 A 
ATOM      5  C4  UNL d   1       5.998  -0.045  -0.661  0.00  0.00     0.017 A 
ATOM      6  C5  UNL d   1       5.999   1.330  -0.914  0.00  0.00     0.034 A 
ATOM      7 Cl   UNL d   1       5.997  -1.114  -2.019  0.00  0.00    -0.070 Cl
ATOM      8 Cl1  UNL d   1       5.996  -2.192   1.053  0.00  0.00    -0.070 Cl
ENDROOT
TORSDOF 0
ENDMDL
