MODEL 1
REMARK minimizedAffinity 7.09235287
REMARK minimizedRMSD -1
REMARK  0 active torsions:
REMARK  status: ('A' for Active; 'I' for Inactive)
ROOT
ATOM      1  C   UNL d   1       3.259  -2.310   1.046  0.00  0.00     0.020 A 
ATOM      2  C1  UNL d   1       2.821  -2.746   2.296  0.00  0.00     0.020 A 
ATOM      3  C2  UNL d   1       1.467  -2.668   2.626  0.00  0.00     0.034 A 
ATOM      4  C3  UNL d   1       0.546  -2.154   1.706  0.00  0.00     0.017 A 
ATOM      5  C4  UNL d   1       0.987  -1.718   0.452  0.00  0.00     0.017 A 
ATOM      6  C5  UNL d   1       2.344  -1.798   0.126  0.00  0.00     0.034 A 
ATOM      7 Cl   UNL d   1      -0.090  -1.072  -0.736  0.00  0.00    -0.070 Cl
ATOM      8 Cl1  UNL d   1      -1.114  -2.088   2.182  0.00  0.00    -0.070 Cl
ENDROOT
TORSDOF 0
ENDMDL
