MODEL 1
REMARK minimizedAffinity 8.75844479
REMARK minimizedRMSD -1
REMARK  0 active torsions:
REMARK  status: ('A' for Active; 'I' for Inactive)
ROOT
ATOM      1  C   UNL d   1       1.558  -1.330   1.928  0.00  0.00     0.020 A 
ATOM      2  C1  UNL d   1       1.233  -1.818   0.663  0.00  0.00     0.020 A 
ATOM      3  C2  UNL d   1       1.744  -3.046   0.236  0.00  0.00     0.034 A 
ATOM      4  C3  UNL d   1       2.584  -3.788   1.075  0.00  0.00     0.017 A 
ATOM      5  C4  UNL d   1       2.909  -3.297   2.344  0.00  0.00     0.017 A 
ATOM      6  C5  UNL d   1       2.394  -2.068   2.767  0.00  0.00     0.034 A 
ATOM      7 Cl   UNL d   1       3.938  -4.157   3.435  0.00  0.00    -0.070 Cl
ATOM      8 Cl1  UNL d   1       3.179  -5.298   0.482  0.00  0.00    -0.070 Cl
ENDROOT
TORSDOF 0
ENDMDL
