MODEL 1
REMARK minimizedAffinity 11.0533409
REMARK minimizedRMSD -1
REMARK  0 active torsions:
REMARK  status: ('A' for Active; 'I' for Inactive)
ROOT
ATOM      1  C   UNL d   1       1.008  -2.047   0.227  0.00  0.00     0.020 A 
ATOM      2  C1  UNL d   1       2.274  -2.564   0.502  0.00  0.00     0.020 A 
ATOM      3  C2  UNL d   1       2.702  -2.695   1.825  0.00  0.00     0.034 A 
ATOM      4  C3  UNL d   1       1.865  -2.308   2.877  0.00  0.00     0.017 A 
ATOM      5  C4  UNL d   1       0.595  -1.789   2.600  0.00  0.00     0.017 A 
ATOM      6  C5  UNL d   1       0.171  -1.660   1.274  0.00  0.00     0.034 A 
ATOM      7 Cl   UNL d   1      -0.495  -1.290   3.846  0.00  0.00    -0.070 Cl
ATOM      8 Cl1  UNL d   1       2.459  -2.498   4.488  0.00  0.00    -0.070 Cl
ENDROOT
TORSDOF 0
ENDMDL
