MODEL 1
REMARK minimizedAffinity 11.8851175
REMARK minimizedRMSD -1
REMARK  1 active torsions:
REMARK  status: ('A' for Active; 'I' for Inactive)
REMARK    1  A    between atoms: N_2  and  C1_3 
ROOT
ATOM      1  C1  UNL d   1       0.764   1.016   2.269  0.00  0.00     0.143 A 
ATOM      2  C2  UNL d   1       0.345   2.276   1.828  0.00  0.00    -0.057 A 
ATOM      3  C3  UNL d   1       0.973   2.914   0.752  0.00  0.00     0.033 A 
ATOM      4  C4  UNL d   1       2.054   2.314   0.114  0.00  0.00    -0.042 A 
ATOM      5  C5  UNL d   1       2.503   1.073   0.552  0.00  0.00     0.033 A 
ATOM      6  C6  UNL d   1       1.867   0.438   1.623  0.00  0.00    -0.057 A 
ENDROOT
BRANCH   1   7
ATOM      7  N   UNL d   1       0.244   0.374   3.396  0.00  0.00    -0.732 N 
ATOM      8  C   UNL d   1       0.951  -0.731   4.006  0.00  0.00     0.284 C 
ATOM      9  H3  UNL d   1      -0.161   1.027   4.063  0.00  0.00     0.395 HD
ENDBRANCH   1   7
TORSDOF 1
ENDMDL
