MODEL 1
REMARK minimizedAffinity 17.1269627
REMARK minimizedRMSD -1
REMARK  1 active torsions:
REMARK  status: ('A' for Active; 'I' for Inactive)
REMARK    1  A    between atoms: N_2  and  C1_3 
ROOT
ATOM      1  C1  UNL d   1       3.080   3.514   0.285  0.00  0.00     0.143 A 
ATOM      2  C2  UNL d   1       1.762   3.886   0.571  0.00  0.00    -0.057 A 
ATOM      3  C3  UNL d   1       0.761   2.925   0.755  0.00  0.00     0.033 A 
ATOM      4  C4  UNL d   1       1.055   1.571   0.627  0.00  0.00    -0.042 A 
ATOM      5  C5  UNL d   1       2.353   1.180   0.318  0.00  0.00     0.033 A 
ATOM      6  C6  UNL d   1       3.350   2.144   0.142  0.00  0.00    -0.057 A 
ENDROOT
BRANCH   1   7
ATOM      7  N   UNL d   1       4.099   4.425  -0.007  0.00  0.00    -0.732 N 
ATOM      8  C   UNL d   1       3.981   5.813   0.384  0.00  0.00     0.284 C 
ATOM      9  H3  UNL d   1       5.026   4.030   0.137  0.00  0.00     0.395 HD
ENDBRANCH   1   7
TORSDOF 1
ENDMDL
