MODEL 1
REMARK minimizedAffinity 9.05346107
REMARK minimizedRMSD -1
REMARK  1 active torsions:
REMARK  status: ('A' for Active; 'I' for Inactive)
REMARK    1  A    between atoms: N_2  and  C1_3 
ROOT
ATOM      1  C1  UNL d   1       1.330   2.867   1.471  0.00  0.00     0.143 A 
ATOM      2  C2  UNL d   1       0.573   2.357   2.531  0.00  0.00    -0.057 A 
ATOM      3  C3  UNL d   1       0.780   1.058   3.012  0.00  0.00     0.033 A 
ATOM      4  C4  UNL d   1       1.731   0.234   2.420  0.00  0.00    -0.042 A 
ATOM      5  C5  UNL d   1       2.478   0.711   1.349  0.00  0.00     0.033 A 
ATOM      6  C6  UNL d   1       2.272   2.011   0.878  0.00  0.00    -0.057 A 
ENDROOT
BRANCH   1   7
ATOM      7  N   UNL d   1       1.105   4.114   0.884  0.00  0.00    -0.732 N 
ATOM      8  C   UNL d   1      -0.212   4.477   0.408  0.00  0.00     0.284 C 
ATOM      9  H3  UNL d   1       1.594   4.865   1.366  0.00  0.00     0.395 HD
ENDBRANCH   1   7
TORSDOF 1
ENDMDL
