MODEL 1
REMARK minimizedAffinity 3.59610486
REMARK minimizedRMSD -1
REMARK  1 active torsions:
REMARK  status: ('A' for Active; 'I' for Inactive)
REMARK    1  A    between atoms: N_2  and  C1_3 
ROOT
ATOM      1  C1  UNL d   1      -3.784  -3.875  -2.688  0.00  0.00     0.143 A 
ATOM      2  C2  UNL d   1      -3.784  -5.105  -2.023  0.00  0.00    -0.057 A 
ATOM      3  C3  UNL d   1      -4.857  -5.996  -2.145  0.00  0.00     0.033 A 
ATOM      4  C4  UNL d   1      -5.966  -5.658  -2.914  0.00  0.00    -0.042 A 
ATOM      5  C5  UNL d   1      -5.998  -4.429  -3.564  0.00  0.00     0.033 A 
ATOM      6  C6  UNL d   1      -4.921  -3.547  -3.443  0.00  0.00    -0.057 A 
ENDROOT
BRANCH   1   7
ATOM      7  N   UNL d   1      -2.791  -2.904  -2.528  0.00  0.00    -0.732 N 
ATOM      8  C   UNL d   1      -2.313  -2.550  -1.209  0.00  0.00     0.284 C 
ATOM      9  H3  UNL d   1      -2.059  -2.979  -3.230  0.00  0.00     0.395 HD
ENDBRANCH   1   7
TORSDOF 1
ENDMDL
