MODEL 1
REMARK minimizedAffinity 9.50447273
REMARK minimizedRMSD -1
REMARK  1 active torsions:
REMARK  status: ('A' for Active; 'I' for Inactive)
REMARK    1  A    between atoms: N_2  and  C1_3 
ROOT
ATOM      1  C1  UNL d   1      -3.553  -4.960  -2.262  0.00  0.00     0.143 A 
ATOM      2  C2  UNL d   1      -3.770  -3.611  -1.961  0.00  0.00    -0.057 A 
ATOM      3  C3  UNL d   1      -2.865  -2.622  -2.363  0.00  0.00     0.033 A 
ATOM      4  C4  UNL d   1      -1.706  -2.969  -3.050  0.00  0.00    -0.042 A 
ATOM      5  C5  UNL d   1      -1.457  -4.306  -3.338  0.00  0.00     0.033 A 
ATOM      6  C6  UNL d   1      -2.368  -5.289  -2.940  0.00  0.00    -0.057 A 
ENDROOT
BRANCH   1   7
ATOM      7  N   UNL d   1      -4.365  -6.000  -1.804  0.00  0.00    -0.732 N 
ATOM      8  C   UNL d   1      -5.804  -5.928  -1.946  0.00  0.00     0.284 C 
ATOM      9  H3  UNL d   1      -3.973  -6.917  -2.006  0.00  0.00     0.395 HD
ENDBRANCH   1   7
TORSDOF 1
ENDMDL
