MODEL 1
REMARK minimizedAffinity 0.306099206
REMARK minimizedRMSD -1
REMARK  1 active torsions:
REMARK  status: ('A' for Active; 'I' for Inactive)
REMARK    1  A    between atoms: N_2  and  C1_3 
ROOT
ATOM      1  C1  UNL d   1       1.880   4.354  -3.955  0.00  0.00     0.143 A 
ATOM      2  C2  UNL d   1       2.441   3.358  -4.762  0.00  0.00    -0.057 A 
ATOM      3  C3  UNL d   1       3.386   3.669  -5.747  0.00  0.00     0.033 A 
ATOM      4  C4  UNL d   1       3.766   4.989  -5.964  0.00  0.00    -0.042 A 
ATOM      5  C5  UNL d   1       3.203   5.998  -5.191  0.00  0.00     0.033 A 
ATOM      6  C6  UNL d   1       2.265   5.681  -4.203  0.00  0.00    -0.057 A 
ENDROOT
BRANCH   1   7
ATOM      7  N   UNL d   1       0.864   4.121  -3.025  0.00  0.00    -0.732 N 
ATOM      8  C   UNL d   1       0.735   2.831  -2.382  0.00  0.00     0.284 C 
ATOM      9  H3  UNL d   1       0.718   4.913  -2.403  0.00  0.00     0.395 HD
ENDBRANCH   1   7
TORSDOF 1
ENDMDL
