MODEL 1
REMARK minimizedAffinity 12.8344202
REMARK minimizedRMSD -1
REMARK  1 active torsions:
REMARK  status: ('A' for Active; 'I' for Inactive)
REMARK    1  A    between atoms: N_2  and  C1_3 
ROOT
ATOM      1  C1  UNL d   1       3.059   1.656  -4.000  0.00  0.00     0.143 A 
ATOM      2  C2  UNL d   1       1.846   2.297  -3.723  0.00  0.00    -0.057 A 
ATOM      3  C3  UNL d   1       1.528   2.722  -2.428  0.00  0.00     0.033 A 
ATOM      4  C4  UNL d   1       2.408   2.487  -1.376  0.00  0.00    -0.042 A 
ATOM      5  C5  UNL d   1       3.608   1.829  -1.623  0.00  0.00     0.033 A 
ATOM      6  C6  UNL d   1       3.923   1.413  -2.921  0.00  0.00    -0.057 A 
ENDROOT
BRANCH   1   7
ATOM      7  N   UNL d   1       3.390   1.123  -5.248  0.00  0.00    -0.732 N 
ATOM      8  C   UNL d   1       3.694  -0.285  -5.390  0.00  0.00     0.284 C 
ATOM      9  H3  UNL d   1       2.815   1.502  -5.997  0.00  0.00     0.395 HD
ENDBRANCH   1   7
TORSDOF 1
ENDMDL
