MODEL 1
REMARK minimizedAffinity 8.26551628
REMARK minimizedRMSD -1
REMARK  1 active torsions:
REMARK  status: ('A' for Active; 'I' for Inactive)
REMARK    1  A    between atoms: N_2  and  C1_3 
ROOT
ATOM      1  C1  UNL d   1       2.172   1.428  -1.680  0.00  0.00     0.143 A 
ATOM      2  C2  UNL d   1       3.278   0.769  -2.226  0.00  0.00    -0.057 A 
ATOM      3  C3  UNL d   1       3.785   1.119  -3.484  0.00  0.00     0.033 A 
ATOM      4  C4  UNL d   1       3.173   2.120  -4.232  0.00  0.00    -0.042 A 
ATOM      5  C5  UNL d   1       2.057   2.771  -3.720  0.00  0.00     0.033 A 
ATOM      6  C6  UNL d   1       1.560   2.421  -2.461  0.00  0.00    -0.057 A 
ENDROOT
BRANCH   1   7
ATOM      7  N   UNL d   1       1.561   1.059  -0.479  0.00  0.00    -0.732 N 
ATOM      8  C   UNL d   1       2.224   0.155   0.437  0.00  0.00     0.284 C 
ATOM      9  H3  UNL d   1       1.091   1.839  -0.026  0.00  0.00     0.395 HD
ENDBRANCH   1   7
TORSDOF 1
ENDMDL
