MODEL 1
REMARK minimizedAffinity 4.94012976
REMARK minimizedRMSD -1
REMARK  1 active torsions:
REMARK  status: ('A' for Active; 'I' for Inactive)
REMARK    1  A    between atoms: N_2  and  C1_3 
ROOT
ATOM      1  C1  UNL d   1      -5.744   2.471   5.325  0.00  0.00     0.143 A 
ATOM      2  C2  UNL d   1      -6.000   1.271   5.997  0.00  0.00    -0.057 A 
ATOM      3  C3  UNL d   1      -5.818   0.034   5.368  0.00  0.00     0.033 A 
ATOM      4  C4  UNL d   1      -5.403  -0.025   4.042  0.00  0.00    -0.042 A 
ATOM      5  C5  UNL d   1      -5.167   1.156   3.347  0.00  0.00     0.033 A 
ATOM      6  C6  UNL d   1      -5.344   2.388   3.982  0.00  0.00    -0.057 A 
ENDROOT
BRANCH   1   7
ATOM      7  N   UNL d   1      -6.000   3.734   5.864  0.00  0.00    -0.732 N 
ATOM      8  C   UNL d   1      -5.646   4.933   5.134  0.00  0.00     0.284 C 
ATOM      9  H3  UNL d   1      -6.903   3.782   6.329  0.00  0.00     0.395 HD
ENDBRANCH   1   7
TORSDOF 1
ENDMDL
