MODEL 1
REMARK minimizedAffinity 8.34259033
REMARK minimizedRMSD -1
REMARK  1 active torsions:
REMARK  status: ('A' for Active; 'I' for Inactive)
REMARK    1  A    between atoms: N_2  and  C1_3 
ROOT
ATOM      1  C1  UNL d   1      -4.566   1.050   3.476  0.00  0.00     0.143 A 
ATOM      2  C2  UNL d   1      -4.422   2.421   3.238  0.00  0.00    -0.057 A 
ATOM      3  C3  UNL d   1      -5.016   3.371   4.078  0.00  0.00     0.033 A 
ATOM      4  C4  UNL d   1      -5.793   2.964   5.158  0.00  0.00    -0.042 A 
ATOM      5  C5  UNL d   1      -5.970   1.606   5.399  0.00  0.00     0.033 A 
ATOM      6  C6  UNL d   1      -5.368   0.663   4.561  0.00  0.00    -0.057 A 
ENDROOT
BRANCH   1   7
ATOM      7  N   UNL d   1      -4.081   0.057   2.622  0.00  0.00    -0.732 N 
ATOM      8  C   UNL d   1      -2.969  -0.779   3.019  0.00  0.00     0.284 C 
ATOM      9  H3  UNL d   1      -4.828  -0.443   2.145  0.00  0.00     0.395 HD
ENDBRANCH   1   7
TORSDOF 1
ENDMDL
