MODEL 1
REMARK minimizedAffinity 12.8573627
REMARK minimizedRMSD -1
REMARK  1 active torsions:
REMARK  status: ('A' for Active; 'I' for Inactive)
REMARK    1  A    between atoms: N_2  and  C1_3 
ROOT
ATOM      1  C1  UNL d   1       2.410   0.846   0.574  0.00  0.00     0.143 A 
ATOM      2  C2  UNL d   1       1.387  -0.080   0.804  0.00  0.00    -0.057 A 
ATOM      3  C3  UNL d   1       0.401   0.152   1.770  0.00  0.00     0.033 A 
ATOM      4  C4  UNL d   1       0.438   1.305   2.548  0.00  0.00    -0.042 A 
ATOM      5  C5  UNL d   1       1.461   2.228   2.354  0.00  0.00     0.033 A 
ATOM      6  C6  UNL d   1       2.438   1.993   1.383  0.00  0.00    -0.057 A 
ENDROOT
BRANCH   1   7
ATOM      7  N   UNL d   1       3.475   0.627  -0.303  0.00  0.00    -0.732 N 
ATOM      8  C   UNL d   1       4.402   1.693  -0.618  0.00  0.00     0.284 C 
ATOM      9  H3  UNL d   1       3.916  -0.279  -0.161  0.00  0.00     0.395 HD
ENDBRANCH   1   7
TORSDOF 1
ENDMDL
