MODEL 1
REMARK minimizedAffinity 3.1586256
REMARK minimizedRMSD -1
REMARK  1 active torsions:
REMARK  status: ('A' for Active; 'I' for Inactive)
REMARK    1  A    between atoms: N_2  and  C1_3 
ROOT
ATOM      1  C1  UNL d   1      -1.251   2.196   1.429  0.00  0.00     0.143 A 
ATOM      2  C2  UNL d   1      -1.353   0.898   1.941  0.00  0.00    -0.057 A 
ATOM      3  C3  UNL d   1      -0.238   0.053   2.005  0.00  0.00     0.033 A 
ATOM      4  C4  UNL d   1       0.996   0.483   1.529  0.00  0.00    -0.042 A 
ATOM      5  C5  UNL d   1       1.115   1.760   0.993  0.00  0.00     0.033 A 
ATOM      6  C6  UNL d   1      -0.000   2.602   0.939  0.00  0.00    -0.057 A 
ENDROOT
BRANCH   1   7
ATOM      7  N   UNL d   1      -2.343   3.049   1.249  0.00  0.00    -0.732 N 
ATOM      8  C   UNL d   1      -2.945   3.209  -0.058  0.00  0.00     0.284 C 
ATOM      9  H3  UNL d   1      -3.014   2.987   2.011  0.00  0.00     0.395 HD
ENDBRANCH   1   7
TORSDOF 1
ENDMDL
