MODEL 1
REMARK minimizedAffinity 9.07863808
REMARK minimizedRMSD -1
REMARK  1 active torsions:
REMARK  status: ('A' for Active; 'I' for Inactive)
REMARK    1  A    between atoms: N_2  and  C1_3 
ROOT
ATOM      1  C1  UNL d   1      -0.487  -3.805  -4.443  0.00  0.00     0.143 A 
ATOM      2  C2  UNL d   1      -1.001  -3.759  -5.744  0.00  0.00    -0.057 A 
ATOM      3  C3  UNL d   1      -2.286  -3.265  -6.000  0.00  0.00     0.033 A 
ATOM      4  C4  UNL d   1      -3.094  -2.835  -4.952  0.00  0.00    -0.042 A 
ATOM      5  C5  UNL d   1      -2.613  -2.896  -3.649  0.00  0.00     0.033 A 
ATOM      6  C6  UNL d   1      -1.327  -3.384  -3.400  0.00  0.00    -0.057 A 
ENDROOT
BRANCH   1   7
ATOM      7  N   UNL d   1       0.745  -4.376  -4.113  0.00  0.00    -0.732 N 
ATOM      8  C   UNL d   1       1.982  -3.730  -4.494  0.00  0.00     0.284 C 
ATOM      9  H3  UNL d   1       0.752  -4.769  -3.175  0.00  0.00     0.395 HD
ENDBRANCH   1   7
TORSDOF 1
ENDMDL
