MODEL 1
REMARK minimizedAffinity 2.94983983
REMARK minimizedRMSD -1
REMARK  1 active torsions:
REMARK  status: ('A' for Active; 'I' for Inactive)
REMARK    1  A    between atoms: N_2  and  C1_3 
ROOT
ATOM      1  C1  UNL d   1      -3.907   1.960   3.729  0.00  0.00     0.143 A 
ATOM      2  C2  UNL d   1      -2.768   2.422   3.060  0.00  0.00    -0.057 A 
ATOM      3  C3  UNL d   1      -1.936   1.546   2.354  0.00  0.00     0.033 A 
ATOM      4  C4  UNL d   1      -2.212   0.183   2.328  0.00  0.00    -0.042 A 
ATOM      5  C5  UNL d   1      -3.325  -0.302   3.007  0.00  0.00     0.033 A 
ATOM      6  C6  UNL d   1      -4.156   0.579   3.705  0.00  0.00    -0.057 A 
ENDROOT
BRANCH   1   7
ATOM      7  N   UNL d   1      -4.719   2.767   4.530  0.00  0.00    -0.732 N 
ATOM      8  C   UNL d   1      -5.001   2.398   5.901  0.00  0.00     0.284 C 
ATOM      9  H3  UNL d   1      -4.534   3.758   4.396  0.00  0.00     0.395 HD
ENDBRANCH   1   7
TORSDOF 1
ENDMDL
