MODEL 1
REMARK minimizedAffinity -5.13382292
REMARK minimizedRMSD -1
REMARK  3 active torsions:
REMARK  status: ('A' for Active; 'I' for Inactive)
REMARK    1  A    between atoms: C3'_2  and  C2'_3 
REMARK    2  A    between atoms: C2'_3  and  C1'_4 
REMARK    3  A    between atoms: C1'_4  and  C1_5 
ROOT
ATOM      1  C1  N4B d   1       0.131   0.084   0.044  0.00  0.00    -0.075 A 
ATOM      2  C2  N4B d   1       0.666   0.005   1.348  0.00  0.00     0.002 A 
ATOM      3  C3  N4B d   1       0.255   0.891   2.314  0.00  0.00     0.002 A 
ATOM      4  C4  N4B d   1      -0.671   1.872   1.994  0.00  0.00    -0.004 A 
ATOM      5  C5  N4B d   1      -1.202   1.926   0.738  0.00  0.00     0.002 A 
ATOM      6  C6  N4B d   1      -0.801   1.040  -0.241  0.00  0.00     0.002 A 
ENDROOT
BRANCH   1   7
ATOM      7  C1' N4B d   1       0.613  -0.808  -1.068  0.00  0.00     0.057 C 
BRANCH   7   8
ATOM      8  C2' N4B d   1       0.459  -2.265  -0.643  0.00  0.00     0.009 C 
BRANCH   8   9
ATOM      9  C3' N4B d   1      -0.437  -3.042  -1.592  0.00  0.00     0.004 C 
ATOM     10  C4' N4B d   1      -1.023  -4.271  -0.963  0.00  0.00     0.003 C 
ENDBRANCH   8   9
ENDBRANCH   7   8
ENDBRANCH   1   7
TORSDOF 3
ENDMDL
