MODEL 1
REMARK minimizedAffinity -2.26464438
REMARK minimizedRMSD -1
REMARK  3 active torsions:
REMARK  status: ('A' for Active; 'I' for Inactive)
REMARK    1  A    between atoms: C3'_2  and  C2'_3 
REMARK    2  A    between atoms: C2'_3  and  C1'_4 
REMARK    3  A    between atoms: C1'_4  and  C1_5 
ROOT
ATOM      1  C1  N4B d   1       1.044  -0.306   2.702  0.00  0.00    -0.075 A 
ATOM      2  C2  N4B d   1       1.201   0.321   1.446  0.00  0.00     0.002 A 
ATOM      3  C3  N4B d   1       0.427   1.407   1.120  0.00  0.00     0.002 A 
ATOM      4  C4  N4B d   1      -0.518   1.872   2.022  0.00  0.00    -0.004 A 
ATOM      5  C5  N4B d   1      -0.645   1.278   3.243  0.00  0.00     0.002 A 
ATOM      6  C6  N4B d   1       0.128   0.187   3.586  0.00  0.00     0.002 A 
ENDROOT
BRANCH   1   7
ATOM      7  C1' N4B d   1       1.807  -1.549   3.070  0.00  0.00     0.057 C 
BRANCH   7   8
ATOM      8  C2' N4B d   1       2.220  -1.467   4.537  0.00  0.00     0.009 C 
BRANCH   8   9
ATOM      9  C3' N4B d   1       3.597  -2.062   4.773  0.00  0.00     0.004 C 
ATOM     10  C4' N4B d   1       4.283  -1.481   5.974  0.00  0.00     0.003 C 
ENDBRANCH   8   9
ENDBRANCH   7   8
ENDBRANCH   1   7
TORSDOF 3
ENDMDL
