MODEL 1
REMARK minimizedAffinity -5.53932667
REMARK minimizedRMSD -1
REMARK  3 active torsions:
REMARK  status: ('A' for Active; 'I' for Inactive)
REMARK    1  A    between atoms: C3'_2  and  C2'_3 
REMARK    2  A    between atoms: C2'_3  and  C1'_4 
REMARK    3  A    between atoms: C1'_4  and  C1_5 
ROOT
ATOM      1  C1  N4B d   1       0.157  -0.010   0.012  0.00  0.00    -0.075 A 
ATOM      2  C2  N4B d   1       0.734  -0.015   1.301  0.00  0.00     0.002 A 
ATOM      3  C3  N4B d   1       0.405   0.967   2.204  0.00  0.00     0.002 A 
ATOM      4  C4  N4B d   1      -0.479   1.970   1.835  0.00  0.00    -0.004 A 
ATOM      5  C5  N4B d   1      -1.051   1.952   0.597  0.00  0.00     0.002 A 
ATOM      6  C6  N4B d   1      -0.733   0.970  -0.319  0.00  0.00     0.002 A 
ENDROOT
BRANCH   1   7
ATOM      7  C1' N4B d   1       0.551  -1.013  -1.037  0.00  0.00     0.057 C 
BRANCH   7   8
ATOM      8  C2' N4B d   1      -0.690  -1.776  -1.492  0.00  0.00     0.009 C 
BRANCH   8   9
ATOM      9  C3' N4B d   1      -0.451  -3.275  -1.537  0.00  0.00     0.004 C 
ATOM     10  C4' N4B d   1       0.812  -3.683  -0.838  0.00  0.00     0.003 C 
ENDBRANCH   8   9
ENDBRANCH   7   8
ENDBRANCH   1   7
TORSDOF 3
ENDMDL
