MODEL 1
REMARK minimizedAffinity -3.44661808
REMARK minimizedRMSD -1
REMARK  3 active torsions:
REMARK  status: ('A' for Active; 'I' for Inactive)
REMARK    1  A    between atoms: C3'_2  and  C2'_3 
REMARK    2  A    between atoms: C2'_3  and  C1'_4 
REMARK    3  A    between atoms: C1'_4  and  C1_5 
ROOT
ATOM      1  C1  N4B d   1       0.092   0.336   0.580  0.00  0.00    -0.075 A 
ATOM      2  C2  N4B d   1      -0.958   0.767  -0.261  0.00  0.00     0.002 A 
ATOM      3  C3  N4B d   1      -1.648   1.917   0.037  0.00  0.00     0.002 A 
ATOM      4  C4  N4B d   1      -1.321   2.638   1.175  0.00  0.00    -0.004 A 
ATOM      5  C5  N4B d   1      -0.289   2.229   1.968  0.00  0.00     0.002 A 
ATOM      6  C6  N4B d   1       0.416   1.078   1.679  0.00  0.00     0.002 A 
ENDROOT
BRANCH   1   7
ATOM      7  C1' N4B d   1       0.818  -0.959   0.343  0.00  0.00     0.057 C 
BRANCH   7   8
ATOM      8  C2' N4B d   1       0.019  -1.809  -0.641  0.00  0.00     0.009 C 
BRANCH   8   9
ATOM      9  C3' N4B d   1       0.574  -3.218  -0.755  0.00  0.00     0.004 C 
ATOM     10  C4' N4B d   1      -0.476  -4.229  -1.111  0.00  0.00     0.003 C 
ENDBRANCH   8   9
ENDBRANCH   7   8
ENDBRANCH   1   7
TORSDOF 3
ENDMDL
