MODEL 1
REMARK minimizedAffinity 3.94412422
REMARK minimizedRMSD -1
REMARK  0 active torsions:
REMARK  status: ('A' for Active; 'I' for Inactive)
ROOT
ATOM      1  C   UNL d   1       1.242   3.657   0.812  0.00  0.00     0.124 A 
ATOM      2  C1  UNL d   1       0.517   3.073  -0.217  0.00  0.00     0.062 A 
ATOM      3  C2  UNL d   1       0.097   1.750  -0.114  0.00  0.00     0.162 A 
ATOM      4  C3  UNL d   1       0.400   1.002   1.023  0.00  0.00    -0.034 A 
ATOM      5  C4  UNL d   1       1.130   1.596   2.054  0.00  0.00     0.162 A 
ATOM      6  C5  UNL d   1       1.548   2.919   1.946  0.00  0.00     0.062 A 
ATOM      7  F   UNL d   1       2.248   3.482   2.942  0.00  0.00    -0.097 F 
ATOM      8  F1  UNL d   1       1.439   0.906   3.162  0.00  0.00    -0.096 F 
ATOM      9  I   UNL d   1      -0.226  -0.977   1.181  0.00  0.00    -0.060 I 
ATOM     10  F2  UNL d   1      -0.602   1.211  -1.124  0.00  0.00    -0.096 F 
ATOM     11  F3  UNL d   1       0.221   3.784  -1.315  0.00  0.00    -0.097 F 
ATOM     12  F4  UNL d   1       1.645   4.930   0.710  0.00  0.00    -0.092 F 
ENDROOT
TORSDOF 0
ENDMDL
