MODEL 1
REMARK minimizedAffinity -4.25409603
REMARK minimizedRMSD -1
REMARK  0 active torsions:
REMARK  status: ('A' for Active; 'I' for Inactive)
ROOT
ATOM      1  C   UNL d   1       0.240   1.268   0.362  0.00  0.00     0.124 A 
ATOM      2  C1  UNL d   1      -0.287   2.158  -0.564  0.00  0.00     0.062 A 
ATOM      3  C2  UNL d   1      -1.103   3.204  -0.144  0.00  0.00     0.162 A 
ATOM      4  C3  UNL d   1      -1.397   3.367   1.210  0.00  0.00    -0.034 A 
ATOM      5  C4  UNL d   1      -0.864   2.468   2.135  0.00  0.00     0.162 A 
ATOM      6  C5  UNL d   1      -0.049   1.424   1.710  0.00  0.00     0.062 A 
ATOM      7  F   UNL d   1       0.459   0.565   2.606  0.00  0.00    -0.097 F 
ATOM      8  F1  UNL d   1      -1.127   2.595   3.444  0.00  0.00    -0.096 F 
ATOM      9  I   UNL d   1      -2.617   4.930   1.843  0.00  0.00    -0.060 I 
ATOM     10  F2  UNL d   1      -1.598   4.049  -1.060  0.00  0.00    -0.096 F 
ATOM     11  F3  UNL d   1      -0.010   2.009  -1.868  0.00  0.00    -0.097 F 
ATOM     12  F4  UNL d   1       1.024   0.262  -0.046  0.00  0.00    -0.092 F 
ENDROOT
TORSDOF 0
ENDMDL
