MODEL 1
REMARK minimizedAffinity 12.4720907
REMARK minimizedRMSD -1
REMARK  0 active torsions:
REMARK  status: ('A' for Active; 'I' for Inactive)
ROOT
ATOM      1  C   UNL d   1      -1.660   3.675   1.036  0.00  0.00     0.124 A 
ATOM      2  C1  UNL d   1      -1.452   3.611  -0.335  0.00  0.00     0.062 A 
ATOM      3  C2  UNL d   1      -0.594   2.655  -0.869  0.00  0.00     0.162 A 
ATOM      4  C3  UNL d   1       0.063   1.753  -0.032  0.00  0.00    -0.034 A 
ATOM      5  C4  UNL d   1      -0.150   1.824   1.346  0.00  0.00     0.162 A 
ATOM      6  C5  UNL d   1      -1.008   2.782   1.875  0.00  0.00     0.062 A 
ATOM      7  F   UNL d   1      -1.207   2.842   3.200  0.00  0.00    -0.097 F 
ATOM      8  F1  UNL d   1       0.466   0.973   2.179  0.00  0.00    -0.096 F 
ATOM      9  I   UNL d   1       1.348   0.321  -0.827  0.00  0.00    -0.060 I 
ATOM     10  F2  UNL d   1      -0.413   2.616  -2.198  0.00  0.00    -0.096 F 
ATOM     11  F3  UNL d   1      -2.080   4.474  -1.147  0.00  0.00    -0.097 F 
ATOM     12  F4  UNL d   1      -2.485   4.597   1.547  0.00  0.00    -0.092 F 
ENDROOT
TORSDOF 0
ENDMDL
