MODEL 1
REMARK minimizedAffinity 7.91513538
REMARK minimizedRMSD -1
REMARK  0 active torsions:
REMARK  status: ('A' for Active; 'I' for Inactive)
ROOT
ATOM      1  C   UNL d   1      -1.364   3.550   2.125  0.00  0.00     0.124 A 
ATOM      2  C1  UNL d   1      -0.784   2.342   2.485  0.00  0.00     0.062 A 
ATOM      3  C2  UNL d   1      -0.262   1.498   1.510  0.00  0.00     0.162 A 
ATOM      4  C3  UNL d   1      -0.316   1.859   0.164  0.00  0.00    -0.034 A 
ATOM      5  C4  UNL d   1      -0.902   3.076  -0.191  0.00  0.00     0.162 A 
ATOM      6  C5  UNL d   1      -1.423   3.916   0.787  0.00  0.00     0.062 A 
ATOM      7  F   UNL d   1      -1.983   5.083   0.437  0.00  0.00    -0.097 F 
ATOM      8  F1  UNL d   1      -0.970   3.454  -1.476  0.00  0.00    -0.096 F 
ATOM      9  I   UNL d   1       0.464   0.599  -1.298  0.00  0.00    -0.060 I 
ATOM     10  F2  UNL d   1       0.293   0.336   1.887  0.00  0.00    -0.096 F 
ATOM     11  F3  UNL d   1      -0.728   1.986   3.777  0.00  0.00    -0.097 F 
ATOM     12  F4  UNL d   1      -1.867   4.360   3.065  0.00  0.00    -0.092 F 
ENDROOT
TORSDOF 0
ENDMDL
