MODEL 1
REMARK minimizedAffinity 10.9443092
REMARK minimizedRMSD -1
REMARK  0 active torsions:
REMARK  status: ('A' for Active; 'I' for Inactive)
ROOT
ATOM      1  C   UNL d   1       1.826  -0.772   1.199  0.00  0.00     0.124 A 
ATOM      2  C1  UNL d   1       1.826  -0.766  -0.189  0.00  0.00     0.062 A 
ATOM      3  C2  UNL d   1       0.689  -0.372  -0.887  0.00  0.00     0.162 A 
ATOM      4  C3  UNL d   1      -0.459   0.021  -0.199  0.00  0.00    -0.034 A 
ATOM      5  C4  UNL d   1      -0.452   0.011   1.197  0.00  0.00     0.162 A 
ATOM      6  C5  UNL d   1       0.687  -0.384   1.891  0.00  0.00     0.062 A 
ATOM      7  F   UNL d   1       0.685  -0.389   3.232  0.00  0.00    -0.097 F 
ATOM      8  F1  UNL d   1      -1.539   0.382   1.890  0.00  0.00    -0.096 F 
ATOM      9  I   UNL d   1      -2.162   0.610  -1.240  0.00  0.00    -0.060 I 
ATOM     10  F2  UNL d   1       0.718  -0.376  -2.228  0.00  0.00    -0.096 F 
ATOM     11  F3  UNL d   1       2.925  -1.141  -0.859  0.00  0.00    -0.097 F 
ATOM     12  F4  UNL d   1       2.921  -1.152   1.869  0.00  0.00    -0.092 F 
ENDROOT
TORSDOF 0
ENDMDL
