MODEL 1
REMARK minimizedAffinity -2.91071701
REMARK minimizedRMSD -1
REMARK  1 active torsions:
REMARK  status: ('A' for Active; 'I' for Inactive)
REMARK    1  A    between atoms: C1_2  and  C2_3 
ROOT
ATOM      1  C2  UNL d   1       5.743   1.263   4.882  0.00  0.00    -0.077 A 
ATOM      2  C3  UNL d   1       5.739   2.529   5.484  0.00  0.00     0.002 A 
ATOM      3  C4  UNL d   1       5.844   3.683   4.704  0.00  0.00     0.002 A 
ATOM      4  C5  UNL d   1       5.949   3.581   3.318  0.00  0.00    -0.004 A 
ATOM      5  C6  UNL d   1       5.956   2.327   2.710  0.00  0.00     0.002 A 
ATOM      6  C7  UNL d   1       5.853   1.173   3.488  0.00  0.00     0.002 A 
ENDROOT
BRANCH   1   7
ATOM      7  C1  UNL d   1       5.581   0.020   5.717  0.00  0.00     0.055 C 
ATOM      8  C   UNL d   1       6.000  -1.223   4.946  0.00  0.00     0.019 C 
ENDBRANCH   1   7
TORSDOF 1
ENDMDL
