MODEL 1
REMARK minimizedAffinity -2.17486119
REMARK minimizedRMSD -1
REMARK  1 active torsions:
REMARK  status: ('A' for Active; 'I' for Inactive)
REMARK    1  A    between atoms: C1_2  and  C2_3 
ROOT
ATOM      1  C2  UNL d   1       5.171   0.495   4.378  0.00  0.00    -0.077 A 
ATOM      2  C3  UNL d   1       5.648   0.732   3.082  0.00  0.00     0.002 A 
ATOM      3  C4  UNL d   1       6.000   2.023   2.684  0.00  0.00     0.002 A 
ATOM      4  C5  UNL d   1       5.883   3.086   3.577  0.00  0.00    -0.004 A 
ATOM      5  C6  UNL d   1       5.408   2.861   4.868  0.00  0.00     0.002 A 
ATOM      6  C7  UNL d   1       5.054   1.571   5.268  0.00  0.00     0.002 A 
ENDROOT
BRANCH   1   7
ATOM      7  C1  UNL d   1       4.837  -0.904   4.825  0.00  0.00     0.055 C 
ATOM      8  C   UNL d   1       5.706  -1.332   5.999  0.00  0.00     0.019 C 
ENDBRANCH   1   7
TORSDOF 1
ENDMDL
