MODEL 1
REMARK minimizedAffinity -3.96992207
REMARK minimizedRMSD -1
REMARK  1 active torsions:
REMARK  status: ('A' for Active; 'I' for Inactive)
REMARK    1  A    between atoms: C1_2  and  C2_3 
ROOT
ATOM      1  C2  UNL d   1       5.667   1.131   4.517  0.00  0.00    -0.077 A 
ATOM      2  C3  UNL d   1       6.000   1.031   3.158  0.00  0.00     0.002 A 
ATOM      3  C4  UNL d   1       5.992  -0.210   2.519  0.00  0.00     0.002 A 
ATOM      4  C5  UNL d   1       5.649  -1.359   3.228  0.00  0.00    -0.004 A 
ATOM      5  C6  UNL d   1       5.319  -1.270   4.580  0.00  0.00     0.002 A 
ATOM      6  C7  UNL d   1       5.327  -0.031   5.221  0.00  0.00     0.002 A 
ENDROOT
BRANCH   1   7
ATOM      7  C1  UNL d   1       5.628   2.475   5.196  0.00  0.00     0.055 C 
ATOM      8  C   UNL d   1       5.968   3.596   4.225  0.00  0.00     0.019 C 
ENDBRANCH   1   7
TORSDOF 1
ENDMDL
