MODEL 1
REMARK minimizedAffinity -2.46006441
REMARK minimizedRMSD -1
REMARK  1 active torsions:
REMARK  status: ('A' for Active; 'I' for Inactive)
REMARK    1  A    between atoms: C1_2  and  C2_3 
ROOT
ATOM      1  C2  UNL d   1       5.991   1.226   4.735  0.00  0.00    -0.077 A 
ATOM      2  C3  UNL d   1       5.990   2.621   4.878  0.00  0.00     0.002 A 
ATOM      3  C4  UNL d   1       5.995   3.446   3.751  0.00  0.00     0.002 A 
ATOM      4  C5  UNL d   1       5.996   2.887   2.475  0.00  0.00    -0.004 A 
ATOM      5  C6  UNL d   1       5.999   1.501   2.323  0.00  0.00     0.002 A 
ATOM      6  C7  UNL d   1       5.995   0.674   3.447  0.00  0.00     0.002 A 
ENDROOT
BRANCH   1   7
ATOM      7  C1  UNL d   1       5.937   0.335   5.948  0.00  0.00     0.055 C 
ATOM      8  C   UNL d   1       5.271  -0.996   5.627  0.00  0.00     0.019 C 
ENDBRANCH   1   7
TORSDOF 1
ENDMDL
