MODEL 1
REMARK minimizedAffinity 5.21260929
REMARK minimizedRMSD -1
REMARK  1 active torsions:
REMARK  status: ('A' for Active; 'I' for Inactive)
REMARK    1  A    between atoms: C1_2  and  C2_3 
ROOT
ATOM      1  C2  UNL d   1       5.586   2.834   3.853  0.00  0.00    -0.077 A 
ATOM      2  C3  UNL d   1       5.993   2.104   2.728  0.00  0.00     0.002 A 
ATOM      3  C4  UNL d   1       5.596   0.775   2.566  0.00  0.00     0.002 A 
ATOM      4  C5  UNL d   1       4.787   0.167   3.524  0.00  0.00    -0.004 A 
ATOM      5  C6  UNL d   1       4.378   0.884   4.647  0.00  0.00     0.002 A 
ATOM      6  C7  UNL d   1       4.775   2.212   4.811  0.00  0.00     0.002 A 
ENDROOT
BRANCH   1   7
ATOM      7  C1  UNL d   1       5.973   4.282   4.005  0.00  0.00     0.055 C 
ATOM      8  C   UNL d   1       5.989   4.701   5.468  0.00  0.00     0.019 C 
ENDBRANCH   1   7
TORSDOF 1
ENDMDL
