MODEL 1
REMARK minimizedAffinity -3.30406427
REMARK minimizedRMSD -1
REMARK  1 active torsions:
REMARK  status: ('A' for Active; 'I' for Inactive)
REMARK    1  A    between atoms: C1_2  and  C2_3 
ROOT
ATOM      1  C2  UNL d   1       5.278   0.289   4.798  0.00  0.00    -0.077 A 
ATOM      2  C3  UNL d   1       5.803   0.892   5.950  0.00  0.00     0.002 A 
ATOM      3  C4  UNL d   1       5.997   2.274   5.997  0.00  0.00     0.002 A 
ATOM      4  C5  UNL d   1       5.667   3.064   4.898  0.00  0.00    -0.004 A 
ATOM      5  C6  UNL d   1       5.147   2.473   3.747  0.00  0.00     0.002 A 
ATOM      6  C7  UNL d   1       4.953   1.092   3.697  0.00  0.00     0.002 A 
ENDROOT
BRANCH   1   7
ATOM      7  C1  UNL d   1       5.021  -1.195   4.762  0.00  0.00     0.055 C 
ATOM      8  C   UNL d   1       5.581  -1.883   5.999  0.00  0.00     0.019 C 
ENDBRANCH   1   7
TORSDOF 1
ENDMDL
