MODEL 1
REMARK minimizedAffinity -1.16753805
REMARK minimizedRMSD -1
REMARK  1 active torsions:
REMARK  status: ('A' for Active; 'I' for Inactive)
REMARK    1  A    between atoms: C1_2  and  C2_3 
ROOT
ATOM      1  C2  UNL d   1       5.989   0.568   4.630  0.00  0.00    -0.077 A 
ATOM      2  C3  UNL d   1       5.990   1.827   5.247  0.00  0.00     0.002 A 
ATOM      3  C4  UNL d   1       5.998   2.991   4.476  0.00  0.00     0.002 A 
ATOM      4  C5  UNL d   1       5.999   2.908   3.085  0.00  0.00    -0.004 A 
ATOM      5  C6  UNL d   1       6.000   1.661   2.462  0.00  0.00     0.002 A 
ATOM      6  C7  UNL d   1       5.994   0.496   3.231  0.00  0.00     0.002 A 
ENDROOT
BRANCH   1   7
ATOM      7  C1  UNL d   1       5.931  -0.688   5.459  0.00  0.00     0.055 C 
ATOM      8  C   UNL d   1       5.651  -1.909   4.596  0.00  0.00     0.019 C 
ENDBRANCH   1   7
TORSDOF 1
ENDMDL
