MODEL 1
REMARK minimizedAffinity -0.998172402
REMARK minimizedRMSD -1
REMARK  1 active torsions:
REMARK  status: ('A' for Active; 'I' for Inactive)
REMARK    1  A    between atoms: C1_2  and  C2_3 
ROOT
ATOM      1  C2  UNL d   1       5.962   1.718   5.201  0.00  0.00    -0.077 A 
ATOM      2  C3  UNL d   1       5.948   0.566   5.999  0.00  0.00     0.002 A 
ATOM      3  C4  UNL d   1       5.959  -0.701   5.411  0.00  0.00     0.002 A 
ATOM      4  C5  UNL d   1       5.988  -0.826   4.023  0.00  0.00    -0.004 A 
ATOM      5  C6  UNL d   1       6.000   0.315   3.221  0.00  0.00     0.002 A 
ATOM      6  C7  UNL d   1       5.987   1.581   3.807  0.00  0.00     0.002 A 
ENDROOT
BRANCH   1   7
ATOM      7  C1  UNL d   1       6.000   3.085   5.835  0.00  0.00     0.055 C 
ATOM      8  C   UNL d   1       5.998   4.183   4.781  0.00  0.00     0.019 C 
ENDBRANCH   1   7
TORSDOF 1
ENDMDL
