MODEL 1
REMARK minimizedAffinity -2.36593246
REMARK minimizedRMSD -1
REMARK  1 active torsions:
REMARK  status: ('A' for Active; 'I' for Inactive)
REMARK    1  A    between atoms: C1_2  and  C2_3 
ROOT
ATOM      1  C2  UNL d   1       5.993   1.356   3.573  0.00  0.00    -0.077 A 
ATOM      2  C3  UNL d   1       6.000   0.283   2.670  0.00  0.00     0.002 A 
ATOM      3  C4  UNL d   1       5.947  -1.032   3.135  0.00  0.00     0.002 A 
ATOM      4  C5  UNL d   1       5.883  -1.287   4.503  0.00  0.00    -0.004 A 
ATOM      5  C6  UNL d   1       5.878  -0.227   5.410  0.00  0.00     0.002 A 
ATOM      6  C7  UNL d   1       5.932   1.088   4.946  0.00  0.00     0.002 A 
ENDROOT
BRANCH   1   7
ATOM      7  C1  UNL d   1       6.000   2.776   3.071  0.00  0.00     0.055 C 
ATOM      8  C   UNL d   1       5.965   3.770   4.223  0.00  0.00     0.019 C 
ENDBRANCH   1   7
TORSDOF 1
ENDMDL
