MODEL 1
REMARK minimizedAffinity 1.07323694
REMARK minimizedRMSD -1
REMARK  1 active torsions:
REMARK  status: ('A' for Active; 'I' for Inactive)
REMARK    1  A    between atoms: C1_2  and  C2_3 
ROOT
ATOM      1  C2  UNL d   1       5.954   1.850   4.384  0.00  0.00    -0.077 A 
ATOM      2  C3  UNL d   1       5.960   1.344   5.692  0.00  0.00     0.002 A 
ATOM      3  C4  UNL d   1       5.980  -0.034   5.916  0.00  0.00     0.002 A 
ATOM      4  C5  UNL d   1       5.997  -0.916   4.839  0.00  0.00    -0.004 A 
ATOM      5  C6  UNL d   1       5.988  -0.423   3.534  0.00  0.00     0.002 A 
ATOM      6  C7  UNL d   1       5.968   0.953   3.308  0.00  0.00     0.002 A 
ENDROOT
BRANCH   1   7
ATOM      7  C1  UNL d   1       5.982   3.336   4.140  0.00  0.00     0.055 C 
ATOM      8  C   UNL d   1       5.998   3.653   2.652  0.00  0.00     0.019 C 
ENDBRANCH   1   7
TORSDOF 1
ENDMDL
