MODEL 1
REMARK minimizedAffinity -1.72917318
REMARK minimizedRMSD -1
REMARK  1 active torsions:
REMARK  status: ('A' for Active; 'I' for Inactive)
REMARK    1  A    between atoms: C1_2  and  C2_3 
ROOT
ATOM      1  C2  UNL d   1       0.861  -0.418   1.201  0.00  0.00    -0.081 A 
ATOM      2  C3  UNL d   1      -0.127   0.317   0.536  0.00  0.00     0.006 A 
ATOM      3  C4  UNL d   1       0.201   1.493  -0.144  0.00  0.00     0.002 A 
ATOM      4  C5  UNL d   1       1.524   1.948  -0.177  0.00  0.00    -0.080 A 
ATOM      5  C6  UNL d   1       1.895   3.192  -0.928  0.00  0.00     0.076 C 
ATOM      6  C7  UNL d   1       2.509   1.223   0.503  0.00  0.00     0.002 A 
ATOM      7  C8  UNL d   1       2.181   0.048   1.183  0.00  0.00     0.006 A 
ENDROOT
BRANCH   1   8
ATOM      8  C1  UNL d   1       0.521  -1.720   1.880  0.00  0.00     0.054 C 
ATOM      9  C   UNL d   1       1.398  -1.951   3.103  0.00  0.00     0.018 C 
ENDBRANCH   1   8
TORSDOF 1
ENDMDL
