MODEL 1
REMARK minimizedAffinity 6.22647762
REMARK minimizedRMSD -1
REMARK  1 active torsions:
REMARK  status: ('A' for Active; 'I' for Inactive)
REMARK    1  A    between atoms: C1_2  and  C2_3 
ROOT
ATOM      1  C2  UNL d   1      -4.921   2.020   0.444  0.00  0.00    -0.081 A 
ATOM      2  C3  UNL d   1      -5.860   1.588  -0.502  0.00  0.00     0.006 A 
ATOM      3  C4  UNL d   1      -5.619   1.758  -1.867  0.00  0.00     0.002 A 
ATOM      4  C5  UNL d   1      -4.434   2.356  -2.310  0.00  0.00    -0.080 A 
ATOM      5  C6  UNL d   1      -4.150   2.517  -3.774  0.00  0.00     0.076 C 
ATOM      6  C7  UNL d   1      -3.504   2.803  -1.365  0.00  0.00     0.002 A 
ATOM      7  C8  UNL d   1      -3.745   2.633   0.001  0.00  0.00     0.006 A 
ENDROOT
BRANCH   1   8
ATOM      8  C1  UNL d   1      -5.149   1.779   1.914  0.00  0.00     0.054 C 
ATOM      9  C   UNL d   1      -5.225   0.291   2.226  0.00  0.00     0.018 C 
ENDBRANCH   1   8
TORSDOF 1
ENDMDL
