MODEL 1
REMARK minimizedAffinity 2.17234445
REMARK minimizedRMSD -1
REMARK  1 active torsions:
REMARK  status: ('A' for Active; 'I' for Inactive)
REMARK    1  A    between atoms: C1_2  and  C2_3 
ROOT
ATOM      1  C2  UNL d   1      -4.978   1.945   0.644  0.00  0.00    -0.081 A 
ATOM      2  C3  UNL d   1      -3.885   2.477  -0.050  0.00  0.00     0.006 A 
ATOM      3  C4  UNL d   1      -3.746   2.263  -1.424  0.00  0.00     0.002 A 
ATOM      4  C5  UNL d   1      -4.703   1.523  -2.127  0.00  0.00    -0.080 A 
ATOM      5  C6  UNL d   1      -4.582   1.312  -3.607  0.00  0.00     0.076 C 
ATOM      6  C7  UNL d   1      -5.786   0.978  -1.430  0.00  0.00     0.002 A 
ATOM      7  C8  UNL d   1      -5.925   1.190  -0.057  0.00  0.00     0.006 A 
ENDROOT
BRANCH   1   8
ATOM      8  C1  UNL d   1      -5.164   2.228   2.113  0.00  0.00     0.054 C 
ATOM      9  C   UNL d   1      -5.547   3.681   2.353  0.00  0.00     0.018 C 
ENDBRANCH   1   8
TORSDOF 1
ENDMDL
