MODEL 1
REMARK minimizedAffinity 8.65016842
REMARK minimizedRMSD -1
REMARK  1 active torsions:
REMARK  status: ('A' for Active; 'I' for Inactive)
REMARK    1  A    between atoms: C1_2  and  C2_3 
ROOT
ATOM      1  C2  UNL d   1       0.874  -3.270   0.395  0.00  0.00    -0.081 A 
ATOM      2  C3  UNL d   1       0.650  -1.888   0.381  0.00  0.00     0.006 A 
ATOM      3  C4  UNL d   1       0.874  -1.122   1.528  0.00  0.00     0.002 A 
ATOM      4  C5  UNL d   1       1.333  -1.724   2.704  0.00  0.00    -0.080 A 
ATOM      5  C6  UNL d   1       1.607  -0.909   3.934  0.00  0.00     0.076 C 
ATOM      6  C7  UNL d   1       1.540  -3.108   2.724  0.00  0.00     0.002 A 
ATOM      7  C8  UNL d   1       1.315  -3.874   1.578  0.00  0.00     0.006 A 
ENDROOT
BRANCH   1   8
ATOM      8  C1  UNL d   1       0.694  -4.088  -0.858  0.00  0.00     0.054 C 
ATOM      9  C   UNL d   1       0.893  -3.239  -2.106  0.00  0.00     0.018 C 
ENDBRANCH   1   8
TORSDOF 1
ENDMDL
