MODEL 1
REMARK minimizedAffinity 3.19574046
REMARK minimizedRMSD -1
REMARK  1 active torsions:
REMARK  status: ('A' for Active; 'I' for Inactive)
REMARK    1  A    between atoms: C1_2  and  C2_3 
ROOT
ATOM      1  C2  UNL d   1      -5.179   2.474  -0.333  0.00  0.00    -0.081 A 
ATOM      2  C3  UNL d   1      -3.974   1.888   0.075  0.00  0.00     0.006 A 
ATOM      3  C4  UNL d   1      -3.246   2.431   1.135  0.00  0.00     0.002 A 
ATOM      4  C5  UNL d   1      -3.712   3.563   1.811  0.00  0.00    -0.080 A 
ATOM      5  C6  UNL d   1      -2.955   4.138   2.971  0.00  0.00     0.076 C 
ATOM      6  C7  UNL d   1      -4.907   4.159   1.393  0.00  0.00     0.002 A 
ATOM      7  C8  UNL d   1      -5.636   3.617   0.332  0.00  0.00     0.006 A 
ENDROOT
BRANCH   1   8
ATOM      8  C1  UNL d   1      -6.000   1.853  -1.434  0.00  0.00     0.054 C 
ATOM      9  C   UNL d   1      -5.999   0.334  -1.336  0.00  0.00     0.018 C 
ENDBRANCH   1   8
TORSDOF 1
ENDMDL
