MODEL 1
REMARK minimizedAffinity 6.86707067
REMARK minimizedRMSD -1
REMARK  1 active torsions:
REMARK  status: ('A' for Active; 'I' for Inactive)
REMARK    1  A    between atoms: C1_2  and  C2_3 
ROOT
ATOM      1  C2  UNL d   1      -5.587   1.619  -0.519  0.00  0.00    -0.081 A 
ATOM      2  C3  UNL d   1      -5.182   1.145   0.735  0.00  0.00     0.006 A 
ATOM      3  C4  UNL d   1      -5.191   1.988   1.848  0.00  0.00     0.002 A 
ATOM      4  C5  UNL d   1      -5.611   3.317   1.728  0.00  0.00    -0.080 A 
ATOM      5  C6  UNL d   1      -5.653   4.225   2.922  0.00  0.00     0.076 C 
ATOM      6  C7  UNL d   1      -5.998   3.797   0.473  0.00  0.00     0.002 A 
ATOM      7  C8  UNL d   1      -5.990   2.954  -0.641  0.00  0.00     0.006 A 
ENDROOT
BRANCH   1   8
ATOM      8  C1  UNL d   1      -5.641   0.695  -1.708  0.00  0.00     0.054 C 
ATOM      9  C   UNL d   1      -4.673   1.136  -2.796  0.00  0.00     0.018 C 
ENDBRANCH   1   8
TORSDOF 1
ENDMDL
