MODEL 1
REMARK minimizedAffinity 4.7408123
REMARK minimizedRMSD -1
REMARK  1 active torsions:
REMARK  status: ('A' for Active; 'I' for Inactive)
REMARK    1  A    between atoms: C1_2  and  C2_3 
ROOT
ATOM      1  C2  UNL d   1      -5.719   2.237   0.222  0.00  0.00    -0.081 A 
ATOM      2  C3  UNL d   1      -5.888   1.099  -0.577  0.00  0.00     0.006 A 
ATOM      3  C4  UNL d   1      -5.992   1.218  -1.965  0.00  0.00     0.002 A 
ATOM      4  C5  UNL d   1      -5.920   2.473  -2.577  0.00  0.00    -0.080 A 
ATOM      5  C6  UNL d   1      -6.000   2.611  -4.069  0.00  0.00     0.076 C 
ATOM      6  C7  UNL d   1      -5.769   3.611  -1.778  0.00  0.00     0.002 A 
ATOM      7  C8  UNL d   1      -5.665   3.494  -0.390  0.00  0.00     0.006 A 
ENDROOT
BRANCH   1   8
ATOM      8  C1  UNL d   1      -5.541   2.107   1.713  0.00  0.00     0.054 C 
ATOM      9  C   UNL d   1      -4.859   3.335   2.299  0.00  0.00     0.018 C 
ENDBRANCH   1   8
TORSDOF 1
ENDMDL
