MODEL 1
REMARK minimizedAffinity 13.6094017
REMARK minimizedRMSD -1
REMARK  1 active torsions:
REMARK  status: ('A' for Active; 'I' for Inactive)
REMARK    1  A    between atoms: C1_2  and  C2_3 
ROOT
ATOM      1  C2  UNL d   1       1.250  -1.997   0.398  0.00  0.00    -0.081 A 
ATOM      2  C3  UNL d   1       1.615  -3.170   1.072  0.00  0.00     0.006 A 
ATOM      3  C4  UNL d   1       1.747  -3.175   2.462  0.00  0.00     0.002 A 
ATOM      4  C5  UNL d   1       1.508  -2.013   3.203  0.00  0.00    -0.080 A 
ATOM      5  C6  UNL d   1       1.617  -2.013   4.699  0.00  0.00     0.076 C 
ATOM      6  C7  UNL d   1       1.161  -0.837   2.528  0.00  0.00     0.002 A 
ATOM      7  C8  UNL d   1       1.030  -0.830   1.138  0.00  0.00     0.006 A 
ENDROOT
BRANCH   1   8
ATOM      8  C1  UNL d   1       1.044  -2.004  -1.095  0.00  0.00     0.054 C 
ATOM      9  C   UNL d   1       0.886  -3.422  -1.626  0.00  0.00     0.018 C 
ENDBRANCH   1   8
TORSDOF 1
ENDMDL
