MODEL 1
REMARK minimizedAffinity 0.835113049
REMARK minimizedRMSD -1
REMARK  1 active torsions:
REMARK  status: ('A' for Active; 'I' for Inactive)
REMARK    1  A    between atoms: C1_2  and  C2_3 
ROOT
ATOM      1  C2  UNL d   1      -5.861   1.493  -0.046  0.00  0.00    -0.081 A 
ATOM      2  C3  UNL d   1      -5.735   2.449   0.969  0.00  0.00     0.006 A 
ATOM      3  C4  UNL d   1      -5.747   3.812   0.663  0.00  0.00     0.002 A 
ATOM      4  C5  UNL d   1      -5.892   4.241  -0.660  0.00  0.00    -0.080 A 
ATOM      5  C6  UNL d   1      -5.937   5.702  -0.999  0.00  0.00     0.076 C 
ATOM      6  C7  UNL d   1      -6.000   3.286  -1.677  0.00  0.00     0.002 A 
ATOM      7  C8  UNL d   1      -5.987   1.923  -1.372  0.00  0.00     0.006 A 
ENDROOT
BRANCH   1   8
ATOM      8  C1  UNL d   1      -5.913   0.024   0.287  0.00  0.00     0.054 C 
ATOM      9  C   UNL d   1      -5.674  -0.216   1.771  0.00  0.00     0.018 C 
ENDBRANCH   1   8
TORSDOF 1
ENDMDL
