MODEL 1
REMARK minimizedAffinity 3.7973597
REMARK minimizedRMSD -1
REMARK  1 active torsions:
REMARK  status: ('A' for Active; 'I' for Inactive)
REMARK    1  A    between atoms: C1_2  and  C2_3 
ROOT
ATOM      1  C2  UNL d   1      -4.806   3.347   0.489  0.00  0.00    -0.081 A 
ATOM      2  C3  UNL d   1      -3.603   3.257  -0.223  0.00  0.00     0.006 A 
ATOM      3  C4  UNL d   1      -3.598   2.831  -1.554  0.00  0.00     0.002 A 
ATOM      4  C5  UNL d   1      -4.795   2.497  -2.197  0.00  0.00    -0.080 A 
ATOM      5  C6  UNL d   1      -4.807   2.068  -3.634  0.00  0.00     0.076 C 
ATOM      6  C7  UNL d   1      -5.994   2.570  -1.480  0.00  0.00     0.002 A 
ATOM      7  C8  UNL d   1      -6.000   2.994  -0.150  0.00  0.00     0.006 A 
ENDROOT
BRANCH   1   8
ATOM      8  C1  UNL d   1      -4.822   3.867   1.903  0.00  0.00     0.054 C 
ATOM      9  C   UNL d   1      -3.460   4.413   2.307  0.00  0.00     0.018 C 
ENDBRANCH   1   8
TORSDOF 1
ENDMDL
