MODEL 1
REMARK minimizedAffinity -1.80748534
REMARK minimizedRMSD -1
REMARK  0 active torsions:
REMARK  status: ('A' for Active; 'I' for Inactive)
ROOT
ATOM      1  C2' OXE d   1       1.406   0.000  -0.713  0.00  0.00     0.078 C 
ATOM      2  C1' OXE d   1       1.119   1.281   1.769  0.00  0.00     0.078 C 
ATOM      3  C1  OXE d   1      -0.083   0.569   1.201  0.00  0.00    -0.078 A 
ATOM      4  C2  OXE d   1       0.053  -0.015  -0.035  0.00  0.00    -0.078 A 
ATOM      5  C3  OXE d   1      -1.009  -0.731  -0.580  0.00  0.00     0.003 A 
ATOM      6  C4  OXE d   1      -2.260  -0.732   0.049  0.00  0.00    -0.002 A 
ATOM      7  C5  OXE d   1      -2.432  -0.110   1.290  0.00  0.00    -0.002 A 
ATOM      8  C6  OXE d   1      -1.344   0.507   1.899  0.00  0.00     0.003 A 
ENDROOT
TORSDOF 0
ENDMDL
