MODEL 1
REMARK minimizedAffinity 1.24182987
REMARK minimizedRMSD -1
REMARK  0 active torsions:
REMARK  status: ('A' for Active; 'I' for Inactive)
ROOT
ATOM      1  C2' OXE d   1       0.319  -0.761  -2.497  0.00  0.00     0.078 C 
ATOM      2  C1' OXE d   1      -1.695   0.205  -0.797  0.00  0.00     0.078 C 
ATOM      3  C1  OXE d   1      -0.364  -0.150  -0.181  0.00  0.00    -0.078 A 
ATOM      4  C2  OXE d   1       0.600  -0.666  -1.013  0.00  0.00    -0.078 A 
ATOM      5  C3  OXE d   1       1.863  -0.959  -0.507  0.00  0.00     0.003 A 
ATOM      6  C4  OXE d   1       2.111  -0.877   0.869  0.00  0.00    -0.002 A 
ATOM      7  C5  OXE d   1       1.130  -0.392   1.740  0.00  0.00    -0.002 A 
ATOM      8  C6  OXE d   1      -0.096   0.016   1.226  0.00  0.00     0.003 A 
ENDROOT
TORSDOF 0
ENDMDL
