MODEL 1
REMARK minimizedAffinity -2.82710552
REMARK minimizedRMSD -1
REMARK  0 active torsions:
REMARK  status: ('A' for Active; 'I' for Inactive)
ROOT
ATOM      1  C2' OXE d   1      -0.298   0.448   0.923  0.00  0.00     0.078 C 
ATOM      2  C1' OXE d   1       1.628  -1.117  -0.389  0.00  0.00     0.078 C 
ATOM      3  C1  OXE d   1       0.179  -1.342  -0.743  0.00  0.00    -0.078 A 
ATOM      4  C2  OXE d   1      -0.760  -0.605  -0.062  0.00  0.00    -0.078 A 
ATOM      5  C3  OXE d   1      -2.107  -0.734  -0.388  0.00  0.00     0.003 A 
ATOM      6  C4  OXE d   1      -2.526  -1.717  -1.292  0.00  0.00    -0.002 A 
ATOM      7  C5  OXE d   1      -1.589  -2.506  -1.968  0.00  0.00    -0.002 A 
ATOM      8  C6  OXE d   1      -0.233  -2.302  -1.736  0.00  0.00     0.003 A 
ENDROOT
TORSDOF 0
ENDMDL
