MODEL 1
REMARK minimizedAffinity -2.22276902
REMARK minimizedRMSD -1
REMARK  0 active torsions:
REMARK  status: ('A' for Active; 'I' for Inactive)
ROOT
ATOM      1  C2' OXE d   1      -0.283   1.797   2.661  0.00  0.00     0.078 C 
ATOM      2  C1' OXE d   1      -2.607   0.713   1.520  0.00  0.00     0.078 C 
ATOM      3  C1  OXE d   1      -1.279   0.304   0.934  0.00  0.00    -0.078 A 
ATOM      4  C2  OXE d   1      -0.149   0.875   1.468  0.00  0.00    -0.078 A 
ATOM      5  C3  OXE d   1       1.104   0.491   1.001  0.00  0.00     0.003 A 
ATOM      6  C4  OXE d   1       1.219  -0.355  -0.109  0.00  0.00    -0.002 A 
ATOM      7  C5  OXE d   1       0.079  -0.917  -0.694  0.00  0.00    -0.002 A 
ATOM      8  C6  OXE d   1      -1.173  -0.632  -0.159  0.00  0.00     0.003 A 
ENDROOT
TORSDOF 0
ENDMDL
