MODEL 1
REMARK minimizedAffinity 1.05853331
REMARK minimizedRMSD -1
REMARK  0 active torsions:
REMARK  status: ('A' for Active; 'I' for Inactive)
ROOT
ATOM      1  C2' OXE d   1      -1.138   0.805  -0.157  0.00  0.00     0.078 C 
ATOM      2  C1' OXE d   1      -0.215   2.482   1.896  0.00  0.00     0.078 C 
ATOM      3  C1  OXE d   1       0.618   1.275   1.546  0.00  0.00    -0.078 A 
ATOM      4  C2  OXE d   1       0.136   0.434   0.572  0.00  0.00    -0.078 A 
ATOM      5  C3  OXE d   1       0.892  -0.664   0.172  0.00  0.00     0.003 A 
ATOM      6  C4  OXE d   1       2.063  -1.005   0.859  0.00  0.00    -0.002 A 
ATOM      7  C5  OXE d   1       2.552  -0.185   1.881  0.00  0.00    -0.002 A 
ATOM      8  C6  OXE d   1       1.866   0.980   2.207  0.00  0.00     0.003 A 
ENDROOT
TORSDOF 0
ENDMDL
