MODEL 1
REMARK minimizedAffinity -2.794276
REMARK minimizedRMSD -1
REMARK  0 active torsions:
REMARK  status: ('A' for Active; 'I' for Inactive)
ROOT
ATOM      1  C2' OXE d   1      -0.154   0.403   0.124  0.00  0.00     0.078 C 
ATOM      2  C1' OXE d   1       1.091  -0.271  -2.300  0.00  0.00     0.078 C 
ATOM      3  C1  OXE d   1      -0.103  -1.087  -1.872  0.00  0.00    -0.078 A 
ATOM      4  C2  OXE d   1      -0.678  -0.780  -0.662  0.00  0.00    -0.078 A 
ATOM      5  C3  OXE d   1      -1.815  -1.466  -0.245  0.00  0.00     0.003 A 
ATOM      6  C4  OXE d   1      -2.286  -2.565  -0.972  0.00  0.00    -0.002 A 
ATOM      7  C5  OXE d   1      -1.692  -2.920  -2.188  0.00  0.00    -0.002 A 
ATOM      8  C6  OXE d   1      -0.628  -2.166  -2.672  0.00  0.00     0.003 A 
ENDROOT
TORSDOF 0
ENDMDL
