MODEL 1
REMARK minimizedAffinity -4.11504412
REMARK minimizedRMSD -1
REMARK  0 active torsions:
REMARK  status: ('A' for Active; 'I' for Inactive)
ROOT
ATOM      1  C2' OXE d   1      -2.773   0.055   2.862  0.00  0.00     0.078 C 
ATOM      2  C1' OXE d   1      -0.627   1.755   3.480  0.00  0.00     0.078 C 
ATOM      3  C1  OXE d   1      -0.570   0.994   2.179  0.00  0.00    -0.078 A 
ATOM      4  C2  OXE d   1      -1.602   0.129   1.906  0.00  0.00    -0.078 A 
ATOM      5  C3  OXE d   1      -1.626  -0.555   0.695  0.00  0.00     0.003 A 
ATOM      6  C4  OXE d   1      -0.534  -0.488  -0.179  0.00  0.00    -0.002 A 
ATOM      7  C5  OXE d   1       0.546   0.357   0.098  0.00  0.00    -0.002 A 
ATOM      8  C6  OXE d   1       0.524   1.135   1.250  0.00  0.00     0.003 A 
ENDROOT
TORSDOF 0
ENDMDL
