MODEL 1
REMARK minimizedAffinity -5.6521225
REMARK minimizedRMSD -1
REMARK  0 active torsions:
REMARK  status: ('A' for Active; 'I' for Inactive)
ROOT
ATOM      1  C2' OXE d   1      -0.865   1.295   3.047  0.00  0.00     0.078 C 
ATOM      2  C1' OXE d   1      -2.370   0.588   0.785  0.00  0.00     0.078 C 
ATOM      3  C1  OXE d   1      -0.956   0.072   0.879  0.00  0.00    -0.078 A 
ATOM      4  C2  OXE d   1      -0.212   0.462   1.966  0.00  0.00    -0.078 A 
ATOM      5  C3  OXE d   1       1.080  -0.030   2.129  0.00  0.00     0.003 A 
ATOM      6  C4  OXE d   1       1.681  -0.792   1.119  0.00  0.00    -0.002 A 
ATOM      7  C5  OXE d   1       0.954  -1.167  -0.015  0.00  0.00    -0.002 A 
ATOM      8  C6  OXE d   1      -0.377  -0.779  -0.131  0.00  0.00     0.003 A 
ENDROOT
TORSDOF 0
ENDMDL
