MODEL 1
REMARK minimizedAffinity -1.36559379
REMARK minimizedRMSD -1
REMARK  0 active torsions:
REMARK  status: ('A' for Active; 'I' for Inactive)
ROOT
ATOM      1  C2' OXE d   1      -0.985   0.382  -5.995  0.00  0.00     0.078 C 
ATOM      2  C1' OXE d   1      -0.715  -1.318  -3.778  0.00  0.00     0.078 C 
ATOM      3  C1  OXE d   1       0.322  -0.239  -3.968  0.00  0.00    -0.078 A 
ATOM      4  C2  OXE d   1       0.208   0.558  -5.081  0.00  0.00    -0.078 A 
ATOM      5  C3  OXE d   1       1.107   1.604  -5.275  0.00  0.00     0.003 A 
ATOM      6  C4  OXE d   1       2.213   1.753  -4.430  0.00  0.00    -0.002 A 
ATOM      7  C5  OXE d   1       2.370   0.927  -3.313  0.00  0.00    -0.002 A 
ATOM      8  C6  OXE d   1       1.412  -0.045  -3.044  0.00  0.00     0.003 A 
ENDROOT
TORSDOF 0
ENDMDL
