MODEL 1
REMARK minimizedAffinity -3.08223414
REMARK minimizedRMSD -1
REMARK  0 active torsions:
REMARK  status: ('A' for Active; 'I' for Inactive)
ROOT
ATOM      1  C2' OXE d   1      -0.033  -0.716  -1.071  0.00  0.00     0.078 C 
ATOM      2  C1' OXE d   1       2.457  -0.687   0.226  0.00  0.00     0.078 C 
ATOM      3  C1  OXE d   1       1.361   0.186   0.786  0.00  0.00    -0.078 A 
ATOM      4  C2  OXE d   1       0.161   0.201   0.117  0.00  0.00    -0.078 A 
ATOM      5  C3  OXE d   1      -0.900   0.947   0.622  0.00  0.00     0.003 A 
ATOM      6  C4  OXE d   1      -0.710   1.801   1.716  0.00  0.00    -0.002 A 
ATOM      7  C5  OXE d   1       0.517   1.831   2.388  0.00  0.00    -0.002 A 
ATOM      8  C6  OXE d   1       1.548   1.000   1.962  0.00  0.00     0.003 A 
ENDROOT
TORSDOF 0
ENDMDL
