MODEL 1
REMARK minimizedAffinity -0.0720953345
REMARK minimizedRMSD -1
REMARK  0 active torsions:
REMARK  status: ('A' for Active; 'I' for Inactive)
ROOT
ATOM      1  C2' OXE d   1      -2.837  -0.606  -0.116  0.00  0.00     0.078 C 
ATOM      2  C1' OXE d   1      -1.060  -2.257  -1.528  0.00  0.00     0.078 C 
ATOM      3  C1  OXE d   1      -0.485  -1.345  -0.473  0.00  0.00    -0.078 A 
ATOM      4  C2  OXE d   1      -1.356  -0.506   0.180  0.00  0.00    -0.078 A 
ATOM      5  C3  OXE d   1      -0.887   0.316   1.200  0.00  0.00     0.003 A 
ATOM      6  C4  OXE d   1       0.485   0.409   1.461  0.00  0.00    -0.002 A 
ATOM      7  C5  OXE d   1       1.394  -0.407   0.779  0.00  0.00    -0.002 A 
ATOM      8  C6  OXE d   1       0.922  -1.318  -0.159  0.00  0.00     0.003 A 
ENDROOT
TORSDOF 0
ENDMDL
