MODEL 1
REMARK minimizedAffinity -5.44630766
REMARK minimizedRMSD -1
REMARK  0 active torsions:
REMARK  status: ('A' for Active; 'I' for Inactive)
ROOT
ATOM      1  C2' OXE d   1      -2.307  -1.679   3.843  0.00  0.00     0.078 C 
ATOM      2  C1' OXE d   1       0.326  -1.792   4.811  0.00  0.00     0.078 C 
ATOM      3  C1  OXE d   1      -0.007  -0.724   3.799  0.00  0.00    -0.078 A 
ATOM      4  C2  OXE d   1      -1.285  -0.706   3.296  0.00  0.00    -0.078 A 
ATOM      5  C3  OXE d   1      -1.660   0.292   2.401  0.00  0.00     0.003 A 
ATOM      6  C4  OXE d   1      -0.706   1.182   1.892  0.00  0.00    -0.002 A 
ATOM      7  C5  OXE d   1       0.612   1.155   2.361  0.00  0.00    -0.002 A 
ATOM      8  C6  OXE d   1       0.967   0.238   3.344  0.00  0.00     0.003 A 
ENDROOT
TORSDOF 0
ENDMDL
