MODEL 1
REMARK minimizedAffinity -3.95917916
REMARK minimizedRMSD -1
REMARK  1 active torsions:
REMARK  status: ('A' for Active; 'I' for Inactive)
REMARK    1  A    between atoms: C1_2  and  C2_3 
ROOT
ATOM      1  C2  UNL d   1      -3.388   0.942   0.808  0.00  0.00    -0.081 A 
ATOM      2  C3  UNL d   1      -2.655   2.126   0.666  0.00  0.00     0.006 A 
ATOM      3  C4  UNL d   1      -1.297   2.084   0.339  0.00  0.00     0.002 A 
ATOM      4  C5  UNL d   1      -0.652   0.858   0.142  0.00  0.00    -0.080 A 
ATOM      5  C6  UNL d   1       0.797   0.799  -0.238  0.00  0.00     0.076 C 
ATOM      6  C7  UNL d   1      -1.381  -0.326   0.301  0.00  0.00     0.002 A 
ATOM      7  C8  UNL d   1      -2.738  -0.284   0.628  0.00  0.00     0.006 A 
ENDROOT
BRANCH   1   8
ATOM      8  C1  UNL d   1      -4.867   0.986   1.096  0.00  0.00     0.054 C 
ATOM      9  C   UNL d   1      -5.349   2.415   1.297  0.00  0.00     0.018 C 
ENDBRANCH   1   8
TORSDOF 1
ENDMDL
