MODEL 1
REMARK minimizedAffinity -2.11599445
REMARK minimizedRMSD -1
REMARK  1 active torsions:
REMARK  status: ('A' for Active; 'I' for Inactive)
REMARK    1  A    between atoms: C1_2  and  C2_3 
ROOT
ATOM      1  C2  UNL d   1       1.057   1.250   0.790  0.00  0.00    -0.081 A 
ATOM      2  C3  UNL d   1       0.677   2.211  -0.155  0.00  0.00     0.006 A 
ATOM      3  C4  UNL d   1      -0.663   2.581  -0.289  0.00  0.00     0.002 A 
ATOM      4  C5  UNL d   1      -1.644   2.003   0.523  0.00  0.00    -0.080 A 
ATOM      5  C6  UNL d   1      -3.082   2.413   0.409  0.00  0.00     0.076 C 
ATOM      6  C7  UNL d   1      -1.267   1.030   1.455  0.00  0.00     0.002 A 
ATOM      7  C8  UNL d   1       0.072   0.659   1.590  0.00  0.00     0.006 A 
ENDROOT
BRANCH   1   8
ATOM      8  C1  UNL d   1       2.510   0.896   0.983  0.00  0.00     0.054 C 
ATOM      9  C   UNL d   1       3.332   1.246  -0.249  0.00  0.00     0.018 C 
ENDBRANCH   1   8
TORSDOF 1
ENDMDL
