MODEL 1
REMARK minimizedAffinity -4.13414431
REMARK minimizedRMSD -1
REMARK  1 active torsions:
REMARK  status: ('A' for Active; 'I' for Inactive)
REMARK    1  A    between atoms: C1_2  and  C2_3 
ROOT
ATOM      1  C2  UNL d   1      -4.022   1.334   0.589  0.00  0.00    -0.081 A 
ATOM      2  C3  UNL d   1      -3.150   2.360   0.205  0.00  0.00     0.006 A 
ATOM      3  C4  UNL d   1      -1.769   2.148   0.191  0.00  0.00     0.002 A 
ATOM      4  C5  UNL d   1      -1.238   0.906   0.553  0.00  0.00    -0.080 A 
ATOM      5  C6  UNL d   1       0.240   0.656   0.514  0.00  0.00     0.076 C 
ATOM      6  C7  UNL d   1      -2.108  -0.114   0.954  0.00  0.00     0.002 A 
ATOM      7  C8  UNL d   1      -3.489   0.097   0.969  0.00  0.00     0.006 A 
ENDROOT
BRANCH   1   8
ATOM      8  C1  UNL d   1      -5.514   1.539   0.543  0.00  0.00     0.054 C 
ATOM      9  C   UNL d   1      -5.915   2.843   1.218  0.00  0.00     0.018 C 
ENDBRANCH   1   8
TORSDOF 1
ENDMDL
