MODEL 1
REMARK minimizedAffinity 7.78974724
REMARK minimizedRMSD -1
REMARK  1 active torsions:
REMARK  status: ('A' for Active; 'I' for Inactive)
REMARK    1  A    between atoms: C1_2  and  C2_3 
ROOT
ATOM      1  C2  UNL d   1       0.362   3.246  -0.443  0.00  0.00    -0.081 A 
ATOM      2  C3  UNL d   1       0.078   2.758   0.838  0.00  0.00     0.006 A 
ATOM      3  C4  UNL d   1      -1.216   2.348   1.169  0.00  0.00     0.002 A 
ATOM      4  C5  UNL d   1      -2.245   2.412   0.223  0.00  0.00    -0.080 A 
ATOM      5  C6  UNL d   1      -3.631   1.946   0.556  0.00  0.00     0.076 C 
ATOM      6  C7  UNL d   1      -1.965   2.916  -1.052  0.00  0.00     0.002 A 
ATOM      7  C8  UNL d   1      -0.672   3.327  -1.383  0.00  0.00     0.006 A 
ENDROOT
BRANCH   1   8
ATOM      8  C1  UNL d   1       1.770   3.628  -0.823  0.00  0.00     0.054 C 
ATOM      9  C   UNL d   1       1.875   5.115  -1.131  0.00  0.00     0.018 C 
ENDBRANCH   1   8
TORSDOF 1
ENDMDL
