MODEL 1
REMARK minimizedAffinity 6.62100077
REMARK minimizedRMSD -1
REMARK  1 active torsions:
REMARK  status: ('A' for Active; 'I' for Inactive)
REMARK    1  A    between atoms: C1_2  and  C2_3 
ROOT
ATOM      1  C2  UNL d   1      -0.528   2.691  -0.079  0.00  0.00    -0.081 A 
ATOM      2  C3  UNL d   1      -1.768   2.726   0.571  0.00  0.00     0.006 A 
ATOM      3  C4  UNL d   1      -2.167   1.668   1.392  0.00  0.00     0.002 A 
ATOM      4  C5  UNL d   1      -1.330   0.563   1.583  0.00  0.00    -0.080 A 
ATOM      5  C6  UNL d   1      -1.733  -0.565   2.485  0.00  0.00     0.076 C 
ATOM      6  C7  UNL d   1      -0.099   0.520   0.919  0.00  0.00     0.002 A 
ATOM      7  C8  UNL d   1       0.300   1.577   0.098  0.00  0.00     0.006 A 
ENDROOT
BRANCH   1   8
ATOM      8  C1  UNL d   1      -0.067   3.859  -0.913  0.00  0.00     0.054 C 
ATOM      9  C   UNL d   1       1.299   4.356  -0.462  0.00  0.00     0.018 C 
ENDBRANCH   1   8
TORSDOF 1
ENDMDL
