MODEL 1
REMARK minimizedAffinity -1.33601487
REMARK minimizedRMSD -1
REMARK  1 active torsions:
REMARK  status: ('A' for Active; 'I' for Inactive)
REMARK    1  A    between atoms: C1_2  and  C2_3 
ROOT
ATOM      1  C2  UNL d   1      -3.927   1.843   0.569  0.00  0.00    -0.081 A 
ATOM      2  C3  UNL d   1      -3.148   0.699   0.783  0.00  0.00     0.006 A 
ATOM      3  C4  UNL d   1      -1.761   0.748   0.629  0.00  0.00     0.002 A 
ATOM      4  C5  UNL d   1      -1.129   1.942   0.266  0.00  0.00    -0.080 A 
ATOM      5  C6  UNL d   1       0.363   2.015   0.127  0.00  0.00     0.076 C 
ATOM      6  C7  UNL d   1      -1.908   3.080   0.035  0.00  0.00     0.002 A 
ATOM      7  C8  UNL d   1      -3.296   3.032   0.189  0.00  0.00     0.006 A 
ENDROOT
BRANCH   1   8
ATOM      8  C1  UNL d   1      -5.417   1.809   0.798  0.00  0.00     0.054 C 
ATOM      9  C   UNL d   1      -6.000   3.214   0.850  0.00  0.00     0.018 C 
ENDBRANCH   1   8
TORSDOF 1
ENDMDL
