MODEL 1
REMARK minimizedAffinity -4.52909946
REMARK minimizedRMSD -1
REMARK  1 active torsions:
REMARK  status: ('A' for Active; 'I' for Inactive)
REMARK    1  A    between atoms: C1_2  and  C2_3 
ROOT
ATOM      1  C2  UNL d   1      -3.947   0.963   0.835  0.00  0.00    -0.081 A 
ATOM      2  C3  UNL d   1      -3.163  -0.127   1.231  0.00  0.00     0.006 A 
ATOM      3  C4  UNL d   1      -1.776  -0.098   1.068  0.00  0.00     0.002 A 
ATOM      4  C5  UNL d   1      -1.149   1.023   0.514  0.00  0.00    -0.080 A 
ATOM      5  C6  UNL d   1       0.342   1.079   0.361  0.00  0.00     0.076 C 
ATOM      6  C7  UNL d   1      -1.934   2.106   0.102  0.00  0.00     0.002 A 
ATOM      7  C8  UNL d   1      -3.321   2.077   0.264  0.00  0.00     0.006 A 
ENDROOT
BRANCH   1   8
ATOM      8  C1  UNL d   1      -5.436   0.962   1.068  0.00  0.00     0.054 C 
ATOM      9  C   UNL d   1      -5.945   2.357   1.401  0.00  0.00     0.018 C 
ENDBRANCH   1   8
TORSDOF 1
ENDMDL
