MODEL 1
REMARK minimizedAffinity -1.46454024
REMARK minimizedRMSD -1
REMARK  1 active torsions:
REMARK  status: ('A' for Active; 'I' for Inactive)
REMARK    1  A    between atoms: C1_2  and  C2_3 
ROOT
ATOM      1  C2  UNL d   1       1.030   0.676   0.721  0.00  0.00    -0.081 A 
ATOM      2  C3  UNL d   1       0.982   1.981   0.216  0.00  0.00     0.006 A 
ATOM      3  C4  UNL d   1      -0.191   2.734   0.311  0.00  0.00     0.002 A 
ATOM      4  C5  UNL d   1      -1.331   2.198   0.918  0.00  0.00    -0.080 A 
ATOM      5  C6  UNL d   1      -2.588   3.006   1.054  0.00  0.00     0.076 C 
ATOM      6  C7  UNL d   1      -1.289   0.888   1.407  0.00  0.00     0.002 A 
ATOM      7  C8  UNL d   1      -0.116   0.134   1.312  0.00  0.00     0.006 A 
ENDROOT
BRANCH   1   8
ATOM      8  C1  UNL d   1       2.313  -0.115   0.678  0.00  0.00     0.054 C 
ATOM      9  C   UNL d   1       3.220   0.239   1.848  0.00  0.00     0.018 C 
ENDBRANCH   1   8
TORSDOF 1
ENDMDL
