MODEL 1
REMARK minimizedAffinity -3.2329824
REMARK minimizedRMSD -1
REMARK  1 active torsions:
REMARK  status: ('A' for Active; 'I' for Inactive)
REMARK    1  A    between atoms: C1_2  and  C2_3 
ROOT
ATOM      1  C2  UNL d   1      -3.907   1.150   0.262  0.00  0.00    -0.081 A 
ATOM      2  C3  UNL d   1      -3.222   0.004   0.685  0.00  0.00     0.006 A 
ATOM      3  C4  UNL d   1      -1.830   0.013   0.798  0.00  0.00     0.002 A 
ATOM      4  C5  UNL d   1      -1.101   1.169   0.499  0.00  0.00    -0.080 A 
ATOM      5  C6  UNL d   1       0.391   1.202   0.646  0.00  0.00     0.076 C 
ATOM      6  C7  UNL d   1      -1.784   2.308   0.060  0.00  0.00     0.002 A 
ATOM      7  C8  UNL d   1      -3.176   2.300  -0.054  0.00  0.00     0.006 A 
ENDROOT
BRANCH   1   8
ATOM      8  C1  UNL d   1      -5.414   1.163   0.201  0.00  0.00     0.054 C 
ATOM      9  C   UNL d   1      -5.991   2.296   1.036  0.00  0.00     0.018 C 
ENDBRANCH   1   8
TORSDOF 1
ENDMDL
