MODEL 1
REMARK minimizedAffinity -4.55464697
REMARK minimizedRMSD -1
REMARK  1 active torsions:
REMARK  status: ('A' for Active; 'I' for Inactive)
REMARK    1  A    between atoms: C1_2  and  C2_3 
ROOT
ATOM      1  C2  UNL d   1       0.871   0.858  -0.850  0.00  0.00    -0.081 A 
ATOM      2  C3  UNL d   1       1.418  -0.334  -0.361  0.00  0.00     0.006 A 
ATOM      3  C4  UNL d   1       0.591  -1.324   0.176  0.00  0.00     0.002 A 
ATOM      4  C5  UNL d   1      -0.795  -1.142   0.226  0.00  0.00    -0.080 A 
ATOM      5  C6  UNL d   1      -1.696  -2.209   0.772  0.00  0.00     0.076 C 
ATOM      6  C7  UNL d   1      -1.340   0.057  -0.247  0.00  0.00     0.002 A 
ATOM      7  C8  UNL d   1      -0.514   1.047  -0.784  0.00  0.00     0.006 A 
ENDROOT
BRANCH   1   8
ATOM      8  C1  UNL d   1       1.753   1.900  -1.489  0.00  0.00     0.054 C 
ATOM      9  C   UNL d   1       1.627   1.878  -3.006  0.00  0.00     0.018 C 
ENDBRANCH   1   8
TORSDOF 1
ENDMDL
