MODEL 1
REMARK minimizedAffinity -3.96121526
REMARK minimizedRMSD -1
REMARK  1 active torsions:
REMARK  status: ('A' for Active; 'I' for Inactive)
REMARK    1  A    between atoms: C1_2  and  C2_3 
ROOT
ATOM      1  C2  UNL d   1      -0.280  -1.336   0.981  0.00  0.00    -0.081 A 
ATOM      2  C3  UNL d   1       1.087  -1.098   0.789  0.00  0.00     0.006 A 
ATOM      3  C4  UNL d   1       1.516   0.001   0.041  0.00  0.00     0.002 A 
ATOM      4  C5  UNL d   1       0.587   0.884  -0.519  0.00  0.00    -0.080 A 
ATOM      5  C6  UNL d   1       1.035   2.085  -1.298  0.00  0.00     0.076 C 
ATOM      6  C7  UNL d   1      -0.779   0.637  -0.342  0.00  0.00     0.002 A 
ATOM      7  C8  UNL d   1      -1.208  -0.462   0.405  0.00  0.00     0.006 A 
ENDROOT
BRANCH   1   8
ATOM      8  C1  UNL d   1      -0.744  -2.484   1.841  0.00  0.00     0.054 C 
ATOM      9  C   UNL d   1      -2.232  -2.379   2.147  0.00  0.00     0.018 C 
ENDBRANCH   1   8
TORSDOF 1
ENDMDL
