MODEL 1
REMARK minimizedAffinity -4.07804775
REMARK minimizedRMSD -1
REMARK  1 active torsions:
REMARK  status: ('A' for Active; 'I' for Inactive)
REMARK    1  A    between atoms: C1_2  and  C2_3 
ROOT
ATOM      1  C2  UNL d   1       0.536   1.369  -0.771  0.00  0.00    -0.081 A 
ATOM      2  C3  UNL d   1       0.313   0.006  -0.536  0.00  0.00     0.006 A 
ATOM      3  C4  UNL d   1      -0.561  -0.405   0.473  0.00  0.00     0.002 A 
ATOM      4  C5  UNL d   1      -1.232   0.539   1.258  0.00  0.00    -0.080 A 
ATOM      5  C6  UNL d   1      -2.196   0.111   2.325  0.00  0.00     0.076 C 
ATOM      6  C7  UNL d   1      -0.996   1.900   1.035  0.00  0.00     0.002 A 
ATOM      7  C8  UNL d   1      -0.122   2.311   0.027  0.00  0.00     0.006 A 
ENDROOT
BRANCH   1   8
ATOM      8  C1  UNL d   1       1.428   1.816  -1.901  0.00  0.00     0.054 C 
ATOM      9  C   UNL d   1       0.625   2.482  -3.009  0.00  0.00     0.018 C 
ENDBRANCH   1   8
TORSDOF 1
ENDMDL
