MODEL 1
REMARK minimizedAffinity -3.56799579
REMARK minimizedRMSD -1
REMARK  1 active torsions:
REMARK  status: ('A' for Active; 'I' for Inactive)
REMARK    1  A    between atoms: C1_2  and  C2_3 
ROOT
ATOM      1  C2  UNL d   1       0.380   0.958  -0.269  0.00  0.00    -0.081 A 
ATOM      2  C3  UNL d   1       1.135  -0.218  -0.187  0.00  0.00     0.006 A 
ATOM      3  C4  UNL d   1       0.578  -1.382   0.348  0.00  0.00     0.002 A 
ATOM      4  C5  UNL d   1      -0.746  -1.392   0.801  0.00  0.00    -0.080 A 
ATOM      5  C6  UNL d   1      -1.366  -2.642   1.349  0.00  0.00     0.076 C 
ATOM      6  C7  UNL d   1      -1.495  -0.212   0.735  0.00  0.00     0.002 A 
ATOM      7  C8  UNL d   1      -0.938   0.952   0.201  0.00  0.00     0.006 A 
ENDROOT
BRANCH   1   8
ATOM      8  C1  UNL d   1       0.957   2.197  -0.904  0.00  0.00     0.054 C 
ATOM      9  C   UNL d   1       1.487   1.907  -2.301  0.00  0.00     0.018 C 
ENDBRANCH   1   8
TORSDOF 1
ENDMDL
