MODEL 1
REMARK minimizedAffinity -5.50473309
REMARK minimizedRMSD -1
REMARK  1 active torsions:
REMARK  status: ('A' for Active; 'I' for Inactive)
REMARK    1  A    between atoms: C1_2  and  C2_3 
ROOT
ATOM      1  C2  UNL d   1       0.647   0.798  -0.314  0.00  0.00    -0.081 A 
ATOM      2  C3  UNL d   1       1.227  -0.474  -0.227  0.00  0.00     0.006 A 
ATOM      3  C4  UNL d   1       0.559  -1.515   0.421  0.00  0.00     0.002 A 
ATOM      4  C5  UNL d   1      -0.703  -1.305   0.986  0.00  0.00    -0.080 A 
ATOM      5  C6  UNL d   1      -1.445  -2.422   1.658  0.00  0.00     0.076 C 
ATOM      6  C7  UNL d   1      -1.276  -0.030   0.915  0.00  0.00     0.002 A 
ATOM      7  C8  UNL d   1      -0.608   1.011   0.268  0.00  0.00     0.006 A 
ENDROOT
BRANCH   1   8
ATOM      8  C1  UNL d   1       1.336   1.905  -1.068  0.00  0.00     0.054 C 
ATOM      9  C   UNL d   1       0.879   1.955  -2.519  0.00  0.00     0.018 C 
ENDBRANCH   1   8
TORSDOF 1
ENDMDL
