MODEL 1
REMARK minimizedAffinity -4.31101656
REMARK minimizedRMSD -1
REMARK  1 active torsions:
REMARK  status: ('A' for Active; 'I' for Inactive)
REMARK    1  A    between atoms: C1_2  and  C2_3 
ROOT
ATOM      1  C2  UNL d   1       0.553   0.453  -0.009  0.00  0.00    -0.081 A 
ATOM      2  C3  UNL d   1       0.960  -0.887   0.014  0.00  0.00     0.006 A 
ATOM      3  C4  UNL d   1       0.076  -1.889   0.420  0.00  0.00     0.002 A 
ATOM      4  C5  UNL d   1      -1.232  -1.570   0.803  0.00  0.00    -0.080 A 
ATOM      5  C6  UNL d   1      -2.200  -2.639   1.212  0.00  0.00     0.076 C 
ATOM      6  C7  UNL d   1      -1.633  -0.229   0.796  0.00  0.00     0.002 A 
ATOM      7  C8  UNL d   1      -0.749   0.773   0.391  0.00  0.00     0.006 A 
ENDROOT
BRANCH   1   8
ATOM      8  C1  UNL d   1       1.484   1.528  -0.509  0.00  0.00     0.054 C 
ATOM      9  C   UNL d   1       0.965   2.156  -1.795  0.00  0.00     0.018 C 
ENDBRANCH   1   8
TORSDOF 1
ENDMDL
