MODEL 1
REMARK minimizedAffinity -4.48709965
REMARK minimizedRMSD -1
REMARK  1 active torsions:
REMARK  status: ('A' for Active; 'I' for Inactive)
REMARK    1  A    between atoms: C1_2  and  C2_3 
ROOT
ATOM      1  C2  UNL d   1       0.839   0.265  -0.241  0.00  0.00    -0.081 A 
ATOM      2  C3  UNL d   1       1.183  -1.067   0.020  0.00  0.00     0.006 A 
ATOM      3  C4  UNL d   1       0.236  -1.955   0.536  0.00  0.00     0.002 A 
ATOM      4  C5  UNL d   1      -1.071  -1.528   0.792  0.00  0.00    -0.080 A 
ATOM      5  C6  UNL d   1      -2.106  -2.478   1.317  0.00  0.00     0.076 C 
ATOM      6  C7  UNL d   1      -1.410  -0.192   0.549  0.00  0.00     0.002 A 
ATOM      7  C8  UNL d   1      -0.464   0.696   0.034  0.00  0.00     0.006 A 
ENDROOT
BRANCH   1   8
ATOM      8  C1  UNL d   1       1.840   1.209  -0.857  0.00  0.00     0.054 C 
ATOM      9  C   UNL d   1       1.644   1.317  -2.363  0.00  0.00     0.018 C 
ENDBRANCH   1   8
TORSDOF 1
ENDMDL
