MODEL 1
REMARK minimizedAffinity -2.61496758
REMARK minimizedRMSD -1
REMARK  1 active torsions:
REMARK  status: ('A' for Active; 'I' for Inactive)
REMARK    1  A    between atoms: C1_2  and  C2_3 
ROOT
ATOM      1  C2  UNL d   1       0.578   0.326  -0.465  0.00  0.00    -0.081 A 
ATOM      2  C3  UNL d   1       1.188  -0.798   0.106  0.00  0.00     0.006 A 
ATOM      3  C4  UNL d   1       0.413  -1.852   0.594  0.00  0.00     0.002 A 
ATOM      4  C5  UNL d   1      -0.983  -1.804   0.513  0.00  0.00    -0.080 A 
ATOM      5  C6  UNL d   1      -1.826  -2.943   1.006  0.00  0.00     0.076 C 
ATOM      6  C7  UNL d   1      -1.593  -0.674  -0.042  0.00  0.00     0.002 A 
ATOM      7  C8  UNL d   1      -0.818   0.381  -0.530  0.00  0.00     0.006 A 
ENDROOT
BRANCH   1   8
ATOM      8  C1  UNL d   1       1.413   1.436  -1.052  0.00  0.00     0.054 C 
ATOM      9  C   UNL d   1       1.092   1.651  -2.524  0.00  0.00     0.018 C 
ENDBRANCH   1   8
TORSDOF 1
ENDMDL
