MODEL 1
REMARK minimizedAffinity 17.5682011
REMARK minimizedRMSD -1
REMARK  0 active torsions:
REMARK  status: ('A' for Active; 'I' for Inactive)
ROOT
ATOM      1  C4' PXY d   1       5.998   6.000  -0.429  0.00  0.00     0.077 C 
ATOM      2  C1' PXY d   1       2.292   1.986  -2.319  0.00  0.00     0.077 C 
ATOM      3  C1  PXY d   1       3.274   3.030  -1.822  0.00  0.00    -0.082 A 
ATOM      4  C2  PXY d   1       2.823   4.113  -1.210  0.00  0.00     0.003 A 
ATOM      5  C3  PXY d   1       3.694   5.082  -0.784  0.00  0.00     0.003 A 
ATOM      6  C4  PXY d   1       5.044   4.915  -0.938  0.00  0.00    -0.082 A 
ATOM      7  C5  PXY d   1       5.513   3.808  -1.552  0.00  0.00     0.003 A 
ATOM      8  C6  PXY d   1       4.609   2.856  -2.014  0.00  0.00     0.003 A 
ENDROOT
TORSDOF 0
ENDMDL
