MODEL 1
REMARK minimizedAffinity 5.58984041
REMARK minimizedRMSD -1
REMARK  0 active torsions:
REMARK  status: ('A' for Active; 'I' for Inactive)
ROOT
ATOM      1  C4' PXY d   1      -3.713   5.998  -5.998  0.00  0.00     0.077 C 
ATOM      2  C1' PXY d   1       0.680   2.375  -5.006  0.00  0.00     0.077 C 
ATOM      3  C1  PXY d   1      -0.464   3.335  -5.265  0.00  0.00    -0.082 A 
ATOM      4  C2  PXY d   1      -1.706   2.958  -5.008  0.00  0.00     0.003 A 
ATOM      5  C3  PXY d   1      -2.755   3.802  -5.267  0.00  0.00     0.003 A 
ATOM      6  C4  PXY d   1      -2.526   5.065  -5.743  0.00  0.00    -0.082 A 
ATOM      7  C5  PXY d   1      -1.261   5.461  -5.998  0.00  0.00     0.003 A 
ATOM      8  C6  PXY d   1      -0.213   4.575  -5.767  0.00  0.00     0.003 A 
ENDROOT
TORSDOF 0
ENDMDL
