MODEL 1
REMARK minimizedAffinity 5.08598566
REMARK minimizedRMSD -1
REMARK  0 active torsions:
REMARK  status: ('A' for Active; 'I' for Inactive)
ROOT
ATOM      1  C4' PXY d   1      -0.637   2.898  -5.913  0.00  0.00     0.077 C 
ATOM      2  C1' PXY d   1       4.685   5.154  -5.997  0.00  0.00     0.077 C 
ATOM      3  C1  PXY d   1       3.284   4.573  -5.970  0.00  0.00    -0.082 A 
ATOM      4  C2  PXY d   1       3.121   3.261  -5.930  0.00  0.00     0.003 A 
ATOM      5  C3  PXY d   1       1.862   2.718  -5.937  0.00  0.00     0.003 A 
ATOM      6  C4  PXY d   1       0.758   3.529  -5.932  0.00  0.00    -0.082 A 
ATOM      7  C5  PXY d   1       0.917   4.869  -5.962  0.00  0.00     0.003 A 
ATOM      8  C6  PXY d   1       2.203   5.399  -5.996  0.00  0.00     0.003 A 
ENDROOT
TORSDOF 0
ENDMDL
