MODEL 1
REMARK minimizedAffinity -0.438193977
REMARK minimizedRMSD -1
REMARK  0 active torsions:
REMARK  status: ('A' for Active; 'I' for Inactive)
ROOT
ATOM      1  C4' PXY d   1       0.437   4.943  -5.998  0.00  0.00     0.077 C 
ATOM      2  C1' PXY d   1      -5.213   3.724  -5.982  0.00  0.00     0.077 C 
ATOM      3  C1  PXY d   1      -3.734   4.056  -5.991  0.00  0.00    -0.082 A 
ATOM      4  C2  PXY d   1      -2.844   3.076  -6.000  0.00  0.00     0.003 A 
ATOM      5  C3  PXY d   1      -1.502   3.358  -5.976  0.00  0.00     0.003 A 
ATOM      6  C4  PXY d   1      -1.066   4.656  -5.998  0.00  0.00    -0.082 A 
ATOM      7  C5  PXY d   1      -1.968   5.660  -6.000  0.00  0.00     0.003 A 
ATOM      8  C6  PXY d   1      -3.325   5.353  -5.982  0.00  0.00     0.003 A 
ENDROOT
TORSDOF 0
ENDMDL
