MODEL 1
REMARK minimizedAffinity 6.71221209
REMARK minimizedRMSD -1
REMARK  0 active torsions:
REMARK  status: ('A' for Active; 'I' for Inactive)
ROOT
ATOM      1  C4' PXY d   1       0.731   1.173   0.589  0.00  0.00     0.077 C 
ATOM      2  C1' PXY d   1       2.665   1.719  -4.831  0.00  0.00     0.077 C 
ATOM      3  C1  PXY d   1       2.153   1.588  -3.410  0.00  0.00    -0.082 A 
ATOM      4  C2  PXY d   1       2.678   0.676  -2.608  0.00  0.00     0.003 A 
ATOM      5  C3  PXY d   1       2.205   0.523  -1.330  0.00  0.00     0.003 A 
ATOM      6  C4  PXY d   1       1.222   1.347  -0.851  0.00  0.00    -0.082 A 
ATOM      7  C5  PXY d   1       0.690   2.287  -1.660  0.00  0.00     0.003 A 
ATOM      8  C6  PXY d   1       1.155   2.399  -2.967  0.00  0.00     0.003 A 
ENDROOT
TORSDOF 0
ENDMDL
