MODEL 1
REMARK minimizedAffinity 4.91810179
REMARK minimizedRMSD -1
REMARK  0 active torsions:
REMARK  status: ('A' for Active; 'I' for Inactive)
ROOT
ATOM      1  C4' PXY d   1      -3.340   5.996  -6.000  0.00  0.00     0.077 C 
ATOM      2  C1' PXY d   1       1.728   3.274  -5.428  0.00  0.00     0.077 C 
ATOM      3  C1  PXY d   1       0.404   3.999  -5.575  0.00  0.00    -0.082 A 
ATOM      4  C2  PXY d   1      -0.728   3.329  -5.433  0.00  0.00     0.003 A 
ATOM      5  C3  PXY d   1      -1.933   3.963  -5.595  0.00  0.00     0.003 A 
ATOM      6  C4  PXY d   1      -1.981   5.307  -5.851  0.00  0.00    -0.082 A 
ATOM      7  C5  PXY d   1      -0.830   6.000  -5.986  0.00  0.00     0.003 A 
ATOM      8  C6  PXY d   1       0.383   5.330  -5.860  0.00  0.00     0.003 A 
ENDROOT
TORSDOF 0
ENDMDL
