MODEL 1
REMARK minimizedAffinity 15.4989471
REMARK minimizedRMSD -1
REMARK  0 active torsions:
REMARK  status: ('A' for Active; 'I' for Inactive)
ROOT
ATOM      1  C4' PXY d   1       1.020   0.939   0.478  0.00  0.00     0.077 C 
ATOM      2  C1' PXY d   1       3.013   2.266  -4.783  0.00  0.00     0.077 C 
ATOM      3  C1  PXY d   1       2.487   1.906  -3.407  0.00  0.00    -0.082 A 
ATOM      4  C2  PXY d   1       2.107   2.867  -2.581  0.00  0.00     0.003 A 
ATOM      5  C3  PXY d   1       1.658   2.561  -1.322  0.00  0.00     0.003 A 
ATOM      6  C4  PXY d   1       1.548   1.256  -0.923  0.00  0.00    -0.082 A 
ATOM      7  C5  PXY d   1       1.925   0.269  -1.765  0.00  0.00     0.003 A 
ATOM      8  C6  PXY d   1       2.416   0.603  -3.024  0.00  0.00     0.003 A 
ENDROOT
TORSDOF 0
ENDMDL
