MODEL 1
REMARK minimizedAffinity 7.17123795
REMARK minimizedRMSD -1
REMARK  0 active torsions:
REMARK  status: ('A' for Active; 'I' for Inactive)
ROOT
ATOM      1  C4' PXY d   1       0.741  -4.875   2.806  0.00  0.00     0.077 C 
ATOM      2  C1' PXY d   1      -3.932  -1.608   3.752  0.00  0.00     0.077 C 
ATOM      3  C1  PXY d   1      -2.708  -2.463   3.491  0.00  0.00    -0.082 A 
ATOM      4  C2  PXY d   1      -2.365  -3.398   4.362  0.00  0.00     0.003 A 
ATOM      5  C3  PXY d   1      -1.242  -4.158   4.157  0.00  0.00     0.003 A 
ATOM      6  C4  PXY d   1      -0.492  -3.995   3.024  0.00  0.00    -0.082 A 
ATOM      7  C5  PXY d   1      -0.841  -3.050   2.125  0.00  0.00     0.003 A 
ATOM      8  C6  PXY d   1      -1.961  -2.261   2.371  0.00  0.00     0.003 A 
ENDROOT
TORSDOF 0
ENDMDL
