MODEL 1
REMARK minimizedAffinity 6.61004591
REMARK minimizedRMSD -1
REMARK  0 active torsions:
REMARK  status: ('A' for Active; 'I' for Inactive)
ROOT
ATOM      1  C4' PXY d   1       2.212   1.239  -3.907  0.00  0.00     0.077 C 
ATOM      2  C1' PXY d   1      -2.387   4.047  -6.000  0.00  0.00     0.077 C 
ATOM      3  C1  PXY d   1      -1.174   3.315  -5.461  0.00  0.00    -0.082 A 
ATOM      4  C2  PXY d   1      -1.340   2.267  -4.671  0.00  0.00     0.003 A 
ATOM      5  C3  PXY d   1      -0.254   1.613  -4.149  0.00  0.00     0.003 A 
ATOM      6  C4  PXY d   1       1.016   2.003  -4.482  0.00  0.00    -0.082 A 
ATOM      7  C5  PXY d   1       1.193   3.065  -5.296  0.00  0.00     0.003 A 
ATOM      8  C6  PXY d   1       0.078   3.741  -5.782  0.00  0.00     0.003 A 
ENDROOT
TORSDOF 0
ENDMDL
