MODEL 1
REMARK minimizedAffinity 7.9404459
REMARK minimizedRMSD -1
REMARK  0 active torsions:
REMARK  status: ('A' for Active; 'I' for Inactive)
ROOT
ATOM      1  C4' PXY d   1      -5.994  -5.991   0.864  0.00  0.00     0.077 C 
ATOM      2  C1' PXY d   1      -1.586  -3.178  -1.600  0.00  0.00     0.077 C 
ATOM      3  C1  PXY d   1      -2.740  -3.926  -0.962  0.00  0.00    -0.082 A 
ATOM      4  C2  PXY d   1      -3.708  -3.249  -0.365  0.00  0.00     0.003 A 
ATOM      5  C3  PXY d   1      -4.742  -3.911   0.245  0.00  0.00     0.003 A 
ATOM      6  C4  PXY d   1      -4.815  -5.278   0.198  0.00  0.00    -0.082 A 
ATOM      7  C5  PXY d   1      -3.836  -5.975  -0.418  0.00  0.00     0.003 A 
ATOM      8  C6  PXY d   1      -2.774  -5.286  -0.996  0.00  0.00     0.003 A 
ENDROOT
TORSDOF 0
ENDMDL
