MODEL 1
REMARK minimizedAffinity -0.631650507
REMARK minimizedRMSD -1
REMARK  0 active torsions:
REMARK  status: ('A' for Active; 'I' for Inactive)
ROOT
ATOM      1  C4' PXY d   1      -3.178   6.000  -5.996  0.00  0.00     0.077 C 
ATOM      2  C1' PXY d   1       1.221   2.250  -5.962  0.00  0.00     0.077 C 
ATOM      3  C1  PXY d   1       0.075   3.242  -5.966  0.00  0.00    -0.082 A 
ATOM      4  C2  PXY d   1      -1.172   2.801  -5.964  0.00  0.00     0.003 A 
ATOM      5  C3  PXY d   1      -2.220   3.685  -6.000  0.00  0.00     0.003 A 
ATOM      6  C4  PXY d   1      -1.990   5.034  -5.983  0.00  0.00    -0.082 A 
ATOM      7  C5  PXY d   1      -0.720   5.492  -5.974  0.00  0.00     0.003 A 
ATOM      8  C6  PXY d   1       0.331   4.579  -5.979  0.00  0.00     0.003 A 
ENDROOT
TORSDOF 0
ENDMDL
