MODEL 1
REMARK minimizedAffinity 6.75932646
REMARK minimizedRMSD -1
REMARK  0 active torsions:
REMARK  status: ('A' for Active; 'I' for Inactive)
ROOT
ATOM      1  C4' PXY d   1      -3.743   3.338  -5.478  0.00  0.00     0.077 C 
ATOM      2  C1' PXY d   1       1.362   5.999  -5.999  0.00  0.00     0.077 C 
ATOM      3  C1  PXY d   1       0.029   5.290  -5.866  0.00  0.00    -0.082 A 
ATOM      4  C2  PXY d   1      -1.093   5.990  -5.924  0.00  0.00     0.003 A 
ATOM      5  C3  PXY d   1      -2.306   5.369  -5.774  0.00  0.00     0.003 A 
ATOM      6  C4  PXY d   1      -2.374   4.011  -5.616  0.00  0.00    -0.082 A 
ATOM      7  C5  PXY d   1      -1.235   3.289  -5.567  0.00  0.00     0.003 A 
ATOM      8  C6  PXY d   1      -0.012   3.943  -5.680  0.00  0.00     0.003 A 
ENDROOT
TORSDOF 0
ENDMDL
