MODEL 1
REMARK minimizedAffinity 9.82567596
REMARK minimizedRMSD -1
REMARK  0 active torsions:
REMARK  status: ('A' for Active; 'I' for Inactive)
ROOT
ATOM      1  C4' PXY d   1      -1.674  -5.571   5.999  0.00  0.00     0.077 C 
ATOM      2  C1' PXY d   1      -2.601  -0.916   2.700  0.00  0.00     0.077 C 
ATOM      3  C1  PXY d   1      -2.351  -2.142   3.555  0.00  0.00    -0.082 A 
ATOM      4  C2  PXY d   1      -3.169  -2.417   4.558  0.00  0.00     0.003 A 
ATOM      5  C3  PXY d   1      -2.939  -3.504   5.362  0.00  0.00     0.003 A 
ATOM      6  C4  PXY d   1      -1.893  -4.348   5.103  0.00  0.00    -0.082 A 
ATOM      7  C5  PXY d   1      -1.060  -4.080   4.075  0.00  0.00     0.003 A 
ATOM      8  C6  PXY d   1      -1.286  -2.949   3.297  0.00  0.00     0.003 A 
ENDROOT
TORSDOF 0
ENDMDL
