MODEL 1
REMARK minimizedAffinity 9.34466839
REMARK minimizedRMSD -1
REMARK  0 active torsions:
REMARK  status: ('A' for Active; 'I' for Inactive)
ROOT
ATOM      1  C4' PXY d   1      -1.772   1.789  -4.931  0.00  0.00     0.077 C 
ATOM      2  C1' PXY d   1      -5.988   5.739  -5.145  0.00  0.00     0.077 C 
ATOM      3  C1  PXY d   1      -4.884   4.702  -5.076  0.00  0.00    -0.082 A 
ATOM      4  C2  PXY d   1      -3.937   4.693  -5.999  0.00  0.00     0.003 A 
ATOM      5  C3  PXY d   1      -2.949   3.742  -5.970  0.00  0.00     0.003 A 
ATOM      6  C4  PXY d   1      -2.901   2.824  -4.955  0.00  0.00    -0.082 A 
ATOM      7  C5  PXY d   1      -3.858   2.833  -4.004  0.00  0.00     0.003 A 
ATOM      8  C6  PXY d   1      -4.875   3.781  -4.074  0.00  0.00     0.003 A 
ENDROOT
TORSDOF 0
ENDMDL
