MODEL 1
REMARK minimizedAffinity -1.86454713
REMARK minimizedRMSD -1
REMARK  0 active torsions:
REMARK  status: ('A' for Active; 'I' for Inactive)
ROOT
ATOM      1  C4' PXY d   1      -5.029   4.982  -5.998  0.00  0.00     0.077 C 
ATOM      2  C1' PXY d   1       0.731   4.494  -5.966  0.00  0.00     0.077 C 
ATOM      3  C1  PXY d   1      -0.778   4.634  -5.970  0.00  0.00    -0.082 A 
ATOM      4  C2  PXY d   1      -1.536   3.549  -5.952  0.00  0.00     0.003 A 
ATOM      5  C3  PXY d   1      -2.902   3.657  -5.987  0.00  0.00     0.003 A 
ATOM      6  C4  PXY d   1      -3.500   4.888  -5.986  0.00  0.00    -0.082 A 
ATOM      7  C5  PXY d   1      -2.735   6.000  -5.993  0.00  0.00     0.003 A 
ATOM      8  C6  PXY d   1      -1.349   5.869  -5.999  0.00  0.00     0.003 A 
ENDROOT
TORSDOF 0
ENDMDL
