MODEL 1
REMARK minimizedAffinity 6.8503499
REMARK minimizedRMSD -1
REMARK  0 active torsions:
REMARK  status: ('A' for Active; 'I' for Inactive)
ROOT
ATOM      1  C4' PXY d   1       1.288   1.199  -3.778  0.00  0.00     0.077 C 
ATOM      2  C1' PXY d   1      -1.046   5.998  -6.000  0.00  0.00     0.077 C 
ATOM      3  C1  PXY d   1      -0.444   4.733  -5.422  0.00  0.00    -0.082 A 
ATOM      4  C2  PXY d   1       0.374   4.812  -4.385  0.00  0.00     0.003 A 
ATOM      5  C3  PXY d   1       0.953   3.680  -3.870  0.00  0.00     0.003 A 
ATOM      6  C4  PXY d   1       0.649   2.450  -4.388  0.00  0.00    -0.082 A 
ATOM      7  C5  PXY d   1      -0.193   2.360  -5.439  0.00  0.00     0.003 A 
ATOM      8  C6  PXY d   1      -0.738   3.524  -5.973  0.00  0.00     0.003 A 
ENDROOT
TORSDOF 0
ENDMDL
