MODEL 1
REMARK minimizedAffinity 10.8398905
REMARK minimizedRMSD -1
REMARK  0 active torsions:
REMARK  status: ('A' for Active; 'I' for Inactive)
ROOT
ATOM      1  C4' PXY d   1      -5.968  -6.000   1.127  0.00  0.00     0.077 C 
ATOM      2  C1' PXY d   1      -1.885  -3.625  -2.205  0.00  0.00     0.077 C 
ATOM      3  C1  PXY d   1      -2.952  -4.240  -1.321  0.00  0.00    -0.082 A 
ATOM      4  C2  PXY d   1      -3.426  -5.442  -1.608  0.00  0.00     0.003 A 
ATOM      5  C3  PXY d   1      -4.413  -6.000  -0.837  0.00  0.00     0.003 A 
ATOM      6  C4  PXY d   1      -4.883  -5.344   0.269  0.00  0.00    -0.082 A 
ATOM      7  C5  PXY d   1      -4.397  -4.122   0.574  0.00  0.00     0.003 A 
ATOM      8  C6  PXY d   1      -3.424  -3.555  -0.244  0.00  0.00     0.003 A 
ENDROOT
TORSDOF 0
ENDMDL
