MODEL 1
REMARK minimizedAffinity 8.0529108
REMARK minimizedRMSD -1
REMARK  0 active torsions:
REMARK  status: ('A' for Active; 'I' for Inactive)
ROOT
ATOM      1  C4' PXY d   1      -3.359   3.105  -5.877  0.00  0.00     0.077 C 
ATOM      2  C1' PXY d   1       1.803   5.704  -6.000  0.00  0.00     0.077 C 
ATOM      3  C1  PXY d   1       0.444   5.033  -5.963  0.00  0.00    -0.082 A 
ATOM      4  C2  PXY d   1       0.367   3.713  -5.905  0.00  0.00     0.003 A 
ATOM      5  C3  PXY d   1      -0.854   3.089  -5.903  0.00  0.00     0.003 A 
ATOM      6  C4  PXY d   1      -2.008   3.825  -5.907  0.00  0.00    -0.082 A 
ATOM      7  C5  PXY d   1      -1.938   5.173  -5.955  0.00  0.00     0.003 A 
ATOM      8  C6  PXY d   1      -0.689   5.785  -5.998  0.00  0.00     0.003 A 
ENDROOT
TORSDOF 0
ENDMDL
