MODEL 1
REMARK minimizedAffinity 0.55389154
REMARK minimizedRMSD -1
REMARK  0 active torsions:
REMARK  status: ('A' for Active; 'I' for Inactive)
ROOT
ATOM      1  C4' PXY d   1      -0.962   2.971  -5.459  0.00  0.00     0.077 C 
ATOM      2  C1' PXY d   1      -5.884   5.995  -5.671  0.00  0.00     0.077 C 
ATOM      3  C1  PXY d   1      -4.588   5.209  -5.624  0.00  0.00    -0.082 A 
ATOM      4  C2  PXY d   1      -4.599   3.953  -5.208  0.00  0.00     0.003 A 
ATOM      5  C3  PXY d   1      -3.431   3.239  -5.130  0.00  0.00     0.003 A 
ATOM      6  C4  PXY d   1      -2.248   3.799  -5.531  0.00  0.00    -0.082 A 
ATOM      7  C5  PXY d   1      -2.230   5.076  -5.967  0.00  0.00     0.003 A 
ATOM      8  C6  PXY d   1      -3.420   5.798  -6.000  0.00  0.00     0.003 A 
ENDROOT
TORSDOF 0
ENDMDL
