MODEL 1
REMARK minimizedAffinity 3.81932139
REMARK minimizedRMSD -1
REMARK  0 active torsions:
REMARK  status: ('A' for Active; 'I' for Inactive)
ROOT
ATOM      1  C   UNL d   1       2.752   2.428   0.767  0.00  0.00     0.172 C 
ATOM      2  N   UNL d   1       2.281   1.399  -0.130  0.00  0.00    -0.070 N 
ATOM      3  C1  UNL d   1       2.259   0.056   0.137  0.00  0.00    -0.004 A 
ATOM      4  C2  UNL d   1       1.740  -0.585  -0.967  0.00  0.00    -0.047 A 
ATOM      5  C3  UNL d   1       1.441   0.407  -1.931  0.00  0.00    -0.047 A 
ATOM      6  C4  UNL d   1       1.786   1.626  -1.387  0.00  0.00    -0.004 A 
ENDROOT
TORSDOF 0
ENDMDL
