MODEL 1
REMARK minimizedAffinity 4.36350679
REMARK minimizedRMSD -1
REMARK  0 active torsions:
REMARK  status: ('A' for Active; 'I' for Inactive)
ROOT
ATOM      1  C   UNL d   1      -2.312   0.637   3.035  0.00  0.00     0.172 C 
ATOM      2  N   UNL d   1      -1.130  -0.179   2.879  0.00  0.00    -0.070 N 
ATOM      3  C1  UNL d   1       0.028  -0.052   3.599  0.00  0.00    -0.004 A 
ATOM      4  C2  UNL d   1       0.910  -1.013   3.152  0.00  0.00    -0.047 A 
ATOM      5  C3  UNL d   1       0.259  -1.741   2.128  0.00  0.00    -0.047 A 
ATOM      6  C4  UNL d   1      -1.002  -1.204   1.980  0.00  0.00    -0.004 A 
ENDROOT
TORSDOF 0
ENDMDL
