MODEL 1
REMARK minimizedAffinity -0.477157533
REMARK minimizedRMSD -1
REMARK  0 active torsions:
REMARK  status: ('A' for Active; 'I' for Inactive)
ROOT
ATOM      1  C   UNL d   1       1.534   4.268   2.825  0.00  0.00     0.172 C 
ATOM      2  N   UNL d   1       1.774   4.874   4.113  0.00  0.00    -0.070 N 
ATOM      3  C1  UNL d   1       2.954   4.836   4.806  0.00  0.00    -0.004 A 
ATOM      4  C2  UNL d   1       2.775   5.529   5.984  0.00  0.00    -0.047 A 
ATOM      5  C3  UNL d   1       1.441   5.999   6.000  0.00  0.00    -0.047 A 
ATOM      6  C4  UNL d   1       0.843   5.580   4.830  0.00  0.00    -0.004 A 
ENDROOT
TORSDOF 0
ENDMDL
