MODEL 1
REMARK minimizedAffinity -3.14715433
REMARK minimizedRMSD -1
REMARK  0 active torsions:
REMARK  status: ('A' for Active; 'I' for Inactive)
ROOT
ATOM      1  C   UNL d   1      -2.888   1.501  -4.842  0.00  0.00     0.172 C 
ATOM      2  N   UNL d   1      -2.577   0.380  -3.987  0.00  0.00    -0.070 N 
ATOM      3  C1  UNL d   1      -3.028  -0.902  -4.155  0.00  0.00    -0.004 A 
ATOM      4  C2  UNL d   1      -2.508  -1.669  -3.135  0.00  0.00    -0.047 A 
ATOM      5  C3  UNL d   1      -1.719  -0.819  -2.325  0.00  0.00    -0.047 A 
ATOM      6  C4  UNL d   1      -1.779   0.444  -2.875  0.00  0.00    -0.004 A 
ENDROOT
TORSDOF 0
ENDMDL
