MODEL 1
REMARK minimizedAffinity 5.38907146
REMARK minimizedRMSD -1
REMARK  0 active torsions:
REMARK  status: ('A' for Active; 'I' for Inactive)
ROOT
ATOM      1  C   UNL d   1      -1.295  -3.352   2.993  0.00  0.00     0.172 C 
ATOM      2  N   UNL d   1      -0.313  -2.318   2.764  0.00  0.00    -0.070 N 
ATOM      3  C1  UNL d   1      -0.471  -0.989   3.051  0.00  0.00    -0.004 A 
ATOM      4  C2  UNL d   1       0.688  -0.337   2.687  0.00  0.00    -0.047 A 
ATOM      5  C3  UNL d   1       1.572  -1.309   2.161  0.00  0.00    -0.047 A 
ATOM      6  C4  UNL d   1       0.928  -2.526   2.221  0.00  0.00    -0.004 A 
ENDROOT
TORSDOF 0
ENDMDL
