MODEL 1
REMARK minimizedAffinity -1.44370949
REMARK minimizedRMSD -1
REMARK  0 active torsions:
REMARK  status: ('A' for Active; 'I' for Inactive)
ROOT
ATOM      1  C   UNL d   1      -3.103   1.123   3.346  0.00  0.00     0.172 C 
ATOM      2  N   UNL d   1      -1.906   0.356   3.092  0.00  0.00    -0.070 N 
ATOM      3  C1  UNL d   1      -0.773   0.366   3.862  0.00  0.00    -0.004 A 
ATOM      4  C2  UNL d   1       0.136  -0.496   3.287  0.00  0.00    -0.047 A 
ATOM      5  C3  UNL d   1      -0.471  -1.042   2.131  0.00  0.00    -0.047 A 
ATOM      6  C4  UNL d   1      -1.734  -0.497   2.034  0.00  0.00    -0.004 A 
ENDROOT
TORSDOF 0
ENDMDL
