MODEL 1
REMARK minimizedAffinity 0.269963384
REMARK minimizedRMSD -1
REMARK  0 active torsions:
REMARK  status: ('A' for Active; 'I' for Inactive)
ROOT
ATOM      1  C   UNL d   1       2.336   2.543  -0.282  0.00  0.00     0.172 C 
ATOM      2  N   UNL d   1       1.971   1.216  -0.719  0.00  0.00    -0.070 N 
ATOM      3  C1  UNL d   1       1.232   0.917  -1.833  0.00  0.00    -0.004 A 
ATOM      4  C2  UNL d   1       1.104  -0.453  -1.899  0.00  0.00    -0.047 A 
ATOM      5  C3  UNL d   1       1.788  -0.997  -0.787  0.00  0.00    -0.047 A 
ATOM      6  C4  UNL d   1       2.315   0.058  -0.073  0.00  0.00    -0.004 A 
ENDROOT
TORSDOF 0
ENDMDL
