MODEL 1
REMARK minimizedAffinity -3.74948668
REMARK minimizedRMSD -1
REMARK  1 active torsions:
REMARK  status: ('A' for Active; 'I' for Inactive)
REMARK    1  A    between atoms: N_2  and  C1_3 
ROOT
ATOM      1  C1  UNL d   1       5.572  -2.855   3.597  0.00  0.00     0.143 A 
ATOM      2  C2  UNL d   1       5.538  -4.253   3.634  0.00  0.00    -0.057 A 
ATOM      3  C3  UNL d   1       5.757  -5.015   2.481  0.00  0.00     0.033 A 
ATOM      4  C4  UNL d   1       5.986  -4.390   1.259  0.00  0.00    -0.042 A 
ATOM      5  C5  UNL d   1       6.000  -3.001   1.194  0.00  0.00     0.033 A 
ATOM      6  C6  UNL d   1       5.787  -2.245   2.351  0.00  0.00    -0.057 A 
ENDROOT
BRANCH   1   7
ATOM      7  N   UNL d   1       5.265  -2.040   4.690  0.00  0.00    -0.732 N 
ATOM      8  C   UNL d   1       4.911  -2.622   5.967  0.00  0.00     0.284 C 
ATOM      9  H3  UNL d   1       5.880  -1.232   4.757  0.00  0.00     0.395 HD
ENDBRANCH   1   7
TORSDOF 1
ENDMDL
