MODEL 1
REMARK minimizedAffinity -2.83282328
REMARK minimizedRMSD -1
REMARK  1 active torsions:
REMARK  status: ('A' for Active; 'I' for Inactive)
REMARK    1  A    between atoms: N_2  and  C1_3 
ROOT
ATOM      1  C1  UNL d   1       5.816  -4.123   3.416  0.00  0.00     0.143 A 
ATOM      2  C2  UNL d   1       6.000  -4.908   4.560  0.00  0.00    -0.057 A 
ATOM      3  C3  UNL d   1       5.974  -4.343   5.840  0.00  0.00     0.033 A 
ATOM      4  C4  UNL d   1       5.792  -2.973   5.999  0.00  0.00    -0.042 A 
ATOM      5  C5  UNL d   1       5.632  -2.170   4.876  0.00  0.00     0.033 A 
ATOM      6  C6  UNL d   1       5.652  -2.741   3.600  0.00  0.00    -0.057 A 
ENDROOT
BRANCH   1   7
ATOM      7  N   UNL d   1       5.929  -4.610   2.112  0.00  0.00    -0.732 N 
ATOM      8  C   UNL d   1       5.963  -3.701   0.986  0.00  0.00     0.284 C 
ATOM      9  H3  UNL d   1       6.587  -5.383   2.042  0.00  0.00     0.395 HD
ENDBRANCH   1   7
TORSDOF 1
ENDMDL
