MODEL 1
REMARK minimizedAffinity -3.25971437
REMARK minimizedRMSD -1
REMARK  1 active torsions:
REMARK  status: ('A' for Active; 'I' for Inactive)
REMARK    1  A    between atoms: N_2  and  C1_3 
ROOT
ATOM      1  C1  UNL d   1       5.617  -4.468   3.939  0.00  0.00     0.143 A 
ATOM      2  C2  UNL d   1       5.920  -3.120   3.714  0.00  0.00    -0.057 A 
ATOM      3  C3  UNL d   1       5.530  -2.127   4.621  0.00  0.00     0.033 A 
ATOM      4  C4  UNL d   1       4.803  -2.462   5.758  0.00  0.00    -0.042 A 
ATOM      5  C5  UNL d   1       4.469  -3.792   5.990  0.00  0.00     0.033 A 
ATOM      6  C6  UNL d   1       4.867  -4.780   5.084  0.00  0.00    -0.057 A 
ENDROOT
BRANCH   1   7
ATOM      7  N   UNL d   1       5.891  -5.489   3.027  0.00  0.00    -0.732 N 
ATOM      8  C   UNL d   1       5.975  -5.209   1.609  0.00  0.00     0.284 C 
ATOM      9  H3  UNL d   1       6.603  -6.133   3.366  0.00  0.00     0.395 HD
ENDBRANCH   1   7
TORSDOF 1
ENDMDL
