MODEL 1
REMARK minimizedAffinity -3.32923365
REMARK minimizedRMSD -1
REMARK  1 active torsions:
REMARK  status: ('A' for Active; 'I' for Inactive)
REMARK    1  A    between atoms: N_2  and  C1_3 
ROOT
ATOM      1  C1  UNL d   1       5.004  -4.452   4.609  0.00  0.00     0.143 A 
ATOM      2  C2  UNL d   1       5.437  -3.288   5.253  0.00  0.00    -0.057 A 
ATOM      3  C3  UNL d   1       5.914  -2.191   4.526  0.00  0.00     0.033 A 
ATOM      4  C4  UNL d   1       5.995  -2.250   3.138  0.00  0.00    -0.042 A 
ATOM      5  C5  UNL d   1       5.594  -3.406   2.479  0.00  0.00     0.033 A 
ATOM      6  C6  UNL d   1       5.112  -4.496   3.210  0.00  0.00    -0.057 A 
ENDROOT
BRANCH   1   7
ATOM      7  N   UNL d   1       4.612  -5.613   5.280  0.00  0.00    -0.732 N 
ATOM      8  C   UNL d   1       3.357  -5.659   6.000  0.00  0.00     0.284 C 
ATOM      9  H3  UNL d   1       4.819  -6.457   4.751  0.00  0.00     0.395 HD
ENDBRANCH   1   7
TORSDOF 1
ENDMDL
