MODEL 1
REMARK minimizedAffinity -3.83763027
REMARK minimizedRMSD -1
REMARK  1 active torsions:
REMARK  status: ('A' for Active; 'I' for Inactive)
REMARK    1  A    between atoms: N_2  and  C1_3 
ROOT
ATOM      1  C1  UNL d   1       5.644  -4.409   3.892  0.00  0.00     0.143 A 
ATOM      2  C2  UNL d   1       5.620  -4.292   2.499  0.00  0.00    -0.057 A 
ATOM      3  C3  UNL d   1       5.625  -3.038   1.875  0.00  0.00     0.033 A 
ATOM      4  C4  UNL d   1       5.626  -1.875   2.639  0.00  0.00    -0.042 A 
ATOM      5  C5  UNL d   1       5.624  -1.968   4.026  0.00  0.00     0.033 A 
ATOM      6  C6  UNL d   1       5.626  -3.222   4.642  0.00  0.00    -0.057 A 
ENDROOT
BRANCH   1   7
ATOM      7  N   UNL d   1       5.540  -5.625   4.572  0.00  0.00    -0.732 N 
ATOM      8  C   UNL d   1       6.000  -5.747   5.939  0.00  0.00     0.284 C 
ATOM      9  H3  UNL d   1       4.660  -6.100   4.386  0.00  0.00     0.395 HD
ENDBRANCH   1   7
TORSDOF 1
ENDMDL
