MODEL 1
REMARK minimizedAffinity -2.65499806
REMARK minimizedRMSD -1
REMARK  1 active torsions:
REMARK  status: ('A' for Active; 'I' for Inactive)
REMARK    1  A    between atoms: N_2  and  C1_3 
ROOT
ATOM      1  C1  UNL d   1       5.275  -5.046   3.621  0.00  0.00     0.143 A 
ATOM      2  C2  UNL d   1       5.631  -5.385   2.311  0.00  0.00    -0.057 A 
ATOM      3  C3  UNL d   1       6.000  -4.405   1.382  0.00  0.00     0.033 A 
ATOM      4  C4  UNL d   1       5.991  -3.061   1.740  0.00  0.00    -0.042 A 
ATOM      5  C5  UNL d   1       5.616  -2.699   3.029  0.00  0.00     0.033 A 
ATOM      6  C6  UNL d   1       5.255  -3.683   3.954  0.00  0.00    -0.057 A 
ENDROOT
BRANCH   1   7
ATOM      7  N   UNL d   1       4.804  -5.966   4.562  0.00  0.00    -0.732 N 
ATOM      8  C   UNL d   1       5.254  -5.911   5.936  0.00  0.00     0.284 C 
ATOM      9  H3  UNL d   1       3.809  -6.153   4.457  0.00  0.00     0.395 HD
ENDBRANCH   1   7
TORSDOF 1
ENDMDL
