MODEL 1
REMARK minimizedAffinity -3.27577567
REMARK minimizedRMSD -1
REMARK  1 active torsions:
REMARK  status: ('A' for Active; 'I' for Inactive)
REMARK    1  A    between atoms: N_2  and  C1_3 
ROOT
ATOM      1  C1  UNL d   1       5.288  -4.691   4.782  0.00  0.00     0.143 A 
ATOM      2  C2  UNL d   1       5.632  -4.727   3.427  0.00  0.00    -0.057 A 
ATOM      3  C3  UNL d   1       5.998  -3.563   2.740  0.00  0.00     0.033 A 
ATOM      4  C4  UNL d   1       5.998  -2.334   3.392  0.00  0.00    -0.042 A 
ATOM      5  C5  UNL d   1       5.635  -2.271   4.733  0.00  0.00     0.033 A 
ATOM      6  C6  UNL d   1       5.277  -3.438   5.415  0.00  0.00    -0.057 A 
ENDROOT
BRANCH   1   7
ATOM      7  N   UNL d   1       4.820  -5.798   5.495  0.00  0.00    -0.732 N 
ATOM      8  C   UNL d   1       3.464  -5.830   6.000  0.00  0.00     0.284 C 
ATOM      9  H3  UNL d   1       5.137  -6.679   5.097  0.00  0.00     0.395 HD
ENDBRANCH   1   7
TORSDOF 1
ENDMDL
