MODEL 1
REMARK minimizedAffinity -3.55403614
REMARK minimizedRMSD -1
REMARK  1 active torsions:
REMARK  status: ('A' for Active; 'I' for Inactive)
REMARK    1  A    between atoms: N_2  and  C1_3 
ROOT
ATOM      1  C1  UNL d   1       5.600  -4.610   3.892  0.00  0.00     0.143 A 
ATOM      2  C2  UNL d   1       5.953  -4.889   2.567  0.00  0.00    -0.057 A 
ATOM      3  C3  UNL d   1       5.999  -3.877   1.601  0.00  0.00     0.033 A 
ATOM      4  C4  UNL d   1       5.664  -2.570   1.937  0.00  0.00    -0.042 A 
ATOM      5  C5  UNL d   1       5.286  -2.274   3.242  0.00  0.00     0.033 A 
ATOM      6  C6  UNL d   1       5.249  -3.287   4.204  0.00  0.00    -0.057 A 
ENDROOT
BRANCH   1   7
ATOM      7  N   UNL d   1       5.441  -5.589   4.877  0.00  0.00    -0.732 N 
ATOM      8  C   UNL d   1       4.555  -5.367   6.000  0.00  0.00     0.284 C 
ATOM      9  H3  UNL d   1       5.391  -6.527   4.487  0.00  0.00     0.395 HD
ENDBRANCH   1   7
TORSDOF 1
ENDMDL
