MODEL 1
REMARK minimizedAffinity -3.36824799
REMARK minimizedRMSD -1
REMARK  1 active torsions:
REMARK  status: ('A' for Active; 'I' for Inactive)
REMARK    1  A    between atoms: N_2  and  C1_3 
ROOT
ATOM      1  C1  UNL d   1       5.200  -3.726   4.559  0.00  0.00     0.143 A 
ATOM      2  C2  UNL d   1       5.608  -2.411   4.316  0.00  0.00    -0.057 A 
ATOM      3  C3  UNL d   1       5.991  -1.994   3.036  0.00  0.00     0.033 A 
ATOM      4  C4  UNL d   1       6.000  -2.897   1.978  0.00  0.00    -0.042 A 
ATOM      5  C5  UNL d   1       5.622  -4.216   2.201  0.00  0.00     0.033 A 
ATOM      6  C6  UNL d   1       5.234  -4.624   3.481  0.00  0.00    -0.057 A 
ENDROOT
BRANCH   1   7
ATOM      7  N   UNL d   1       4.902  -4.227   5.829  0.00  0.00    -0.732 N 
ATOM      8  C   UNL d   1       4.473  -5.598   5.999  0.00  0.00     0.284 C 
ATOM      9  H3  UNL d   1       5.559  -3.906   6.537  0.00  0.00     0.395 HD
ENDBRANCH   1   7
TORSDOF 1
ENDMDL
