MODEL 1
REMARK minimizedAffinity -3.62086344
REMARK minimizedRMSD -1
REMARK  1 active torsions:
REMARK  status: ('A' for Active; 'I' for Inactive)
REMARK    1  A    between atoms: N_2  and  C1_3 
ROOT
ATOM      1  C1  UNL d   1       5.443  -4.816   3.833  0.00  0.00     0.143 A 
ATOM      2  C2  UNL d   1       5.739  -5.249   2.536  0.00  0.00    -0.057 A 
ATOM      3  C3  UNL d   1       6.000  -4.336   1.508  0.00  0.00     0.033 A 
ATOM      4  C4  UNL d   1       5.940  -2.968   1.752  0.00  0.00    -0.042 A 
ATOM      5  C5  UNL d   1       5.623  -2.514   3.028  0.00  0.00     0.033 A 
ATOM      6  C6  UNL d   1       5.370  -3.431   4.052  0.00  0.00    -0.057 A 
ENDROOT
BRANCH   1   7
ATOM      7  N   UNL d   1       5.078  -5.672   4.875  0.00  0.00    -0.732 N 
ATOM      8  C   UNL d   1       4.124  -5.249   5.877  0.00  0.00     0.284 C 
ATOM      9  H3  UNL d   1       4.954  -6.633   4.563  0.00  0.00     0.395 HD
ENDBRANCH   1   7
TORSDOF 1
ENDMDL
