MODEL 1
REMARK minimizedAffinity -1.59873068
REMARK minimizedRMSD -1
REMARK  1 active torsions:
REMARK  status: ('A' for Active; 'I' for Inactive)
REMARK    1  A    between atoms: N_2  and  C1_3 
ROOT
ATOM      1  C1  UNL d   1       5.685  -3.574   3.899  0.00  0.00     0.143 A 
ATOM      2  C2  UNL d   1       6.000  -4.797   3.298  0.00  0.00    -0.057 A 
ATOM      3  C3  UNL d   1       5.914  -6.000   4.009  0.00  0.00     0.033 A 
ATOM      4  C4  UNL d   1       5.537  -5.997   5.348  0.00  0.00    -0.042 A 
ATOM      5  C5  UNL d   1       5.244  -4.791   5.974  0.00  0.00     0.033 A 
ATOM      6  C6  UNL d   1       5.325  -3.594   5.256  0.00  0.00    -0.057 A 
ENDROOT
BRANCH   1   7
ATOM      7  N   UNL d   1       5.846  -2.335   3.274  0.00  0.00    -0.732 N 
ATOM      8  C   UNL d   1       5.999  -2.249   1.837  0.00  0.00     0.284 C 
ATOM      9  H3  UNL d   1       5.244  -1.618   3.671  0.00  0.00     0.395 HD
ENDBRANCH   1   7
TORSDOF 1
ENDMDL
