MODEL 1
REMARK minimizedAffinity -2.74682879
REMARK minimizedRMSD -1
REMARK  1 active torsions:
REMARK  status: ('A' for Active; 'I' for Inactive)
REMARK    1  A    between atoms: N_2  and  C1_3 
ROOT
ATOM      1  C1  UNL d   1       5.532  -4.847   4.012  0.00  0.00     0.143 A 
ATOM      2  C2  UNL d   1       5.580  -3.546   3.502  0.00  0.00    -0.057 A 
ATOM      3  C3  UNL d   1       5.085  -2.460   4.234  0.00  0.00     0.033 A 
ATOM      4  C4  UNL d   1       4.505  -2.662   5.482  0.00  0.00    -0.042 A 
ATOM      5  C5  UNL d   1       4.425  -3.950   5.999  0.00  0.00     0.033 A 
ATOM      6  C6  UNL d   1       4.927  -5.030   5.265  0.00  0.00    -0.057 A 
ENDROOT
BRANCH   1   7
ATOM      7  N   UNL d   1       5.918  -5.980   3.291  0.00  0.00    -0.732 N 
ATOM      8  C   UNL d   1       6.000  -5.942   1.847  0.00  0.00     0.284 C 
ATOM      9  H3  UNL d   1       6.681  -6.484   3.737  0.00  0.00     0.395 HD
ENDBRANCH   1   7
TORSDOF 1
ENDMDL
