MODEL 1
REMARK minimizedAffinity -3.13919568
REMARK minimizedRMSD -1
REMARK  1 active torsions:
REMARK  status: ('A' for Active; 'I' for Inactive)
REMARK    1  A    between atoms: N_2  and  C1_3 
ROOT
ATOM      1  C1  UNL d   1       5.725  -3.232   3.202  0.00  0.00     0.143 A 
ATOM      2  C2  UNL d   1       5.361  -4.471   3.739  0.00  0.00    -0.057 A 
ATOM      3  C3  UNL d   1       5.212  -4.648   5.120  0.00  0.00     0.033 A 
ATOM      4  C4  UNL d   1       5.453  -3.592   5.993  0.00  0.00    -0.042 A 
ATOM      5  C5  UNL d   1       5.840  -2.358   5.482  0.00  0.00     0.033 A 
ATOM      6  C6  UNL d   1       5.981  -2.186   4.102  0.00  0.00    -0.057 A 
ENDROOT
BRANCH   1   7
ATOM      7  N   UNL d   1       5.986  -3.019   1.846  0.00  0.00    -0.732 N 
ATOM      8  C   UNL d   1       5.994  -4.126   0.914  0.00  0.00     0.284 C 
ATOM      9  H3  UNL d   1       5.533  -2.180   1.490  0.00  0.00     0.395 HD
ENDBRANCH   1   7
TORSDOF 1
ENDMDL
