MODEL 1
REMARK minimizedAffinity -2.80034113
REMARK minimizedRMSD -1
REMARK  1 active torsions:
REMARK  status: ('A' for Active; 'I' for Inactive)
REMARK    1  A    between atoms: N_2  and  C1_3 
ROOT
ATOM      1  C1  UNL d   1       5.812  -4.441   3.708  0.00  0.00     0.143 A 
ATOM      2  C2  UNL d   1       5.983  -3.052   3.686  0.00  0.00    -0.057 A 
ATOM      3  C3  UNL d   1       5.685  -2.266   4.805  0.00  0.00     0.033 A 
ATOM      4  C4  UNL d   1       5.180  -2.853   5.961  0.00  0.00    -0.042 A 
ATOM      5  C5  UNL d   1       4.979  -4.229   5.997  0.00  0.00     0.033 A 
ATOM      6  C6  UNL d   1       5.285  -5.009   4.878  0.00  0.00    -0.057 A 
ENDROOT
BRANCH   1   7
ATOM      7  N   UNL d   1       5.998  -5.265   2.595  0.00  0.00    -0.732 N 
ATOM      8  C   UNL d   1       6.000  -4.710   1.259  0.00  0.00     0.284 C 
ATOM      9  H3  UNL d   1       6.710  -5.974   2.752  0.00  0.00     0.395 HD
ENDBRANCH   1   7
TORSDOF 1
ENDMDL
