MODEL 1
REMARK minimizedAffinity -2.73812866
REMARK minimizedRMSD -1
REMARK  1 active torsions:
REMARK  status: ('A' for Active; 'I' for Inactive)
REMARK    1  A    between atoms: N_2  and  C1_3 
ROOT
ATOM      1  C1  UNL d   1       5.643  -3.558   3.909  0.00  0.00     0.143 A 
ATOM      2  C2  UNL d   1       5.664  -2.160   3.857  0.00  0.00    -0.057 A 
ATOM      3  C3  UNL d   1       5.821  -1.481   2.643  0.00  0.00     0.033 A 
ATOM      4  C4  UNL d   1       5.990  -2.190   1.459  0.00  0.00    -0.042 A 
ATOM      5  C5  UNL d   1       5.998  -3.580   1.489  0.00  0.00     0.033 A 
ATOM      6  C6  UNL d   1       5.834  -4.253   2.704  0.00  0.00    -0.057 A 
ENDROOT
BRANCH   1   7
ATOM      7  N   UNL d   1       5.589  -4.292   5.096  0.00  0.00    -0.732 N 
ATOM      8  C   UNL d   1       4.468  -4.150   6.000  0.00  0.00     0.284 C 
ATOM      9  H3  UNL d   1       5.907  -5.251   4.975  0.00  0.00     0.395 HD
ENDBRANCH   1   7
TORSDOF 1
ENDMDL
