MODEL 1
REMARK minimizedAffinity -3.84920883
REMARK minimizedRMSD -1
REMARK  1 active torsions:
REMARK  status: ('A' for Active; 'I' for Inactive)
REMARK    1  A    between atoms: N_2  and  C1_3 
ROOT
ATOM      1  C1  UNL d   1       5.326  -4.153   4.246  0.00  0.00     0.143 A 
ATOM      2  C2  UNL d   1       5.655  -4.709   3.005  0.00  0.00    -0.057 A 
ATOM      3  C3  UNL d   1       6.000  -3.900   1.915  0.00  0.00     0.033 A 
ATOM      4  C4  UNL d   1       5.995  -2.515   2.041  0.00  0.00    -0.042 A 
ATOM      5  C5  UNL d   1       5.648  -1.939   3.258  0.00  0.00     0.033 A 
ATOM      6  C6  UNL d   1       5.310  -2.752   4.344  0.00  0.00    -0.057 A 
ENDROOT
BRANCH   1   7
ATOM      7  N   UNL d   1       4.879  -4.899   5.339  0.00  0.00    -0.732 N 
ATOM      8  C   UNL d   1       5.759  -5.839   6.000  0.00  0.00     0.284 C 
ATOM      9  H3  UNL d   1       4.304  -4.351   5.974  0.00  0.00     0.395 HD
ENDBRANCH   1   7
TORSDOF 1
ENDMDL
