MODEL 1
REMARK minimizedAffinity 1.9758718
REMARK minimizedRMSD -1
REMARK  0 active torsions:
REMARK  status: ('A' for Active; 'I' for Inactive)
ROOT
ATOM      1  C   UNL d   1      -4.323  -3.364   3.082  0.00  0.00     0.172 C 
ATOM      2  N   UNL d   1      -4.971  -4.198   4.066  0.00  0.00    -0.070 N 
ATOM      3  C1  UNL d   1      -5.353  -3.802   5.321  0.00  0.00    -0.004 A 
ATOM      4  C2  UNL d   1      -5.934  -4.885   5.946  0.00  0.00    -0.047 A 
ATOM      5  C3  UNL d   1      -5.898  -5.968   5.037  0.00  0.00    -0.047 A 
ATOM      6  C4  UNL d   1      -5.297  -5.516   3.881  0.00  0.00    -0.004 A 
ENDROOT
TORSDOF 0
ENDMDL
