MODEL 1
REMARK minimizedAffinity 6.72495556
REMARK minimizedRMSD -1
REMARK  0 active torsions:
REMARK  status: ('A' for Active; 'I' for Inactive)
ROOT
ATOM      1  C   UNL d   1       3.000   2.542  -3.374  0.00  0.00     0.172 C 
ATOM      2  N   UNL d   1       2.974   3.946  -3.038  0.00  0.00    -0.070 N 
ATOM      3  C1  UNL d   1       4.060   4.706  -2.696  0.00  0.00    -0.004 A 
ATOM      4  C2  UNL d   1       3.619   5.988  -2.451  0.00  0.00    -0.047 A 
ATOM      5  C3  UNL d   1       2.218   5.999  -2.652  0.00  0.00    -0.047 A 
ATOM      6  C4  UNL d   1       1.845   4.722  -3.014  0.00  0.00    -0.004 A 
ENDROOT
TORSDOF 0
ENDMDL
