MODEL 1
REMARK minimizedAffinity 6.41072226
REMARK minimizedRMSD -1
REMARK  0 active torsions:
REMARK  status: ('A' for Active; 'I' for Inactive)
ROOT
ATOM      1  C   UNL d   1      -2.789   0.278   3.658  0.00  0.00     0.172 C 
ATOM      2  N   UNL d   1      -2.129  -0.377   2.554  0.00  0.00    -0.070 N 
ATOM      3  C1  UNL d   1      -1.390   0.245   1.583  0.00  0.00    -0.004 A 
ATOM      4  C2  UNL d   1      -0.931  -0.724   0.717  0.00  0.00    -0.047 A 
ATOM      5  C3  UNL d   1      -1.411  -1.971   1.183  0.00  0.00    -0.047 A 
ATOM      6  C4  UNL d   1      -2.150  -1.727   2.321  0.00  0.00    -0.004 A 
ENDROOT
TORSDOF 0
ENDMDL
