MODEL 1
REMARK minimizedAffinity 4.34597731
REMARK minimizedRMSD -1
REMARK  0 active torsions:
REMARK  status: ('A' for Active; 'I' for Inactive)
ROOT
ATOM      1  C   UNL d   1       5.886   5.605  -1.731  0.00  0.00     0.172 C 
ATOM      2  N   UNL d   1       5.391   4.834  -2.847  0.00  0.00    -0.070 N 
ATOM      3  C1  UNL d   1       5.999   4.715  -4.068  0.00  0.00    -0.004 A 
ATOM      4  C2  UNL d   1       5.216   3.897  -4.852  0.00  0.00    -0.047 A 
ATOM      5  C3  UNL d   1       4.097   3.511  -4.076  0.00  0.00    -0.047 A 
ATOM      6  C4  UNL d   1       4.231   4.105  -2.839  0.00  0.00    -0.004 A 
ENDROOT
TORSDOF 0
ENDMDL
