MODEL 1
REMARK minimizedAffinity 6.17132378
REMARK minimizedRMSD -1
REMARK  0 active torsions:
REMARK  status: ('A' for Active; 'I' for Inactive)
ROOT
ATOM      1  C   UNL d   1      -4.149   4.988  -5.998  0.00  0.00     0.172 C 
ATOM      2  N   UNL d   1      -2.709   4.921  -5.907  0.00  0.00    -0.070 N 
ATOM      3  C1  UNL d   1      -1.956   3.781  -5.998  0.00  0.00    -0.004 A 
ATOM      4  C2  UNL d   1      -0.632   4.138  -5.862  0.00  0.00    -0.047 A 
ATOM      5  C3  UNL d   1      -0.588   5.541  -5.682  0.00  0.00    -0.047 A 
ATOM      6  C4  UNL d   1      -1.888   6.000  -5.714  0.00  0.00    -0.004 A 
ENDROOT
TORSDOF 0
ENDMDL
