MODEL 1
REMARK minimizedAffinity 5.68250704
REMARK minimizedRMSD -1
REMARK  0 active torsions:
REMARK  status: ('A' for Active; 'I' for Inactive)
ROOT
ATOM      1  C   UNL d   1       5.997   3.021   0.742  0.00  0.00     0.172 C 
ATOM      2  N   UNL d   1       4.860   2.135   0.656  0.00  0.00    -0.070 N 
ATOM      3  C1  UNL d   1       4.094   1.715   1.710  0.00  0.00    -0.004 A 
ATOM      4  C2  UNL d   1       3.113   0.884   1.214  0.00  0.00    -0.047 A 
ATOM      5  C3  UNL d   1       3.297   0.800  -0.186  0.00  0.00    -0.047 A 
ATOM      6  C4  UNL d   1       4.386   1.584  -0.505  0.00  0.00    -0.004 A 
ENDROOT
TORSDOF 0
ENDMDL
