MODEL 1
REMARK minimizedAffinity 3.20992041
REMARK minimizedRMSD -1
REMARK  0 active torsions:
REMARK  status: ('A' for Active; 'I' for Inactive)
ROOT
ATOM      1  C   UNL d   1      -1.127  -5.999  -5.939  0.00  0.00     0.172 C 
ATOM      2  N   UNL d   1      -1.113  -5.282  -4.686  0.00  0.00    -0.070 N 
ATOM      3  C1  UNL d   1      -2.119  -5.278  -3.757  0.00  0.00    -0.004 A 
ATOM      4  C2  UNL d   1      -1.721  -4.479  -2.707  0.00  0.00    -0.047 A 
ATOM      5  C3  UNL d   1      -0.432  -3.984  -3.017  0.00  0.00    -0.047 A 
ATOM      6  C4  UNL d   1      -0.080  -4.497  -4.247  0.00  0.00    -0.004 A 
ENDROOT
TORSDOF 0
ENDMDL
