MODEL 1
REMARK minimizedAffinity 5.71739054
REMARK minimizedRMSD -1
REMARK  0 active torsions:
REMARK  status: ('A' for Active; 'I' for Inactive)
ROOT
ATOM      1  C   UNL d   1      -1.881  -3.831  -3.062  0.00  0.00     0.172 C 
ATOM      2  N   UNL d   1      -1.874  -4.678  -4.231  0.00  0.00    -0.070 N 
ATOM      3  C1  UNL d   1      -0.769  -5.015  -4.966  0.00  0.00    -0.004 A 
ATOM      4  C2  UNL d   1      -1.180  -5.835  -5.995  0.00  0.00    -0.047 A 
ATOM      5  C3  UNL d   1      -2.581  -5.994  -5.875  0.00  0.00    -0.047 A 
ATOM      6  C4  UNL d   1      -2.985  -5.268  -4.775  0.00  0.00    -0.004 A 
ENDROOT
TORSDOF 0
ENDMDL
