MODEL 1
REMARK minimizedAffinity 1.66895854
REMARK minimizedRMSD -1
REMARK  0 active torsions:
REMARK  status: ('A' for Active; 'I' for Inactive)
ROOT
ATOM      1  C   UNL d   1       5.073   3.314   1.783  0.00  0.00     0.172 C 
ATOM      2  N   UNL d   1       4.012   2.514   1.217  0.00  0.00    -0.070 N 
ATOM      3  C1  UNL d   1       2.985   2.983   0.442  0.00  0.00    -0.004 A 
ATOM      4  C2  UNL d   1       2.189   1.910   0.102  0.00  0.00    -0.047 A 
ATOM      5  C3  UNL d   1       2.757   0.757   0.694  0.00  0.00    -0.047 A 
ATOM      6  C4  UNL d   1       3.884   1.160   1.379  0.00  0.00    -0.004 A 
ENDROOT
TORSDOF 0
ENDMDL
