MODEL 1
REMARK minimizedAffinity 7.2575469
REMARK minimizedRMSD -1
REMARK  0 active torsions:
REMARK  status: ('A' for Active; 'I' for Inactive)
ROOT
ATOM      1  C   UNL d   1      -2.375   0.961   3.455  0.00  0.00     0.172 C 
ATOM      2  N   UNL d   1      -2.044  -0.172   2.623  0.00  0.00    -0.070 N 
ATOM      3  C1  UNL d   1      -0.805  -0.452   2.112  0.00  0.00    -0.004 A 
ATOM      4  C2  UNL d   1      -0.905  -1.613   1.376  0.00  0.00    -0.047 A 
ATOM      5  C3  UNL d   1      -2.251  -2.045   1.447  0.00  0.00    -0.047 A 
ATOM      6  C4  UNL d   1      -2.934  -1.134   2.225  0.00  0.00    -0.004 A 
ENDROOT
TORSDOF 0
ENDMDL
