MODEL 1
REMARK minimizedAffinity 0.520757973
REMARK minimizedRMSD -1
REMARK  0 active torsions:
REMARK  status: ('A' for Active; 'I' for Inactive)
ROOT
ATOM      1  C   UNL d   1      -4.480  -0.983  -2.221  0.00  0.00     0.172 C 
ATOM      2  N   UNL d   1      -3.745  -1.895  -3.065  0.00  0.00    -0.070 N 
ATOM      3  C1  UNL d   1      -4.295  -2.850  -3.878  0.00  0.00    -0.004 A 
ATOM      4  C2  UNL d   1      -3.264  -3.508  -4.513  0.00  0.00    -0.047 A 
ATOM      5  C3  UNL d   1      -2.053  -2.929  -4.065  0.00  0.00    -0.047 A 
ATOM      6  C4  UNL d   1      -2.380  -1.934  -3.169  0.00  0.00    -0.004 A 
ENDROOT
TORSDOF 0
ENDMDL
