MODEL 1
REMARK minimizedAffinity 0.332118422
REMARK minimizedRMSD -1
REMARK  0 active torsions:
REMARK  status: ('A' for Active; 'I' for Inactive)
ROOT
ATOM      1  C   UNL d   1       0.120  -3.217   0.491  0.00  0.00     0.172 C 
ATOM      2  N   UNL d   1       1.543  -3.048   0.311  0.00  0.00    -0.070 N 
ATOM      3  C1  UNL d   1       2.424  -4.031  -0.055  0.00  0.00    -0.004 A 
ATOM      4  C2  UNL d   1       3.680  -3.469  -0.119  0.00  0.00    -0.047 A 
ATOM      5  C3  UNL d   1       3.551  -2.101   0.221  0.00  0.00    -0.047 A 
ATOM      6  C4  UNL d   1       2.217  -1.868   0.482  0.00  0.00    -0.004 A 
ENDROOT
TORSDOF 0
ENDMDL
