MODEL 1
REMARK minimizedAffinity 0.0679129586
REMARK minimizedRMSD -1
REMARK  0 active torsions:
REMARK  status: ('A' for Active; 'I' for Inactive)
ROOT
ATOM      1  C   UNL d   1      -4.197  -2.920   1.743  0.00  0.00     0.172 C 
ATOM      2  N   UNL d   1      -4.928  -4.166   1.738  0.00  0.00    -0.070 N 
ATOM      3  C1  UNL d   1      -5.336  -4.847   0.623  0.00  0.00    -0.004 A 
ATOM      4  C2  UNL d   1      -5.998  -5.982   1.040  0.00  0.00    -0.047 A 
ATOM      5  C3  UNL d   1      -5.989  -5.981   2.456  0.00  0.00    -0.047 A 
ATOM      6  C4  UNL d   1      -5.320  -4.845   2.861  0.00  0.00    -0.004 A 
ENDROOT
TORSDOF 0
ENDMDL
