MODEL 1
REMARK minimizedAffinity 0.351140559
REMARK minimizedRMSD -1
REMARK  0 active torsions:
REMARK  status: ('A' for Active; 'I' for Inactive)
ROOT
ATOM      1  C   UNL d   1       3.866  -5.234   0.166  0.00  0.00     0.172 C 
ATOM      2  N   UNL d   1       2.791  -4.276   0.278  0.00  0.00    -0.070 N 
ATOM      3  C1  UNL d   1       2.941  -2.921   0.407  0.00  0.00    -0.004 A 
ATOM      4  C2  UNL d   1       1.683  -2.363   0.484  0.00  0.00    -0.047 A 
ATOM      5  C3  UNL d   1       0.745  -3.419   0.399  0.00  0.00    -0.047 A 
ATOM      6  C4  UNL d   1       1.459  -4.592   0.273  0.00  0.00    -0.004 A 
ENDROOT
TORSDOF 0
ENDMDL
