MODEL 1
REMARK minimizedAffinity -2.40011501
REMARK minimizedRMSD -1
REMARK  0 active torsions:
REMARK  status: ('A' for Active; 'I' for Inactive)
ROOT
ATOM      1  C   UNL d   1      -5.536  -2.510   5.896  0.00  0.00     0.172 C 
ATOM      2  N   UNL d   1      -5.447  -3.803   5.260  0.00  0.00    -0.070 N 
ATOM      3  C1  UNL d   1      -5.602  -5.012   5.885  0.00  0.00    -0.004 A 
ATOM      4  C2  UNL d   1      -5.444  -6.000   4.938  0.00  0.00    -0.047 A 
ATOM      5  C3  UNL d   1      -5.183  -5.363   3.701  0.00  0.00    -0.047 A 
ATOM      6  C4  UNL d   1      -5.191  -4.003   3.930  0.00  0.00    -0.004 A 
ENDROOT
TORSDOF 0
ENDMDL
