MODEL 1
REMARK minimizedAffinity -3.60549307
REMARK minimizedRMSD -1
REMARK  1 active torsions:
REMARK  status: ('A' for Active; 'I' for Inactive)
REMARK    1  A    between atoms: C3_4  and  O_7 
ROOT
ATOM      1  C   UNL d   1       0.379  -0.571  -1.693  0.00  0.00    -0.033 A 
ATOM      2  C1  UNL d   1       0.008   0.612  -2.336  0.00  0.00     0.039 A 
ATOM      3  C2  UNL d   1      -0.752   1.568  -1.659  0.00  0.00    -0.080 A 
ATOM      4  C3  UNL d   1      -1.133   1.330  -0.341  0.00  0.00     0.150 A 
ATOM      5  C4  UNL d   1      -0.763   0.156   0.307  0.00  0.00    -0.007 A 
ATOM      6  C5  UNL d   1      -0.005  -0.798  -0.371  0.00  0.00     0.039 A 
ENDROOT
BRANCH   4   7
ATOM      7  O   UNL d   1      -1.879   2.231   0.359  0.00  0.00    -0.526 OA
ATOM      8  H5  UNL d   1      -2.084   2.980  -0.225  0.00  0.00     0.418 HD
ENDBRANCH   4   7
TORSDOF 1
ENDMDL
