MODEL 1
REMARK minimizedAffinity -2.5314486
REMARK minimizedRMSD -1
REMARK  1 active torsions:
REMARK  status: ('A' for Active; 'I' for Inactive)
REMARK    1  A    between atoms: C3_4  and  O_7 
ROOT
ATOM      1  C   UNL d   1       0.902   0.093  -2.213  0.00  0.00    -0.033 A 
ATOM      2  C1  UNL d   1       1.263  -0.671  -1.102  0.00  0.00     0.039 A 
ATOM      3  C2  UNL d   1       0.784  -0.335   0.166  0.00  0.00    -0.080 A 
ATOM      4  C3  UNL d   1      -0.057   0.766   0.308  0.00  0.00     0.150 A 
ATOM      5  C4  UNL d   1      -0.424   1.530  -0.795  0.00  0.00    -0.007 A 
ATOM      6  C5  UNL d   1       0.057   1.193  -2.060  0.00  0.00     0.039 A 
ENDROOT
BRANCH   4   7
ATOM      7  O   UNL d   1      -0.546   1.136   1.525  0.00  0.00    -0.526 OA
ATOM      8  H5  UNL d   1      -0.185   0.535   2.198  0.00  0.00     0.418 HD
ENDBRANCH   4   7
TORSDOF 1
ENDMDL
