MODEL 1
REMARK minimizedAffinity -5.05973911
REMARK minimizedRMSD -1
REMARK  1 active torsions:
REMARK  status: ('A' for Active; 'I' for Inactive)
REMARK    1  A    between atoms: C3_4  and  O_7 
ROOT
ATOM      1  C   UNL d   1      -0.821   2.898   1.529  0.00  0.00    -0.033 A 
ATOM      2  C1  UNL d   1      -0.136   1.865   2.173  0.00  0.00     0.039 A 
ATOM      3  C2  UNL d   1       0.280   0.745   1.452  0.00  0.00    -0.080 A 
ATOM      4  C3  UNL d   1       0.007   0.669   0.089  0.00  0.00     0.150 A 
ATOM      5  C4  UNL d   1      -0.672   1.695  -0.560  0.00  0.00    -0.007 A 
ATOM      6  C5  UNL d   1      -1.087   2.813   0.162  0.00  0.00     0.039 A 
ENDROOT
BRANCH   4   7
ATOM      7  O   UNL d   1       0.389  -0.407  -0.655  0.00  0.00    -0.526 OA
ATOM      8  H5  UNL d   1       0.822  -1.050  -0.069  0.00  0.00     0.418 HD
ENDBRANCH   4   7
TORSDOF 1
ENDMDL
