MODEL 1
REMARK minimizedAffinity -5.238029
REMARK minimizedRMSD -1
REMARK  1 active torsions:
REMARK  status: ('A' for Active; 'I' for Inactive)
REMARK    1  A    between atoms: C3_4  and  O_7 
ROOT
ATOM      1  C   UNL d   1      -0.779   2.438  -1.580  0.00  0.00    -0.033 A 
ATOM      2  C1  UNL d   1      -1.163   3.619  -0.942  0.00  0.00     0.039 A 
ATOM      3  C2  UNL d   1      -1.398   3.626   0.435  0.00  0.00    -0.080 A 
ATOM      4  C3  UNL d   1      -1.244   2.448   1.160  0.00  0.00     0.150 A 
ATOM      5  C4  UNL d   1      -0.858   1.268   0.531  0.00  0.00    -0.007 A 
ATOM      6  C5  UNL d   1      -0.625   1.263  -0.843  0.00  0.00     0.039 A 
ENDROOT
BRANCH   4   7
ATOM      7  O   UNL d   1      -1.467   2.404   2.504  0.00  0.00    -0.526 OA
ATOM      8  H5  UNL d   1      -1.755   3.285   2.797  0.00  0.00     0.418 HD
ENDBRANCH   4   7
TORSDOF 1
ENDMDL
