MODEL 1
REMARK minimizedAffinity -2.01513338
REMARK minimizedRMSD -1
REMARK  1 active torsions:
REMARK  status: ('A' for Active; 'I' for Inactive)
REMARK    1  A    between atoms: C3_4  and  O_7 
ROOT
ATOM      1  C   UNL d   1       0.214   0.554  -1.620  0.00  0.00    -0.033 A 
ATOM      2  C1  UNL d   1       0.393  -0.428  -0.644  0.00  0.00     0.039 A 
ATOM      3  C2  UNL d   1       0.420  -0.075   0.707  0.00  0.00    -0.080 A 
ATOM      4  C3  UNL d   1       0.267   1.261   1.067  0.00  0.00     0.150 A 
ATOM      5  C4  UNL d   1       0.084   2.244   0.100  0.00  0.00    -0.007 A 
ATOM      6  C5  UNL d   1       0.058   1.890  -1.248  0.00  0.00     0.039 A 
ENDROOT
BRANCH   4   7
ATOM      7  O   UNL d   1       0.291   1.654   2.372  0.00  0.00    -0.526 OA
ATOM      8  H5  UNL d   1       0.453   0.872   2.926  0.00  0.00     0.418 HD
ENDBRANCH   4   7
TORSDOF 1
ENDMDL
