MODEL 1
REMARK minimizedAffinity -5.81924295
REMARK minimizedRMSD -1
REMARK  1 active torsions:
REMARK  status: ('A' for Active; 'I' for Inactive)
REMARK    1  A    between atoms: C3_4  and  O_7 
ROOT
ATOM      1  C   UNL d   1      -1.282   3.088   1.081  0.00  0.00    -0.033 A 
ATOM      2  C1  UNL d   1      -0.665   2.041   1.767  0.00  0.00     0.039 A 
ATOM      3  C2  UNL d   1       0.002   1.038   1.060  0.00  0.00    -0.080 A 
ATOM      4  C3  UNL d   1       0.045   1.095  -0.331  0.00  0.00     0.150 A 
ATOM      5  C4  UNL d   1      -0.565   2.138  -1.020  0.00  0.00    -0.007 A 
ATOM      6  C5  UNL d   1      -1.231   3.138  -0.313  0.00  0.00     0.039 A 
ENDROOT
BRANCH   4   7
ATOM      7  O   UNL d   1       0.680   0.137  -1.064  0.00  0.00    -0.526 OA
ATOM      8  H5  UNL d   1       1.029  -0.535  -0.455  0.00  0.00     0.418 HD
ENDBRANCH   4   7
TORSDOF 1
ENDMDL
