MODEL 1
REMARK minimizedAffinity -3.58564806
REMARK minimizedRMSD -1
REMARK  1 active torsions:
REMARK  status: ('A' for Active; 'I' for Inactive)
REMARK    1  A    between atoms: C3_4  and  O_7 
ROOT
ATOM      1  C   UNL d   1       0.130   0.041   0.496  0.00  0.00    -0.033 A 
ATOM      2  C1  UNL d   1      -0.543   1.209   0.130  0.00  0.00     0.039 A 
ATOM      3  C2  UNL d   1      -0.412   1.717  -1.163  0.00  0.00    -0.080 A 
ATOM      4  C3  UNL d   1       0.394   1.048  -2.081  0.00  0.00     0.150 A 
ATOM      5  C4  UNL d   1       1.064  -0.118  -1.725  0.00  0.00    -0.007 A 
ATOM      6  C5  UNL d   1       0.932  -0.623  -0.433  0.00  0.00     0.039 A 
ENDROOT
BRANCH   4   7
ATOM      7  O   UNL d   1       0.557   1.508  -3.354  0.00  0.00    -0.526 OA
ATOM      8  H5  UNL d   1       0.058   2.337  -3.448  0.00  0.00     0.418 HD
ENDBRANCH   4   7
TORSDOF 1
ENDMDL
