MODEL 1
REMARK minimizedAffinity -4.20760822
REMARK minimizedRMSD -1
REMARK  1 active torsions:
REMARK  status: ('A' for Active; 'I' for Inactive)
REMARK    1  A    between atoms: C3_4  and  O_7 
ROOT
ATOM      1  C   UNL d   1      -0.170   2.955   0.601  0.00  0.00    -0.033 A 
ATOM      2  C1  UNL d   1      -0.063   1.910   1.521  0.00  0.00     0.039 A 
ATOM      3  C2  UNL d   1       0.171   0.607   1.075  0.00  0.00    -0.080 A 
ATOM      4  C3  UNL d   1       0.297   0.365  -0.290  0.00  0.00     0.150 A 
ATOM      5  C4  UNL d   1       0.195   1.402  -1.211  0.00  0.00    -0.007 A 
ATOM      6  C5  UNL d   1      -0.040   2.702  -0.764  0.00  0.00     0.039 A 
ENDROOT
BRANCH   4   7
ATOM      7  O   UNL d   1       0.522  -0.890  -0.773  0.00  0.00    -0.526 OA
ATOM      8  H5  UNL d   1       0.540  -1.509  -0.024  0.00  0.00     0.418 HD
ENDBRANCH   4   7
TORSDOF 1
ENDMDL
