MODEL 1
REMARK minimizedAffinity -3.34406543
REMARK minimizedRMSD -1
REMARK  1 active torsions:
REMARK  status: ('A' for Active; 'I' for Inactive)
REMARK    1  A    between atoms: C3_4  and  O_7 
ROOT
ATOM      1  C   UNL d   1      -0.753   3.088   0.878  0.00  0.00    -0.033 A 
ATOM      2  C1  UNL d   1      -0.382   2.088   1.778  0.00  0.00     0.039 A 
ATOM      3  C2  UNL d   1      -0.040   0.817   1.311  0.00  0.00    -0.080 A 
ATOM      4  C3  UNL d   1      -0.071   0.561  -0.057  0.00  0.00     0.150 A 
ATOM      5  C4  UNL d   1      -0.436   1.554  -0.960  0.00  0.00    -0.007 A 
ATOM      6  C5  UNL d   1      -0.778   2.822  -0.491  0.00  0.00     0.039 A 
ENDROOT
BRANCH   4   7
ATOM      7  O   UNL d   1       0.250  -0.664  -0.560  0.00  0.00    -0.526 OA
ATOM      8  H5  UNL d   1       0.454  -1.258   0.182  0.00  0.00     0.418 HD
ENDBRANCH   4   7
TORSDOF 1
ENDMDL
