MODEL 1
REMARK minimizedAffinity 0.396594077
REMARK minimizedRMSD -1
REMARK  1 active torsions:
REMARK  status: ('A' for Active; 'I' for Inactive)
REMARK    1  A    between atoms: C3_4  and  O_7 
ROOT
ATOM      1  C   UNL d   1       0.482   1.506   2.039  0.00  0.00    -0.033 A 
ATOM      2  C1  UNL d   1       0.660   0.399   1.206  0.00  0.00     0.039 A 
ATOM      3  C2  UNL d   1       0.621   0.554  -0.181  0.00  0.00    -0.080 A 
ATOM      4  C3  UNL d   1       0.405   1.818  -0.722  0.00  0.00     0.150 A 
ATOM      5  C4  UNL d   1       0.231   2.926   0.102  0.00  0.00    -0.007 A 
ATOM      6  C5  UNL d   1       0.269   2.769   1.487  0.00  0.00     0.039 A 
ENDROOT
BRANCH   4   7
ATOM      7  O   UNL d   1       0.354   2.018  -2.069  0.00  0.00    -0.526 OA
ATOM      8  H5  UNL d   1       0.461   1.159  -2.512  0.00  0.00     0.418 HD
ENDBRANCH   4   7
TORSDOF 1
ENDMDL
