MODEL 1
REMARK minimizedAffinity 10.7509117
REMARK minimizedRMSD -1
REMARK  1 active torsions:
REMARK  status: ('A' for Active; 'I' for Inactive)
REMARK    1  A    between atoms: C3_4  and  O_7 
ROOT
ATOM      1  C   UNL d   1      -1.631  -2.095   5.030  0.00  0.00    -0.033 A 
ATOM      2  C1  UNL d   1      -0.668  -1.093   5.167  0.00  0.00     0.039 A 
ATOM      3  C2  UNL d   1       0.041  -0.647   4.050  0.00  0.00    -0.080 A 
ATOM      4  C3  UNL d   1      -0.223  -1.209   2.804  0.00  0.00     0.150 A 
ATOM      5  C4  UNL d   1      -1.184  -2.204   2.660  0.00  0.00    -0.007 A 
ATOM      6  C5  UNL d   1      -1.890  -2.649   3.776  0.00  0.00     0.039 A 
ENDROOT
BRANCH   4   7
ATOM      7  O   UNL d   1       0.447  -0.809   1.686  0.00  0.00    -0.526 OA
ATOM      8  H5  UNL d   1       1.100  -0.136   1.942  0.00  0.00     0.418 HD
ENDBRANCH   4   7
TORSDOF 1
ENDMDL
