MODEL 1
REMARK minimizedAffinity 7.30585003
REMARK minimizedRMSD -1
REMARK  1 active torsions:
REMARK  status: ('A' for Active; 'I' for Inactive)
REMARK    1  A    between atoms: C3_4  and  O_7 
ROOT
ATOM      1  C   UNL d   1       0.168  -1.553   2.652  0.00  0.00    -0.033 A 
ATOM      2  C1  UNL d   1      -1.064  -2.080   3.044  0.00  0.00     0.039 A 
ATOM      3  C2  UNL d   1      -1.716  -1.572   4.170  0.00  0.00    -0.080 A 
ATOM      4  C3  UNL d   1      -1.127  -0.538   4.892  0.00  0.00     0.150 A 
ATOM      5  C4  UNL d   1       0.098  -0.005   4.504  0.00  0.00    -0.007 A 
ATOM      6  C5  UNL d   1       0.748  -0.514   3.380  0.00  0.00     0.039 A 
ENDROOT
BRANCH   4   7
ATOM      7  O   UNL d   1      -1.723  -0.013   6.000  0.00  0.00    -0.526 OA
ATOM      8  H5  UNL d   1      -2.549  -0.498   6.164  0.00  0.00     0.418 HD
ENDBRANCH   4   7
TORSDOF 1
ENDMDL
