MODEL 1
REMARK minimizedAffinity 10.6348219
REMARK minimizedRMSD -1
REMARK  1 active torsions:
REMARK  status: ('A' for Active; 'I' for Inactive)
REMARK    1  A    between atoms: C3_4  and  O_7 
ROOT
ATOM      1  C   UNL d   1       0.809  -1.841   2.651  0.00  0.00    -0.033 A 
ATOM      2  C1  UNL d   1       1.777  -2.231   1.723  0.00  0.00     0.039 A 
ATOM      3  C2  UNL d   1       2.919  -1.451   1.533  0.00  0.00    -0.080 A 
ATOM      4  C3  UNL d   1       3.082  -0.286   2.277  0.00  0.00     0.150 A 
ATOM      5  C4  UNL d   1       2.123   0.107   3.205  0.00  0.00    -0.007 A 
ATOM      6  C5  UNL d   1       0.983  -0.673   3.393  0.00  0.00     0.039 A 
ENDROOT
BRANCH   4   7
ATOM      7  O   UNL d   1       4.178   0.511   2.123  0.00  0.00    -0.526 OA
ATOM      8  H5  UNL d   1       4.740   0.130   1.428  0.00  0.00     0.418 HD
ENDBRANCH   4   7
TORSDOF 1
ENDMDL
