MODEL 1
REMARK minimizedAffinity -1.37840557
REMARK minimizedRMSD -1
REMARK  1 active torsions:
REMARK  status: ('A' for Active; 'I' for Inactive)
REMARK    1  A    between atoms: C3_4  and  O_7 
ROOT
ATOM      1  C   UNL d   1       0.374  -5.994  -4.135  0.00  0.00    -0.033 A 
ATOM      2  C1  UNL d   1       0.752  -5.996  -5.479  0.00  0.00     0.039 A 
ATOM      3  C2  UNL d   1       1.491  -4.932  -6.000  0.00  0.00    -0.080 A 
ATOM      4  C3  UNL d   1       1.845  -3.874  -5.167  0.00  0.00     0.150 A 
ATOM      5  C4  UNL d   1       1.475  -3.867  -3.826  0.00  0.00    -0.007 A 
ATOM      6  C5  UNL d   1       0.736  -4.931  -3.308  0.00  0.00     0.039 A 
ENDROOT
BRANCH   4   7
ATOM      7  O   UNL d   1       2.562  -2.811  -5.631  0.00  0.00    -0.526 OA
ATOM      8  H5  UNL d   1       2.722  -2.939  -6.581  0.00  0.00     0.418 HD
ENDBRANCH   4   7
TORSDOF 1
ENDMDL
