MODEL 1
REMARK minimizedAffinity 4.55692959
REMARK minimizedRMSD -1
REMARK  1 active torsions:
REMARK  status: ('A' for Active; 'I' for Inactive)
REMARK    1  A    between atoms: C3_4  and  O_7 
ROOT
ATOM      1  C   UNL d   1      -1.381  -2.083   1.833  0.00  0.00    -0.033 A 
ATOM      2  C1  UNL d   1      -1.928  -1.876   3.100  0.00  0.00     0.039 A 
ATOM      3  C2  UNL d   1      -1.182  -1.228   4.087  0.00  0.00    -0.080 A 
ATOM      4  C3  UNL d   1       0.107  -0.791   3.793  0.00  0.00     0.150 A 
ATOM      5  C4  UNL d   1       0.656  -0.991   2.531  0.00  0.00    -0.007 A 
ATOM      6  C5  UNL d   1      -0.089  -1.639   1.548  0.00  0.00     0.039 A 
ENDROOT
BRANCH   4   7
ATOM      7  O   UNL d   1       0.874  -0.158   4.725  0.00  0.00    -0.526 OA
ATOM      8  H5  UNL d   1       0.375  -0.116   5.558  0.00  0.00     0.418 HD
ENDBRANCH   4   7
TORSDOF 1
ENDMDL
