MODEL 1
REMARK minimizedAffinity 4.37580585
REMARK minimizedRMSD -1
REMARK  1 active torsions:
REMARK  status: ('A' for Active; 'I' for Inactive)
REMARK    1  A    between atoms: C3_4  and  O_7 
ROOT
ATOM      1  C   UNL d   1      -3.999  -4.117   3.486  0.00  0.00    -0.033 A 
ATOM      2  C1  UNL d   1      -3.639  -5.419   3.135  0.00  0.00     0.039 A 
ATOM      3  C2  UNL d   1      -3.680  -5.821   1.798  0.00  0.00    -0.080 A 
ATOM      4  C3  UNL d   1      -4.079  -4.911   0.824  0.00  0.00     0.150 A 
ATOM      5  C4  UNL d   1      -4.435  -3.610   1.166  0.00  0.00    -0.007 A 
ATOM      6  C5  UNL d   1      -4.395  -3.212   2.501  0.00  0.00     0.039 A 
ENDROOT
BRANCH   4   7
ATOM      7  O   UNL d   1      -4.139  -5.257  -0.493  0.00  0.00    -0.526 OA
ATOM      8  H5  UNL d   1      -3.893  -6.194  -0.576  0.00  0.00     0.418 HD
ENDBRANCH   4   7
TORSDOF 1
ENDMDL
