MODEL 1
REMARK minimizedAffinity 9.78087997
REMARK minimizedRMSD -1
REMARK  1 active torsions:
REMARK  status: ('A' for Active; 'I' for Inactive)
REMARK    1  A    between atoms: C3_4  and  O_7 
ROOT
ATOM      1  C   UNL d   1      -1.931   3.597  -4.975  0.00  0.00    -0.033 A 
ATOM      2  C1  UNL d   1      -2.266   3.006  -3.756  0.00  0.00     0.039 A 
ATOM      3  C2  UNL d   1      -3.547   2.488  -3.557  0.00  0.00    -0.080 A 
ATOM      4  C3  UNL d   1      -4.483   2.568  -4.585  0.00  0.00     0.150 A 
ATOM      5  C4  UNL d   1      -4.155   3.153  -5.803  0.00  0.00    -0.007 A 
ATOM      6  C5  UNL d   1      -2.875   3.670  -6.000  0.00  0.00     0.039 A 
ENDROOT
BRANCH   4   7
ATOM      7  O   UNL d   1      -5.748   2.082  -4.436  0.00  0.00    -0.526 OA
ATOM      8  H5  UNL d   1      -5.839   1.733  -3.533  0.00  0.00     0.418 HD
ENDBRANCH   4   7
TORSDOF 1
ENDMDL
