MODEL 1
REMARK minimizedAffinity 13.7657347
REMARK minimizedRMSD -1
REMARK  1 active torsions:
REMARK  status: ('A' for Active; 'I' for Inactive)
REMARK    1  A    between atoms: C3_4  and  O_7 
ROOT
ATOM      1  C   UNL d   1       0.955  -1.176   2.046  0.00  0.00    -0.033 A 
ATOM      2  C1  UNL d   1       0.758  -2.444   1.497  0.00  0.00     0.039 A 
ATOM      3  C2  UNL d   1      -0.492  -3.059   1.589  0.00  0.00    -0.080 A 
ATOM      4  C3  UNL d   1      -1.535  -2.396   2.231  0.00  0.00     0.150 A 
ATOM      5  C4  UNL d   1      -1.346  -1.131   2.776  0.00  0.00    -0.007 A 
ATOM      6  C5  UNL d   1      -0.097  -0.518   2.685  0.00  0.00     0.039 A 
ENDROOT
BRANCH   4   7
ATOM      7  O   UNL d   1      -2.771  -2.959   2.349  0.00  0.00    -0.526 OA
ATOM      8  H5  UNL d   1      -2.746  -3.845   1.951  0.00  0.00     0.418 HD
ENDBRANCH   4   7
TORSDOF 1
ENDMDL
