MODEL 1
REMARK minimizedAffinity 11.969965
REMARK minimizedRMSD -1
REMARK  1 active torsions:
REMARK  status: ('A' for Active; 'I' for Inactive)
REMARK    1  A    between atoms: C3_4  and  O_7 
ROOT
ATOM      1  C   UNL d   1      -1.375  -0.552   5.984  0.00  0.00    -0.033 A 
ATOM      2  C1  UNL d   1       0.007  -0.519   5.789  0.00  0.00     0.039 A 
ATOM      3  C2  UNL d   1       0.534  -0.603   4.498  0.00  0.00    -0.080 A 
ATOM      4  C3  UNL d   1      -0.330  -0.719   3.414  0.00  0.00     0.150 A 
ATOM      5  C4  UNL d   1      -1.709  -0.748   3.600  0.00  0.00    -0.007 A 
ATOM      6  C5  UNL d   1      -2.233  -0.665   4.890  0.00  0.00     0.039 A 
ENDROOT
BRANCH   4   7
ATOM      7  O   UNL d   1       0.137  -0.809   2.136  0.00  0.00    -0.526 OA
ATOM      8  H5  UNL d   1       1.109  -0.804   2.163  0.00  0.00     0.418 HD
ENDBRANCH   4   7
TORSDOF 1
ENDMDL
