MODEL 1
REMARK minimizedAffinity 13.2135172
REMARK minimizedRMSD -1
REMARK  1 active torsions:
REMARK  status: ('A' for Active; 'I' for Inactive)
REMARK    1  A    between atoms: C3_4  and  O_7 
ROOT
ATOM      1  C   UNL d   1       0.397  -2.271   1.203  0.00  0.00    -0.033 A 
ATOM      2  C1  UNL d   1      -0.024  -1.118   1.868  0.00  0.00     0.039 A 
ATOM      3  C2  UNL d   1       0.908  -0.152   2.253  0.00  0.00    -0.080 A 
ATOM      4  C3  UNL d   1       2.256  -0.350   1.965  0.00  0.00     0.150 A 
ATOM      5  C4  UNL d   1       2.682  -1.495   1.299  0.00  0.00    -0.007 A 
ATOM      6  C5  UNL d   1       1.750  -2.459   0.917  0.00  0.00     0.039 A 
ENDROOT
BRANCH   4   7
ATOM      7  O   UNL d   1       3.203   0.562   2.325  0.00  0.00    -0.526 OA
ATOM      8  H5  UNL d   1       2.766   1.287   2.802  0.00  0.00     0.418 HD
ENDBRANCH   4   7
TORSDOF 1
ENDMDL
