MODEL 1
REMARK minimizedAffinity 4.45662069
REMARK minimizedRMSD -1
REMARK  1 active torsions:
REMARK  status: ('A' for Active; 'I' for Inactive)
REMARK    1  A    between atoms: C3_4  and  O_7 
ROOT
ATOM      1  C   UNL d   1       1.328  -2.327   1.097  0.00  0.00    -0.033 A 
ATOM      2  C1  UNL d   1       0.305  -2.355   2.048  0.00  0.00     0.039 A 
ATOM      3  C2  UNL d   1       0.438  -1.638   3.239  0.00  0.00    -0.080 A 
ATOM      4  C3  UNL d   1       1.594  -0.898   3.466  0.00  0.00     0.150 A 
ATOM      5  C4  UNL d   1       2.615  -0.862   2.521  0.00  0.00    -0.007 A 
ATOM      6  C5  UNL d   1       2.482  -1.580   1.333  0.00  0.00     0.039 A 
ENDROOT
BRANCH   4   7
ATOM      7  O   UNL d   1       1.771  -0.186   4.615  0.00  0.00    -0.526 OA
ATOM      8  H5  UNL d   1       0.997  -0.327   5.186  0.00  0.00     0.418 HD
ENDBRANCH   4   7
TORSDOF 1
ENDMDL
