MODEL 1
REMARK minimizedAffinity 3.02074623
REMARK minimizedRMSD -1
REMARK  1 active torsions:
REMARK  status: ('A' for Active; 'I' for Inactive)
REMARK    1  A    between atoms: C3_4  and  O_7 
ROOT
ATOM      1  C   UNL d   1      -3.397  -3.729   1.371  0.00  0.00    -0.033 A 
ATOM      2  C1  UNL d   1      -2.710  -4.141   2.515  0.00  0.00     0.039 A 
ATOM      3  C2  UNL d   1      -3.417  -4.576   3.637  0.00  0.00    -0.080 A 
ATOM      4  C3  UNL d   1      -4.808  -4.595   3.604  0.00  0.00     0.150 A 
ATOM      5  C4  UNL d   1      -5.499  -4.189   2.467  0.00  0.00    -0.007 A 
ATOM      6  C5  UNL d   1      -4.792  -3.754   1.347  0.00  0.00     0.039 A 
ENDROOT
BRANCH   4   7
ATOM      7  O   UNL d   1      -5.541  -5.007   4.677  0.00  0.00    -0.526 OA
ATOM      8  H5  UNL d   1      -4.931  -5.231   5.399  0.00  0.00     0.418 HD
ENDBRANCH   4   7
TORSDOF 1
ENDMDL
