MODEL 1
REMARK minimizedAffinity -1.81510043
REMARK minimizedRMSD -1
REMARK  1 active torsions:
REMARK  status: ('A' for Active; 'I' for Inactive)
REMARK    1  A    between atoms: C3_4  and  O_7 
ROOT
ATOM      1  C   UNL d   1      -4.223  -4.801   3.227  0.00  0.00    -0.033 A 
ATOM      2  C1  UNL d   1      -4.212  -3.575   2.560  0.00  0.00     0.039 A 
ATOM      3  C2  UNL d   1      -4.137  -3.536   1.166  0.00  0.00    -0.080 A 
ATOM      4  C3  UNL d   1      -4.075  -4.730   0.452  0.00  0.00     0.150 A 
ATOM      5  C4  UNL d   1      -4.089  -5.955   1.110  0.00  0.00    -0.007 A 
ATOM      6  C5  UNL d   1      -4.163  -5.992   2.502  0.00  0.00     0.039 A 
ENDROOT
BRANCH   4   7
ATOM      7  O   UNL d   1      -3.995  -4.743  -0.909  0.00  0.00    -0.526 OA
ATOM      8  H5  UNL d   1      -3.966  -3.824  -1.224  0.00  0.00     0.418 HD
ENDBRANCH   4   7
TORSDOF 1
ENDMDL
