MODEL 1
REMARK minimizedAffinity -2.77016234
REMARK minimizedRMSD -1
REMARK  1 active torsions:
REMARK  status: ('A' for Active; 'I' for Inactive)
REMARK    1  A    between atoms: C3_4  and  O_7 
ROOT
ATOM      1  C   UNL d   1      -4.909  -4.572   6.000  0.00  0.00    -0.033 A 
ATOM      2  C1  UNL d   1      -5.767  -5.618   5.654  0.00  0.00     0.039 A 
ATOM      3  C2  UNL d   1      -5.997  -5.919   4.310  0.00  0.00    -0.080 A 
ATOM      4  C3  UNL d   1      -5.364  -5.168   3.324  0.00  0.00     0.150 A 
ATOM      5  C4  UNL d   1      -4.505  -4.127   3.661  0.00  0.00    -0.007 A 
ATOM      6  C5  UNL d   1      -4.277  -3.827   5.004  0.00  0.00     0.039 A 
ENDROOT
BRANCH   4   7
ATOM      7  O   UNL d   1      -5.561  -5.422   1.999  0.00  0.00    -0.526 OA
ATOM      8  H5  UNL d   1      -6.200  -6.149   1.916  0.00  0.00     0.418 HD
ENDBRANCH   4   7
TORSDOF 1
ENDMDL
