MODEL 1
REMARK minimizedAffinity 12.9891596
REMARK minimizedRMSD -1
REMARK  1 active torsions:
REMARK  status: ('A' for Active; 'I' for Inactive)
REMARK    1  A    between atoms: C3_4  and  O_7 
ROOT
ATOM      1  C   UNL d   1       1.563   3.799  -0.126  0.00  0.00    -0.033 A 
ATOM      2  C1  UNL d   1       1.057   4.610  -1.144  0.00  0.00     0.039 A 
ATOM      3  C2  UNL d   1       0.068   4.123  -2.001  0.00  0.00    -0.080 A 
ATOM      4  C3  UNL d   1      -0.406   2.825  -1.829  0.00  0.00     0.150 A 
ATOM      5  C4  UNL d   1       0.091   2.013  -0.814  0.00  0.00    -0.007 A 
ATOM      6  C5  UNL d   1       1.078   2.501   0.040  0.00  0.00     0.039 A 
ENDROOT
BRANCH   4   7
ATOM      7  O   UNL d   1      -1.367   2.304  -2.643  0.00  0.00    -0.526 OA
ATOM      8  H5  UNL d   1      -1.594   2.968  -3.315  0.00  0.00     0.418 HD
ENDBRANCH   4   7
TORSDOF 1
ENDMDL
