MODEL 1
REMARK minimizedAffinity 4.39326048
REMARK minimizedRMSD -1
REMARK  1 active torsions:
REMARK  status: ('A' for Active; 'I' for Inactive)
REMARK    1  A    between atoms: C3_4  and  O_7 
ROOT
ATOM      1  C   UNL d   1       1.099  -5.998  -4.347  0.00  0.00    -0.033 A 
ATOM      2  C1  UNL d   1       1.829  -6.000  -5.537  0.00  0.00     0.039 A 
ATOM      3  C2  UNL d   1       2.628  -4.904  -5.869  0.00  0.00    -0.080 A 
ATOM      4  C3  UNL d   1       2.690  -3.816  -5.003  0.00  0.00     0.150 A 
ATOM      5  C4  UNL d   1       1.968  -3.810  -3.813  0.00  0.00    -0.007 A 
ATOM      6  C5  UNL d   1       1.169  -4.904  -3.485  0.00  0.00     0.039 A 
ENDROOT
BRANCH   4   7
ATOM      7  O   UNL d   1       3.453  -2.722  -5.285  0.00  0.00    -0.526 OA
ATOM      8  H5  UNL d   1       3.872  -2.855  -6.152  0.00  0.00     0.418 HD
ENDBRANCH   4   7
TORSDOF 1
ENDMDL
