MODEL 1
REMARK minimizedAffinity 14.3025026
REMARK minimizedRMSD -1
REMARK  1 active torsions:
REMARK  status: ('A' for Active; 'I' for Inactive)
REMARK    1  A    between atoms: C3_4  and  O_7 
ROOT
ATOM      1  C   UNL d   1      -2.069   3.315  -3.068  0.00  0.00    -0.033 A 
ATOM      2  C1  UNL d   1      -3.055   2.450  -2.588  0.00  0.00     0.039 A 
ATOM      3  C2  UNL d   1      -4.093   2.943  -1.794  0.00  0.00    -0.080 A 
ATOM      4  C3  UNL d   1      -4.134   4.301  -1.489  0.00  0.00     0.150 A 
ATOM      5  C4  UNL d   1      -3.157   5.169  -1.966  0.00  0.00    -0.007 A 
ATOM      6  C5  UNL d   1      -2.121   4.675  -2.758  0.00  0.00     0.039 A 
ENDROOT
BRANCH   4   7
ATOM      7  O   UNL d   1      -5.124   4.827  -0.714  0.00  0.00    -0.526 OA
ATOM      8  H5  UNL d   1      -5.711   4.106  -0.432  0.00  0.00     0.418 HD
ENDBRANCH   4   7
TORSDOF 1
ENDMDL
