MODEL 1
REMARK minimizedAffinity -2.79053855
REMARK minimizedRMSD -1
REMARK  0 active torsions:
REMARK  status: ('A' for Active; 'I' for Inactive)
ROOT
ATOM      1  C   UNL d   1      -2.251  -2.548  -5.997  0.00  0.00     0.078 C 
ATOM      2  C1  UNL d   1      -1.232  -1.632  -5.389  0.00  0.00    -0.077 A 
ATOM      3  C2  UNL d   1      -0.567  -1.977  -4.206  0.00  0.00    -0.001 A 
ATOM      4  C3  UNL d   1       0.373  -1.111  -3.646  0.00  0.00     0.003 A 
ATOM      5  C4  UNL d   1       0.656   0.107  -4.261  0.00  0.00    -0.005 A 
ATOM      6  C5  UNL d   1      -0.003   0.460  -5.437  0.00  0.00     0.003 A 
ATOM      7  C6  UNL d   1      -0.943  -0.405  -5.999  0.00  0.00    -0.001 A 
ENDROOT
TORSDOF 0
ENDMDL
