MODEL 1
REMARK minimizedAffinity -2.76905799
REMARK minimizedRMSD -1
REMARK  0 active torsions:
REMARK  status: ('A' for Active; 'I' for Inactive)
ROOT
ATOM      1  C   UNL d   1       0.203  -0.292  -0.784  0.00  0.00     0.078 C 
ATOM      2  C1  UNL d   1       0.555  -0.084  -2.226  0.00  0.00    -0.077 A 
ATOM      3  C2  UNL d   1      -0.259  -0.591  -3.247  0.00  0.00    -0.001 A 
ATOM      4  C3  UNL d   1       0.086  -0.398  -4.586  0.00  0.00     0.003 A 
ATOM      5  C4  UNL d   1       1.245   0.301  -4.916  0.00  0.00    -0.005 A 
ATOM      6  C5  UNL d   1       2.062   0.807  -3.907  0.00  0.00     0.003 A 
ATOM      7  C6  UNL d   1       1.719   0.615  -2.568  0.00  0.00    -0.001 A 
ENDROOT
TORSDOF 0
ENDMDL
