MODEL 1
REMARK minimizedAffinity -5.26705265
REMARK minimizedRMSD -1
REMARK  0 active torsions:
REMARK  status: ('A' for Active; 'I' for Inactive)
ROOT
ATOM      1  C   UNL d   1      -0.425   1.666   3.016  0.00  0.00     0.078 C 
ATOM      2  C1  UNL d   1      -0.542   0.866   1.753  0.00  0.00    -0.077 A 
ATOM      3  C2  UNL d   1       0.597   0.379   1.099  0.00  0.00    -0.001 A 
ATOM      4  C3  UNL d   1       0.474  -0.355  -0.081  0.00  0.00     0.003 A 
ATOM      5  C4  UNL d   1      -0.786  -0.609  -0.619  0.00  0.00    -0.005 A 
ATOM      6  C5  UNL d   1      -1.925  -0.127   0.023  0.00  0.00     0.003 A 
ATOM      7  C6  UNL d   1      -1.804   0.608   1.203  0.00  0.00    -0.001 A 
ENDROOT
TORSDOF 0
ENDMDL
