MODEL 1
REMARK minimizedAffinity -4.83319187
REMARK minimizedRMSD -1
REMARK  0 active torsions:
REMARK  status: ('A' for Active; 'I' for Inactive)
ROOT
ATOM      1  C   UNL d   1      -0.037   0.080  -0.545  0.00  0.00     0.078 C 
ATOM      2  C1  UNL d   1      -0.079   0.271   0.942  0.00  0.00    -0.077 A 
ATOM      3  C2  UNL d   1       1.091   0.222   1.709  0.00  0.00    -0.001 A 
ATOM      4  C3  UNL d   1       1.035   0.392   3.094  0.00  0.00     0.003 A 
ATOM      5  C4  UNL d   1      -0.189   0.611   3.723  0.00  0.00    -0.005 A 
ATOM      6  C5  UNL d   1      -1.359   0.659   2.968  0.00  0.00     0.003 A 
ATOM      7  C6  UNL d   1      -1.305   0.489   1.584  0.00  0.00    -0.001 A 
ENDROOT
TORSDOF 0
ENDMDL
