MODEL 1
REMARK minimizedAffinity -2.57108188
REMARK minimizedRMSD -1
REMARK  0 active torsions:
REMARK  status: ('A' for Active; 'I' for Inactive)
ROOT
ATOM      1  C   UNL d   1      -1.238   1.945   2.884  0.00  0.00     0.078 C 
ATOM      2  C1  UNL d   1      -0.901   1.083   1.704  0.00  0.00    -0.077 A 
ATOM      3  C2  UNL d   1      -1.888   0.692   0.791  0.00  0.00    -0.001 A 
ATOM      4  C3  UNL d   1      -1.563  -0.119  -0.297  0.00  0.00     0.003 A 
ATOM      5  C4  UNL d   1      -0.249  -0.547  -0.482  0.00  0.00    -0.005 A 
ATOM      6  C5  UNL d   1       0.739  -0.165   0.422  0.00  0.00     0.003 A 
ATOM      7  C6  UNL d   1       0.415   0.646   1.511  0.00  0.00    -0.001 A 
ENDROOT
TORSDOF 0
ENDMDL
