MODEL 1
REMARK minimizedAffinity -3.27837992
REMARK minimizedRMSD -1
REMARK  0 active torsions:
REMARK  status: ('A' for Active; 'I' for Inactive)
ROOT
ATOM      1  C   UNL d   1       2.706   2.338   0.826  0.00  0.00     0.023 A 
ATOM      2  C1  UNL d   1       1.376   2.637   1.122  0.00  0.00     0.003 A 
ATOM      3  C2  UNL d   1       0.365   1.733   0.790  0.00  0.00     0.048 A 
ATOM      4  C3  UNL d   1       0.691   0.530   0.164  0.00  0.00     0.023 A 
ATOM      5  C4  UNL d   1       2.020   0.226  -0.133  0.00  0.00     0.048 A 
ATOM      6  C5  UNL d   1       3.028   1.133   0.199  0.00  0.00     0.003 A 
ATOM      7  I   UNL d   1      -0.812  -0.818  -0.330  0.00  0.00    -0.146 I 
ENDROOT
TORSDOF 0
ENDMDL
