MODEL 1
REMARK minimizedAffinity -3.09164023
REMARK minimizedRMSD -1
REMARK  0 active torsions:
REMARK  status: ('A' for Active; 'I' for Inactive)
ROOT
ATOM      1  C   UNL d   1       2.918   2.337   0.965  0.00  0.00     0.023 A 
ATOM      2  C1  UNL d   1       3.204   1.298   0.079  0.00  0.00     0.003 A 
ATOM      3  C2  UNL d   1       2.212   0.374  -0.257  0.00  0.00     0.048 A 
ATOM      4  C3  UNL d   1       0.938   0.495   0.295  0.00  0.00     0.023 A 
ATOM      5  C4  UNL d   1       0.648   1.533   1.182  0.00  0.00     0.048 A 
ATOM      6  C5  UNL d   1       1.642   2.454   1.516  0.00  0.00     0.003 A 
ATOM      7  I   UNL d   1      -0.539  -0.880  -0.204  0.00  0.00    -0.146 I 
ENDROOT
TORSDOF 0
ENDMDL
