MODEL 1
REMARK minimizedAffinity -1.30442786
REMARK minimizedRMSD -1
REMARK  0 active torsions:
REMARK  status: ('A' for Active; 'I' for Inactive)
ROOT
ATOM      1  C   UNL d   1       1.940   1.236   1.370  0.00  0.00     0.023 A 
ATOM      2  C1  UNL d   1       2.340   0.409   0.320  0.00  0.00     0.003 A 
ATOM      3  C2  UNL d   1       1.388  -0.319  -0.397  0.00  0.00     0.048 A 
ATOM      4  C3  UNL d   1       0.039  -0.215  -0.060  0.00  0.00     0.023 A 
ATOM      5  C4  UNL d   1      -0.365   0.612   0.989  0.00  0.00     0.048 A 
ATOM      6  C5  UNL d   1       0.590   1.337   1.704  0.00  0.00     0.003 A 
ATOM      7  I   UNL d   1      -1.378  -1.298  -1.127  0.00  0.00    -0.146 I 
ENDROOT
TORSDOF 0
ENDMDL
