MODEL 1
REMARK minimizedAffinity -2.43640661
REMARK minimizedRMSD -1
REMARK  0 active torsions:
REMARK  status: ('A' for Active; 'I' for Inactive)
ROOT
ATOM      1  C   UNL d   1       0.960   1.855   1.177  0.00  0.00     0.023 A 
ATOM      2  C1  UNL d   1       0.910   2.038  -0.205  0.00  0.00     0.003 A 
ATOM      3  C2  UNL d   1       0.105   1.211  -0.991  0.00  0.00     0.048 A 
ATOM      4  C3  UNL d   1      -0.649   0.204  -0.388  0.00  0.00     0.023 A 
ATOM      5  C4  UNL d   1      -0.603   0.018   0.995  0.00  0.00     0.048 A 
ATOM      6  C5  UNL d   1       0.205   0.847   1.776  0.00  0.00     0.003 A 
ATOM      7  I   UNL d   1      -1.849  -1.028  -1.556  0.00  0.00    -0.146 I 
ENDROOT
TORSDOF 0
ENDMDL
