MODEL 1
REMARK minimizedAffinity -3.82069397
REMARK minimizedRMSD -1
REMARK  0 active torsions:
REMARK  status: ('A' for Active; 'I' for Inactive)
ROOT
ATOM      1  C   UNL d   1       0.807  -0.584   0.716  0.00  0.00     0.023 A 
ATOM      2  C1  UNL d   1       1.263  -1.284  -0.401  0.00  0.00     0.003 A 
ATOM      3  C2  UNL d   1       0.391  -1.566  -1.455  0.00  0.00     0.048 A 
ATOM      4  C3  UNL d   1      -0.936  -1.143  -1.385  0.00  0.00     0.023 A 
ATOM      5  C4  UNL d   1      -1.397  -0.442  -0.270  0.00  0.00     0.048 A 
ATOM      6  C5  UNL d   1      -0.522  -0.164   0.781  0.00  0.00     0.003 A 
ATOM      7  I   UNL d   1      -2.236  -1.561  -2.952  0.00  0.00    -0.146 I 
ENDROOT
TORSDOF 0
ENDMDL
