MODEL 1
REMARK minimizedAffinity -3.83882785
REMARK minimizedRMSD -1
REMARK  0 active torsions:
REMARK  status: ('A' for Active; 'I' for Inactive)
ROOT
ATOM      1  C   UNL d   1       2.880   2.331   0.641  0.00  0.00     0.023 A 
ATOM      2  C1  UNL d   1       3.160   1.118   0.011  0.00  0.00     0.003 A 
ATOM      3  C2  UNL d   1       2.127   0.222  -0.273  0.00  0.00     0.048 A 
ATOM      4  C3  UNL d   1       0.816   0.547   0.075  0.00  0.00     0.023 A 
ATOM      5  C4  UNL d   1       0.531   1.759   0.705  0.00  0.00     0.048 A 
ATOM      6  C5  UNL d   1       1.568   2.651   0.988  0.00  0.00     0.003 A 
ATOM      7  I   UNL d   1      -0.724  -0.784  -0.346  0.00  0.00    -0.146 I 
ENDROOT
TORSDOF 0
ENDMDL
