MODEL 1
REMARK minimizedAffinity -2.36769366
REMARK minimizedRMSD -1
REMARK  0 active torsions:
REMARK  status: ('A' for Active; 'I' for Inactive)
ROOT
ATOM      1  C   UNL d   1      -0.372  -1.726  -0.419  0.00  0.00     0.023 A 
ATOM      2  C1  UNL d   1      -1.170  -1.031   0.490  0.00  0.00     0.003 A 
ATOM      3  C2  UNL d   1      -0.715   0.166   1.048  0.00  0.00     0.048 A 
ATOM      4  C3  UNL d   1       0.539   0.662   0.692  0.00  0.00     0.023 A 
ATOM      5  C4  UNL d   1       1.340  -0.030  -0.218  0.00  0.00     0.048 A 
ATOM      6  C5  UNL d   1       0.881  -1.226  -0.772  0.00  0.00     0.003 A 
ATOM      7  I   UNL d   1       1.218   2.443   1.520  0.00  0.00    -0.146 I 
ENDROOT
TORSDOF 0
ENDMDL
