MODEL 1
REMARK minimizedAffinity -4.72418356
REMARK minimizedRMSD -1
REMARK  0 active torsions:
REMARK  status: ('A' for Active; 'I' for Inactive)
ROOT
ATOM      1  C   UNL d   1       2.050   2.319   1.363  0.00  0.00     0.023 A 
ATOM      2  C1  UNL d   1       0.797   2.002   1.888  0.00  0.00     0.003 A 
ATOM      3  C2  UNL d   1       0.026   0.998   1.298  0.00  0.00     0.048 A 
ATOM      4  C3  UNL d   1       0.514   0.315   0.185  0.00  0.00     0.023 A 
ATOM      5  C4  UNL d   1       1.768   0.628  -0.343  0.00  0.00     0.048 A 
ATOM      6  C5  UNL d   1       2.535   1.633   0.249  0.00  0.00     0.003 A 
ATOM      7  I   UNL d   1      -0.632  -1.180  -0.694  0.00  0.00    -0.146 I 
ENDROOT
TORSDOF 0
ENDMDL
