MODEL 1
REMARK minimizedAffinity -4.06784058
REMARK minimizedRMSD -1
REMARK  0 active torsions:
REMARK  status: ('A' for Active; 'I' for Inactive)
ROOT
ATOM      1  C   UNL d   1       2.919   2.346   0.602  0.00  0.00     0.023 A 
ATOM      2  C1  UNL d   1       1.635   2.534   1.114  0.00  0.00     0.003 A 
ATOM      3  C2  UNL d   1       0.629   1.606   0.838  0.00  0.00     0.048 A 
ATOM      4  C3  UNL d   1       0.914   0.490   0.052  0.00  0.00     0.023 A 
ATOM      5  C4  UNL d   1       2.198   0.297  -0.461  0.00  0.00     0.048 A 
ATOM      6  C5  UNL d   1       3.200   1.228  -0.184  0.00  0.00     0.003 A 
ATOM      7  I   UNL d   1      -0.581  -0.894  -0.359  0.00  0.00    -0.146 I 
ENDROOT
TORSDOF 0
ENDMDL
