MODEL 1
REMARK minimizedAffinity -5.15660238
REMARK minimizedRMSD -1
REMARK  0 active torsions:
REMARK  status: ('A' for Active; 'I' for Inactive)
ROOT
ATOM      1  C   UNL d   1       2.960   2.680   0.391  0.00  0.00     0.023 A 
ATOM      2  C1  UNL d   1       1.576   2.850   0.362  0.00  0.00     0.003 A 
ATOM      3  C2  UNL d   1       0.738   1.742   0.219  0.00  0.00     0.048 A 
ATOM      4  C3  UNL d   1       1.290   0.467   0.107  0.00  0.00     0.023 A 
ATOM      5  C4  UNL d   1       2.675   0.292   0.136  0.00  0.00     0.048 A 
ATOM      6  C5  UNL d   1       3.509   1.402   0.278  0.00  0.00     0.003 A 
ATOM      7  I   UNL d   1       0.045  -1.183  -0.105  0.00  0.00    -0.146 I 
ENDROOT
TORSDOF 0
ENDMDL
