MODEL 1
REMARK minimizedAffinity -2.86997557
REMARK minimizedRMSD -1
REMARK  0 active torsions:
REMARK  status: ('A' for Active; 'I' for Inactive)
ROOT
ATOM      1  C   UNL d   1       2.070   1.229   1.473  0.00  0.00     0.023 A 
ATOM      2  C1  UNL d   1       0.710   1.271   1.778  0.00  0.00     0.003 A 
ATOM      3  C2  UNL d   1      -0.212   0.621   0.955  0.00  0.00     0.048 A 
ATOM      4  C3  UNL d   1       0.234  -0.071  -0.170  0.00  0.00     0.023 A 
ATOM      5  C4  UNL d   1       1.595  -0.117  -0.479  0.00  0.00     0.048 A 
ATOM      6  C5  UNL d   1       2.512   0.536   0.346  0.00  0.00     0.003 A 
ATOM      7  I   UNL d   1      -1.136  -1.041  -1.397  0.00  0.00    -0.146 I 
ENDROOT
TORSDOF 0
ENDMDL
