MODEL 1
REMARK minimizedAffinity -4.77263594
REMARK minimizedRMSD -1
REMARK  0 active torsions:
REMARK  status: ('A' for Active; 'I' for Inactive)
ROOT
ATOM      1  C   UNL d   1       2.196   2.359   1.257  0.00  0.00     0.023 A 
ATOM      2  C1  UNL d   1       2.845   1.303   0.618  0.00  0.00     0.003 A 
ATOM      3  C2  UNL d   1       2.107   0.228   0.117  0.00  0.00     0.048 A 
ATOM      4  C3  UNL d   1       0.720   0.217   0.258  0.00  0.00     0.023 A 
ATOM      5  C4  UNL d   1       0.066   1.272   0.896  0.00  0.00     0.048 A 
ATOM      6  C5  UNL d   1       0.808   2.344   1.396  0.00  0.00     0.003 A 
ATOM      7  I   UNL d   1      -0.381  -1.381  -0.488  0.00  0.00    -0.146 I 
ENDROOT
TORSDOF 0
ENDMDL
