MODEL 1
REMARK minimizedAffinity -5.53727484
REMARK minimizedRMSD -1
REMARK  0 active torsions:
REMARK  status: ('A' for Active; 'I' for Inactive)
ROOT
ATOM      1  C   UNL d   1       2.334   2.857   1.381  0.00  0.00     0.023 A 
ATOM      2  C1  UNL d   1       0.975   2.720   1.665  0.00  0.00     0.003 A 
ATOM      3  C2  UNL d   1       0.265   1.623   1.172  0.00  0.00     0.048 A 
ATOM      4  C3  UNL d   1       0.920   0.667   0.397  0.00  0.00     0.023 A 
ATOM      5  C4  UNL d   1       2.280   0.800   0.111  0.00  0.00     0.048 A 
ATOM      6  C5  UNL d   1       2.986   1.899   0.605  0.00  0.00     0.003 A 
ATOM      7  I   UNL d   1      -0.134  -0.967  -0.338  0.00  0.00    -0.146 I 
ENDROOT
TORSDOF 0
ENDMDL
