MODEL 1
REMARK minimizedAffinity 0.038572602
REMARK minimizedRMSD -1
REMARK  0 active torsions:
REMARK  status: ('A' for Active; 'I' for Inactive)
ROOT
ATOM      1  C   UNL d   1      -1.652   1.236   2.063  0.00  0.00     0.023 A 
ATOM      2  C1  UNL d   1      -1.965   0.678   0.824  0.00  0.00     0.003 A 
ATOM      3  C2  UNL d   1      -0.945   0.257  -0.032  0.00  0.00     0.048 A 
ATOM      4  C3  UNL d   1       0.387   0.397   0.358  0.00  0.00     0.023 A 
ATOM      5  C4  UNL d   1       0.705   0.954   1.598  0.00  0.00     0.048 A 
ATOM      6  C5  UNL d   1      -0.318   1.374   2.450  0.00  0.00     0.003 A 
ATOM      7  I   UNL d   1       1.907  -0.228  -0.914  0.00  0.00    -0.146 I 
ENDROOT
TORSDOF 0
ENDMDL
