MODEL 1
REMARK minimizedAffinity -3.42950439
REMARK minimizedRMSD -1
REMARK  0 active torsions:
REMARK  status: ('A' for Active; 'I' for Inactive)
ROOT
ATOM      1  C   UNL d   1       0.517  -1.364  -0.548  0.00  0.00     0.023 A 
ATOM      2  C1  UNL d   1      -0.352  -0.748   0.352  0.00  0.00     0.003 A 
ATOM      3  C2  UNL d   1       0.046   0.407   1.029  0.00  0.00     0.048 A 
ATOM      4  C3  UNL d   1       1.314   0.940   0.801  0.00  0.00     0.023 A 
ATOM      5  C4  UNL d   1       2.186   0.327  -0.100  0.00  0.00     0.048 A 
ATOM      6  C5  UNL d   1       1.785  -0.828  -0.774  0.00  0.00     0.003 A 
ATOM      7  I   UNL d   1       1.908   2.659   1.807  0.00  0.00    -0.146 I 
ENDROOT
TORSDOF 0
ENDMDL
