MODEL 1
REMARK minimizedAffinity -1.80282176
REMARK minimizedRMSD -1
REMARK  0 active torsions:
REMARK  status: ('A' for Active; 'I' for Inactive)
ROOT
ATOM      1  C   UNL d   1       0.257  -0.663   0.618  0.00  0.00     0.023 A 
ATOM      2  C1  UNL d   1      -0.105  -1.800  -0.106  0.00  0.00     0.003 A 
ATOM      3  C2  UNL d   1      -0.953  -1.685  -1.210  0.00  0.00     0.048 A 
ATOM      4  C3  UNL d   1      -1.433  -0.431  -1.585  0.00  0.00     0.023 A 
ATOM      5  C4  UNL d   1      -1.073   0.709  -0.865  0.00  0.00     0.048 A 
ATOM      6  C5  UNL d   1      -0.226   0.589   0.239  0.00  0.00     0.003 A 
ATOM      7  I   UNL d   1      -2.694  -0.258  -3.228  0.00  0.00    -0.146 I 
ENDROOT
TORSDOF 0
ENDMDL
