MODEL 1
REMARK minimizedAffinity 6.05679846
REMARK minimizedRMSD -1
REMARK  0 active torsions:
REMARK  status: ('A' for Active; 'I' for Inactive)
ROOT
ATOM      1  C   UNL d   1       1.540  -0.886  -0.877  0.00  0.00     0.023 A 
ATOM      2  C1  UNL d   1       1.941  -0.850  -2.212  0.00  0.00     0.003 A 
ATOM      3  C2  UNL d   1       2.861   0.108  -2.641  0.00  0.00     0.048 A 
ATOM      4  C3  UNL d   1       3.377   1.028  -1.729  0.00  0.00     0.023 A 
ATOM      5  C4  UNL d   1       2.980   0.996  -0.391  0.00  0.00     0.048 A 
ATOM      6  C5  UNL d   1       2.059   0.036   0.033  0.00  0.00     0.003 A 
ATOM      7  I   UNL d   1       4.748   2.455  -2.364  0.00  0.00    -0.146 I 
ENDROOT
TORSDOF 0
ENDMDL
