MODEL 1
REMARK minimizedAffinity 9.20129871
REMARK minimizedRMSD -1
REMARK  2 active torsions:
REMARK  status: ('A' for Active; 'I' for Inactive)
REMARK    1  A    between atoms: C2'_3  and  C1'_4 
REMARK    2  A    between atoms: C1'_4  and  C1_5 
ROOT
ATOM      1  C1  I4B d   1      -3.665   1.250  -5.284  0.00  0.00    -0.075 A 
ATOM      2  C2  I4B d   1      -2.514   0.517  -5.429  0.00  0.00     0.003 A 
ATOM      3  C3  I4B d   1      -2.529  -0.883  -5.218  0.00  0.00     0.002 A 
ATOM      4  C4  I4B d   1      -3.697  -1.497  -4.817  0.00  0.00    -0.004 A 
ATOM      5  C5  I4B d   1      -4.869  -0.756  -4.693  0.00  0.00     0.002 A 
ATOM      6  C6  I4B d   1      -4.856   0.624  -4.939  0.00  0.00     0.003 A 
ENDROOT
BRANCH   1   7
ATOM      7  C1' I4B d   1      -3.606   2.732  -5.481  0.00  0.00     0.060 C 
BRANCH   7   8
ATOM      8  C2' I4B d   1      -4.119   3.392  -4.218  0.00  0.00    -0.013 C 
ATOM      9  C4' I4B d   1      -2.983   3.848  -3.341  0.00  0.00     0.013 C 
ATOM     10  C3' I4B d   1      -4.990   4.546  -4.619  0.00  0.00     0.013 C 
ENDBRANCH   7   8
ENDBRANCH   1   7
TORSDOF 2
ENDMDL
