MODEL 1
REMARK minimizedAffinity 4.69556332
REMARK minimizedRMSD -1
REMARK  2 active torsions:
REMARK  status: ('A' for Active; 'I' for Inactive)
REMARK    1  A    between atoms: C2'_3  and  C1'_4 
REMARK    2  A    between atoms: C1'_4  and  C1_5 
ROOT
ATOM      1  C1  I4B d   1      -4.335   0.169  -4.702  0.00  0.00    -0.075 A 
ATOM      2  C2  I4B d   1      -3.474  -0.003  -5.757  0.00  0.00     0.003 A 
ATOM      3  C3  I4B d   1      -2.364  -0.874  -5.636  0.00  0.00     0.002 A 
ATOM      4  C4  I4B d   1      -2.126  -1.509  -4.434  0.00  0.00    -0.004 A 
ATOM      5  C5  I4B d   1      -3.014  -1.351  -3.373  0.00  0.00     0.002 A 
ATOM      6  C6  I4B d   1      -4.132  -0.517  -3.512  0.00  0.00     0.003 A 
ENDROOT
BRANCH   1   7
ATOM      7  C1' I4B d   1      -5.479   1.121  -4.854  0.00  0.00     0.060 C 
BRANCH   7   8
ATOM      8  C2' I4B d   1      -4.907   2.514  -5.028  0.00  0.00    -0.013 C 
ATOM      9  C4' I4B d   1      -6.000   3.534  -5.204  0.00  0.00     0.013 C 
ATOM     10  C3' I4B d   1      -4.066   2.823  -3.825  0.00  0.00     0.013 C 
ENDBRANCH   7   8
ENDBRANCH   1   7
TORSDOF 2
ENDMDL
