MODEL 1
REMARK minimizedAffinity -1.23725176
REMARK minimizedRMSD -1
REMARK  2 active torsions:
REMARK  status: ('A' for Active; 'I' for Inactive)
REMARK    1  A    between atoms: C2'_3  and  C1'_4 
REMARK    2  A    between atoms: C1'_4  and  C1_5 
ROOT
ATOM      1  C1  I4B d   1       4.353  -3.573   2.525  0.00  0.00    -0.075 A 
ATOM      2  C2  I4B d   1       4.709  -3.578   1.199  0.00  0.00     0.003 A 
ATOM      3  C3  I4B d   1       3.834  -3.040   0.225  0.00  0.00     0.002 A 
ATOM      4  C4  I4B d   1       2.600  -2.557   0.611  0.00  0.00    -0.004 A 
ATOM      5  C5  I4B d   1       2.251  -2.533   1.958  0.00  0.00     0.002 A 
ATOM      6  C6  I4B d   1       3.138  -3.032   2.923  0.00  0.00     0.003 A 
ENDROOT
BRANCH   1   7
ATOM      7  C1' I4B d   1       5.287  -4.180   3.524  0.00  0.00     0.060 C 
BRANCH   7   8
ATOM      8  C2' I4B d   1       5.035  -3.515   4.862  0.00  0.00    -0.013 C 
ATOM      9  C4' I4B d   1       5.263  -4.475   5.999  0.00  0.00     0.013 C 
ATOM     10  C3' I4B d   1       5.944  -2.326   4.967  0.00  0.00     0.013 C 
ENDBRANCH   7   8
ENDBRANCH   1   7
TORSDOF 2
ENDMDL
