MODEL 1
REMARK minimizedAffinity 18.094492
REMARK minimizedRMSD -1
REMARK  0 active torsions:
REMARK  status: ('A' for Active; 'I' for Inactive)
ROOT
ATOM      1  C   UNL d   1      -3.102   0.506   1.741  0.00  0.00    -0.002 A 
ATOM      2  C1  UNL d   1      -2.839   0.981   3.018  0.00  0.00     0.010 A 
ATOM      3  C2  UNL d   1      -1.781   0.460   3.766  0.00  0.00     0.041 A 
ATOM      4  C3  UNL d   1      -0.983  -0.555   3.202  0.00  0.00    -0.075 A 
ATOM      5  S   UNL d   1       0.367  -1.342   3.931  0.00  0.00     0.015 SA
ATOM      6  C4  UNL d   1       0.626  -2.326   2.564  0.00  0.00     0.022 A 
ATOM      7  C5  UNL d   1      -0.286  -2.074   1.566  0.00  0.00     0.026 A 
ATOM      8  C6  UNL d   1      -1.228  -1.048   1.917  0.00  0.00    -0.082 A 
ATOM      9  C7  UNL d   1      -2.308  -0.500   1.185  0.00  0.00     0.045 A 
ENDROOT
TORSDOF 0
ENDMDL
