MODEL 1
REMARK minimizedAffinity 20.4994736
REMARK minimizedRMSD -1
REMARK  0 active torsions:
REMARK  status: ('A' for Active; 'I' for Inactive)
ROOT
ATOM      1  C   UNL d   1      -1.933   0.041   3.512  0.00  0.00    -0.002 A 
ATOM      2  C1  UNL d   1      -2.322  -0.810   2.487  0.00  0.00     0.010 A 
ATOM      3  C2  UNL d   1      -1.476  -1.832   2.053  0.00  0.00     0.041 A 
ATOM      4  C3  UNL d   1      -0.221  -1.987   2.673  0.00  0.00    -0.075 A 
ATOM      5  S   UNL d   1       0.980  -3.169   2.308  0.00  0.00     0.015 SA
ATOM      6  C4  UNL d   1       2.037  -2.573   3.505  0.00  0.00     0.022 A 
ATOM      7  C5  UNL d   1       1.503  -1.499   4.176  0.00  0.00     0.026 A 
ATOM      8  C6  UNL d   1       0.193  -1.144   3.708  0.00  0.00    -0.082 A 
ATOM      9  C7  UNL d   1      -0.688  -0.117   4.125  0.00  0.00     0.045 A 
ENDROOT
TORSDOF 0
ENDMDL
