MODEL 1
REMARK minimizedAffinity 30.1553326
REMARK minimizedRMSD -1
REMARK  0 active torsions:
REMARK  status: ('A' for Active; 'I' for Inactive)
ROOT
ATOM      1  C   UNL d   1      -2.246  -4.512  -2.497  0.00  0.00    -0.002 A 
ATOM      2  C1  UNL d   1      -1.065  -4.397  -1.776  0.00  0.00     0.010 A 
ATOM      3  C2  UNL d   1       0.159  -4.729  -2.361  0.00  0.00     0.041 A 
ATOM      4  C3  UNL d   1       0.177  -5.180  -3.696  0.00  0.00    -0.075 A 
ATOM      5  S   UNL d   1       1.558  -5.641  -4.619  0.00  0.00     0.015 SA
ATOM      6  C4  UNL d   1       0.613  -6.000  -5.991  0.00  0.00     0.022 A 
ATOM      7  C5  UNL d   1      -0.725  -5.779  -5.769  0.00  0.00     0.026 A 
ATOM      8  C6  UNL d   1      -0.999  -5.302  -4.442  0.00  0.00    -0.082 A 
ATOM      9  C7  UNL d   1      -2.224  -4.959  -3.821  0.00  0.00     0.045 A 
ENDROOT
TORSDOF 0
ENDMDL
