MODEL 1
REMARK minimizedAffinity 10.4265966
REMARK minimizedRMSD -1
REMARK  0 active torsions:
REMARK  status: ('A' for Active; 'I' for Inactive)
ROOT
ATOM      1  C   UNL d   1      -2.092   1.120   3.993  0.00  0.00    -0.002 A 
ATOM      2  C1  UNL d   1      -1.362   1.045   5.171  0.00  0.00     0.010 A 
ATOM      3  C2  UNL d   1      -0.292   0.156   5.287  0.00  0.00     0.041 A 
ATOM      4  C3  UNL d   1       0.037  -0.663   4.189  0.00  0.00    -0.075 A 
ATOM      5  S   UNL d   1       1.308  -1.825   4.103  0.00  0.00     0.015 SA
ATOM      6  C4  UNL d   1       0.913  -2.248   2.500  0.00  0.00     0.022 A 
ATOM      7  C5  UNL d   1      -0.160  -1.530   2.026  0.00  0.00     0.026 A 
ATOM      8  C6  UNL d   1      -0.682  -0.604   2.992  0.00  0.00    -0.082 A 
ATOM      9  C7  UNL d   1      -1.762   0.307   2.905  0.00  0.00     0.045 A 
ENDROOT
TORSDOF 0
ENDMDL
