MODEL 1
REMARK minimizedAffinity 15.3745766
REMARK minimizedRMSD -1
REMARK  0 active torsions:
REMARK  status: ('A' for Active; 'I' for Inactive)
ROOT
ATOM      1  C   UNL d   1      -1.736   0.111   3.631  0.00  0.00    -0.002 A 
ATOM      2  C1  UNL d   1      -2.574  -0.056   2.538  0.00  0.00     0.010 A 
ATOM      3  C2  UNL d   1      -3.912   0.337   2.604  0.00  0.00     0.041 A 
ATOM      4  C3  UNL d   1      -4.398   0.908   3.797  0.00  0.00    -0.075 A 
ATOM      5  S   UNL d   1      -6.000   1.465   4.106  0.00  0.00     0.015 SA
ATOM      6  C4  UNL d   1      -5.608   1.938   5.696  0.00  0.00     0.022 A 
ATOM      7  C5  UNL d   1      -4.292   1.684   6.000  0.00  0.00     0.026 A 
ATOM      8  C6  UNL d   1      -3.572   1.087   4.910  0.00  0.00    -0.082 A 
ATOM      9  C7  UNL d   1      -2.221   0.678   4.813  0.00  0.00     0.045 A 
ENDROOT
TORSDOF 0
ENDMDL
