MODEL 1
REMARK minimizedAffinity 14.5123682
REMARK minimizedRMSD -1
REMARK  0 active torsions:
REMARK  status: ('A' for Active; 'I' for Inactive)
ROOT
ATOM      1  C   UNL d   1      -3.123   0.416   2.287  0.00  0.00    -0.002 A 
ATOM      2  C1  UNL d   1      -2.278   0.580   3.376  0.00  0.00     0.010 A 
ATOM      3  C2  UNL d   1      -2.653   1.388   4.451  0.00  0.00     0.041 A 
ATOM      4  C3  UNL d   1      -3.905   2.033   4.414  0.00  0.00    -0.075 A 
ATOM      5  S   UNL d   1      -4.575   3.070   5.617  0.00  0.00     0.015 SA
ATOM      6  C4  UNL d   1      -6.000   3.319   4.716  0.00  0.00     0.022 A 
ATOM      7  C5  UNL d   1      -5.981   2.636   3.523  0.00  0.00     0.026 A 
ATOM      8  C6  UNL d   1      -4.774   1.883   3.330  0.00  0.00    -0.082 A 
ATOM      9  C7  UNL d   1      -4.364   1.058   2.255  0.00  0.00     0.045 A 
ENDROOT
TORSDOF 0
ENDMDL
