MODEL 1
REMARK minimizedAffinity 2.77082634
REMARK minimizedRMSD -1
REMARK  0 active torsions:
REMARK  status: ('A' for Active; 'I' for Inactive)
ROOT
ATOM      1  C   UNL d   1      -2.251  -0.338   2.820  0.00  0.00    -0.002 A 
ATOM      2  C1  UNL d   1      -3.320  -0.197   1.946  0.00  0.00     0.010 A 
ATOM      3  C2  UNL d   1      -4.519   0.375   2.376  0.00  0.00     0.041 A 
ATOM      4  C3  UNL d   1      -4.626   0.809   3.712  0.00  0.00    -0.075 A 
ATOM      5  S   UNL d   1      -5.996   1.540   4.462  0.00  0.00     0.015 SA
ATOM      6  C4  UNL d   1      -5.194   1.683   5.959  0.00  0.00     0.022 A 
ATOM      7  C5  UNL d   1      -3.912   1.190   5.907  0.00  0.00     0.026 A 
ATOM      8  C6  UNL d   1      -3.563   0.678   4.611  0.00  0.00    -0.082 A 
ATOM      9  C7  UNL d   1      -2.361   0.093   4.144  0.00  0.00     0.045 A 
ENDROOT
TORSDOF 0
ENDMDL
