MODEL 1
REMARK minimizedAffinity 14.6411467
REMARK minimizedRMSD -1
REMARK  0 active torsions:
REMARK  status: ('A' for Active; 'I' for Inactive)
ROOT
ATOM      1  C   UNL d   1       1.110   1.401  -1.561  0.00  0.00    -0.002 A 
ATOM      2  C1  UNL d   1       1.661   2.435  -0.818  0.00  0.00     0.010 A 
ATOM      3  C2  UNL d   1       1.377   3.765  -1.132  0.00  0.00     0.041 A 
ATOM      4  C3  UNL d   1       0.519   4.041  -2.215  0.00  0.00    -0.075 A 
ATOM      5  S   UNL d   1       0.027   5.593  -2.783  0.00  0.00     0.015 SA
ATOM      6  C4  UNL d   1      -0.927   4.920  -4.024  0.00  0.00     0.022 A 
ATOM      7  C5  UNL d   1      -0.883   3.546  -4.020  0.00  0.00     0.026 A 
ATOM      8  C6  UNL d   1      -0.050   3.017  -2.977  0.00  0.00    -0.082 A 
ATOM      9  C7  UNL d   1       0.259   1.678  -2.634  0.00  0.00     0.045 A 
ENDROOT
TORSDOF 0
ENDMDL
