MODEL 1
REMARK minimizedAffinity 12.1709652
REMARK minimizedRMSD -1
REMARK  0 active torsions:
REMARK  status: ('A' for Active; 'I' for Inactive)
ROOT
ATOM      1  C   UNL d   1       2.090   1.380   0.335  0.00  0.00    -0.002 A 
ATOM      2  C1  UNL d   1       2.852   1.375  -0.825  0.00  0.00     0.010 A 
ATOM      3  C2  UNL d   1       4.077   2.043  -0.873  0.00  0.00     0.041 A 
ATOM      4  C3  UNL d   1       4.528   2.722   0.276  0.00  0.00    -0.075 A 
ATOM      5  S   UNL d   1       5.996   3.609   0.450  0.00  0.00     0.015 SA
ATOM      6  C4  UNL d   1       5.647   4.015   2.068  0.00  0.00     0.022 A 
ATOM      7  C5  UNL d   1       4.443   3.495   2.481  0.00  0.00     0.026 A 
ATOM      8  C6  UNL d   1       3.778   2.741   1.456  0.00  0.00    -0.082 A 
ATOM      9  C7  UNL d   1       2.540   2.055   1.472  0.00  0.00     0.045 A 
ENDROOT
TORSDOF 0
ENDMDL
