MODEL 1
REMARK minimizedAffinity 15.7854643
REMARK minimizedRMSD -1
REMARK  0 active torsions:
REMARK  status: ('A' for Active; 'I' for Inactive)
ROOT
ATOM      1  C   UNL d   1      -5.499   1.356   0.836  0.00  0.00    -0.002 A 
ATOM      2  C1  UNL d   1      -5.447  -0.014   1.049  0.00  0.00     0.010 A 
ATOM      3  C2  UNL d   1      -5.554  -0.904  -0.021  0.00  0.00     0.041 A 
ATOM      4  C3  UNL d   1      -5.712  -0.389  -1.323  0.00  0.00    -0.075 A 
ATOM      5  S   UNL d   1      -5.862  -1.288  -2.786  0.00  0.00     0.015 SA
ATOM      6  C4  UNL d   1      -5.998   0.125  -3.729  0.00  0.00     0.022 A 
ATOM      7  C5  UNL d   1      -5.932   1.264  -2.962  0.00  0.00     0.026 A 
ATOM      8  C6  UNL d   1      -5.766   0.987  -1.563  0.00  0.00    -0.082 A 
ATOM      9  C7  UNL d   1      -5.657   1.863  -0.456  0.00  0.00     0.045 A 
ENDROOT
TORSDOF 0
ENDMDL
