MODEL 1
REMARK minimizedAffinity -2.57794189
REMARK minimizedRMSD -1
REMARK  1 active torsions:
REMARK  status: ('A' for Active; 'I' for Inactive)
REMARK    1  A    between atoms: N_2  and  C1_3 
ROOT
ATOM      1  C1  UNL d   1       1.552  -1.156   1.797  0.00  0.00     0.143 A 
ATOM      2  C2  UNL d   1       2.929  -1.107   1.555  0.00  0.00    -0.057 A 
ATOM      3  C3  UNL d   1       3.853  -1.145   2.607  0.00  0.00     0.033 A 
ATOM      4  C4  UNL d   1       3.413  -1.204   3.925  0.00  0.00    -0.042 A 
ATOM      5  C5  UNL d   1       2.049  -1.229   4.191  0.00  0.00     0.033 A 
ATOM      6  C6  UNL d   1       1.131  -1.197   3.136  0.00  0.00    -0.057 A 
ENDROOT
BRANCH   1   7
ATOM      7  N   UNL d   1       0.582  -1.023   0.801  0.00  0.00    -0.732 N 
ATOM      8  C   UNL d   1      -0.055   0.254   0.559  0.00  0.00     0.284 C 
ATOM      9  H3  UNL d   1       0.820  -1.536  -0.045  0.00  0.00     0.395 HD
ENDBRANCH   1   7
TORSDOF 1
ENDMDL
