MODEL 1
REMARK minimizedAffinity -3.07929635
REMARK minimizedRMSD -1
REMARK  1 active torsions:
REMARK  status: ('A' for Active; 'I' for Inactive)
REMARK    1  A    between atoms: N_2  and  C1_3 
ROOT
ATOM      1  C1  UNL d   1      -1.710   2.021  -3.633  0.00  0.00     0.143 A 
ATOM      2  C2  UNL d   1      -1.461   2.849  -4.733  0.00  0.00    -0.057 A 
ATOM      3  C3  UNL d   1      -0.398   3.759  -4.731  0.00  0.00     0.033 A 
ATOM      4  C4  UNL d   1       0.421   3.879  -3.613  0.00  0.00    -0.042 A 
ATOM      5  C5  UNL d   1       0.178   3.084  -2.499  0.00  0.00     0.033 A 
ATOM      6  C6  UNL d   1      -0.882   2.172  -2.510  0.00  0.00    -0.057 A 
ENDROOT
BRANCH   1   7
ATOM      7  N   UNL d   1      -2.810   1.166  -3.536  0.00  0.00    -0.732 N 
ATOM      8  C   UNL d   1      -3.715   1.254  -2.410  0.00  0.00     0.284 C 
ATOM      9  H3  UNL d   1      -3.273   1.025  -4.431  0.00  0.00     0.395 HD
ENDBRANCH   1   7
TORSDOF 1
ENDMDL
