MODEL 1
REMARK minimizedAffinity -1.11391521
REMARK minimizedRMSD -1
REMARK  1 active torsions:
REMARK  status: ('A' for Active; 'I' for Inactive)
REMARK    1  A    between atoms: N_2  and  C1_3 
ROOT
ATOM      1  C1  UNL d   1       0.715  -0.742   1.301  0.00  0.00     0.143 A 
ATOM      2  C2  UNL d   1       1.946  -1.177   0.798  0.00  0.00    -0.057 A 
ATOM      3  C3  UNL d   1       2.829  -1.925   1.587  0.00  0.00     0.033 A 
ATOM      4  C4  UNL d   1       2.507  -2.227   2.906  0.00  0.00    -0.042 A 
ATOM      5  C5  UNL d   1       1.300  -1.783   3.434  0.00  0.00     0.033 A 
ATOM      6  C6  UNL d   1       0.420  -1.043   2.640  0.00  0.00    -0.057 A 
ENDROOT
BRANCH   1   7
ATOM      7  N   UNL d   1      -0.162   0.088   0.598  0.00  0.00    -0.732 N 
ATOM      8  C   UNL d   1       0.200   1.457   0.298  0.00  0.00     0.284 C 
ATOM      9  H3  UNL d   1      -0.627  -0.396  -0.166  0.00  0.00     0.395 HD
ENDBRANCH   1   7
TORSDOF 1
ENDMDL
