MODEL 1
REMARK minimizedAffinity 4.56853008
REMARK minimizedRMSD -1
REMARK  1 active torsions:
REMARK  status: ('A' for Active; 'I' for Inactive)
REMARK    1  A    between atoms: N_2  and  C1_3 
ROOT
ATOM      1  C1  UNL d   1      -2.492   2.263  -3.784  0.00  0.00     0.143 A 
ATOM      2  C2  UNL d   1      -2.458   3.452  -4.519  0.00  0.00    -0.057 A 
ATOM      3  C3  UNL d   1      -1.344   4.300  -4.477  0.00  0.00     0.033 A 
ATOM      4  C4  UNL d   1      -0.253   3.986  -3.673  0.00  0.00    -0.042 A 
ATOM      5  C5  UNL d   1      -0.276   2.821  -2.915  0.00  0.00     0.033 A 
ATOM      6  C6  UNL d   1      -1.388   1.975  -2.966  0.00  0.00    -0.057 A 
ENDROOT
BRANCH   1   7
ATOM      7  N   UNL d   1      -3.609   1.427  -3.707  0.00  0.00    -0.732 N 
ATOM      8  C   UNL d   1      -3.990   0.819  -2.451  0.00  0.00     0.284 C 
ATOM      9  H3  UNL d   1      -4.393   1.776  -4.255  0.00  0.00     0.395 HD
ENDBRANCH   1   7
TORSDOF 1
ENDMDL
