MODEL 1
REMARK minimizedAffinity -0.902061403
REMARK minimizedRMSD -1
REMARK  1 active torsions:
REMARK  status: ('A' for Active; 'I' for Inactive)
REMARK    1  A    between atoms: N_2  and  C1_3 
ROOT
ATOM      1  C1  UNL d   1      -1.472  -4.393  -2.036  0.00  0.00     0.143 A 
ATOM      2  C2  UNL d   1      -2.458  -4.916  -1.192  0.00  0.00    -0.057 A 
ATOM      3  C3  UNL d   1      -2.660  -4.401   0.095  0.00  0.00     0.033 A 
ATOM      4  C4  UNL d   1      -1.857  -3.371   0.572  0.00  0.00    -0.042 A 
ATOM      5  C5  UNL d   1      -0.855  -2.852  -0.240  0.00  0.00     0.033 A 
ATOM      6  C6  UNL d   1      -0.662  -3.366  -1.526  0.00  0.00    -0.057 A 
ENDROOT
BRANCH   1   7
ATOM      7  N   UNL d   1      -1.157  -4.927  -3.288  0.00  0.00    -0.732 N 
ATOM      8  C   UNL d   1      -2.202  -5.251  -4.235  0.00  0.00     0.284 C 
ATOM      9  H3  UNL d   1      -0.341  -4.484  -3.705  0.00  0.00     0.395 HD
ENDBRANCH   1   7
TORSDOF 1
ENDMDL
