MODEL 1
REMARK minimizedAffinity -0.208282694
REMARK minimizedRMSD -1
REMARK  1 active torsions:
REMARK  status: ('A' for Active; 'I' for Inactive)
REMARK    1  A    between atoms: N_2  and  C1_3 
ROOT
ATOM      1  C1  UNL d   1       1.115  -0.623   0.321  0.00  0.00     0.143 A 
ATOM      2  C2  UNL d   1       0.718  -1.933   0.613  0.00  0.00    -0.057 A 
ATOM      3  C3  UNL d   1       1.626  -2.872   1.115  0.00  0.00     0.033 A 
ATOM      4  C4  UNL d   1       2.959  -2.525   1.309  0.00  0.00    -0.042 A 
ATOM      5  C5  UNL d   1       3.382  -1.237   1.002  0.00  0.00     0.033 A 
ATOM      6  C6  UNL d   1       2.469  -0.301   0.506  0.00  0.00    -0.057 A 
ENDROOT
BRANCH   1   7
ATOM      7  N   UNL d   1       0.283   0.328  -0.274  0.00  0.00    -0.732 N 
ATOM      8  C   UNL d   1       0.311   0.540  -1.705  0.00  0.00     0.284 C 
ATOM      9  H3  UNL d   1      -0.652   0.332   0.129  0.00  0.00     0.395 HD
ENDBRANCH   1   7
TORSDOF 1
ENDMDL
