MODEL 1
REMARK minimizedAffinity 2.27316594
REMARK minimizedRMSD -1
REMARK  1 active torsions:
REMARK  status: ('A' for Active; 'I' for Inactive)
REMARK    1  A    between atoms: N_2  and  C1_3 
ROOT
ATOM      1  C1  UNL d   1      -4.395   1.113  -2.569  0.00  0.00     0.143 A 
ATOM      2  C2  UNL d   1      -5.550   0.323  -2.552  0.00  0.00    -0.057 A 
ATOM      3  C3  UNL d   1      -5.998  -0.282  -1.371  0.00  0.00     0.033 A 
ATOM      4  C4  UNL d   1      -5.281  -0.130  -0.189  0.00  0.00    -0.042 A 
ATOM      5  C5  UNL d   1      -4.117   0.629  -0.188  0.00  0.00     0.033 A 
ATOM      6  C6  UNL d   1      -3.677   1.236  -1.369  0.00  0.00    -0.057 A 
ENDROOT
BRANCH   1   7
ATOM      7  N   UNL d   1      -3.843   1.659  -3.730  0.00  0.00    -0.732 N 
ATOM      8  C   UNL d   1      -2.451   2.051  -3.772  0.00  0.00     0.284 C 
ATOM      9  H3  UNL d   1      -4.169   1.190  -4.573  0.00  0.00     0.395 HD
ENDBRANCH   1   7
TORSDOF 1
ENDMDL
