MODEL 1
REMARK minimizedAffinity 4.29314041
REMARK minimizedRMSD -1
REMARK  1 active torsions:
REMARK  status: ('A' for Active; 'I' for Inactive)
REMARK    1  A    between atoms: N_2  and  C1_3 
ROOT
ATOM      1  C1  UNL d   1      -2.308  -1.066   0.386  0.00  0.00     0.143 A 
ATOM      2  C2  UNL d   1      -2.079  -2.424   0.138  0.00  0.00    -0.057 A 
ATOM      3  C3  UNL d   1      -0.781  -2.948   0.111  0.00  0.00     0.033 A 
ATOM      4  C4  UNL d   1       0.316  -2.115   0.304  0.00  0.00    -0.042 A 
ATOM      5  C5  UNL d   1       0.113  -0.758   0.528  0.00  0.00     0.033 A 
ATOM      6  C6  UNL d   1      -1.186  -0.242   0.560  0.00  0.00    -0.057 A 
ENDROOT
BRANCH   1   7
ATOM      7  N   UNL d   1      -3.569  -0.467   0.328  0.00  0.00    -0.732 N 
ATOM      8  C   UNL d   1      -4.484  -0.779  -0.748  0.00  0.00     0.284 C 
ATOM      9  H3  UNL d   1      -4.010  -0.401   1.243  0.00  0.00     0.395 HD
ENDBRANCH   1   7
TORSDOF 1
ENDMDL
