MODEL 1
REMARK minimizedAffinity 7.30466032
REMARK minimizedRMSD -1
REMARK  1 active torsions:
REMARK  status: ('A' for Active; 'I' for Inactive)
REMARK    1  A    between atoms: N_2  and  C1_3 
ROOT
ATOM      1  C1  UNL d   1      -5.045  -1.006  -2.109  0.00  0.00     0.143 A 
ATOM      2  C2  UNL d   1      -5.993  -0.065  -1.692  0.00  0.00    -0.057 A 
ATOM      3  C3  UNL d   1      -5.990   0.439  -0.386  0.00  0.00     0.033 A 
ATOM      4  C4  UNL d   1      -5.053  -0.012   0.538  0.00  0.00    -0.042 A 
ATOM      5  C5  UNL d   1      -4.117  -0.965   0.153  0.00  0.00     0.033 A 
ATOM      6  C6  UNL d   1      -4.121  -1.460  -1.155  0.00  0.00    -0.057 A 
ENDROOT
BRANCH   1   7
ATOM      7  N   UNL d   1      -5.057  -1.618  -3.365  0.00  0.00    -0.732 N 
ATOM      8  C   UNL d   1      -4.546  -2.962  -3.534  0.00  0.00     0.284 C 
ATOM      9  H3  UNL d   1      -5.914  -1.431  -3.880  0.00  0.00     0.395 HD
ENDBRANCH   1   7
TORSDOF 1
ENDMDL
