MODEL 1
REMARK minimizedAffinity 2.77345085
REMARK minimizedRMSD -1
REMARK  1 active torsions:
REMARK  status: ('A' for Active; 'I' for Inactive)
REMARK    1  A    between atoms: N_2  and  C1_3 
ROOT
ATOM      1  C1  UNL d   1      -4.107   0.686  -2.327  0.00  0.00     0.143 A 
ATOM      2  C2  UNL d   1      -4.926  -0.445  -2.402  0.00  0.00    -0.057 A 
ATOM      3  C3  UNL d   1      -5.417  -1.065  -1.246  0.00  0.00     0.033 A 
ATOM      4  C4  UNL d   1      -5.072  -0.578   0.010  0.00  0.00    -0.042 A 
ATOM      5  C5  UNL d   1      -4.239   0.530   0.110  0.00  0.00     0.033 A 
ATOM      6  C6  UNL d   1      -3.758   1.148  -1.048  0.00  0.00    -0.057 A 
ENDROOT
BRANCH   1   7
ATOM      7  N   UNL d   1      -3.508   1.288  -3.436  0.00  0.00    -0.732 N 
ATOM      8  C   UNL d   1      -2.133   1.736  -3.379  0.00  0.00     0.284 C 
ATOM      9  H3  UNL d   1      -3.760   0.831  -4.309  0.00  0.00     0.395 HD
ENDBRANCH   1   7
TORSDOF 1
ENDMDL
