MODEL 1
REMARK minimizedAffinity 2.31823254
REMARK minimizedRMSD -1
REMARK  1 active torsions:
REMARK  status: ('A' for Active; 'I' for Inactive)
REMARK    1  A    between atoms: N_2  and  C1_3 
ROOT
ATOM      1  C1  UNL d   1      -0.340  -4.587  -3.654  0.00  0.00     0.143 A 
ATOM      2  C2  UNL d   1      -1.653  -5.022  -3.870  0.00  0.00    -0.057 A 
ATOM      3  C3  UNL d   1      -2.001  -5.734  -5.024  0.00  0.00     0.033 A 
ATOM      4  C4  UNL d   1      -1.045  -5.999  -6.000  0.00  0.00    -0.042 A 
ATOM      5  C5  UNL d   1       0.260  -5.555  -5.818  0.00  0.00     0.033 A 
ATOM      6  C6  UNL d   1       0.603  -4.850  -4.660  0.00  0.00    -0.057 A 
ENDROOT
BRANCH   1   7
ATOM      7  N   UNL d   1       0.047  -3.790  -2.574  0.00  0.00    -0.732 N 
ATOM      8  C   UNL d   1      -0.694  -3.822  -1.331  0.00  0.00     0.284 C 
ATOM      9  H3  UNL d   1       1.057  -3.762  -2.455  0.00  0.00     0.395 HD
ENDBRANCH   1   7
TORSDOF 1
ENDMDL
