MODEL 1
REMARK minimizedAffinity 4.89329672
REMARK minimizedRMSD -1
REMARK  1 active torsions:
REMARK  status: ('A' for Active; 'I' for Inactive)
REMARK    1  A    between atoms: N_2  and  C1_3 
ROOT
ATOM      1  C1  UNL d   1      -0.964  -2.262   0.325  0.00  0.00     0.143 A 
ATOM      2  C2  UNL d   1       0.386  -2.324  -0.038  0.00  0.00    -0.057 A 
ATOM      3  C3  UNL d   1       1.217  -1.202   0.062  0.00  0.00     0.033 A 
ATOM      4  C4  UNL d   1       0.704   0.014   0.501  0.00  0.00    -0.042 A 
ATOM      5  C5  UNL d   1      -0.640   0.105   0.844  0.00  0.00     0.033 A 
ATOM      6  C6  UNL d   1      -1.463  -1.021   0.749  0.00  0.00    -0.057 A 
ENDROOT
BRANCH   1   7
ATOM      7  N   UNL d   1      -1.864  -3.316   0.155  0.00  0.00    -0.732 N 
ATOM      8  C   UNL d   1      -2.636  -3.814   1.274  0.00  0.00     0.284 C 
ATOM      9  H3  UNL d   1      -2.390  -3.242  -0.712  0.00  0.00     0.395 HD
ENDBRANCH   1   7
TORSDOF 1
ENDMDL
