MODEL 1
REMARK minimizedAffinity 2.69018197
REMARK minimizedRMSD -1
REMARK  1 active torsions:
REMARK  status: ('A' for Active; 'I' for Inactive)
REMARK    1  A    between atoms: N_2  and  C1_3 
ROOT
ATOM      1  C1  UNL d   1       0.064  -2.117  -0.048  0.00  0.00     0.143 A 
ATOM      2  C2  UNL d   1       0.018  -1.380  -1.236  0.00  0.00    -0.057 A 
ATOM      3  C3  UNL d   1       0.270  -0.003  -1.247  0.00  0.00     0.033 A 
ATOM      4  C4  UNL d   1       0.544   0.669  -0.060  0.00  0.00    -0.042 A 
ATOM      5  C5  UNL d   1       0.570  -0.039   1.136  0.00  0.00     0.033 A 
ATOM      6  C6  UNL d   1       0.324  -1.415   1.139  0.00  0.00    -0.057 A 
ENDROOT
BRANCH   1   7
ATOM      7  N   UNL d   1      -0.274  -3.470   0.042  0.00  0.00    -0.732 N 
ATOM      8  C   UNL d   1      -1.542  -3.877   0.609  0.00  0.00     0.284 C 
ATOM      9  H3  UNL d   1      -0.002  -3.994  -0.786  0.00  0.00     0.395 HD
ENDBRANCH   1   7
TORSDOF 1
ENDMDL
