MODEL 1
REMARK minimizedAffinity 4.17530537
REMARK minimizedRMSD -1
REMARK  1 active torsions:
REMARK  status: ('A' for Active; 'I' for Inactive)
REMARK    1  A    between atoms: N_2  and  C1_3 
ROOT
ATOM      1  C1  UNL d   1      -3.149   1.193  -3.069  0.00  0.00     0.143 A 
ATOM      2  C2  UNL d   1      -2.721   0.342  -2.044  0.00  0.00    -0.057 A 
ATOM      3  C3  UNL d   1      -3.633  -0.430  -1.314  0.00  0.00     0.033 A 
ATOM      4  C4  UNL d   1      -4.996  -0.343  -1.579  0.00  0.00    -0.042 A 
ATOM      5  C5  UNL d   1      -5.446   0.515  -2.576  0.00  0.00     0.033 A 
ATOM      6  C6  UNL d   1      -4.530   1.279  -3.306  0.00  0.00    -0.057 A 
ENDROOT
BRANCH   1   7
ATOM      7  N   UNL d   1      -2.302   2.060  -3.764  0.00  0.00    -0.732 N 
ATOM      8  C   UNL d   1      -0.893   2.130  -3.441  0.00  0.00     0.284 C 
ATOM      9  H3  UNL d   1      -2.502   2.082  -4.761  0.00  0.00     0.395 HD
ENDBRANCH   1   7
TORSDOF 1
ENDMDL
