MODEL 1
REMARK minimizedAffinity 3.54171419
REMARK minimizedRMSD -1
REMARK  1 active torsions:
REMARK  status: ('A' for Active; 'I' for Inactive)
REMARK    1  A    between atoms: N_2  and  C1_3 
ROOT
ATOM      1  C1  UNL d   1      -3.899   0.712  -2.782  0.00  0.00     0.143 A 
ATOM      2  C2  UNL d   1      -2.993   0.097  -1.912  0.00  0.00    -0.057 A 
ATOM      3  C3  UNL d   1      -3.434  -0.631  -0.800  0.00  0.00     0.033 A 
ATOM      4  C4  UNL d   1      -4.793  -0.731  -0.521  0.00  0.00    -0.042 A 
ATOM      5  C5  UNL d   1      -5.711  -0.106  -1.358  0.00  0.00     0.033 A 
ATOM      6  C6  UNL d   1      -5.264   0.613  -2.471  0.00  0.00    -0.057 A 
ENDROOT
BRANCH   1   7
ATOM      7  N   UNL d   1      -3.520   1.531  -3.848  0.00  0.00    -0.732 N 
ATOM      8  C   UNL d   1      -2.342   2.368  -3.753  0.00  0.00     0.284 C 
ATOM      9  H3  UNL d   1      -3.632   1.072  -4.749  0.00  0.00     0.395 HD
ENDBRANCH   1   7
TORSDOF 1
ENDMDL
