MODEL 1
REMARK minimizedAffinity 2.78976488
REMARK minimizedRMSD -1
REMARK  1 active torsions:
REMARK  status: ('A' for Active; 'I' for Inactive)
REMARK    1  A    between atoms: N_2  and  C1_3 
ROOT
ATOM      1  C1  UNL d   1      -2.262  -5.221  -4.394  0.00  0.00     0.143 A 
ATOM      2  C2  UNL d   1      -1.784  -5.375  -5.699  0.00  0.00    -0.057 A 
ATOM      3  C3  UNL d   1      -0.417  -5.533  -5.958  0.00  0.00     0.033 A 
ATOM      4  C4  UNL d   1       0.502  -5.511  -4.914  0.00  0.00    -0.042 A 
ATOM      5  C5  UNL d   1       0.052  -5.334  -3.611  0.00  0.00     0.033 A 
ATOM      6  C6  UNL d   1      -1.315  -5.183  -3.358  0.00  0.00    -0.057 A 
ENDROOT
BRANCH   1   7
ATOM      7  N   UNL d   1      -3.598  -4.961  -4.080  0.00  0.00    -0.732 N 
ATOM      8  C   UNL d   1      -4.436  -5.993  -3.508  0.00  0.00     0.284 C 
ATOM      9  H3  UNL d   1      -3.728  -4.042  -3.664  0.00  0.00     0.395 HD
ENDBRANCH   1   7
TORSDOF 1
ENDMDL
