MODEL 1
REMARK minimizedAffinity 5.32309771
REMARK minimizedRMSD -1
REMARK  0 active torsions:
REMARK  status: ('A' for Active; 'I' for Inactive)
ROOT
ATOM      1  C1  BNZ d   1      -2.266  -3.014   1.315  0.00  0.00     0.000 A 
ATOM      2  C2  BNZ d   1      -2.993  -1.970   1.822  0.00  0.00     0.000 A 
ATOM      3  C3  BNZ d   1      -3.397  -0.942   1.017  0.00  0.00     0.000 A 
ATOM      4  C4  BNZ d   1      -3.040  -0.939  -0.283  0.00  0.00     0.000 A 
ATOM      5  C5  BNZ d   1      -2.299  -1.979  -0.808  0.00  0.00     0.000 A 
ATOM      6  C6  BNZ d   1      -1.928  -3.032  -0.003  0.00  0.00     0.000 A 
ENDROOT
TORSDOF 0
ENDMDL
