MODEL 1
REMARK minimizedAffinity -1.2030853
REMARK minimizedRMSD -1
REMARK  0 active torsions:
REMARK  status: ('A' for Active; 'I' for Inactive)
ROOT
ATOM      1  C1  BNZ d   1      -5.788  -1.894  -0.187  0.00  0.00     0.000 A 
ATOM      2  C2  BNZ d   1      -4.896  -1.955   0.851  0.00  0.00     0.000 A 
ATOM      3  C3  BNZ d   1      -4.114  -0.879   1.165  0.00  0.00     0.000 A 
ATOM      4  C4  BNZ d   1      -4.195   0.241   0.419  0.00  0.00     0.000 A 
ATOM      5  C5  BNZ d   1      -5.083   0.315  -0.637  0.00  0.00     0.000 A 
ATOM      6  C6  BNZ d   1      -5.896  -0.756  -0.926  0.00  0.00     0.000 A 
ENDROOT
TORSDOF 0
ENDMDL
