MODEL 1
REMARK minimizedAffinity 11.3373156
REMARK minimizedRMSD -1
REMARK  0 active torsions:
REMARK  status: ('A' for Active; 'I' for Inactive)
ROOT
ATOM      1  C1  BNZ d   1      -4.290  -0.375  -1.541  0.00  0.00     0.000 A 
ATOM      2  C2  BNZ d   1      -4.544  -0.112  -0.222  0.00  0.00     0.000 A 
ATOM      3  C3  BNZ d   1      -3.531  -0.091   0.696  0.00  0.00     0.000 A 
ATOM      4  C4  BNZ d   1      -2.273  -0.372   0.300  0.00  0.00     0.000 A 
ATOM      5  C5  BNZ d   1      -2.002  -0.648  -1.026  0.00  0.00     0.000 A 
ATOM      6  C6  BNZ d   1      -3.018  -0.630  -1.953  0.00  0.00     0.000 A 
ENDROOT
TORSDOF 0
ENDMDL
