MODEL 1
REMARK minimizedAffinity 9.70962524
REMARK minimizedRMSD -1
REMARK  0 active torsions:
REMARK  status: ('A' for Active; 'I' for Inactive)
ROOT
ATOM      1  C1  BNZ d   1      -5.634  -1.420  -0.004  0.00  0.00     0.000 A 
ATOM      2  C2  BNZ d   1      -4.695  -0.941   0.871  0.00  0.00     0.000 A 
ATOM      3  C3  BNZ d   1      -3.641  -0.193   0.425  0.00  0.00     0.000 A 
ATOM      4  C4  BNZ d   1      -3.505   0.041  -0.896  0.00  0.00     0.000 A 
ATOM      5  C5  BNZ d   1      -4.438  -0.443  -1.791  0.00  0.00     0.000 A 
ATOM      6  C6  BNZ d   1      -5.519  -1.162  -1.335  0.00  0.00     0.000 A 
ENDROOT
TORSDOF 0
ENDMDL
