MODEL 1
REMARK minimizedAffinity 10.923111
REMARK minimizedRMSD -1
REMARK  0 active torsions:
REMARK  status: ('A' for Active; 'I' for Inactive)
ROOT
ATOM      1  C1  BNZ d   1      -5.614   3.543  -1.824  0.00  0.00     0.000 A 
ATOM      2  C2  BNZ d   1      -5.626   2.638  -2.852  0.00  0.00     0.000 A 
ATOM      3  C3  BNZ d   1      -5.799   3.048  -4.144  0.00  0.00     0.000 A 
ATOM      4  C4  BNZ d   1      -6.000   4.356  -4.404  0.00  0.00     0.000 A 
ATOM      5  C5  BNZ d   1      -6.000   5.280  -3.378  0.00  0.00     0.000 A 
ATOM      6  C6  BNZ d   1      -5.787   4.868  -2.082  0.00  0.00     0.000 A 
ENDROOT
TORSDOF 0
ENDMDL
