MODEL 1
REMARK minimizedAffinity 6.29810953
REMARK minimizedRMSD -1
REMARK  0 active torsions:
REMARK  status: ('A' for Active; 'I' for Inactive)
ROOT
ATOM      1  C1  BNZ d   1       1.712  -3.491   6.000  0.00  0.00     0.000 A 
ATOM      2  C2  BNZ d   1       1.155  -2.240   5.998  0.00  0.00     0.000 A 
ATOM      3  C3  BNZ d   1       0.415  -1.805   4.935  0.00  0.00     0.000 A 
ATOM      4  C4  BNZ d   1       0.266  -2.605   3.859  0.00  0.00     0.000 A 
ATOM      5  C5  BNZ d   1       0.829  -3.865   3.842  0.00  0.00     0.000 A 
ATOM      6  C6  BNZ d   1       1.541  -4.315   4.930  0.00  0.00     0.000 A 
ENDROOT
TORSDOF 0
ENDMDL
