MODEL 1
REMARK minimizedAffinity 6.93204641
REMARK minimizedRMSD -1
REMARK  0 active torsions:
REMARK  status: ('A' for Active; 'I' for Inactive)
ROOT
ATOM      1  C1  BNZ d   1       3.975   0.366   0.231  0.00  0.00     0.000 A 
ATOM      2  C2  BNZ d   1       3.998   0.003   1.552  0.00  0.00     0.000 A 
ATOM      3  C3  BNZ d   1       4.996   0.436   2.379  0.00  0.00     0.000 A 
ATOM      4  C4  BNZ d   1       5.990   1.197   1.877  0.00  0.00     0.000 A 
ATOM      5  C5  BNZ d   1       5.986   1.564   0.546  0.00  0.00     0.000 A 
ATOM      6  C6  BNZ d   1       4.959   1.159  -0.275  0.00  0.00     0.000 A 
ENDROOT
TORSDOF 0
ENDMDL
