MODEL 1
REMARK minimizedAffinity 4.36298323
REMARK minimizedRMSD -1
REMARK  1 active torsions:
REMARK  status: ('A' for Active; 'I' for Inactive)
REMARK    1  A    between atoms: N_2  and  C1_3 
ROOT
ATOM      1  C1  UNL d   1       3.367  -5.969  -3.491  0.00  0.00     0.143 A 
ATOM      2  C2  UNL d   1       4.401  -5.895  -2.551  0.00  0.00    -0.057 A 
ATOM      3  C3  UNL d   1       4.135  -5.896  -1.177  0.00  0.00     0.033 A 
ATOM      4  C4  UNL d   1       2.823  -5.944  -0.716  0.00  0.00    -0.042 A 
ATOM      5  C5  UNL d   1       1.778  -5.994  -1.632  0.00  0.00     0.033 A 
ATOM      6  C6  UNL d   1       2.051  -5.998  -3.003  0.00  0.00    -0.057 A 
ENDROOT
BRANCH   1   7
ATOM      7  N   UNL d   1       3.561  -5.872  -4.871  0.00  0.00    -0.732 N 
ATOM      8  C   UNL d   1       2.432  -5.872  -5.776  0.00  0.00     0.284 C 
ATOM      9  H3  UNL d   1       4.289  -5.204  -5.114  0.00  0.00     0.395 HD
ENDBRANCH   1   7
TORSDOF 1
ENDMDL
