MODEL 1
REMARK minimizedAffinity -0.302556157
REMARK minimizedRMSD -1
REMARK  1 active torsions:
REMARK  status: ('A' for Active; 'I' for Inactive)
REMARK    1  A    between atoms: N_2  and  C1_3 
ROOT
ATOM      1  C1  UNL d   1       3.757  -5.795  -3.572  0.00  0.00     0.143 A 
ATOM      2  C2  UNL d   1       4.367  -5.626  -4.819  0.00  0.00    -0.057 A 
ATOM      3  C3  UNL d   1       3.614  -5.614  -6.000  0.00  0.00     0.033 A 
ATOM      4  C4  UNL d   1       2.237  -5.800  -5.956  0.00  0.00    -0.042 A 
ATOM      5  C5  UNL d   1       1.612  -5.996  -4.729  0.00  0.00     0.033 A 
ATOM      6  C6  UNL d   1       2.368  -6.000  -3.553  0.00  0.00    -0.057 A 
ENDROOT
BRANCH   1   7
ATOM      7  N   UNL d   1       4.461  -5.915  -2.371  0.00  0.00    -0.732 N 
ATOM      8  C   UNL d   1       3.759  -5.984  -1.108  0.00  0.00     0.284 C 
ATOM      9  H3  UNL d   1       5.248  -6.556  -2.445  0.00  0.00     0.395 HD
ENDBRANCH   1   7
TORSDOF 1
ENDMDL
