MODEL 1
REMARK minimizedAffinity -1.46204948
REMARK minimizedRMSD -1
REMARK  1 active torsions:
REMARK  status: ('A' for Active; 'I' for Inactive)
REMARK    1  A    between atoms: N_2  and  C1_3 
ROOT
ATOM      1  C1  UNL d   1       3.730  -0.146  -4.503  0.00  0.00     0.143 A 
ATOM      2  C2  UNL d   1       3.184   1.142  -4.499  0.00  0.00    -0.057 A 
ATOM      3  C3  UNL d   1       3.756   2.176  -5.251  0.00  0.00     0.033 A 
ATOM      4  C4  UNL d   1       4.905   1.945  -6.000  0.00  0.00    -0.042 A 
ATOM      5  C5  UNL d   1       5.479   0.679  -5.999  0.00  0.00     0.033 A 
ATOM      6  C6  UNL d   1       4.899  -0.351  -5.252  0.00  0.00    -0.057 A 
ENDROOT
BRANCH   1   7
ATOM      7  N   UNL d   1       3.265  -1.190  -3.700  0.00  0.00    -0.732 N 
ATOM      8  C   UNL d   1       3.753  -1.353  -2.348  0.00  0.00     0.284 C 
ATOM      9  H3  UNL d   1       2.264  -1.343  -3.802  0.00  0.00     0.395 HD
ENDBRANCH   1   7
TORSDOF 1
ENDMDL
