MODEL 1
REMARK minimizedAffinity 1.13530242
REMARK minimizedRMSD -1
REMARK  1 active torsions:
REMARK  status: ('A' for Active; 'I' for Inactive)
REMARK    1  A    between atoms: N_2  and  C1_3 
ROOT
ATOM      1  C1  UNL d   1       2.913  -5.914  -3.724  0.00  0.00     0.143 A 
ATOM      2  C2  UNL d   1       3.028  -5.917  -2.330  0.00  0.00    -0.057 A 
ATOM      3  C3  UNL d   1       4.281  -5.934  -1.705  0.00  0.00     0.033 A 
ATOM      4  C4  UNL d   1       5.444  -5.977  -2.466  0.00  0.00    -0.042 A 
ATOM      5  C5  UNL d   1       5.353  -6.000  -3.853  0.00  0.00     0.033 A 
ATOM      6  C6  UNL d   1       4.100  -5.976  -4.472  0.00  0.00    -0.057 A 
ENDROOT
BRANCH   1   7
ATOM      7  N   UNL d   1       1.696  -5.998  -4.405  0.00  0.00    -0.732 N 
ATOM      8  C   UNL d   1       1.659  -6.000  -5.851  0.00  0.00     0.284 C 
ATOM      9  H3  UNL d   1       1.053  -6.657  -3.971  0.00  0.00     0.395 HD
ENDBRANCH   1   7
TORSDOF 1
ENDMDL
