MODEL 1
REMARK minimizedAffinity 11.7442236
REMARK minimizedRMSD -1
REMARK  1 active torsions:
REMARK  status: ('A' for Active; 'I' for Inactive)
REMARK    1  A    between atoms: N_2  and  C1_3 
ROOT
ATOM      1  C1  UNL d   1      -5.904   2.550   1.134  0.00  0.00     0.143 A 
ATOM      2  C2  UNL d   1      -5.931   3.942   1.000  0.00  0.00    -0.057 A 
ATOM      3  C3  UNL d   1      -5.992   4.550  -0.260  0.00  0.00     0.033 A 
ATOM      4  C4  UNL d   1      -5.999   3.772  -1.413  0.00  0.00    -0.042 A 
ATOM      5  C5  UNL d   1      -5.947   2.387  -1.305  0.00  0.00     0.033 A 
ATOM      6  C6  UNL d   1      -5.893   1.787  -0.044  0.00  0.00    -0.057 A 
ENDROOT
BRANCH   1   7
ATOM      7  N   UNL d   1      -5.744   1.889   2.355  0.00  0.00    -0.732 N 
ATOM      8  C   UNL d   1      -5.998   0.468   2.462  0.00  0.00     0.284 C 
ATOM      9  H3  UNL d   1      -4.919   2.203   2.861  0.00  0.00     0.395 HD
ENDBRANCH   1   7
TORSDOF 1
ENDMDL
