MODEL 1
REMARK minimizedAffinity 4.89893675
REMARK minimizedRMSD -1
REMARK  1 active torsions:
REMARK  status: ('A' for Active; 'I' for Inactive)
REMARK    1  A    between atoms: N_2  and  C1_3 
ROOT
ATOM      1  C1  UNL d   1       3.638  -3.110   4.113  0.00  0.00     0.143 A 
ATOM      2  C2  UNL d   1       2.841  -4.260   4.149  0.00  0.00    -0.057 A 
ATOM      3  C3  UNL d   1       1.569  -4.280   3.564  0.00  0.00     0.033 A 
ATOM      4  C4  UNL d   1       1.058  -3.138   2.957  0.00  0.00    -0.042 A 
ATOM      5  C5  UNL d   1       1.822  -1.976   2.931  0.00  0.00     0.033 A 
ATOM      6  C6  UNL d   1       3.094  -1.965   3.511  0.00  0.00    -0.057 A 
ENDROOT
BRANCH   1   7
ATOM      7  N   UNL d   1       4.870  -2.997   4.761  0.00  0.00    -0.732 N 
ATOM      8  C   UNL d   1       6.000  -2.385   4.096  0.00  0.00     0.284 C 
ATOM      9  H3  UNL d   1       4.772  -2.735   5.739  0.00  0.00     0.395 HD
ENDBRANCH   1   7
TORSDOF 1
ENDMDL
