MODEL 1
REMARK minimizedAffinity -1.43847966
REMARK minimizedRMSD -1
REMARK  1 active torsions:
REMARK  status: ('A' for Active; 'I' for Inactive)
REMARK    1  A    between atoms: N_2  and  C1_3 
ROOT
ATOM      1  C1  UNL d   1       4.765  -0.361  -3.168  0.00  0.00     0.143 A 
ATOM      2  C2  UNL d   1       4.123   0.738  -3.750  0.00  0.00    -0.057 A 
ATOM      3  C3  UNL d   1       4.392   1.120  -5.070  0.00  0.00     0.033 A 
ATOM      4  C4  UNL d   1       5.332   0.425  -5.824  0.00  0.00    -0.042 A 
ATOM      5  C5  UNL d   1       6.000  -0.654  -5.258  0.00  0.00     0.033 A 
ATOM      6  C6  UNL d   1       5.722  -1.035  -3.941  0.00  0.00    -0.057 A 
ENDROOT
BRANCH   1   7
ATOM      7  N   UNL d   1       4.614  -0.731  -1.829  0.00  0.00    -0.732 N 
ATOM      8  C   UNL d   1       3.757  -1.838  -1.462  0.00  0.00     0.284 C 
ATOM      9  H3  UNL d   1       5.491  -0.695  -1.315  0.00  0.00     0.395 HD
ENDBRANCH   1   7
TORSDOF 1
ENDMDL
