MODEL 1
REMARK minimizedAffinity 5.50764132
REMARK minimizedRMSD -1
REMARK  1 active torsions:
REMARK  status: ('A' for Active; 'I' for Inactive)
REMARK    1  A    between atoms: C1_2  and  C2_3 
ROOT
ATOM      1  C2  UNL d   1       0.367  -1.739  -1.000  0.00  0.00    -0.073 A 
ATOM      2  C3  UNL d   1       1.590  -2.392  -1.189  0.00  0.00    -0.002 A 
ATOM      3  C4  UNL d   1       2.789  -1.686  -1.088  0.00  0.00     0.004 A 
ATOM      4  C5  UNL d   1       2.778  -0.323  -0.791  0.00  0.00    -0.004 A 
ATOM      5  C6  UNL d   1       1.567   0.345  -0.587  0.00  0.00    -0.075 A 
ATOM      6  C7  UNL d   1       1.538   1.811  -0.268  0.00  0.00     0.076 C 
ATOM      7  C8  UNL d   1       0.366  -0.371  -0.693  0.00  0.00     0.001 A 
ENDROOT
BRANCH   1   8
ATOM      8  C1  UNL d   1      -0.931  -2.498  -1.102  0.00  0.00     0.053 C 
ATOM      9  C   UNL d   1      -1.810  -2.291   0.120  0.00  0.00     0.018 C 
ENDBRANCH   1   8
TORSDOF 1
ENDMDL
