MODEL 1
REMARK minimizedAffinity 1.16255546
REMARK minimizedRMSD -1
REMARK  1 active torsions:
REMARK  status: ('A' for Active; 'I' for Inactive)
REMARK    1  A    between atoms: C1_2  and  C2_3 
ROOT
ATOM      1  C2  UNL d   1       2.559   0.675  -0.496  0.00  0.00    -0.073 A 
ATOM      2  C3  UNL d   1       3.210  -0.561  -0.417  0.00  0.00    -0.002 A 
ATOM      3  C4  UNL d   1       2.485  -1.748  -0.531  0.00  0.00     0.004 A 
ATOM      4  C5  UNL d   1       1.105  -1.711  -0.733  0.00  0.00    -0.004 A 
ATOM      5  C6  UNL d   1       0.439  -0.485  -0.826  0.00  0.00    -0.075 A 
ATOM      6  C7  UNL d   1      -1.045  -0.428  -1.040  0.00  0.00     0.076 C 
ATOM      7  C8  UNL d   1       1.174   0.702  -0.707  0.00  0.00     0.001 A 
ENDROOT
BRANCH   1   8
ATOM      8  C1  UNL d   1       3.339   1.959  -0.379  0.00  0.00     0.053 C 
ATOM      9  C   UNL d   1       4.643   1.908  -1.159  0.00  0.00     0.018 C 
ENDBRANCH   1   8
TORSDOF 1
ENDMDL
