MODEL 1
REMARK minimizedAffinity 1.97846162
REMARK minimizedRMSD -1
REMARK  1 active torsions:
REMARK  status: ('A' for Active; 'I' for Inactive)
REMARK    1  A    between atoms: C1_2  and  C2_3 
ROOT
ATOM      1  C2  UNL d   1       2.233  -0.409  -0.660  0.00  0.00    -0.073 A 
ATOM      2  C3  UNL d   1       1.272   0.384  -0.023  0.00  0.00    -0.002 A 
ATOM      3  C4  UNL d   1       1.538   1.725   0.256  0.00  0.00     0.004 A 
ATOM      4  C5  UNL d   1       2.762   2.288  -0.104  0.00  0.00    -0.004 A 
ATOM      5  C6  UNL d   1       3.731   1.515  -0.752  0.00  0.00    -0.075 A 
ATOM      6  C7  UNL d   1       5.054   2.105  -1.144  0.00  0.00     0.076 C 
ATOM      7  C8  UNL d   1       3.458   0.168  -1.026  0.00  0.00     0.001 A 
ENDROOT
BRANCH   1   8
ATOM      8  C1  UNL d   1       1.949  -1.856  -0.969  0.00  0.00     0.053 C 
ATOM      9  C   UNL d   1       0.512  -2.236  -0.646  0.00  0.00     0.018 C 
ENDBRANCH   1   8
TORSDOF 1
ENDMDL
