MODEL 1
REMARK minimizedAffinity -5.29692125
REMARK minimizedRMSD -1
REMARK  1 active torsions:
REMARK  status: ('A' for Active; 'I' for Inactive)
REMARK    1  A    between atoms: C1_2  and  C2_3 
ROOT
ATOM      1  C2  UNL d   1       1.219  -0.387  -0.150  0.00  0.00    -0.073 A 
ATOM      2  C3  UNL d   1       2.056  -1.495  -0.319  0.00  0.00    -0.002 A 
ATOM      3  C4  UNL d   1       3.441  -1.352  -0.232  0.00  0.00     0.004 A 
ATOM      4  C5  UNL d   1       4.003  -0.103   0.032  0.00  0.00    -0.004 A 
ATOM      5  C6  UNL d   1       3.183   1.014   0.216  0.00  0.00    -0.075 A 
ATOM      6  C7  UNL d   1       3.771   2.365   0.499  0.00  0.00     0.076 C 
ATOM      7  C8  UNL d   1       1.792   0.863   0.124  0.00  0.00     0.001 A 
ENDROOT
BRANCH   1   8
ATOM      8  C1  UNL d   1      -0.278  -0.537  -0.237  0.00  0.00     0.053 C 
ATOM      9  C   UNL d   1      -0.705  -1.271  -1.498  0.00  0.00     0.018 C 
ENDBRANCH   1   8
TORSDOF 1
ENDMDL
