MODEL 1
REMARK minimizedAffinity 2.70609689
REMARK minimizedRMSD -1
REMARK  1 active torsions:
REMARK  status: ('A' for Active; 'I' for Inactive)
REMARK    1  A    between atoms: C1_2  and  C2_3 
ROOT
ATOM      1  C2  UNL d   1       2.285  -1.939  -1.362  0.00  0.00    -0.073 A 
ATOM      2  C3  UNL d   1       2.628  -2.661  -2.510  0.00  0.00    -0.002 A 
ATOM      3  C4  UNL d   1       3.582  -2.163  -3.398  0.00  0.00     0.004 A 
ATOM      4  C5  UNL d   1       4.208  -0.942  -3.144  0.00  0.00    -0.004 A 
ATOM      5  C6  UNL d   1       3.888  -0.211  -1.995  0.00  0.00    -0.075 A 
ATOM      6  C7  UNL d   1       4.550   1.104  -1.708  0.00  0.00     0.076 C 
ATOM      7  C8  UNL d   1       2.926  -0.717  -1.110  0.00  0.00     0.001 A 
ENDROOT
BRANCH   1   8
ATOM      8  C1  UNL d   1       1.260  -2.476  -0.397  0.00  0.00     0.053 C 
ATOM      9  C   UNL d   1      -0.127  -1.917  -0.670  0.00  0.00     0.018 C 
ENDBRANCH   1   8
TORSDOF 1
ENDMDL
