MODEL 1
REMARK minimizedAffinity 3.42193747
REMARK minimizedRMSD -1
REMARK  1 active torsions:
REMARK  status: ('A' for Active; 'I' for Inactive)
REMARK    1  A    between atoms: C1_2  and  C2_3 
ROOT
ATOM      1  C2  UNL d   1       0.457  -0.296  -0.819  0.00  0.00    -0.073 A 
ATOM      2  C3  UNL d   1       1.511  -0.980  -0.203  0.00  0.00    -0.002 A 
ATOM      3  C4  UNL d   1       1.499  -2.374  -0.129  0.00  0.00     0.004 A 
ATOM      4  C5  UNL d   1       0.438  -3.097  -0.675  0.00  0.00    -0.004 A 
ATOM      5  C6  UNL d   1      -0.619  -2.432  -1.305  0.00  0.00    -0.075 A 
ATOM      6  C7  UNL d   1      -1.768  -3.195  -1.895  0.00  0.00     0.076 C 
ATOM      7  C8  UNL d   1      -0.601  -1.032  -1.373  0.00  0.00     0.001 A 
ENDROOT
BRANCH   1   8
ATOM      8  C1  UNL d   1       0.468   1.208  -0.907  0.00  0.00     0.053 C 
ATOM      9  C   UNL d   1       1.660   1.812  -0.183  0.00  0.00     0.018 C 
ENDBRANCH   1   8
TORSDOF 1
ENDMDL
