MODEL 1
REMARK minimizedAffinity -1.67559958
REMARK minimizedRMSD -1
REMARK  1 active torsions:
REMARK  status: ('A' for Active; 'I' for Inactive)
REMARK    1  A    between atoms: C1_2  and  C2_3 
ROOT
ATOM      1  C2  UNL d   1       2.091   0.469  -0.355  0.00  0.00    -0.073 A 
ATOM      2  C3  UNL d   1       2.624  -0.820  -0.231  0.00  0.00    -0.002 A 
ATOM      3  C4  UNL d   1       1.813  -1.939  -0.425  0.00  0.00     0.004 A 
ATOM      4  C5  UNL d   1       0.467  -1.783  -0.752  0.00  0.00    -0.004 A 
ATOM      5  C6  UNL d   1      -0.081  -0.504  -0.893  0.00  0.00    -0.075 A 
ATOM      6  C7  UNL d   1      -1.529  -0.318  -1.242  0.00  0.00     0.076 C 
ATOM      7  C8  UNL d   1       0.738   0.616  -0.693  0.00  0.00     0.001 A 
ENDROOT
BRANCH   1   8
ATOM      8  C1  UNL d   1       2.964   1.680  -0.153  0.00  0.00     0.053 C 
ATOM      9  C   UNL d   1       4.176   1.670  -1.070  0.00  0.00     0.018 C 
ENDBRANCH   1   8
TORSDOF 1
ENDMDL
