MODEL 1
REMARK minimizedAffinity -4.58115101
REMARK minimizedRMSD -1
REMARK  0 active torsions:
REMARK  status: ('A' for Active; 'I' for Inactive)
ROOT
ATOM      1  C   UNL d   1      -0.684  -2.432   3.465  0.00  0.00     0.077 C 
ATOM      2  C1  UNL d   1       0.112  -1.994   2.272  0.00  0.00    -0.074 A 
ATOM      3  C2  UNL d   1       1.162  -2.778   1.782  0.00  0.00    -0.005 A 
ATOM      4  C3  UNL d   1       1.888  -2.362   0.666  0.00  0.00     0.006 A 
ATOM      5  C4  UNL d   1       1.573  -1.161   0.029  0.00  0.00    -0.005 A 
ATOM      6  C5  UNL d   1       0.526  -0.365   0.504  0.00  0.00    -0.074 A 
ATOM      7  C6  UNL d   1       0.167   0.924  -0.174  0.00  0.00     0.077 C 
ATOM      8  C7  UNL d   1      -0.204  -0.793   1.622  0.00  0.00    -0.001 A 
ENDROOT
TORSDOF 0
ENDMDL
