MODEL 1
REMARK minimizedAffinity -5.3676796
REMARK minimizedRMSD -1
REMARK  0 active torsions:
REMARK  status: ('A' for Active; 'I' for Inactive)
ROOT
ATOM      1  C   UNL d   1       3.859  -0.388  -0.663  0.00  0.00     0.077 C 
ATOM      2  C1  UNL d   1       2.494  -0.512  -0.055  0.00  0.00    -0.074 A 
ATOM      3  C2  UNL d   1       2.125  -1.660   0.655  0.00  0.00    -0.005 A 
ATOM      4  C3  UNL d   1       0.855  -1.758   1.223  0.00  0.00     0.006 A 
ATOM      5  C4  UNL d   1      -0.058  -0.711   1.087  0.00  0.00    -0.005 A 
ATOM      6  C5  UNL d   1       0.293   0.444   0.382  0.00  0.00    -0.074 A 
ATOM      7  C6  UNL d   1      -0.673   1.582   0.235  0.00  0.00     0.077 C 
ATOM      8  C7  UNL d   1       1.573   0.538  -0.181  0.00  0.00    -0.001 A 
ENDROOT
TORSDOF 0
ENDMDL
