MODEL 1
REMARK minimizedAffinity -3.73316598
REMARK minimizedRMSD -1
REMARK  0 active torsions:
REMARK  status: ('A' for Active; 'I' for Inactive)
ROOT
ATOM      1  C   UNL d   1      -2.969   1.133  -3.258  0.00  0.00     0.077 C 
ATOM      2  C1  UNL d   1      -1.713   1.490  -2.521  0.00  0.00    -0.074 A 
ATOM      3  C2  UNL d   1      -1.033   2.682  -2.794  0.00  0.00    -0.005 A 
ATOM      4  C3  UNL d   1       0.129   3.005  -2.094  0.00  0.00     0.006 A 
ATOM      5  C4  UNL d   1       0.623   2.141  -1.115  0.00  0.00    -0.005 A 
ATOM      6  C5  UNL d   1      -0.043   0.945  -0.829  0.00  0.00    -0.074 A 
ATOM      7  C6  UNL d   1       0.469   0.010   0.227  0.00  0.00     0.077 C 
ATOM      8  C7  UNL d   1      -1.214   0.631  -1.532  0.00  0.00    -0.001 A 
ENDROOT
TORSDOF 0
ENDMDL
