MODEL 1
REMARK minimizedAffinity -5.3254199
REMARK minimizedRMSD -1
REMARK  0 active torsions:
REMARK  status: ('A' for Active; 'I' for Inactive)
ROOT
ATOM      1  C   UNL d   1       1.504  -3.085   1.039  0.00  0.00     0.077 C 
ATOM      2  C1  UNL d   1       1.158  -1.697   0.587  0.00  0.00    -0.074 A 
ATOM      3  C2  UNL d   1      -0.171  -1.266   0.545  0.00  0.00    -0.005 A 
ATOM      4  C3  UNL d   1      -0.477   0.031   0.132  0.00  0.00     0.006 A 
ATOM      5  C4  UNL d   1       0.542   0.908  -0.242  0.00  0.00    -0.005 A 
ATOM      6  C5  UNL d   1       1.878   0.494  -0.205  0.00  0.00    -0.074 A 
ATOM      7  C6  UNL d   1       2.986   1.427  -0.595  0.00  0.00     0.077 C 
ATOM      8  C7  UNL d   1       2.177  -0.808   0.218  0.00  0.00    -0.001 A 
ENDROOT
TORSDOF 0
ENDMDL
