MODEL 1
REMARK minimizedAffinity -3.82944226
REMARK minimizedRMSD -1
REMARK  0 active torsions:
REMARK  status: ('A' for Active; 'I' for Inactive)
ROOT
ATOM      1  C   UNL d   1       3.670  -1.139   1.516  0.00  0.00     0.077 C 
ATOM      2  C1  UNL d   1       2.304  -1.464   0.989  0.00  0.00    -0.074 A 
ATOM      3  C2  UNL d   1       1.798  -2.766   1.059  0.00  0.00    -0.005 A 
ATOM      4  C3  UNL d   1       0.522  -3.051   0.573  0.00  0.00     0.006 A 
ATOM      5  C4  UNL d   1      -0.259  -2.040   0.013  0.00  0.00    -0.005 A 
ATOM      6  C5  UNL d   1       0.230  -0.732  -0.064  0.00  0.00    -0.074 A 
ATOM      7  C6  UNL d   1      -0.601   0.369  -0.653  0.00  0.00     0.077 C 
ATOM      8  C7  UNL d   1       1.510  -0.451   0.433  0.00  0.00    -0.001 A 
ENDROOT
TORSDOF 0
ENDMDL
