MODEL 1
REMARK minimizedAffinity -4.1727066
REMARK minimizedRMSD -1
REMARK  0 active torsions:
REMARK  status: ('A' for Active; 'I' for Inactive)
ROOT
ATOM      1  C   UNL d   1      -1.536   0.749  -0.128  0.00  0.00     0.077 C 
ATOM      2  C1  UNL d   1      -0.171   0.137  -0.026  0.00  0.00    -0.074 A 
ATOM      3  C2  UNL d   1       0.960   0.822  -0.483  0.00  0.00    -0.005 A 
ATOM      4  C3  UNL d   1       2.224   0.244  -0.373  0.00  0.00     0.006 A 
ATOM      5  C4  UNL d   1       2.371  -1.023   0.195  0.00  0.00    -0.005 A 
ATOM      6  C5  UNL d   1       1.252  -1.722   0.658  0.00  0.00    -0.074 A 
ATOM      7  C6  UNL d   1       1.393  -3.079   1.280  0.00  0.00     0.077 C 
ATOM      8  C7  UNL d   1      -0.014  -1.131   0.550  0.00  0.00    -0.001 A 
ENDROOT
TORSDOF 0
ENDMDL
