MODEL 1
REMARK minimizedAffinity -3.10448241
REMARK minimizedRMSD -1
REMARK  0 active torsions:
REMARK  status: ('A' for Active; 'I' for Inactive)
ROOT
ATOM      1  C   UNL d   1      -0.776   1.462  -0.352  0.00  0.00     0.077 C 
ATOM      2  C1  UNL d   1      -0.312   0.183   0.278  0.00  0.00    -0.074 A 
ATOM      3  C2  UNL d   1      -1.144  -0.537   1.141  0.00  0.00    -0.005 A 
ATOM      4  C3  UNL d   1      -0.702  -1.731   1.712  0.00  0.00     0.006 A 
ATOM      5  C4  UNL d   1       0.574  -2.216   1.425  0.00  0.00    -0.005 A 
ATOM      6  C5  UNL d   1       1.420  -1.511   0.563  0.00  0.00    -0.074 A 
ATOM      7  C6  UNL d   1       2.791  -2.024   0.236  0.00  0.00     0.077 C 
ATOM      8  C7  UNL d   1       0.966  -0.316  -0.012  0.00  0.00    -0.001 A 
ENDROOT
TORSDOF 0
ENDMDL
