MODEL 1
REMARK minimizedAffinity -3.82393479
REMARK minimizedRMSD -1
REMARK  0 active torsions:
REMARK  status: ('A' for Active; 'I' for Inactive)
ROOT
ATOM      1  C   UNL d   1       3.539   1.107  -0.297  0.00  0.00     0.077 C 
ATOM      2  C1  UNL d   1       2.445   0.133   0.026  0.00  0.00    -0.074 A 
ATOM      3  C2  UNL d   1       2.660  -0.919   0.921  0.00  0.00    -0.005 A 
ATOM      4  C3  UNL d   1       1.630  -1.811   1.219  0.00  0.00     0.006 A 
ATOM      5  C4  UNL d   1       0.376  -1.659   0.625  0.00  0.00    -0.005 A 
ATOM      6  C5  UNL d   1       0.142  -0.612  -0.272  0.00  0.00    -0.074 A 
ATOM      7  C6  UNL d   1      -1.203  -0.429  -0.911  0.00  0.00     0.077 C 
ATOM      8  C7  UNL d   1       1.180   0.284  -0.560  0.00  0.00    -0.001 A 
ENDROOT
TORSDOF 0
ENDMDL
