MODEL 1
REMARK minimizedAffinity -2.42763853
REMARK minimizedRMSD -1
REMARK  0 active torsions:
REMARK  status: ('A' for Active; 'I' for Inactive)
ROOT
ATOM      1  C   UNL d   1      -1.243  -1.494   1.007  0.00  0.00     0.077 C 
ATOM      2  C1  UNL d   1      -0.019  -0.671   0.732  0.00  0.00    -0.074 A 
ATOM      3  C2  UNL d   1      -0.073   0.433  -0.125  0.00  0.00    -0.005 A 
ATOM      4  C3  UNL d   1       1.070   1.195  -0.363  0.00  0.00     0.006 A 
ATOM      5  C4  UNL d   1       2.278   0.861   0.251  0.00  0.00    -0.005 A 
ATOM      6  C5  UNL d   1       2.351  -0.239   1.112  0.00  0.00    -0.074 A 
ATOM      7  C6  UNL d   1       3.638  -0.605   1.788  0.00  0.00     0.077 C 
ATOM      8  C7  UNL d   1       1.196  -0.995   1.352  0.00  0.00    -0.001 A 
ENDROOT
TORSDOF 0
ENDMDL
