MODEL 1
REMARK minimizedAffinity -4.62177324
REMARK minimizedRMSD -1
REMARK  0 active torsions:
REMARK  status: ('A' for Active; 'I' for Inactive)
ROOT
ATOM      1  C   UNL d   1      -2.099   0.334   2.177  0.00  0.00     0.077 C 
ATOM      2  C1  UNL d   1      -0.953  -0.030   1.281  0.00  0.00    -0.074 A 
ATOM      3  C2  UNL d   1      -0.533   0.834   0.265  0.00  0.00    -0.005 A 
ATOM      4  C3  UNL d   1       0.541   0.486  -0.555  0.00  0.00     0.006 A 
ATOM      5  C4  UNL d   1       1.203  -0.728  -0.368  0.00  0.00    -0.005 A 
ATOM      6  C5  UNL d   1       0.797  -1.604   0.644  0.00  0.00    -0.074 A 
ATOM      7  C6  UNL d   1       1.505  -2.908   0.865  0.00  0.00     0.077 C 
ATOM      8  C7  UNL d   1      -0.278  -1.244   1.468  0.00  0.00    -0.001 A 
ENDROOT
TORSDOF 0
ENDMDL
