MODEL 1
REMARK minimizedAffinity -4.44356298
REMARK minimizedRMSD -1
REMARK  0 active torsions:
REMARK  status: ('A' for Active; 'I' for Inactive)
ROOT
ATOM      1  C   UNL d   1      -1.149   1.192   0.377  0.00  0.00     0.077 C 
ATOM      2  C1  UNL d   1       0.126   0.403   0.329  0.00  0.00    -0.074 A 
ATOM      3  C2  UNL d   1       1.312   0.982  -0.133  0.00  0.00    -0.005 A 
ATOM      4  C3  UNL d   1       2.492   0.239  -0.163  0.00  0.00     0.006 A 
ATOM      5  C4  UNL d   1       2.498  -1.089   0.268  0.00  0.00    -0.005 A 
ATOM      6  C5  UNL d   1       1.321  -1.684   0.734  0.00  0.00    -0.074 A 
ATOM      7  C6  UNL d   1       1.312  -3.106   1.210  0.00  0.00     0.077 C 
ATOM      8  C7  UNL d   1       0.141  -0.929   0.768  0.00  0.00    -0.001 A 
ENDROOT
TORSDOF 0
ENDMDL
