MODEL 1
REMARK minimizedAffinity -2.56765127
REMARK minimizedRMSD -1
REMARK  0 active torsions:
REMARK  status: ('A' for Active; 'I' for Inactive)
ROOT
ATOM      1  C   UNL d   1      -0.420   0.764  -0.466  0.00  0.00     0.077 C 
ATOM      2  C1  UNL d   1       0.336  -0.360   0.178  0.00  0.00    -0.074 A 
ATOM      3  C2  UNL d   1      -0.240  -1.626   0.319  0.00  0.00    -0.005 A 
ATOM      4  C3  UNL d   1       0.479  -2.664   0.912  0.00  0.00     0.006 A 
ATOM      5  C4  UNL d   1       1.780  -2.446   1.369  0.00  0.00    -0.005 A 
ATOM      6  C5  UNL d   1       2.373  -1.187   1.235  0.00  0.00    -0.074 A 
ATOM      7  C6  UNL d   1       3.773  -0.938   1.712  0.00  0.00     0.077 C 
ATOM      8  C7  UNL d   1       1.646  -0.151   0.633  0.00  0.00    -0.001 A 
ENDROOT
TORSDOF 0
ENDMDL
