MODEL 1
REMARK minimizedAffinity -5.58299637
REMARK minimizedRMSD -1
REMARK  0 active torsions:
REMARK  status: ('A' for Active; 'I' for Inactive)
ROOT
ATOM      1  C   UNL d   1      -0.879   0.278   1.277  0.00  0.00     0.077 C 
ATOM      2  C1  UNL d   1       0.151  -0.740   0.888  0.00  0.00    -0.074 A 
ATOM      3  C2  UNL d   1      -0.041  -2.098   1.163  0.00  0.00    -0.005 A 
ATOM      4  C3  UNL d   1       0.921  -3.035   0.786  0.00  0.00     0.006 A 
ATOM      5  C4  UNL d   1       2.083  -2.625   0.132  0.00  0.00    -0.005 A 
ATOM      6  C5  UNL d   1       2.292  -1.272  -0.152  0.00  0.00    -0.074 A 
ATOM      7  C6  UNL d   1       3.531  -0.815  -0.863  0.00  0.00     0.077 C 
ATOM      8  C7  UNL d   1       1.318  -0.337   0.223  0.00  0.00    -0.001 A 
ENDROOT
TORSDOF 0
ENDMDL
