MODEL 1
REMARK minimizedAffinity -5.49261284
REMARK minimizedRMSD -1
REMARK  0 active torsions:
REMARK  status: ('A' for Active; 'I' for Inactive)
ROOT
ATOM      1  C   UNL d   1       3.133   1.611  -1.098  0.00  0.00     0.077 C 
ATOM      2  C1  UNL d   1       2.009   0.733  -0.634  0.00  0.00    -0.074 A 
ATOM      3  C2  UNL d   1       0.699   1.217  -0.566  0.00  0.00    -0.005 A 
ATOM      4  C3  UNL d   1      -0.337   0.386  -0.143  0.00  0.00     0.006 A 
ATOM      5  C4  UNL d   1      -0.075  -0.937   0.217  0.00  0.00    -0.005 A 
ATOM      6  C5  UNL d   1       1.229  -1.439   0.154  0.00  0.00    -0.074 A 
ATOM      7  C6  UNL d   1       1.527  -2.861   0.528  0.00  0.00     0.077 C 
ATOM      8  C7  UNL d   1       2.264  -0.599  -0.279  0.00  0.00    -0.001 A 
ENDROOT
TORSDOF 0
ENDMDL
