MODEL 1
REMARK minimizedAffinity -6.02187777
REMARK minimizedRMSD -1
REMARK  0 active torsions:
REMARK  status: ('A' for Active; 'I' for Inactive)
ROOT
ATOM      1  C   UNL d   1      -0.377  -2.742   2.623  0.00  0.00     0.077 C 
ATOM      2  C1  UNL d   1       0.254  -1.899   1.555  0.00  0.00    -0.074 A 
ATOM      3  C2  UNL d   1       1.575  -2.119   1.152  0.00  0.00    -0.005 A 
ATOM      4  C3  UNL d   1       2.145  -1.334   0.150  0.00  0.00     0.006 A 
ATOM      5  C4  UNL d   1       1.401  -0.322  -0.458  0.00  0.00    -0.005 A 
ATOM      6  C5  UNL d   1       0.078  -0.088  -0.069  0.00  0.00    -0.074 A 
ATOM      7  C6  UNL d   1      -0.739   0.988  -0.720  0.00  0.00     0.077 C 
ATOM      8  C7  UNL d   1      -0.490  -0.887   0.933  0.00  0.00    -0.001 A 
ENDROOT
TORSDOF 0
ENDMDL
