MODEL 1
REMARK minimizedAffinity -4.25302505
REMARK minimizedRMSD -1
REMARK  0 active torsions:
REMARK  status: ('A' for Active; 'I' for Inactive)
ROOT
ATOM      1  C   UNL d   1      -0.608   1.252   0.037  0.00  0.00     0.077 C 
ATOM      2  C1  UNL d   1      -1.082   1.400  -1.378  0.00  0.00    -0.074 A 
ATOM      3  C2  UNL d   1      -2.229   0.737  -1.825  0.00  0.00    -0.005 A 
ATOM      4  C3  UNL d   1      -2.663   0.892  -3.142  0.00  0.00     0.006 A 
ATOM      5  C4  UNL d   1      -1.955   1.710  -4.023  0.00  0.00    -0.005 A 
ATOM      6  C5  UNL d   1      -0.806   2.382  -3.594  0.00  0.00    -0.074 A 
ATOM      7  C6  UNL d   1      -0.040   3.273  -4.525  0.00  0.00     0.077 C 
ATOM      8  C7  UNL d   1      -0.380   2.227  -2.267  0.00  0.00    -0.001 A 
ENDROOT
TORSDOF 0
ENDMDL
