MODEL 1
REMARK minimizedAffinity -4.79732323
REMARK minimizedRMSD -1
REMARK  0 active torsions:
REMARK  status: ('A' for Active; 'I' for Inactive)
ROOT
ATOM      1  C   UNL d   1       3.586  -1.531  -1.014  0.00  0.00     0.077 C 
ATOM      2  C1  UNL d   1       2.338  -1.507  -0.181  0.00  0.00    -0.074 A 
ATOM      3  C2  UNL d   1       2.049  -2.544   0.711  0.00  0.00    -0.005 A 
ATOM      4  C3  UNL d   1       0.890  -2.503   1.486  0.00  0.00     0.006 A 
ATOM      5  C4  UNL d   1       0.010  -1.426   1.376  0.00  0.00    -0.005 A 
ATOM      6  C5  UNL d   1       0.282  -0.379   0.490  0.00  0.00    -0.074 A 
ATOM      7  C6  UNL d   1      -0.649   0.791   0.366  0.00  0.00     0.077 C 
ATOM      8  C7  UNL d   1       1.453  -0.424  -0.280  0.00  0.00    -0.001 A 
ENDROOT
TORSDOF 0
ENDMDL
