MODEL 1
REMARK minimizedAffinity 6.01667118
REMARK minimizedRMSD -1
REMARK  0 active torsions:
REMARK  status: ('A' for Active; 'I' for Inactive)
ROOT
ATOM      1  C   UNL d   1       0.366   2.714   1.510  0.00  0.00     0.078 C 
ATOM      2  C1  UNL d   1      -0.555   3.848   1.172  0.00  0.00    -0.077 A 
ATOM      3  C2  UNL d   1      -1.899   3.827   1.566  0.00  0.00    -0.001 A 
ATOM      4  C3  UNL d   1      -2.748   4.885   1.236  0.00  0.00     0.003 A 
ATOM      5  C4  UNL d   1      -2.262   5.971   0.510  0.00  0.00    -0.005 A 
ATOM      6  C5  UNL d   1      -0.927   6.000   0.112  0.00  0.00     0.003 A 
ATOM      7  C6  UNL d   1      -0.077   4.942   0.441  0.00  0.00    -0.001 A 
ENDROOT
TORSDOF 0
ENDMDL
