MODEL 1
REMARK minimizedAffinity 0.350878894
REMARK minimizedRMSD -1
REMARK  0 active torsions:
REMARK  status: ('A' for Active; 'I' for Inactive)
ROOT
ATOM      1  C   UNL d   1       1.077  -5.217  -1.466  0.00  0.00     0.078 C 
ATOM      2  C1  UNL d   1       0.026  -4.642  -0.563  0.00  0.00    -0.077 A 
ATOM      3  C2  UNL d   1      -1.174  -5.324  -0.327  0.00  0.00    -0.001 A 
ATOM      4  C3  UNL d   1      -2.147  -4.772   0.508  0.00  0.00     0.003 A 
ATOM      5  C4  UNL d   1      -1.931  -3.535   1.112  0.00  0.00    -0.005 A 
ATOM      6  C5  UNL d   1      -0.741  -2.848   0.882  0.00  0.00     0.003 A 
ATOM      7  C6  UNL d   1       0.234  -3.398   0.047  0.00  0.00    -0.001 A 
ENDROOT
TORSDOF 0
ENDMDL
