MODEL 1
REMARK minimizedAffinity 5.45179844
REMARK minimizedRMSD -1
REMARK  0 active torsions:
REMARK  status: ('A' for Active; 'I' for Inactive)
ROOT
ATOM      1  C   UNL d   1      -5.518  -1.699  -4.891  0.00  0.00     0.078 C 
ATOM      2  C1  UNL d   1      -5.573  -3.196  -4.840  0.00  0.00    -0.077 A 
ATOM      3  C2  UNL d   1      -5.321  -3.887  -3.648  0.00  0.00    -0.001 A 
ATOM      4  C3  UNL d   1      -5.366  -5.281  -3.617  0.00  0.00     0.003 A 
ATOM      5  C4  UNL d   1      -5.662  -5.998  -4.776  0.00  0.00    -0.005 A 
ATOM      6  C5  UNL d   1      -5.911  -5.319  -5.967  0.00  0.00     0.003 A 
ATOM      7  C6  UNL d   1      -5.866  -3.925  -5.999  0.00  0.00    -0.001 A 
ENDROOT
TORSDOF 0
ENDMDL
