MODEL 1
REMARK minimizedAffinity 1.96005678
REMARK minimizedRMSD -1
REMARK  0 active torsions:
REMARK  status: ('A' for Active; 'I' for Inactive)
ROOT
ATOM      1  C   UNL d   1       0.869  -5.347  -1.246  0.00  0.00     0.078 C 
ATOM      2  C1  UNL d   1      -0.189  -4.631  -0.460  0.00  0.00    -0.077 A 
ATOM      3  C2  UNL d   1      -1.427  -5.231  -0.204  0.00  0.00    -0.001 A 
ATOM      4  C3  UNL d   1      -2.406  -4.550   0.521  0.00  0.00     0.003 A 
ATOM      5  C4  UNL d   1      -2.156  -3.264   0.996  0.00  0.00    -0.005 A 
ATOM      6  C5  UNL d   1      -0.927  -2.657   0.745  0.00  0.00     0.003 A 
ATOM      7  C6  UNL d   1       0.053  -3.337   0.020  0.00  0.00    -0.001 A 
ENDROOT
TORSDOF 0
ENDMDL
