MODEL 1
REMARK minimizedAffinity 0.0490879305
REMARK minimizedRMSD -1
REMARK  0 active torsions:
REMARK  status: ('A' for Active; 'I' for Inactive)
ROOT
ATOM      1  C   UNL d   1       1.791  -1.876   1.943  0.00  0.00     0.078 C 
ATOM      2  C1  UNL d   1       1.842  -2.375   3.356  0.00  0.00    -0.077 A 
ATOM      3  C2  UNL d   1       1.059  -1.787   4.357  0.00  0.00    -0.001 A 
ATOM      4  C3  UNL d   1       1.124  -2.256   5.670  0.00  0.00     0.003 A 
ATOM      5  C4  UNL d   1       1.970  -3.315   5.994  0.00  0.00    -0.005 A 
ATOM      6  C5  UNL d   1       2.754  -3.905   5.005  0.00  0.00     0.003 A 
ATOM      7  C6  UNL d   1       2.691  -3.437   3.692  0.00  0.00    -0.001 A 
ENDROOT
TORSDOF 0
ENDMDL
