MODEL 1
REMARK minimizedAffinity 8.45636749
REMARK minimizedRMSD -1
REMARK  0 active torsions:
REMARK  status: ('A' for Active; 'I' for Inactive)
ROOT
ATOM      1  C   UNL d   1       1.432  -2.973   5.996  0.00  0.00     0.078 C 
ATOM      2  C1  UNL d   1       1.417  -2.597   4.544  0.00  0.00    -0.077 A 
ATOM      3  C2  UNL d   1       1.844  -3.498   3.562  0.00  0.00    -0.001 A 
ATOM      4  C3  UNL d   1       1.834  -3.131   2.215  0.00  0.00     0.003 A 
ATOM      5  C4  UNL d   1       1.399  -1.862   1.839  0.00  0.00    -0.005 A 
ATOM      6  C5  UNL d   1       0.974  -0.958   2.810  0.00  0.00     0.003 A 
ATOM      7  C6  UNL d   1       0.984  -1.323   4.157  0.00  0.00    -0.001 A 
ENDROOT
TORSDOF 0
ENDMDL
