MODEL 1
REMARK minimizedAffinity 7.16897011
REMARK minimizedRMSD -1
REMARK  0 active torsions:
REMARK  status: ('A' for Active; 'I' for Inactive)
ROOT
ATOM      1  C   UNL d   1       1.485  -3.366   5.996  0.00  0.00     0.078 C 
ATOM      2  C1  UNL d   1       1.483  -2.919   4.564  0.00  0.00    -0.077 A 
ATOM      3  C2  UNL d   1       1.986  -3.744   3.551  0.00  0.00    -0.001 A 
ATOM      4  C3  UNL d   1       1.988  -3.310   2.224  0.00  0.00     0.003 A 
ATOM      5  C4  UNL d   1       1.488  -2.051   1.899  0.00  0.00    -0.005 A 
ATOM      6  C5  UNL d   1       0.988  -1.222   2.901  0.00  0.00     0.003 A 
ATOM      7  C6  UNL d   1       0.986  -1.654   4.228  0.00  0.00    -0.001 A 
ENDROOT
TORSDOF 0
ENDMDL
