MODEL 1
REMARK minimizedAffinity 6.38465977
REMARK minimizedRMSD -1
REMARK  0 active torsions:
REMARK  status: ('A' for Active; 'I' for Inactive)
ROOT
ATOM      1  C   UNL d   1      -2.316  -4.467   0.039  0.00  0.00     0.078 C 
ATOM      2  C1  UNL d   1      -0.902  -4.826  -0.308  0.00  0.00    -0.077 A 
ATOM      3  C2  UNL d   1       0.033  -5.121   0.692  0.00  0.00    -0.001 A 
ATOM      4  C3  UNL d   1       1.348  -5.444   0.355  0.00  0.00     0.003 A 
ATOM      5  C4  UNL d   1       1.741  -5.475  -0.982  0.00  0.00    -0.005 A 
ATOM      6  C5  UNL d   1       0.818  -5.181  -1.983  0.00  0.00     0.003 A 
ATOM      7  C6  UNL d   1      -0.498  -4.857  -1.648  0.00  0.00    -0.001 A 
ENDROOT
TORSDOF 0
ENDMDL
