MODEL 1
REMARK minimizedAffinity 4.17254448
REMARK minimizedRMSD -1
REMARK  0 active torsions:
REMARK  status: ('A' for Active; 'I' for Inactive)
ROOT
ATOM      1  C   UNL d   1       1.235  -5.620  -2.122  0.00  0.00     0.078 C 
ATOM      2  C1  UNL d   1       0.166  -5.338  -1.109  0.00  0.00    -0.077 A 
ATOM      3  C2  UNL d   1       0.382  -4.429  -0.066  0.00  0.00    -0.001 A 
ATOM      4  C3  UNL d   1      -0.619  -4.184   0.876  0.00  0.00     0.003 A 
ATOM      5  C4  UNL d   1      -1.842  -4.845   0.785  0.00  0.00    -0.005 A 
ATOM      6  C5  UNL d   1      -2.066  -5.753  -0.248  0.00  0.00     0.003 A 
ATOM      7  C6  UNL d   1      -1.066  -6.000  -1.190  0.00  0.00    -0.001 A 
ENDROOT
TORSDOF 0
ENDMDL
