MODEL 1
REMARK minimizedAffinity 5.16359568
REMARK minimizedRMSD -1
REMARK  0 active torsions:
REMARK  status: ('A' for Active; 'I' for Inactive)
ROOT
ATOM      1  C   UNL d   1       2.282  -5.172   1.889  0.00  0.00     0.078 C 
ATOM      2  C1  UNL d   1       2.318  -3.687   1.680  0.00  0.00    -0.077 A 
ATOM      3  C2  UNL d   1       3.181  -3.112   0.738  0.00  0.00    -0.001 A 
ATOM      4  C3  UNL d   1       3.211  -1.728   0.561  0.00  0.00     0.003 A 
ATOM      5  C4  UNL d   1       2.382  -0.907   1.322  0.00  0.00    -0.005 A 
ATOM      6  C5  UNL d   1       1.522  -1.470   2.263  0.00  0.00     0.003 A 
ATOM      7  C6  UNL d   1       1.490  -2.854   2.442  0.00  0.00    -0.001 A 
ENDROOT
TORSDOF 0
ENDMDL
