MODEL 1
REMARK minimizedAffinity 8.41926861
REMARK minimizedRMSD -1
REMARK  0 active torsions:
REMARK  status: ('A' for Active; 'I' for Inactive)
ROOT
ATOM      1  C   UNL d   1       0.812  -1.657   2.261  0.00  0.00     0.078 C 
ATOM      2  C1  UNL d   1       1.189  -2.288   3.568  0.00  0.00    -0.077 A 
ATOM      3  C2  UNL d   1       0.773  -1.730   4.784  0.00  0.00    -0.001 A 
ATOM      4  C3  UNL d   1       1.140  -2.322   5.994  0.00  0.00     0.003 A 
ATOM      5  C4  UNL d   1       1.924  -3.474   6.000  0.00  0.00    -0.005 A 
ATOM      6  C5  UNL d   1       2.345  -4.034   4.796  0.00  0.00     0.003 A 
ATOM      7  C6  UNL d   1       1.980  -3.444   3.585  0.00  0.00    -0.001 A 
ENDROOT
TORSDOF 0
ENDMDL
