MODEL 1
REMARK minimizedAffinity 6.94707012
REMARK minimizedRMSD -1
REMARK  0 active torsions:
REMARK  status: ('A' for Active; 'I' for Inactive)
ROOT
ATOM      1  C   UNL d   1       3.573  -3.365   0.265  0.00  0.00     0.078 C 
ATOM      2  C1  UNL d   1       2.664  -2.257   0.708  0.00  0.00    -0.077 A 
ATOM      3  C2  UNL d   1       2.683  -1.011   0.069  0.00  0.00    -0.001 A 
ATOM      4  C3  UNL d   1       1.838   0.014   0.499  0.00  0.00     0.003 A 
ATOM      5  C4  UNL d   1       0.970  -0.196   1.568  0.00  0.00    -0.005 A 
ATOM      6  C5  UNL d   1       0.946  -1.432   2.211  0.00  0.00     0.003 A 
ATOM      7  C6  UNL d   1       1.790  -2.458   1.783  0.00  0.00    -0.001 A 
ENDROOT
TORSDOF 0
ENDMDL
