MODEL 1
REMARK minimizedAffinity -4.73507643
REMARK minimizedRMSD -1
REMARK  1 active torsions:
REMARK  status: ('A' for Active; 'I' for Inactive)
REMARK    1  A    between atoms: C3_4  and  O_7 
ROOT
ATOM      1  C   UNL d   1      -0.457  -0.262  -0.506  0.00  0.00    -0.033 A 
ATOM      2  C1  UNL d   1       0.703   0.007   0.223  0.00  0.00     0.039 A 
ATOM      3  C2  UNL d   1       0.623   0.687   1.440  0.00  0.00    -0.080 A 
ATOM      4  C3  UNL d   1      -0.621   1.090   1.917  0.00  0.00     0.150 A 
ATOM      5  C4  UNL d   1      -1.782   0.821   1.199  0.00  0.00    -0.007 A 
ATOM      6  C5  UNL d   1      -1.700   0.143  -0.017  0.00  0.00     0.039 A 
ENDROOT
BRANCH   4   7
ATOM      7  O   UNL d   1      -0.749   1.760   3.097  0.00  0.00    -0.526 OA
ATOM      8  H5  UNL d   1       0.138   1.900   3.469  0.00  0.00     0.418 HD
ENDBRANCH   4   7
TORSDOF 1
ENDMDL
