MODEL 1
REMARK minimizedAffinity -4.15928602
REMARK minimizedRMSD -1
REMARK  1 active torsions:
REMARK  status: ('A' for Active; 'I' for Inactive)
REMARK    1  A    between atoms: C3_4  and  O_7 
ROOT
ATOM      1  C   UNL d   1      -0.526  -0.249  -0.168  0.00  0.00    -0.033 A 
ATOM      2  C1  UNL d   1       0.625  -0.016   0.587  0.00  0.00     0.039 A 
ATOM      3  C2  UNL d   1       0.543   0.696   1.786  0.00  0.00    -0.080 A 
ATOM      4  C3  UNL d   1      -0.694   1.167   2.217  0.00  0.00     0.150 A 
ATOM      5  C4  UNL d   1      -1.845   0.935   1.471  0.00  0.00    -0.007 A 
ATOM      6  C5  UNL d   1      -1.761   0.225   0.274  0.00  0.00     0.039 A 
ENDROOT
BRANCH   4   7
ATOM      7  O   UNL d   1      -0.823   1.871   3.378  0.00  0.00    -0.526 OA
ATOM      8  H5  UNL d   1       0.059   1.978   3.772  0.00  0.00     0.418 HD
ENDBRANCH   4   7
TORSDOF 1
ENDMDL
