MODEL 1
REMARK minimizedAffinity -3.28391099
REMARK minimizedRMSD -1
REMARK  1 active torsions:
REMARK  status: ('A' for Active; 'I' for Inactive)
REMARK    1  A    between atoms: C3_4  and  O_7 
ROOT
ATOM      1  C   UNL d   1      -0.265  -0.333   0.015  0.00  0.00    -0.033 A 
ATOM      2  C1  UNL d   1       0.758   0.576   0.292  0.00  0.00     0.039 A 
ATOM      3  C2  UNL d   1       0.606   1.509   1.320  0.00  0.00    -0.080 A 
ATOM      4  C3  UNL d   1      -0.571   1.522   2.063  0.00  0.00     0.150 A 
ATOM      5  C4  UNL d   1      -1.593   0.617   1.795  0.00  0.00    -0.007 A 
ATOM      6  C5  UNL d   1      -1.440  -0.313   0.768  0.00  0.00     0.039 A 
ENDROOT
BRANCH   4   7
ATOM      7  O   UNL d   1      -0.767   2.417   3.072  0.00  0.00    -0.526 OA
ATOM      8  H5  UNL d   1       0.011   2.997   3.124  0.00  0.00     0.418 HD
ENDBRANCH   4   7
TORSDOF 1
ENDMDL
