MODEL 1
REMARK minimizedAffinity -2.76686025
REMARK minimizedRMSD -1
REMARK  1 active torsions:
REMARK  status: ('A' for Active; 'I' for Inactive)
REMARK    1  A    between atoms: C3_4  and  O_7 
ROOT
ATOM      1  C   UNL d   1      -0.202  -0.270  -0.398  0.00  0.00    -0.033 A 
ATOM      2  C1  UNL d   1      -1.495   0.171  -0.108  0.00  0.00     0.039 A 
ATOM      3  C2  UNL d   1      -1.732   0.946   1.029  0.00  0.00    -0.080 A 
ATOM      4  C3  UNL d   1      -0.669   1.273   1.867  0.00  0.00     0.150 A 
ATOM      5  C4  UNL d   1       0.622   0.840   1.582  0.00  0.00    -0.007 A 
ATOM      6  C5  UNL d   1       0.857   0.065   0.447  0.00  0.00     0.039 A 
ENDROOT
BRANCH   4   7
ATOM      7  O   UNL d   1      -0.852   2.022   2.990  0.00  0.00    -0.526 OA
ATOM      8  H5  UNL d   1      -1.798   2.225   3.074  0.00  0.00     0.418 HD
ENDBRANCH   4   7
TORSDOF 1
ENDMDL
