MODEL 1
REMARK minimizedAffinity -4.28605604
REMARK minimizedRMSD -1
REMARK  1 active torsions:
REMARK  status: ('A' for Active; 'I' for Inactive)
REMARK    1  A    between atoms: C3_4  and  O_7 
ROOT
ATOM      1  C   UNL d   1      -1.539   0.702   1.533  0.00  0.00    -0.033 A 
ATOM      2  C1  UNL d   1      -0.154   0.809   1.672  0.00  0.00     0.039 A 
ATOM      3  C2  UNL d   1       0.691   0.231   0.723  0.00  0.00    -0.080 A 
ATOM      4  C3  UNL d   1       0.140  -0.450  -0.359  0.00  0.00     0.150 A 
ATOM      5  C4  UNL d   1      -1.239  -0.558  -0.506  0.00  0.00    -0.007 A 
ATOM      6  C5  UNL d   1      -2.082   0.020   0.443  0.00  0.00     0.039 A 
ENDROOT
BRANCH   4   7
ATOM      7  O   UNL d   1       0.925  -1.035  -1.308  0.00  0.00    -0.526 OA
ATOM      8  H5  UNL d   1       1.855  -0.904  -1.061  0.00  0.00     0.418 HD
ENDBRANCH   4   7
TORSDOF 1
ENDMDL
