MODEL 1
REMARK minimizedAffinity -4.69623661
REMARK minimizedRMSD -1
REMARK  1 active torsions:
REMARK  status: ('A' for Active; 'I' for Inactive)
REMARK    1  A    between atoms: C3_4  and  O_7 
ROOT
ATOM      1  C   UNL d   1       0.682  -0.264  -0.519  0.00  0.00    -0.033 A 
ATOM      2  C1  UNL d   1      -0.698  -0.135  -0.689  0.00  0.00     0.039 A 
ATOM      3  C2  UNL d   1      -1.490   0.345   0.356  0.00  0.00    -0.080 A 
ATOM      4  C3  UNL d   1      -0.890   0.694   1.563  0.00  0.00     0.150 A 
ATOM      5  C4  UNL d   1       0.484   0.572   1.737  0.00  0.00    -0.007 A 
ATOM      6  C5  UNL d   1       1.273   0.091   0.693  0.00  0.00     0.039 A 
ENDROOT
BRANCH   4   7
ATOM      7  O   UNL d   1      -1.622   1.164   2.613  0.00  0.00    -0.526 OA
ATOM      8  H5  UNL d   1      -2.560   1.168   2.357  0.00  0.00     0.418 HD
ENDBRANCH   4   7
TORSDOF 1
ENDMDL
