MODEL 1
REMARK minimizedAffinity -3.98107624
REMARK minimizedRMSD -1
REMARK  1 active torsions:
REMARK  status: ('A' for Active; 'I' for Inactive)
REMARK    1  A    between atoms: C3_4  and  O_7 
ROOT
ATOM      1  C   UNL d   1      -0.531   1.137   3.136  0.00  0.00    -0.033 A 
ATOM      2  C1  UNL d   1      -1.674   0.577   2.563  0.00  0.00     0.039 A 
ATOM      3  C2  UNL d   1      -1.590  -0.077   1.332  0.00  0.00    -0.080 A 
ATOM      4  C3  UNL d   1      -0.360  -0.165   0.687  0.00  0.00     0.150 A 
ATOM      5  C4  UNL d   1       0.783   0.387   1.255  0.00  0.00    -0.007 A 
ATOM      6  C5  UNL d   1       0.698   1.041   2.483  0.00  0.00     0.039 A 
ENDROOT
BRANCH   4   7
ATOM      7  O   UNL d   1      -0.230  -0.790  -0.518  0.00  0.00    -0.526 OA
ATOM      8  H5  UNL d   1      -1.107  -1.098  -0.801  0.00  0.00     0.418 HD
ENDBRANCH   4   7
TORSDOF 1
ENDMDL
