MODEL 1
REMARK minimizedAffinity -3.75453448
REMARK minimizedRMSD -1
REMARK  1 active torsions:
REMARK  status: ('A' for Active; 'I' for Inactive)
REMARK    1  A    between atoms: C3_4  and  O_7 
ROOT
ATOM      1  C   UNL d   1       0.411  -0.570  -0.454  0.00  0.00    -0.033 A 
ATOM      2  C1  UNL d   1      -0.832   0.030  -0.665  0.00  0.00     0.039 A 
ATOM      3  C2  UNL d   1      -1.445   0.750   0.363  0.00  0.00    -0.080 A 
ATOM      4  C3  UNL d   1      -0.805   0.863   1.594  0.00  0.00     0.150 A 
ATOM      5  C4  UNL d   1       0.435   0.271   1.809  0.00  0.00    -0.007 A 
ATOM      6  C5  UNL d   1       1.045  -0.448   0.783  0.00  0.00     0.039 A 
ENDROOT
BRANCH   4   7
ATOM      7  O   UNL d   1      -1.366   1.551   2.628  0.00  0.00    -0.526 OA
ATOM      8  H5  UNL d   1      -2.234   1.881   2.343  0.00  0.00     0.418 HD
ENDBRANCH   4   7
TORSDOF 1
ENDMDL
