MODEL 1
REMARK minimizedAffinity -4.54848194
REMARK minimizedRMSD -1
REMARK  1 active torsions:
REMARK  status: ('A' for Active; 'I' for Inactive)
REMARK    1  A    between atoms: C3_4  and  O_7 
ROOT
ATOM      1  C   UNL d   1       0.243  -0.394  -0.054  0.00  0.00    -0.033 A 
ATOM      2  C1  UNL d   1       1.213   0.016   0.863  0.00  0.00     0.039 A 
ATOM      3  C2  UNL d   1       0.847   0.778   1.975  0.00  0.00    -0.080 A 
ATOM      4  C3  UNL d   1      -0.489   1.121   2.158  0.00  0.00     0.150 A 
ATOM      5  C4  UNL d   1      -1.461   0.713   1.250  0.00  0.00    -0.007 A 
ATOM      6  C5  UNL d   1      -1.094  -0.047   0.140  0.00  0.00     0.039 A 
ENDROOT
BRANCH   4   7
ATOM      7  O   UNL d   1      -0.894   1.868   3.225  0.00  0.00    -0.526 OA
ATOM      8  H5  UNL d   1      -0.111   2.102   3.751  0.00  0.00     0.418 HD
ENDBRANCH   4   7
TORSDOF 1
ENDMDL
