MODEL 1
REMARK minimizedAffinity -2.99404526
REMARK minimizedRMSD -1
REMARK  1 active torsions:
REMARK  status: ('A' for Active; 'I' for Inactive)
REMARK    1  A    between atoms: C1_2  and  C2_3 
ROOT
ATOM      1  C2  UNL d   1      -0.176   0.172   1.278  0.00  0.00    -0.076 A 
ATOM      2  C3  UNL d   1      -0.595   1.271   2.048  0.00  0.00     0.004 A 
ATOM      3  C4  UNL d   1      -0.021   2.529   1.874  0.00  0.00    -0.003 A 
ATOM      4  C5  UNL d   1       0.981   2.710   0.927  0.00  0.00     0.000 A 
ATOM      5  C6  UNL d   1       1.396   1.635   0.142  0.00  0.00     0.000 A 
ATOM      6  C7  UNL d   1       0.817   0.363   0.293  0.00  0.00    -0.073 A 
ATOM      7  C8  UNL d   1       1.308  -0.762  -0.576  0.00  0.00     0.078 C 
ENDROOT
BRANCH   1   8
ATOM      8  C1  UNL d   1      -0.816  -1.174   1.529  0.00  0.00     0.053 C 
ATOM      9  C   UNL d   1      -1.111  -1.413   3.002  0.00  0.00     0.018 C 
ENDBRANCH   1   8
TORSDOF 1
ENDMDL
