MODEL 1
REMARK minimizedAffinity 3.19181347
REMARK minimizedRMSD -1
REMARK  1 active torsions:
REMARK  status: ('A' for Active; 'I' for Inactive)
REMARK    1  A    between atoms: C1_2  and  C2_3 
ROOT
ATOM      1  C2  UNL d   1       0.581   0.733   1.782  0.00  0.00    -0.076 A 
ATOM      2  C3  UNL d   1       0.369  -0.572   1.303  0.00  0.00     0.004 A 
ATOM      3  C4  UNL d   1       0.674  -0.911  -0.014  0.00  0.00    -0.003 A 
ATOM      4  C5  UNL d   1       1.197   0.049  -0.873  0.00  0.00     0.000 A 
ATOM      5  C6  UNL d   1       1.431   1.343  -0.410  0.00  0.00     0.000 A 
ATOM      6  C7  UNL d   1       1.144   1.697   0.920  0.00  0.00    -0.073 A 
ATOM      7  C8  UNL d   1       1.410   3.109   1.364  0.00  0.00     0.078 C 
ENDROOT
BRANCH   1   8
ATOM      8  C1  UNL d   1       0.206   1.049   3.212  0.00  0.00     0.053 C 
ATOM      9  C   UNL d   1       1.393   0.966   4.159  0.00  0.00     0.018 C 
ENDBRANCH   1   8
TORSDOF 1
ENDMDL
