MODEL 1
REMARK minimizedAffinity -0.695655406
REMARK minimizedRMSD -1
REMARK  1 active torsions:
REMARK  status: ('A' for Active; 'I' for Inactive)
REMARK    1  A    between atoms: C1_2  and  C2_3 
ROOT
ATOM      1  C2  UNL d   1       0.210  -0.290   1.207  0.00  0.00    -0.076 A 
ATOM      2  C3  UNL d   1      -0.445   0.470   2.192  0.00  0.00     0.004 A 
ATOM      3  C4  UNL d   1      -0.155   1.823   2.365  0.00  0.00    -0.003 A 
ATOM      4  C5  UNL d   1       0.795   2.437   1.557  0.00  0.00     0.000 A 
ATOM      5  C6  UNL d   1       1.442   1.702   0.564  0.00  0.00     0.000 A 
ATOM      6  C7  UNL d   1       1.149   0.342   0.365  0.00  0.00    -0.073 A 
ATOM      7  C8  UNL d   1       1.881  -0.403  -0.718  0.00  0.00     0.078 C 
ENDROOT
BRANCH   1   8
ATOM      8  C1  UNL d   1      -0.127  -1.759   1.083  0.00  0.00     0.053 C 
ATOM      9  C   UNL d   1      -0.888  -2.286   2.290  0.00  0.00     0.018 C 
ENDBRANCH   1   8
TORSDOF 1
ENDMDL
