MODEL 1
REMARK minimizedAffinity -2.01635599
REMARK minimizedRMSD -1
REMARK  1 active torsions:
REMARK  status: ('A' for Active; 'I' for Inactive)
REMARK    1  A    between atoms: C1_2  and  C2_3 
ROOT
ATOM      1  C2  UNL d   1      -0.772   0.736  -0.512  0.00  0.00    -0.076 A 
ATOM      2  C3  UNL d   1       0.097   1.636  -1.155  0.00  0.00     0.004 A 
ATOM      3  C4  UNL d   1       1.338   1.951  -0.606  0.00  0.00    -0.003 A 
ATOM      4  C5  UNL d   1       1.732   1.372   0.595  0.00  0.00     0.000 A 
ATOM      5  C6  UNL d   1       0.891   0.464   1.238  0.00  0.00     0.000 A 
ATOM      6  C7  UNL d   1      -0.357   0.123   0.689  0.00  0.00    -0.073 A 
ATOM      7  C8  UNL d   1      -1.227  -0.858   1.427  0.00  0.00     0.078 C 
ENDROOT
BRANCH   1   8
ATOM      8  C1  UNL d   1      -2.117   0.453  -1.142  0.00  0.00     0.053 C 
ATOM      9  C   UNL d   1      -2.008   0.104  -2.618  0.00  0.00     0.018 C 
ENDBRANCH   1   8
TORSDOF 1
ENDMDL
