MODEL 1
REMARK minimizedAffinity -3.7853334
REMARK minimizedRMSD -1
REMARK  1 active torsions:
REMARK  status: ('A' for Active; 'I' for Inactive)
REMARK    1  A    between atoms: C1_2  and  C2_3 
ROOT
ATOM      1  C2  UNL d   1       0.140   0.239   0.282  0.00  0.00    -0.076 A 
ATOM      2  C3  UNL d   1       0.965   1.233  -0.274  0.00  0.00     0.004 A 
ATOM      3  C4  UNL d   1       1.356   2.342   0.475  0.00  0.00    -0.003 A 
ATOM      4  C5  UNL d   1       0.929   2.474   1.792  0.00  0.00     0.000 A 
ATOM      5  C6  UNL d   1       0.125   1.489   2.364  0.00  0.00     0.000 A 
ATOM      6  C7  UNL d   1      -0.265   0.357   1.628  0.00  0.00    -0.073 A 
ATOM      7  C8  UNL d   1      -1.138  -0.671   2.294  0.00  0.00     0.078 C 
ENDROOT
BRANCH   1   8
ATOM      8  C1  UNL d   1      -0.274  -0.927  -0.587  0.00  0.00     0.053 C 
ATOM      9  C   UNL d   1      -1.006  -0.486  -1.845  0.00  0.00     0.018 C 
ENDBRANCH   1   8
TORSDOF 1
ENDMDL
