MODEL 1
REMARK minimizedAffinity 7.77313137
REMARK minimizedRMSD -1
REMARK  1 active torsions:
REMARK  status: ('A' for Active; 'I' for Inactive)
REMARK    1  A    between atoms: C1_2  and  C2_3 
ROOT
ATOM      1  C2  UNL d   1       3.284   3.667  -3.539  0.00  0.00    -0.076 A 
ATOM      2  C3  UNL d   1       4.276   3.446  -2.568  0.00  0.00     0.004 A 
ATOM      3  C4  UNL d   1       5.623   3.382  -2.921  0.00  0.00    -0.003 A 
ATOM      4  C5  UNL d   1       6.000   3.540  -4.250  0.00  0.00     0.000 A 
ATOM      5  C6  UNL d   1       5.030   3.778  -5.224  0.00  0.00     0.000 A 
ATOM      6  C7  UNL d   1       3.669   3.861  -4.883  0.00  0.00    -0.073 A 
ATOM      7  C8  UNL d   1       2.665   4.113  -5.974  0.00  0.00     0.078 C 
ENDROOT
BRANCH   1   8
ATOM      8  C1  UNL d   1       1.837   3.699  -3.101  0.00  0.00     0.053 C 
ATOM      9  C   UNL d   1       1.500   2.586  -2.121  0.00  0.00     0.018 C 
ENDBRANCH   1   8
TORSDOF 1
ENDMDL
