MODEL 1
REMARK minimizedAffinity -3.11156797
REMARK minimizedRMSD -1
REMARK  1 active torsions:
REMARK  status: ('A' for Active; 'I' for Inactive)
REMARK    1  A    between atoms: C1_2  and  C2_3 
ROOT
ATOM      1  C2  UNL d   1       1.386   1.342   2.370  0.00  0.00    -0.076 A 
ATOM      2  C3  UNL d   1       0.427   1.398   3.396  0.00  0.00     0.004 A 
ATOM      3  C4  UNL d   1       0.810   1.395   4.736  0.00  0.00    -0.003 A 
ATOM      4  C5  UNL d   1       2.158   1.336   5.072  0.00  0.00     0.000 A 
ATOM      5  C6  UNL d   1       3.124   1.298   4.066  0.00  0.00     0.000 A 
ATOM      6  C7  UNL d   1       2.755   1.317   2.710  0.00  0.00    -0.073 A 
ATOM      7  C8  UNL d   1       3.838   1.267   1.667  0.00  0.00     0.078 C 
ENDROOT
BRANCH   1   8
ATOM      8  C1  UNL d   1       0.910   1.321   0.935  0.00  0.00     0.053 C 
ATOM      9  C   UNL d   1       0.068   0.095   0.618  0.00  0.00     0.018 C 
ENDBRANCH   1   8
TORSDOF 1
ENDMDL
