MODEL 1
REMARK minimizedAffinity -1.72883737
REMARK minimizedRMSD -1
REMARK  1 active torsions:
REMARK  status: ('A' for Active; 'I' for Inactive)
REMARK    1  A    between atoms: C1_2  and  C2_3 
ROOT
ATOM      1  C2  UNL d   1      -0.307   0.030   2.274  0.00  0.00    -0.076 A 
ATOM      2  C3  UNL d   1      -0.185   0.607   3.551  0.00  0.00     0.004 A 
ATOM      3  C4  UNL d   1       0.860   1.481   3.846  0.00  0.00    -0.003 A 
ATOM      4  C5  UNL d   1       1.799   1.794   2.869  0.00  0.00     0.000 A 
ATOM      5  C6  UNL d   1       1.683   1.245   1.592  0.00  0.00     0.000 A 
ATOM      6  C7  UNL d   1       0.626   0.375   1.273  0.00  0.00    -0.073 A 
ATOM      7  C8  UNL d   1       0.553  -0.193  -0.118  0.00  0.00     0.078 C 
ENDROOT
BRANCH   1   8
ATOM      8  C1  UNL d   1      -1.445  -0.932   2.021  0.00  0.00     0.053 C 
ATOM      9  C   UNL d   1      -2.160  -1.339   3.300  0.00  0.00     0.018 C 
ENDBRANCH   1   8
TORSDOF 1
ENDMDL
