MODEL 1
REMARK minimizedAffinity 2.67331886
REMARK minimizedRMSD -1
REMARK  1 active torsions:
REMARK  status: ('A' for Active; 'I' for Inactive)
REMARK    1  A    between atoms: C1_2  and  C2_3 
ROOT
ATOM      1  C2  UNL d   1       0.606   1.056  -3.010  0.00  0.00    -0.076 A 
ATOM      2  C3  UNL d   1       0.248   1.149  -4.366  0.00  0.00     0.004 A 
ATOM      3  C4  UNL d   1      -0.826   0.421  -4.876  0.00  0.00    -0.003 A 
ATOM      4  C5  UNL d   1      -1.559  -0.412  -4.039  0.00  0.00     0.000 A 
ATOM      5  C6  UNL d   1      -1.228  -0.504  -2.687  0.00  0.00     0.000 A 
ATOM      6  C7  UNL d   1      -0.159   0.236  -2.153  0.00  0.00    -0.073 A 
ATOM      7  C8  UNL d   1       0.157   0.094  -0.689  0.00  0.00     0.078 C 
ENDROOT
BRANCH   1   8
ATOM      8  C1  UNL d   1       1.796   1.848  -2.519  0.00  0.00     0.053 C 
ATOM      9  C   UNL d   1       1.438   3.286  -2.177  0.00  0.00     0.018 C 
ENDBRANCH   1   8
TORSDOF 1
ENDMDL
