MODEL 1
REMARK minimizedAffinity 8.24590492
REMARK minimizedRMSD -1
REMARK  1 active torsions:
REMARK  status: ('A' for Active; 'I' for Inactive)
REMARK    1  A    between atoms: C1_2  and  C2_3 
ROOT
ATOM      1  C2  UNL d   1       1.177   0.701  -3.614  0.00  0.00    -0.076 A 
ATOM      2  C3  UNL d   1       0.602   1.286  -4.756  0.00  0.00     0.004 A 
ATOM      3  C4  UNL d   1      -0.375   0.615  -5.491  0.00  0.00    -0.003 A 
ATOM      4  C5  UNL d   1      -0.792  -0.651  -5.095  0.00  0.00     0.000 A 
ATOM      5  C6  UNL d   1      -0.245  -1.238  -3.955  0.00  0.00     0.000 A 
ATOM      6  C7  UNL d   1       0.728  -0.569  -3.194  0.00  0.00    -0.073 A 
ATOM      7  C8  UNL d   1       1.288  -1.252  -1.977  0.00  0.00     0.078 C 
ENDROOT
BRANCH   1   8
ATOM      8  C1  UNL d   1       2.251   1.465  -2.873  0.00  0.00     0.053 C 
ATOM      9  C   UNL d   1       2.064   2.971  -2.966  0.00  0.00     0.018 C 
ENDBRANCH   1   8
TORSDOF 1
ENDMDL
