MODEL 1
REMARK minimizedAffinity -0.95342952
REMARK minimizedRMSD -1
REMARK  1 active torsions:
REMARK  status: ('A' for Active; 'I' for Inactive)
REMARK    1  A    between atoms: C1_2  and  C2_3 
ROOT
ATOM      1  C2  UNL d   1      -0.738   5.594  -3.249  0.00  0.00    -0.076 A 
ATOM      2  C3  UNL d   1      -1.544   5.578  -2.097  0.00  0.00     0.004 A 
ATOM      3  C4  UNL d   1      -2.921   5.779  -2.183  0.00  0.00    -0.003 A 
ATOM      4  C5  UNL d   1      -3.514   5.998  -3.421  0.00  0.00     0.000 A 
ATOM      5  C6  UNL d   1      -2.732   6.000  -4.576  0.00  0.00     0.000 A 
ATOM      6  C7  UNL d   1      -1.345   5.783  -4.509  0.00  0.00    -0.073 A 
ATOM      7  C8  UNL d   1      -0.549   5.801  -5.785  0.00  0.00     0.078 C 
ENDROOT
BRANCH   1   8
ATOM      8  C1  UNL d   1       0.753   5.398  -3.092  0.00  0.00     0.053 C 
ATOM      9  C   UNL d   1       1.545   6.000  -4.243  0.00  0.00     0.018 C 
ENDBRANCH   1   8
TORSDOF 1
ENDMDL
