MODEL 1
REMARK minimizedAffinity -1.86415637
REMARK minimizedRMSD -1
REMARK  0 active torsions:
REMARK  status: ('A' for Active; 'I' for Inactive)
ROOT
ATOM      1  C   UNL d   1      -1.396   0.989   2.161  0.00  0.00    -0.002 A 
ATOM      2  C1  UNL d   1      -1.550   2.013   1.237  0.00  0.00     0.010 A 
ATOM      3  C2  UNL d   1      -0.920   1.949  -0.007  0.00  0.00     0.041 A 
ATOM      4  C3  UNL d   1      -0.125   0.826  -0.311  0.00  0.00    -0.075 A 
ATOM      5  S   UNL d   1       0.742   0.530  -1.772  0.00  0.00     0.015 SA
ATOM      6  C4  UNL d   1       1.337  -0.963  -1.204  0.00  0.00     0.022 A 
ATOM      7  C5  UNL d   1       0.895  -1.244   0.067  0.00  0.00     0.026 A 
ATOM      8  C6  UNL d   1       0.045  -0.218   0.603  0.00  0.00    -0.082 A 
ATOM      9  C7  UNL d   1      -0.607  -0.123   1.856  0.00  0.00     0.045 A 
ENDROOT
TORSDOF 0
ENDMDL
