MODEL 1
REMARK minimizedAffinity -0.289306968
REMARK minimizedRMSD -1
REMARK  0 active torsions:
REMARK  status: ('A' for Active; 'I' for Inactive)
ROOT
ATOM      1  C   UNL d   1       0.637  -0.677  -1.048  0.00  0.00    -0.002 A 
ATOM      2  C1  UNL d   1       0.837  -1.333   0.158  0.00  0.00     0.010 A 
ATOM      3  C2  UNL d   1       0.179  -0.910   1.314  0.00  0.00     0.041 A 
ATOM      4  C3  UNL d   1      -0.694   0.193   1.237  0.00  0.00    -0.075 A 
ATOM      5  S   UNL d   1      -1.608   0.888   2.523  0.00  0.00     0.015 SA
ATOM      6  C4  UNL d   1      -2.286   2.072   1.502  0.00  0.00     0.022 A 
ATOM      7  C5  UNL d   1      -1.837   1.955   0.208  0.00  0.00     0.026 A 
ATOM      8  C6  UNL d   1      -0.912   0.870   0.034  0.00  0.00    -0.082 A 
ATOM      9  C7  UNL d   1      -0.229   0.417  -1.121  0.00  0.00     0.045 A 
ENDROOT
TORSDOF 0
ENDMDL
