MODEL 1
REMARK minimizedAffinity -0.0180086307
REMARK minimizedRMSD -1
REMARK  0 active torsions:
REMARK  status: ('A' for Active; 'I' for Inactive)
ROOT
ATOM      1  C   UNL d   1      -1.656   1.492   1.797  0.00  0.00    -0.002 A 
ATOM      2  C1  UNL d   1      -1.260   0.234   2.227  0.00  0.00     0.010 A 
ATOM      3  C2  UNL d   1      -0.325  -0.504   1.499  0.00  0.00     0.041 A 
ATOM      4  C3  UNL d   1       0.211   0.049   0.320  0.00  0.00    -0.075 A 
ATOM      5  S   UNL d   1       1.370  -0.672  -0.734  0.00  0.00     0.015 SA
ATOM      6  C4  UNL d   1       1.367   0.674  -1.780  0.00  0.00     0.022 A 
ATOM      7  C5  UNL d   1       0.508   1.658  -1.352  0.00  0.00     0.026 A 
ATOM      8  C6  UNL d   1      -0.172   1.315  -0.134  0.00  0.00    -0.082 A 
ATOM      9  C7  UNL d   1      -1.122   2.038   0.626  0.00  0.00     0.045 A 
ENDROOT
TORSDOF 0
ENDMDL
