MODEL 1
REMARK minimizedAffinity -2.89420152
REMARK minimizedRMSD -1
REMARK  0 active torsions:
REMARK  status: ('A' for Active; 'I' for Inactive)
ROOT
ATOM      1  C   UNL d   1      -1.651   2.538   1.056  0.00  0.00    -0.002 A 
ATOM      2  C1  UNL d   1      -1.761   1.898   2.282  0.00  0.00     0.010 A 
ATOM      3  C2  UNL d   1      -1.072   0.708   2.526  0.00  0.00     0.041 A 
ATOM      4  C3  UNL d   1      -0.263   0.168   1.507  0.00  0.00    -0.075 A 
ATOM      5  S   UNL d   1       0.673  -1.278   1.580  0.00  0.00     0.015 SA
ATOM      6  C4  UNL d   1       1.240  -1.080  -0.015  0.00  0.00     0.022 A 
ATOM      7  C5  UNL d   1       0.738   0.057  -0.603  0.00  0.00     0.026 A 
ATOM      8  C6  UNL d   1      -0.136   0.795   0.264  0.00  0.00    -0.082 A 
ATOM      9  C7  UNL d   1      -0.848   2.000   0.048  0.00  0.00     0.045 A 
ENDROOT
TORSDOF 0
ENDMDL
