MODEL 1
REMARK minimizedAffinity -2.66601276
REMARK minimizedRMSD -1
REMARK  0 active torsions:
REMARK  status: ('A' for Active; 'I' for Inactive)
ROOT
ATOM      1  C   UNL d   1      -1.133   3.262  -0.255  0.00  0.00    -0.002 A 
ATOM      2  C1  UNL d   1      -1.709   2.987   0.977  0.00  0.00     0.010 A 
ATOM      3  C2  UNL d   1      -1.493   1.758   1.604  0.00  0.00     0.041 A 
ATOM      4  C3  UNL d   1      -0.678   0.802   0.966  0.00  0.00    -0.075 A 
ATOM      5  S   UNL d   1      -0.273  -0.771   1.545  0.00  0.00     0.015 SA
ATOM      6  C4  UNL d   1       0.675  -1.114   0.171  0.00  0.00     0.022 A 
ATOM      7  C5  UNL d   1       0.693  -0.066  -0.718  0.00  0.00     0.026 A 
ATOM      8  C6  UNL d   1      -0.087   1.056  -0.275  0.00  0.00    -0.082 A 
ATOM      9  C7  UNL d   1      -0.326   2.311  -0.885  0.00  0.00     0.045 A 
ENDROOT
TORSDOF 0
ENDMDL
