MODEL 1
REMARK minimizedAffinity -4.45162153
REMARK minimizedRMSD -1
REMARK  0 active torsions:
REMARK  status: ('A' for Active; 'I' for Inactive)
ROOT
ATOM      1  C   UNL d   1      -2.273   1.643   1.465  0.00  0.00    -0.002 A 
ATOM      2  C1  UNL d   1      -2.323   2.013   0.128  0.00  0.00     0.010 A 
ATOM      3  C2  UNL d   1      -1.368   1.542  -0.775  0.00  0.00     0.041 A 
ATOM      4  C3  UNL d   1      -0.354   0.683  -0.309  0.00  0.00    -0.075 A 
ATOM      5  S   UNL d   1       0.921  -0.018  -1.234  0.00  0.00     0.015 SA
ATOM      6  C4  UNL d   1       1.561  -0.827   0.123  0.00  0.00     0.022 A 
ATOM      7  C5  UNL d   1       0.832  -0.578   1.263  0.00  0.00     0.026 A 
ATOM      8  C6  UNL d   1      -0.284   0.295   1.032  0.00  0.00    -0.082 A 
ATOM      9  C7  UNL d   1      -1.266   0.790   1.924  0.00  0.00     0.045 A 
ENDROOT
TORSDOF 0
ENDMDL
