MODEL 1
REMARK minimizedAffinity 3.0025537
REMARK minimizedRMSD -1
REMARK  0 active torsions:
REMARK  status: ('A' for Active; 'I' for Inactive)
ROOT
ATOM      1  C   UNL d   1      -0.118   2.484  -1.562  0.00  0.00    -0.002 A 
ATOM      2  C1  UNL d   1      -1.196   2.391  -0.694  0.00  0.00     0.010 A 
ATOM      3  C2  UNL d   1      -1.323   1.299   0.167  0.00  0.00     0.041 A 
ATOM      4  C3  UNL d   1      -0.337   0.293   0.141  0.00  0.00    -0.075 A 
ATOM      5  S   UNL d   1      -0.283  -1.135   1.105  0.00  0.00     0.015 SA
ATOM      6  C4  UNL d   1       1.173  -1.655   0.387  0.00  0.00     0.022 A 
ATOM      7  C5  UNL d   1       1.621  -0.773  -0.567  0.00  0.00     0.026 A 
ATOM      8  C6  UNL d   1       0.759   0.365  -0.724  0.00  0.00    -0.082 A 
ATOM      9  C7  UNL d   1       0.858   1.484  -1.585  0.00  0.00     0.045 A 
ENDROOT
TORSDOF 0
ENDMDL
