MODEL 1
REMARK minimizedAffinity -3.00316167
REMARK minimizedRMSD -1
REMARK  0 active torsions:
REMARK  status: ('A' for Active; 'I' for Inactive)
ROOT
ATOM      1  C   UNL d   1      -1.247   1.631   2.046  0.00  0.00    -0.002 A 
ATOM      2  C1  UNL d   1      -2.271   1.297   1.170  0.00  0.00     0.010 A 
ATOM      3  C2  UNL d   1      -2.026   0.467   0.074  0.00  0.00     0.041 A 
ATOM      4  C3  UNL d   1      -0.722  -0.028  -0.128  0.00  0.00    -0.075 A 
ATOM      5  S   UNL d   1      -0.188  -1.061  -1.401  0.00  0.00     0.015 SA
ATOM      6  C4  UNL d   1       1.411  -1.084  -0.812  0.00  0.00     0.022 A 
ATOM      7  C5  UNL d   1       1.552  -0.327   0.327  0.00  0.00     0.026 A 
ATOM      8  C6  UNL d   1       0.325   0.294   0.741  0.00  0.00    -0.082 A 
ATOM      9  C7  UNL d   1       0.044   1.138   1.842  0.00  0.00     0.045 A 
ENDROOT
TORSDOF 0
ENDMDL
