MODEL 1
REMARK minimizedAffinity -2.30200505
REMARK minimizedRMSD -1
REMARK  0 active torsions:
REMARK  status: ('A' for Active; 'I' for Inactive)
ROOT
ATOM      1  C   UNL d   1      -1.863   2.255   1.362  0.00  0.00    -0.002 A 
ATOM      2  C1  UNL d   1      -1.919   2.476  -0.007  0.00  0.00     0.010 A 
ATOM      3  C2  UNL d   1      -1.150   1.706  -0.882  0.00  0.00     0.041 A 
ATOM      4  C3  UNL d   1      -0.318   0.700  -0.354  0.00  0.00    -0.075 A 
ATOM      5  S   UNL d   1       0.712  -0.366  -1.235  0.00  0.00     0.015 SA
ATOM      6  C4  UNL d   1       1.249  -1.140   0.185  0.00  0.00     0.022 A 
ATOM      7  C5  UNL d   1       0.668  -0.611   1.313  0.00  0.00     0.026 A 
ATOM      8  C6  UNL d   1      -0.245   0.458   1.021  0.00  0.00    -0.082 A 
ATOM      9  C7  UNL d   1      -1.036   1.256   1.882  0.00  0.00     0.045 A 
ENDROOT
TORSDOF 0
ENDMDL
