MODEL 1
REMARK minimizedAffinity -1.76216114
REMARK minimizedRMSD -1
REMARK  0 active torsions:
REMARK  status: ('A' for Active; 'I' for Inactive)
ROOT
ATOM      1  C   UNL d   1       0.210   1.778  -0.227  0.00  0.00    -0.002 A 
ATOM      2  C1  UNL d   1      -0.570   0.987   0.604  0.00  0.00     0.010 A 
ATOM      3  C2  UNL d   1      -0.461  -0.405   0.566  0.00  0.00     0.041 A 
ATOM      4  C3  UNL d   1       0.455  -0.993  -0.328  0.00  0.00    -0.075 A 
ATOM      5  S   UNL d   1       0.759  -2.676  -0.547  0.00  0.00     0.015 SA
ATOM      6  C4  UNL d   1       1.933  -2.384  -1.747  0.00  0.00     0.022 A 
ATOM      7  C5  UNL d   1       2.101  -1.041  -1.988  0.00  0.00     0.026 A 
ATOM      8  C6  UNL d   1       1.252  -0.217  -1.174  0.00  0.00    -0.082 A 
ATOM      9  C7  UNL d   1       1.118   1.191  -1.113  0.00  0.00     0.045 A 
ENDROOT
TORSDOF 0
ENDMDL
