MODEL 1
REMARK minimizedAffinity 0.518923521
REMARK minimizedRMSD -1
REMARK  0 active torsions:
REMARK  status: ('A' for Active; 'I' for Inactive)
ROOT
ATOM      1  C   UNL d   1       0.983  -1.534  -1.145  0.00  0.00    -0.002 A 
ATOM      2  C1  UNL d   1       1.312  -1.752   0.185  0.00  0.00     0.010 A 
ATOM      3  C2  UNL d   1       0.815  -0.915   1.186  0.00  0.00     0.041 A 
ATOM      4  C3  UNL d   1      -0.029   0.154   0.825  0.00  0.00    -0.075 A 
ATOM      5  S   UNL d   1      -0.756   1.307   1.880  0.00  0.00     0.015 SA
ATOM      6  C4  UNL d   1      -1.522   2.115   0.590  0.00  0.00     0.022 A 
ATOM      7  C5  UNL d   1      -1.240   1.534  -0.623  0.00  0.00     0.026 A 
ATOM      8  C6  UNL d   1      -0.375   0.393  -0.508  0.00  0.00    -0.082 A 
ATOM      9  C7  UNL d   1       0.146  -0.472  -1.500  0.00  0.00     0.045 A 
ENDROOT
TORSDOF 0
ENDMDL
