MODEL 1
REMARK minimizedAffinity -0.257280141
REMARK minimizedRMSD -1
REMARK  0 active torsions:
REMARK  status: ('A' for Active; 'I' for Inactive)
ROOT
ATOM      1  C   UNL d   1      -2.048   2.008   0.437  0.00  0.00    -0.002 A 
ATOM      2  C1  UNL d   1      -1.846   1.830   1.798  0.00  0.00     0.010 A 
ATOM      3  C2  UNL d   1      -0.910   0.904   2.262  0.00  0.00     0.041 A 
ATOM      4  C3  UNL d   1      -0.171   0.154   1.326  0.00  0.00    -0.075 A 
ATOM      5  S   UNL d   1       1.030  -1.036   1.663  0.00  0.00     0.015 SA
ATOM      6  C4  UNL d   1       1.304  -1.335   0.007  0.00  0.00     0.022 A 
ATOM      7  C5  UNL d   1       0.507  -0.555  -0.797  0.00  0.00     0.026 A 
ATOM      8  C6  UNL d   1      -0.356   0.316  -0.050  0.00  0.00    -0.082 A 
ATOM      9  C7  UNL d   1      -1.314   1.262  -0.489  0.00  0.00     0.045 A 
ENDROOT
TORSDOF 0
ENDMDL
