MODEL 1
REMARK minimizedAffinity 0.0989905149
REMARK minimizedRMSD -1
REMARK  0 active torsions:
REMARK  status: ('A' for Active; 'I' for Inactive)
ROOT
ATOM      1  C   UNL d   1      -1.132   0.355   2.626  0.00  0.00    -0.002 A 
ATOM      2  C1  UNL d   1      -1.462   1.648   2.246  0.00  0.00     0.010 A 
ATOM      3  C2  UNL d   1      -0.941   2.198   1.073  0.00  0.00     0.041 A 
ATOM      4  C3  UNL d   1      -0.076   1.419   0.281  0.00  0.00    -0.075 A 
ATOM      5  S   UNL d   1       0.682   1.884  -1.197  0.00  0.00     0.015 SA
ATOM      6  C4  UNL d   1       1.461   0.377  -1.359  0.00  0.00     0.022 A 
ATOM      7  C5  UNL d   1       1.162  -0.472  -0.320  0.00  0.00     0.026 A 
ATOM      8  C6  UNL d   1       0.271   0.114   0.642  0.00  0.00    -0.082 A 
ATOM      9  C7  UNL d   1      -0.273  -0.415   1.837  0.00  0.00     0.045 A 
ENDROOT
TORSDOF 0
ENDMDL
