MODEL 1
REMARK minimizedAffinity -1.51044583
REMARK minimizedRMSD -1
REMARK  0 active torsions:
REMARK  status: ('A' for Active; 'I' for Inactive)
ROOT
ATOM      1  C   UNL d   1       0.391   2.268  -2.027  0.00  0.00    -0.002 A 
ATOM      2  C1  UNL d   1      -0.253   3.207  -1.234  0.00  0.00     0.010 A 
ATOM      3  C2  UNL d   1      -0.674   2.878   0.056  0.00  0.00     0.041 A 
ATOM      4  C3  UNL d   1      -0.433   1.577   0.541  0.00  0.00    -0.075 A 
ATOM      5  S   UNL d   1      -0.859   0.950   2.089  0.00  0.00     0.015 SA
ATOM      6  C4  UNL d   1      -0.195  -0.580   1.734  0.00  0.00     0.022 A 
ATOM      7  C5  UNL d   1       0.341  -0.628   0.470  0.00  0.00     0.026 A 
ATOM      8  C6  UNL d   1       0.214   0.615  -0.239  0.00  0.00    -0.082 A 
ATOM      9  C7  UNL d   1       0.628   0.979  -1.543  0.00  0.00     0.045 A 
ENDROOT
TORSDOF 0
ENDMDL
