MODEL 1
REMARK minimizedAffinity -0.583866417
REMARK minimizedRMSD -1
REMARK  2 active torsions:
REMARK  status: ('A' for Active; 'I' for Inactive)
REMARK    1  A    between atoms: C1_2  and  C2_3 
REMARK    2  A    between atoms: C2_3  and  C3_4 
ROOT
ATOM      1  C3  UNL d   1      -0.016   4.103  -5.936  0.00  0.00    -0.075 A 
ATOM      2  C4  UNL d   1      -0.328   5.469  -5.998  0.00  0.00     0.002 A 
ATOM      3  C5  UNL d   1      -1.657   5.893  -6.000  0.00  0.00     0.002 A 
ATOM      4  C6  UNL d   1      -2.689   4.959  -5.949  0.00  0.00    -0.004 A 
ATOM      5  C7  UNL d   1      -2.391   3.599  -5.903  0.00  0.00     0.002 A 
ATOM      6  C8  UNL d   1      -1.062   3.172  -5.897  0.00  0.00     0.002 A 
ENDROOT
BRANCH   1   7
ATOM      7  C2  UNL d   1       1.421   3.640  -5.904  0.00  0.00     0.056 C 
BRANCH   7   8
ATOM      8  C1  UNL d   1       2.445   4.776  -5.996  0.00  0.00     0.007 C 
ATOM      9  C   UNL d   1       3.801   4.410  -5.409  0.00  0.00     0.009 C 
ENDBRANCH   7   8
ENDBRANCH   1   7
TORSDOF 2
ENDMDL
