MODEL 1
REMARK minimizedAffinity 3.85744238
REMARK minimizedRMSD -1
REMARK  2 active torsions:
REMARK  status: ('A' for Active; 'I' for Inactive)
REMARK    1  A    between atoms: C1_2  and  C2_3 
REMARK    2  A    between atoms: C2_3  and  C3_4 
ROOT
ATOM      1  C3  UNL d   1      -3.045  -4.109  -0.781  0.00  0.00    -0.075 A 
ATOM      2  C4  UNL d   1      -2.560  -5.277  -0.174  0.00  0.00     0.002 A 
ATOM      3  C5  UNL d   1      -3.351  -5.986   0.730  0.00  0.00     0.002 A 
ATOM      4  C6  UNL d   1      -4.630  -5.533   1.047  0.00  0.00    -0.004 A 
ATOM      5  C7  UNL d   1      -5.115  -4.365   0.463  0.00  0.00     0.002 A 
ATOM      6  C8  UNL d   1      -4.328  -3.656  -0.446  0.00  0.00     0.002 A 
ENDROOT
BRANCH   1   7
ATOM      7  C2  UNL d   1      -2.206  -3.354  -1.783  0.00  0.00     0.056 C 
BRANCH   7   8
ATOM      8  C1  UNL d   1      -1.192  -4.226  -2.532  0.00  0.00     0.007 C 
ATOM      9  C   UNL d   1      -0.141  -3.417  -3.279  0.00  0.00     0.009 C 
ENDBRANCH   7   8
ENDBRANCH   1   7
TORSDOF 2
ENDMDL
