MODEL 1
REMARK minimizedAffinity -0.940354407
REMARK minimizedRMSD -1
REMARK  2 active torsions:
REMARK  status: ('A' for Active; 'I' for Inactive)
REMARK    1  A    between atoms: C1_2  and  C2_3 
REMARK    2  A    between atoms: C2_3  and  C3_4 
ROOT
ATOM      1  C3  UNL d   1      -1.504   3.268  -5.990  0.00  0.00    -0.075 A 
ATOM      2  C4  UNL d   1      -1.704   4.656  -6.000  0.00  0.00     0.002 A 
ATOM      3  C5  UNL d   1      -2.994   5.186  -5.985  0.00  0.00     0.002 A 
ATOM      4  C6  UNL d   1      -4.099   4.337  -5.972  0.00  0.00    -0.004 A 
ATOM      5  C7  UNL d   1      -3.912   2.957  -5.979  0.00  0.00     0.002 A 
ATOM      6  C8  UNL d   1      -2.622   2.424  -5.989  0.00  0.00     0.002 A 
ENDROOT
BRANCH   1   7
ATOM      7  C2  UNL d   1      -0.110   2.688  -5.976  0.00  0.00     0.056 C 
BRANCH   7   8
ATOM      8  C1  UNL d   1       0.992   3.719  -5.705  0.00  0.00     0.007 C 
ATOM      9  C   UNL d   1       2.391   3.192  -5.992  0.00  0.00     0.009 C 
ENDBRANCH   7   8
ENDBRANCH   1   7
TORSDOF 2
ENDMDL
