MODEL 1
REMARK minimizedAffinity -2.54232311
REMARK minimizedRMSD -1
REMARK  2 active torsions:
REMARK  status: ('A' for Active; 'I' for Inactive)
REMARK    1  A    between atoms: C1_2  and  C2_3 
REMARK    2  A    between atoms: C2_3  and  C3_4 
ROOT
ATOM      1  C3  UNL d   1       2.139   3.289  -5.998  0.00  0.00    -0.075 A 
ATOM      2  C4  UNL d   1       1.543   4.558  -5.999  0.00  0.00     0.002 A 
ATOM      3  C5  UNL d   1       0.154   4.688  -5.981  0.00  0.00     0.002 A 
ATOM      4  C6  UNL d   1      -0.655   3.554  -5.971  0.00  0.00    -0.004 A 
ATOM      5  C7  UNL d   1      -0.073   2.288  -5.986  0.00  0.00     0.002 A 
ATOM      6  C8  UNL d   1       1.316   2.155  -6.000  0.00  0.00     0.002 A 
ENDROOT
BRANCH   1   7
ATOM      7  C2  UNL d   1       3.642   3.142  -5.988  0.00  0.00     0.056 C 
BRANCH   7   8
ATOM      8  C1  UNL d   1       4.399   4.474  -5.982  0.00  0.00     0.007 C 
ATOM      9  C   UNL d   1       5.822   4.354  -5.452  0.00  0.00     0.009 C 
ENDBRANCH   7   8
ENDBRANCH   1   7
TORSDOF 2
ENDMDL
