MODEL 1
REMARK minimizedAffinity 5.06447077
REMARK minimizedRMSD -1
REMARK  2 active torsions:
REMARK  status: ('A' for Active; 'I' for Inactive)
REMARK    1  A    between atoms: C1_2  and  C2_3 
REMARK    2  A    between atoms: C2_3  and  C3_4 
ROOT
ATOM      1  C3  UNL d   1       0.272   0.687   0.526  0.00  0.00    -0.075 A 
ATOM      2  C4  UNL d   1       0.814   1.772   1.230  0.00  0.00     0.002 A 
ATOM      3  C5  UNL d   1       1.430   2.822   0.548  0.00  0.00     0.002 A 
ATOM      4  C6  UNL d   1       1.520   2.797  -0.842  0.00  0.00    -0.004 A 
ATOM      5  C7  UNL d   1       1.000   1.716  -1.550  0.00  0.00     0.002 A 
ATOM      6  C8  UNL d   1       0.379   0.665  -0.871  0.00  0.00     0.002 A 
ENDROOT
BRANCH   1   7
ATOM      7  C2  UNL d   1      -0.421  -0.439   1.255  0.00  0.00     0.056 C 
BRANCH   7   8
ATOM      8  C1  UNL d   1      -1.941  -0.271   1.361  0.00  0.00     0.007 C 
ATOM      9  C   UNL d   1      -2.366   1.151   1.700  0.00  0.00     0.009 C 
ENDBRANCH   7   8
ENDBRANCH   1   7
TORSDOF 2
ENDMDL
