MODEL 1
REMARK minimizedAffinity 2.50438905
REMARK minimizedRMSD -1
REMARK  2 active torsions:
REMARK  status: ('A' for Active; 'I' for Inactive)
REMARK    1  A    between atoms: C1_2  and  C2_3 
REMARK    2  A    between atoms: C2_3  and  C3_4 
ROOT
ATOM      1  C3  UNL d   1       1.889   2.949   0.587  0.00  0.00    -0.075 A 
ATOM      2  C4  UNL d   1       2.009   2.754   1.971  0.00  0.00     0.002 A 
ATOM      3  C5  UNL d   1       3.068   3.327   2.677  0.00  0.00     0.002 A 
ATOM      4  C6  UNL d   1       4.022   4.091   2.009  0.00  0.00    -0.004 A 
ATOM      5  C7  UNL d   1       3.922   4.276   0.632  0.00  0.00     0.002 A 
ATOM      6  C8  UNL d   1       2.862   3.708  -0.077  0.00  0.00     0.002 A 
ENDROOT
BRANCH   1   7
ATOM      7  C2  UNL d   1       0.730   2.356  -0.179  0.00  0.00     0.056 C 
BRANCH   7   8
ATOM      8  C1  UNL d   1      -0.246   1.555   0.689  0.00  0.00     0.007 C 
ATOM      9  C   UNL d   1       0.055   0.062   0.711  0.00  0.00     0.009 C 
ENDBRANCH   7   8
ENDBRANCH   1   7
TORSDOF 2
ENDMDL
