MODEL 1
REMARK minimizedAffinity 3.62524796
REMARK minimizedRMSD -1
REMARK  2 active torsions:
REMARK  status: ('A' for Active; 'I' for Inactive)
REMARK    1  A    between atoms: C1_2  and  C2_3 
REMARK    2  A    between atoms: C2_3  and  C3_4 
ROOT
ATOM      1  C3  UNL d   1       1.833   3.053  -5.998  0.00  0.00    -0.075 A 
ATOM      2  C4  UNL d   1       2.695   1.947  -6.000  0.00  0.00     0.002 A 
ATOM      3  C5  UNL d   1       4.078   2.127  -5.980  0.00  0.00     0.002 A 
ATOM      4  C6  UNL d   1       4.617   3.412  -5.968  0.00  0.00    -0.004 A 
ATOM      5  C7  UNL d   1       3.770   4.518  -5.983  0.00  0.00     0.002 A 
ATOM      6  C8  UNL d   1       2.385   4.341  -5.999  0.00  0.00     0.002 A 
ENDROOT
BRANCH   1   7
ATOM      7  C2  UNL d   1       0.335   2.865  -5.990  0.00  0.00     0.056 C 
BRANCH   7   8
ATOM      8  C1  UNL d   1      -0.455   4.162  -5.785  0.00  0.00     0.007 C 
ATOM      9  C   UNL d   1      -1.962   3.971  -5.897  0.00  0.00     0.009 C 
ENDBRANCH   7   8
ENDBRANCH   1   7
TORSDOF 2
ENDMDL
