MODEL 1
REMARK minimizedAffinity -0.84993118
REMARK minimizedRMSD -1
REMARK  2 active torsions:
REMARK  status: ('A' for Active; 'I' for Inactive)
REMARK    1  A    between atoms: C1_2  and  C2_3 
REMARK    2  A    between atoms: C2_3  and  C3_4 
ROOT
ATOM      1  C3  UNL d   1      -2.217   3.679  -5.320  0.00  0.00    -0.075 A 
ATOM      2  C4  UNL d   1      -2.575   5.022  -5.514  0.00  0.00     0.002 A 
ATOM      3  C5  UNL d   1      -3.885   5.364  -5.847  0.00  0.00     0.002 A 
ATOM      4  C6  UNL d   1      -4.851   4.371  -6.000  0.00  0.00    -0.004 A 
ATOM      5  C7  UNL d   1      -4.502   3.033  -5.826  0.00  0.00     0.002 A 
ATOM      6  C8  UNL d   1      -3.192   2.688  -5.489  0.00  0.00     0.002 A 
ENDROOT
BRANCH   1   7
ATOM      7  C2  UNL d   1      -0.807   3.304  -4.931  0.00  0.00     0.056 C 
BRANCH   7   8
ATOM      8  C1  UNL d   1       0.243   3.629  -6.000  0.00  0.00     0.007 C 
ATOM      9  C   UNL d   1       1.419   2.662  -6.000  0.00  0.00     0.009 C 
ENDBRANCH   7   8
ENDBRANCH   1   7
TORSDOF 2
ENDMDL
