MODEL 1
REMARK minimizedAffinity 4.76556492
REMARK minimizedRMSD -1
REMARK  2 active torsions:
REMARK  status: ('A' for Active; 'I' for Inactive)
REMARK    1  A    between atoms: C1_2  and  C2_3 
REMARK    2  A    between atoms: C2_3  and  C3_4 
ROOT
ATOM      1  C3  UNL d   1      -0.824   3.687  -5.987  0.00  0.00    -0.075 A 
ATOM      2  C4  UNL d   1      -1.514   4.908  -5.993  0.00  0.00     0.002 A 
ATOM      3  C5  UNL d   1      -2.908   4.934  -5.971  0.00  0.00     0.002 A 
ATOM      4  C6  UNL d   1      -3.630   3.742  -5.953  0.00  0.00    -0.004 A 
ATOM      5  C7  UNL d   1      -2.956   2.523  -5.964  0.00  0.00     0.002 A 
ATOM      6  C8  UNL d   1      -1.560   2.495  -5.981  0.00  0.00     0.002 A 
ENDROOT
BRANCH   1   7
ATOM      7  C2  UNL d   1       0.686   3.652  -5.981  0.00  0.00     0.056 C 
BRANCH   7   8
ATOM      8  C1  UNL d   1       1.277   2.258  -5.748  0.00  0.00     0.007 C 
ATOM      9  C   UNL d   1       2.778   2.193  -5.996  0.00  0.00     0.009 C 
ENDBRANCH   7   8
ENDBRANCH   1   7
TORSDOF 2
ENDMDL
