MODEL 1
REMARK minimizedAffinity -2.4008882
REMARK minimizedRMSD -1
REMARK  2 active torsions:
REMARK  status: ('A' for Active; 'I' for Inactive)
REMARK    1  A    between atoms: C1_2  and  C2_3 
REMARK    2  A    between atoms: C2_3  and  C3_4 
ROOT
ATOM      1  C3  UNL d   1      -2.918   4.656  -5.945  0.00  0.00    -0.075 A 
ATOM      2  C4  UNL d   1      -3.549   5.908  -5.931  0.00  0.00     0.002 A 
ATOM      3  C5  UNL d   1      -4.941   6.000  -5.938  0.00  0.00     0.002 A 
ATOM      4  C6  UNL d   1      -5.718   4.844  -5.969  0.00  0.00    -0.004 A 
ATOM      5  C7  UNL d   1      -5.102   3.595  -5.999  0.00  0.00     0.002 A 
ATOM      6  C8  UNL d   1      -3.709   3.500  -5.988  0.00  0.00     0.002 A 
ENDROOT
BRANCH   1   7
ATOM      7  C2  UNL d   1      -1.412   4.549  -5.908  0.00  0.00     0.056 C 
BRANCH   7   8
ATOM      8  C1  UNL d   1      -0.891   3.109  -5.841  0.00  0.00     0.007 C 
ATOM      9  C   UNL d   1       0.621   3.011  -5.998  0.00  0.00     0.009 C 
ENDBRANCH   7   8
ENDBRANCH   1   7
TORSDOF 2
ENDMDL
