MODEL 1
REMARK minimizedAffinity 2.8548131
REMARK minimizedRMSD -1
REMARK  2 active torsions:
REMARK  status: ('A' for Active; 'I' for Inactive)
REMARK    1  A    between atoms: C1_2  and  C2_3 
REMARK    2  A    between atoms: C2_3  and  C3_4 
ROOT
ATOM      1  C3  UNL d   1       0.423   2.468   1.313  0.00  0.00    -0.075 A 
ATOM      2  C4  UNL d   1       0.619   2.921   0.001  0.00  0.00     0.002 A 
ATOM      3  C5  UNL d   1       1.848   3.456  -0.388  0.00  0.00     0.002 A 
ATOM      4  C6  UNL d   1       2.891   3.553   0.532  0.00  0.00    -0.004 A 
ATOM      5  C7  UNL d   1       2.701   3.122   1.843  0.00  0.00     0.002 A 
ATOM      6  C8  UNL d   1       1.474   2.583   2.233  0.00  0.00     0.002 A 
ENDROOT
BRANCH   1   7
ATOM      7  C2  UNL d   1      -0.895   1.862   1.732  0.00  0.00     0.056 C 
BRANCH   7   8
ATOM      8  C1  UNL d   1      -1.206   0.520   1.061  0.00  0.00     0.007 C 
ATOM      9  C   UNL d   1       0.029  -0.165   0.489  0.00  0.00     0.009 C 
ENDBRANCH   7   8
ENDBRANCH   1   7
TORSDOF 2
ENDMDL
