MODEL 1
REMARK minimizedAffinity 5.75336933
REMARK minimizedRMSD -1
REMARK  2 active torsions:
REMARK  status: ('A' for Active; 'I' for Inactive)
REMARK    1  A    between atoms: C1_2  and  C2_3 
REMARK    2  A    between atoms: C2_3  and  C3_4 
ROOT
ATOM      1  C3  UNL d   1       1.062   2.475   1.079  0.00  0.00    -0.075 A 
ATOM      2  C4  UNL d   1       1.327   3.137  -0.128  0.00  0.00     0.002 A 
ATOM      3  C5  UNL d   1       2.449   3.955  -0.256  0.00  0.00     0.002 A 
ATOM      4  C6  UNL d   1       3.314   4.130   0.822  0.00  0.00    -0.004 A 
ATOM      5  C7  UNL d   1       3.051   3.491   2.032  0.00  0.00     0.002 A 
ATOM      6  C8  UNL d   1       1.931   2.668   2.161  0.00  0.00     0.002 A 
ENDROOT
BRANCH   1   7
ATOM      7  C2  UNL d   1      -0.135   1.565   1.215  0.00  0.00     0.056 C 
BRANCH   7   8
ATOM      8  C1  UNL d   1       0.090   0.152   0.666  0.00  0.00     0.007 C 
ATOM      9  C   UNL d   1      -0.374  -0.014  -0.775  0.00  0.00     0.009 C 
ENDBRANCH   7   8
ENDBRANCH   1   7
TORSDOF 2
ENDMDL
