MODEL 1
REMARK minimizedAffinity -0.399456024
REMARK minimizedRMSD -1
REMARK  2 active torsions:
REMARK  status: ('A' for Active; 'I' for Inactive)
REMARK    1  A    between atoms: C1_2  and  C2_3 
REMARK    2  A    between atoms: C2_3  and  C3_4 
ROOT
ATOM      1  C3  UNL d   1      -0.563   3.616  -5.968  0.00  0.00    -0.075 A 
ATOM      2  C4  UNL d   1       0.179   4.806  -5.912  0.00  0.00     0.002 A 
ATOM      3  C5  UNL d   1       1.574   4.771  -5.911  0.00  0.00     0.002 A 
ATOM      4  C6  UNL d   1       2.243   3.550  -5.955  0.00  0.00    -0.004 A 
ATOM      5  C7  UNL d   1       1.517   2.362  -5.994  0.00  0.00     0.002 A 
ATOM      6  C8  UNL d   1       0.121   2.394  -6.000  0.00  0.00     0.002 A 
ENDROOT
BRANCH   1   7
ATOM      7  C2  UNL d   1      -2.072   3.648  -6.000  0.00  0.00     0.056 C 
BRANCH   7   8
ATOM      8  C1  UNL d   1      -2.726   2.263  -5.958  0.00  0.00     0.007 C 
ATOM      9  C   UNL d   1      -4.247   2.316  -5.999  0.00  0.00     0.009 C 
ENDBRANCH   7   8
ENDBRANCH   1   7
TORSDOF 2
ENDMDL
