MODEL 1
REMARK minimizedAffinity 4.09808302
REMARK minimizedRMSD -1
REMARK  2 active torsions:
REMARK  status: ('A' for Active; 'I' for Inactive)
REMARK    1  A    between atoms: C1_2  and  C2_3 
REMARK    2  A    between atoms: C2_3  and  C3_4 
ROOT
ATOM      1  C3  UNL d   1      -0.264   1.659   1.020  0.00  0.00    -0.075 A 
ATOM      2  C4  UNL d   1       0.001   0.343   0.616  0.00  0.00     0.002 A 
ATOM      3  C5  UNL d   1      -0.986  -0.639   0.709  0.00  0.00     0.002 A 
ATOM      4  C6  UNL d   1      -2.244  -0.321   1.216  0.00  0.00    -0.004 A 
ATOM      5  C7  UNL d   1      -2.513   0.980   1.635  0.00  0.00     0.002 A 
ATOM      6  C8  UNL d   1      -1.529   1.966   1.539  0.00  0.00     0.002 A 
ENDROOT
BRANCH   1   7
ATOM      7  C2  UNL d   1       0.790   2.733   0.894  0.00  0.00     0.056 C 
BRANCH   7   8
ATOM      8  C1  UNL d   1       1.899   2.645   1.948  0.00  0.00     0.007 C 
ATOM      9  C   UNL d   1       3.155   3.417   1.564  0.00  0.00     0.009 C 
ENDBRANCH   7   8
ENDBRANCH   1   7
TORSDOF 2
ENDMDL
