MODEL 1
REMARK minimizedAffinity -6.17613316
REMARK minimizedRMSD -1
REMARK  0 active torsions:
REMARK  status: ('A' for Active; 'I' for Inactive)
ROOT
ATOM      1  C2' OXE d   1      -0.062  -1.580  -0.356  0.00  0.00     0.078 C 
ATOM      2  C1' OXE d   1      -1.161   0.971  -0.761  0.00  0.00     0.078 C 
ATOM      3  C1  OXE d   1       0.213   0.700  -1.322  0.00  0.00    -0.078 A 
ATOM      4  C2  OXE d   1       0.762  -0.536  -1.078  0.00  0.00    -0.078 A 
ATOM      5  C3  OXE d   1       2.003  -0.858  -1.620  0.00  0.00     0.003 A 
ATOM      6  C4  OXE d   1       2.763   0.116  -2.278  0.00  0.00    -0.002 A 
ATOM      7  C5  OXE d   1       2.239   1.394  -2.502  0.00  0.00    -0.002 A 
ATOM      8  C6  OXE d   1       0.951   1.688  -2.069  0.00  0.00     0.003 A 
ENDROOT
TORSDOF 0
ENDMDL
