MODEL 1
REMARK minimizedAffinity -0.787836313
REMARK minimizedRMSD -1
REMARK  0 active torsions:
REMARK  status: ('A' for Active; 'I' for Inactive)
ROOT
ATOM      1  C2' OXE d   1       0.767  -1.473   1.728  0.00  0.00     0.078 C 
ATOM      2  C1' OXE d   1       1.457  -1.420  -0.992  0.00  0.00     0.078 C 
ATOM      3  C1  OXE d   1       0.761  -0.211  -0.419  0.00  0.00    -0.078 A 
ATOM      4  C2  OXE d   1       0.385  -0.265   0.901  0.00  0.00    -0.078 A 
ATOM      5  C3  OXE d   1      -0.211   0.845   1.494  0.00  0.00     0.003 A 
ATOM      6  C4  OXE d   1      -0.570   1.955   0.719  0.00  0.00    -0.002 A 
ATOM      7  C5  OXE d   1      -0.232   2.014  -0.637  0.00  0.00    -0.002 A 
ATOM      8  C6  OXE d   1       0.470   0.959  -1.210  0.00  0.00     0.003 A 
ENDROOT
TORSDOF 0
ENDMDL
