MODEL 1
REMARK minimizedAffinity -1.15090251
REMARK minimizedRMSD -1
REMARK  0 active torsions:
REMARK  status: ('A' for Active; 'I' for Inactive)
ROOT
ATOM      1  C2' OXE d   1       1.724  -1.490  -2.099  0.00  0.00     0.078 C 
ATOM      2  C1' OXE d   1       0.060  -2.302   0.011  0.00  0.00     0.078 C 
ATOM      3  C1  OXE d   1      -0.017  -0.862  -0.432  0.00  0.00    -0.078 A 
ATOM      4  C2  OXE d   1       0.834  -0.462  -1.434  0.00  0.00    -0.078 A 
ATOM      5  C3  OXE d   1       0.765   0.841  -1.918  0.00  0.00     0.003 A 
ATOM      6  C4  OXE d   1      -0.053   1.788  -1.290  0.00  0.00    -0.002 A 
ATOM      7  C5  OXE d   1      -0.900   1.411  -0.242  0.00  0.00    -0.002 A 
ATOM      8  C6  OXE d   1      -0.925   0.083   0.170  0.00  0.00     0.003 A 
ENDROOT
TORSDOF 0
ENDMDL
