MODEL 1
REMARK minimizedAffinity -2.93343878
REMARK minimizedRMSD -1
REMARK  0 active torsions:
REMARK  status: ('A' for Active; 'I' for Inactive)
ROOT
ATOM      1  C2' OXE d   1      -1.395   0.646   0.394  0.00  0.00     0.078 C 
ATOM      2  C1' OXE d   1       0.201   1.863  -1.569  0.00  0.00     0.078 C 
ATOM      3  C1  OXE d   1       0.550   0.457  -1.152  0.00  0.00    -0.078 A 
ATOM      4  C2  OXE d   1      -0.208  -0.114  -0.157  0.00  0.00    -0.078 A 
ATOM      5  C3  OXE d   1       0.037  -1.429   0.227  0.00  0.00     0.003 A 
ATOM      6  C4  OXE d   1       1.143  -2.122  -0.281  0.00  0.00    -0.002 A 
ATOM      7  C5  OXE d   1       1.951  -1.545  -1.266  0.00  0.00    -0.002 A 
ATOM      8  C6  OXE d   1       1.643  -0.275  -1.742  0.00  0.00     0.003 A 
ENDROOT
TORSDOF 0
ENDMDL
