MODEL 1
REMARK minimizedAffinity -0.925115883
REMARK minimizedRMSD -1
REMARK  0 active torsions:
REMARK  status: ('A' for Active; 'I' for Inactive)
ROOT
ATOM      1  C2' OXE d   1      -1.751   1.176   2.321  0.00  0.00     0.078 C 
ATOM      2  C1' OXE d   1      -2.283   1.279  -0.433  0.00  0.00     0.078 C 
ATOM      3  C1  OXE d   1      -1.271   0.271   0.051  0.00  0.00    -0.078 A 
ATOM      4  C2  OXE d   1      -0.982   0.259   1.394  0.00  0.00    -0.078 A 
ATOM      5  C3  OXE d   1      -0.096  -0.687   1.901  0.00  0.00     0.003 A 
ATOM      6  C4  OXE d   1       0.618  -1.525   1.035  0.00  0.00    -0.002 A 
ATOM      7  C5  OXE d   1       0.368  -1.502  -0.341  0.00  0.00    -0.002 A 
ATOM      8  C6  OXE d   1      -0.602  -0.642  -0.844  0.00  0.00     0.003 A 
ENDROOT
TORSDOF 0
ENDMDL
