MODEL 1
REMARK minimizedAffinity -3.72617173
REMARK minimizedRMSD -1
REMARK  0 active torsions:
REMARK  status: ('A' for Active; 'I' for Inactive)
ROOT
ATOM      1  C2' OXE d   1      -1.173   1.123   2.433  0.00  0.00     0.078 C 
ATOM      2  C1' OXE d   1      -1.846   0.914  -0.284  0.00  0.00     0.078 C 
ATOM      3  C1  OXE d   1      -0.680   0.099   0.216  0.00  0.00    -0.078 A 
ATOM      4  C2  OXE d   1      -0.329   0.243   1.537  0.00  0.00    -0.078 A 
ATOM      5  C3  OXE d   1       0.705  -0.527   2.063  0.00  0.00     0.003 A 
ATOM      6  C4  OXE d   1       1.488  -1.331   1.225  0.00  0.00    -0.002 A 
ATOM      7  C5  OXE d   1       1.171  -1.461  -0.131  0.00  0.00    -0.002 A 
ATOM      8  C6  OXE d   1       0.067  -0.787  -0.642  0.00  0.00     0.003 A 
ENDROOT
TORSDOF 0
ENDMDL
