MODEL 1
REMARK minimizedAffinity -3.67416406
REMARK minimizedRMSD -1
REMARK  0 active torsions:
REMARK  status: ('A' for Active; 'I' for Inactive)
ROOT
ATOM      1  C2' OXE d   1      -0.881   1.600   2.404  0.00  0.00     0.078 C 
ATOM      2  C1' OXE d   1      -1.552   1.214  -0.294  0.00  0.00     0.078 C 
ATOM      3  C1  OXE d   1      -0.571   0.254   0.332  0.00  0.00    -0.078 A 
ATOM      4  C2  OXE d   1      -0.213   0.479   1.639  0.00  0.00    -0.078 A 
ATOM      5  C3  OXE d   1       0.646  -0.409   2.281  0.00  0.00     0.003 A 
ATOM      6  C4  OXE d   1       1.268  -1.438   1.563  0.00  0.00    -0.002 A 
ATOM      7  C5  OXE d   1       0.948  -1.660   0.220  0.00  0.00    -0.002 A 
ATOM      8  C6  OXE d   1       0.000  -0.851  -0.398  0.00  0.00     0.003 A 
ENDROOT
TORSDOF 0
ENDMDL
