MODEL 1
REMARK minimizedAffinity -4.95326042
REMARK minimizedRMSD -1
REMARK  0 active torsions:
REMARK  status: ('A' for Active; 'I' for Inactive)
ROOT
ATOM      1  C2' OXE d   1      -0.094  -2.517   0.201  0.00  0.00     0.078 C 
ATOM      2  C1' OXE d   1      -0.814   0.173   0.553  0.00  0.00     0.078 C 
ATOM      3  C1  OXE d   1       0.474  -0.121  -0.176  0.00  0.00    -0.078 A 
ATOM      4  C2  OXE d   1       0.841  -1.439  -0.302  0.00  0.00    -0.078 A 
ATOM      5  C3  OXE d   1       1.992  -1.769  -1.013  0.00  0.00     0.003 A 
ATOM      6  C4  OXE d   1       2.856  -0.765  -1.467  0.00  0.00    -0.002 A 
ATOM      7  C5  OXE d   1       2.521   0.584  -1.313  0.00  0.00    -0.002 A 
ATOM      8  C6  OXE d   1       1.315   0.922  -0.709  0.00  0.00     0.003 A 
ENDROOT
TORSDOF 0
ENDMDL
