MODEL 1
REMARK minimizedAffinity -0.563281894
REMARK minimizedRMSD -1
REMARK  0 active torsions:
REMARK  status: ('A' for Active; 'I' for Inactive)
ROOT
ATOM      1  C2' OXE d   1      -2.144   1.488  -0.415  0.00  0.00     0.078 C 
ATOM      2  C1' OXE d   1      -2.176   0.478   2.204  0.00  0.00     0.078 C 
ATOM      3  C1  OXE d   1      -1.110  -0.031   1.267  0.00  0.00    -0.078 A 
ATOM      4  C2  OXE d   1      -1.131   0.433  -0.026  0.00  0.00    -0.078 A 
ATOM      5  C3  OXE d   1      -0.137   0.037  -0.917  0.00  0.00     0.003 A 
ATOM      6  C4  OXE d   1       0.791  -0.946  -0.553  0.00  0.00    -0.002 A 
ATOM      7  C5  OXE d   1       0.804  -1.462   0.748  0.00  0.00    -0.002 A 
ATOM      8  C6  OXE d   1      -0.111  -0.985   1.680  0.00  0.00     0.003 A 
ENDROOT
TORSDOF 0
ENDMDL
