MODEL 1
REMARK minimizedAffinity -4.4331336
REMARK minimizedRMSD -1
REMARK  0 active torsions:
REMARK  status: ('A' for Active; 'I' for Inactive)
ROOT
ATOM      1  C2' OXE d   1       0.393  -2.159  -0.012  0.00  0.00     0.078 C 
ATOM      2  C1' OXE d   1       2.311  -0.407  -1.076  0.00  0.00     0.078 C 
ATOM      3  C1  OXE d   1       0.935   0.143  -0.793  0.00  0.00    -0.078 A 
ATOM      4  C2  OXE d   1      -0.010  -0.733  -0.316  0.00  0.00    -0.078 A 
ATOM      5  C3  OXE d   1      -1.279  -0.265   0.013  0.00  0.00     0.003 A 
ATOM      6  C4  OXE d   1      -1.647   1.054  -0.281  0.00  0.00    -0.002 A 
ATOM      7  C5  OXE d   1      -0.711   1.952  -0.804  0.00  0.00    -0.002 A 
ATOM      8  C6  OXE d   1       0.594   1.525  -1.026  0.00  0.00     0.003 A 
ENDROOT
TORSDOF 0
ENDMDL
