MODEL 1
REMARK minimizedAffinity -3.87180519
REMARK minimizedRMSD -1
REMARK  0 active torsions:
REMARK  status: ('A' for Active; 'I' for Inactive)
ROOT
ATOM      1  C2' OXE d   1      -0.692   1.586  -1.397  0.00  0.00     0.078 C 
ATOM      2  C1' OXE d   1      -1.110   0.567   1.185  0.00  0.00     0.078 C 
ATOM      3  C1  OXE d   1      -0.104  -0.134   0.306  0.00  0.00    -0.078 A 
ATOM      4  C2  OXE d   1       0.061   0.344  -0.972  0.00  0.00    -0.078 A 
ATOM      5  C3  OXE d   1       1.016  -0.231  -1.805  0.00  0.00     0.003 A 
ATOM      6  C4  OXE d   1       1.700  -1.386  -1.407  0.00  0.00    -0.002 A 
ATOM      7  C5  OXE d   1       1.518  -1.913  -0.124  0.00  0.00    -0.002 A 
ATOM      8  C6  OXE d   1       0.654  -1.275   0.758  0.00  0.00     0.003 A 
ENDROOT
TORSDOF 0
ENDMDL
