MODEL 1
REMARK minimizedAffinity -5.4938941
REMARK minimizedRMSD -1
REMARK  0 active torsions:
REMARK  status: ('A' for Active; 'I' for Inactive)
ROOT
ATOM      1  C2' OXE d   1      -0.730   0.331   0.204  0.00  0.00     0.078 C 
ATOM      2  C1' OXE d   1       1.199  -1.550   0.994  0.00  0.00     0.078 C 
ATOM      3  C1  OXE d   1       1.536  -0.637  -0.159  0.00  0.00    -0.078 A 
ATOM      4  C2  OXE d   1       0.569   0.248  -0.568  0.00  0.00    -0.078 A 
ATOM      5  C3  OXE d   1       0.848   1.150  -1.591  0.00  0.00     0.003 A 
ATOM      6  C4  OXE d   1       2.048   1.061  -2.307  0.00  0.00    -0.002 A 
ATOM      7  C5  OXE d   1       3.032   0.139  -1.932  0.00  0.00    -0.002 A 
ATOM      8  C6  OXE d   1       2.809  -0.686  -0.835  0.00  0.00     0.003 A 
ENDROOT
TORSDOF 0
ENDMDL
