MODEL 1
REMARK minimizedAffinity -0.705346048
REMARK minimizedRMSD -1
REMARK  0 active torsions:
REMARK  status: ('A' for Active; 'I' for Inactive)
ROOT
ATOM      1  C2' OXE d   1      -1.156   0.291   0.919  0.00  0.00     0.078 C 
ATOM      2  C1' OXE d   1      -0.560   1.566  -1.510  0.00  0.00     0.078 C 
ATOM      3  C1  OXE d   1       0.175   0.289  -1.187  0.00  0.00    -0.078 A 
ATOM      4  C2  OXE d   1      -0.089  -0.303   0.024  0.00  0.00    -0.078 A 
ATOM      5  C3  OXE d   1       0.521  -1.512   0.348  0.00  0.00     0.003 A 
ATOM      6  C4  OXE d   1       1.514  -2.049  -0.480  0.00  0.00    -0.002 A 
ATOM      7  C5  OXE d   1       1.827  -1.440  -1.700  0.00  0.00    -0.002 A 
ATOM      8  C6  OXE d   1       1.138  -0.296  -2.087  0.00  0.00     0.003 A 
ENDROOT
TORSDOF 0
ENDMDL
