MODEL 1
REMARK minimizedAffinity -2.80592704
REMARK minimizedRMSD -1
REMARK  0 active torsions:
REMARK  status: ('A' for Active; 'I' for Inactive)
ROOT
ATOM      1  C2' OXE d   1      -1.470   1.105   2.045  0.00  0.00     0.078 C 
ATOM      2  C1' OXE d   1      -1.329   1.317  -0.751  0.00  0.00     0.078 C 
ATOM      3  C1  OXE d   1      -0.588   0.179  -0.093  0.00  0.00    -0.078 A 
ATOM      4  C2  OXE d   1      -0.624   0.111   1.279  0.00  0.00    -0.078 A 
ATOM      5  C3  OXE d   1      -0.003  -0.950   1.932  0.00  0.00     0.003 A 
ATOM      6  C4  OXE d   1       0.786  -1.859   1.217  0.00  0.00    -0.002 A 
ATOM      7  C5  OXE d   1       0.868  -1.784  -0.177  0.00  0.00    -0.002 A 
ATOM      8  C6  OXE d   1       0.155  -0.798  -0.850  0.00  0.00     0.003 A 
ENDROOT
TORSDOF 0
ENDMDL
