MODEL 1
REMARK minimizedAffinity -5.15269423
REMARK minimizedRMSD -1
REMARK  0 active torsions:
REMARK  status: ('A' for Active; 'I' for Inactive)
ROOT
ATOM      1  C2' OXE d   1      -1.181   0.473   0.083  0.00  0.00     0.078 C 
ATOM      2  C1' OXE d   1       0.400  -1.846   0.060  0.00  0.00     0.078 C 
ATOM      3  C1  OXE d   1       0.717  -0.768  -0.946  0.00  0.00    -0.078 A 
ATOM      4  C2  OXE d   1      -0.091   0.343  -0.958  0.00  0.00    -0.078 A 
ATOM      5  C3  OXE d   1       0.192   1.391  -1.829  0.00  0.00     0.003 A 
ATOM      6  C4  OXE d   1       1.196   1.259  -2.796  0.00  0.00    -0.002 A 
ATOM      7  C5  OXE d   1       2.006   0.118  -2.826  0.00  0.00    -0.002 A 
ATOM      8  C6  OXE d   1       1.807  -0.884  -1.883  0.00  0.00     0.003 A 
ENDROOT
TORSDOF 0
ENDMDL
