MODEL 1
REMARK minimizedAffinity 4.18835258
REMARK minimizedRMSD -1
REMARK  0 active torsions:
REMARK  status: ('A' for Active; 'I' for Inactive)
ROOT
ATOM      1  C2' OXE d   1      -2.324   0.405   3.438  0.00  0.00     0.078 C 
ATOM      2  C1' OXE d   1      -2.259  -0.664   0.843  0.00  0.00     0.078 C 
ATOM      3  C1  OXE d   1      -3.593  -0.603   1.546  0.00  0.00    -0.078 A 
ATOM      4  C2  OXE d   1      -3.607  -0.121   2.833  0.00  0.00    -0.078 A 
ATOM      5  C3  OXE d   1      -4.818   0.008   3.507  0.00  0.00     0.003 A 
ATOM      6  C4  OXE d   1      -5.999  -0.491   2.944  0.00  0.00    -0.002 A 
ATOM      7  C5  OXE d   1      -6.000  -1.022   1.650  0.00  0.00    -0.002 A 
ATOM      8  C6  OXE d   1      -4.815  -1.046   0.923  0.00  0.00     0.003 A 
ENDROOT
TORSDOF 0
ENDMDL
