MODEL 1
REMARK minimizedAffinity -4.1019845
REMARK minimizedRMSD -1
REMARK  0 active torsions:
REMARK  status: ('A' for Active; 'I' for Inactive)
ROOT
ATOM      1  C2' OXE d   1      -1.430   1.517  -1.101  0.00  0.00     0.078 C 
ATOM      2  C1' OXE d   1      -1.154   1.405   1.691  0.00  0.00     0.078 C 
ATOM      3  C1  OXE d   1      -0.311   0.468   0.862  0.00  0.00    -0.078 A 
ATOM      4  C2  OXE d   1      -0.486   0.497  -0.501  0.00  0.00    -0.078 A 
ATOM      5  C3  OXE d   1       0.305  -0.307  -1.315  0.00  0.00     0.003 A 
ATOM      6  C4  OXE d   1       1.169  -1.255  -0.751  0.00  0.00    -0.002 A 
ATOM      7  C5  OXE d   1       1.333  -1.329   0.636  0.00  0.00    -0.002 A 
ATOM      8  C6  OXE d   1       0.634  -0.447   1.453  0.00  0.00     0.003 A 
ENDROOT
TORSDOF 0
ENDMDL
