MODEL 1
REMARK minimizedAffinity -2.19056845
REMARK minimizedRMSD -1
REMARK  0 active torsions:
REMARK  status: ('A' for Active; 'I' for Inactive)
ROOT
ATOM      1  C2' OXE d   1      -0.819   1.571   2.101  0.00  0.00     0.078 C 
ATOM      2  C1' OXE d   1      -1.346   1.470  -0.655  0.00  0.00     0.078 C 
ATOM      3  C1  OXE d   1      -0.410   0.437  -0.080  0.00  0.00    -0.078 A 
ATOM      4  C2  OXE d   1      -0.121   0.522   1.261  0.00  0.00    -0.078 A 
ATOM      5  C3  OXE d   1       0.693  -0.439   1.853  0.00  0.00     0.003 A 
ATOM      6  C4  OXE d   1       1.342  -1.399   1.068  0.00  0.00    -0.002 A 
ATOM      7  C5  OXE d   1       1.093  -1.479  -0.306  0.00  0.00    -0.002 A 
ATOM      8  C6  OXE d   1       0.189  -0.597  -0.887  0.00  0.00     0.003 A 
ENDROOT
TORSDOF 0
ENDMDL
