MODEL 1
REMARK minimizedAffinity -3.1442163
REMARK minimizedRMSD -1
REMARK  0 active torsions:
REMARK  status: ('A' for Active; 'I' for Inactive)
ROOT
ATOM      1  C   UNL d   1       1.169  -1.245  -0.846  0.00  0.00     0.078 C 
ATOM      2  C1  UNL d   1       0.413  -0.258  -0.008  0.00  0.00    -0.077 A 
ATOM      3  C2  UNL d   1      -0.220  -0.653   1.177  0.00  0.00    -0.001 A 
ATOM      4  C3  UNL d   1      -0.929   0.274   1.942  0.00  0.00     0.003 A 
ATOM      5  C4  UNL d   1      -1.013   1.603   1.530  0.00  0.00    -0.005 A 
ATOM      6  C5  UNL d   1      -0.389   2.005   0.351  0.00  0.00     0.003 A 
ATOM      7  C6  UNL d   1       0.320   1.079  -0.415  0.00  0.00    -0.001 A 
ENDROOT
TORSDOF 0
ENDMDL
