MODEL 1
REMARK minimizedAffinity -2.67894292
REMARK minimizedRMSD -1
REMARK  0 active torsions:
REMARK  status: ('A' for Active; 'I' for Inactive)
ROOT
ATOM      1  C   UNL d   1       0.814  -1.610  -0.729  0.00  0.00     0.078 C 
ATOM      2  C1  UNL d   1       0.169  -0.497   0.042  0.00  0.00    -0.077 A 
ATOM      3  C2  UNL d   1      -0.302  -0.701   1.345  0.00  0.00    -0.001 A 
ATOM      4  C3  UNL d   1      -0.909   0.342   2.047  0.00  0.00     0.003 A 
ATOM      5  C4  UNL d   1      -1.051   1.595   1.455  0.00  0.00    -0.005 A 
ATOM      6  C5  UNL d   1      -0.587   1.807   0.158  0.00  0.00     0.003 A 
ATOM      7  C6  UNL d   1       0.020   0.765  -0.546  0.00  0.00    -0.001 A 
ENDROOT
TORSDOF 0
ENDMDL
