MODEL 1
REMARK minimizedAffinity -3.93464828
REMARK minimizedRMSD -1
REMARK  0 active torsions:
REMARK  status: ('A' for Active; 'I' for Inactive)
ROOT
ATOM      1  C   UNL d   1      -0.235   0.446   0.046  0.00  0.00     0.078 C 
ATOM      2  C1  UNL d   1       0.027  -0.794  -0.756  0.00  0.00    -0.077 A 
ATOM      3  C2  UNL d   1       1.299  -1.377  -0.789  0.00  0.00    -0.001 A 
ATOM      4  C3  UNL d   1       1.531  -2.526  -1.547  0.00  0.00     0.003 A 
ATOM      5  C4  UNL d   1       0.494  -3.101  -2.279  0.00  0.00    -0.005 A 
ATOM      6  C5  UNL d   1      -0.775  -2.527  -2.254  0.00  0.00     0.003 A 
ATOM      7  C6  UNL d   1      -1.008  -1.378  -1.497  0.00  0.00    -0.001 A 
ENDROOT
TORSDOF 0
ENDMDL
