MODEL 1
REMARK minimizedAffinity -1.97032464
REMARK minimizedRMSD -1
REMARK  0 active torsions:
REMARK  status: ('A' for Active; 'I' for Inactive)
ROOT
ATOM      1  C   UNL d   1      -0.302  -0.418   0.115  0.00  0.00     0.078 C 
ATOM      2  C1  UNL d   1      -0.190  -1.534  -0.880  0.00  0.00    -0.077 A 
ATOM      3  C2  UNL d   1       0.753  -2.556  -0.714  0.00  0.00    -0.001 A 
ATOM      4  C3  UNL d   1       0.852  -3.584  -1.653  0.00  0.00     0.003 A 
ATOM      5  C4  UNL d   1       0.013  -3.599  -2.765  0.00  0.00    -0.005 A 
ATOM      6  C5  UNL d   1      -0.927  -2.585  -2.940  0.00  0.00     0.003 A 
ATOM      7  C6  UNL d   1      -1.028  -1.557  -2.002  0.00  0.00    -0.001 A 
ENDROOT
TORSDOF 0
ENDMDL
