MODEL 1
REMARK minimizedAffinity -4.30465794
REMARK minimizedRMSD -1
REMARK  0 active torsions:
REMARK  status: ('A' for Active; 'I' for Inactive)
ROOT
ATOM      1  C   UNL d   1       0.997  -1.015  -0.921  0.00  0.00     0.078 C 
ATOM      2  C1  UNL d   1       0.332   0.057  -0.110  0.00  0.00    -0.077 A 
ATOM      3  C2  UNL d   1      -0.337  -0.251   1.081  0.00  0.00    -0.001 A 
ATOM      4  C3  UNL d   1      -0.960   0.756   1.820  0.00  0.00     0.003 A 
ATOM      5  C4  UNL d   1      -0.921   2.076   1.376  0.00  0.00    -0.005 A 
ATOM      6  C5  UNL d   1      -0.260   2.391   0.191  0.00  0.00     0.003 A 
ATOM      7  C6  UNL d   1       0.364   1.386  -0.550  0.00  0.00    -0.001 A 
ENDROOT
TORSDOF 0
ENDMDL
