MODEL 1
REMARK minimizedAffinity -3.46421289
REMARK minimizedRMSD -1
REMARK  0 active torsions:
REMARK  status: ('A' for Active; 'I' for Inactive)
ROOT
ATOM      1  C   UNL d   1      -0.474  -0.910   1.971  0.00  0.00     0.078 C 
ATOM      2  C1  UNL d   1      -0.195  -0.133   0.719  0.00  0.00    -0.077 A 
ATOM      3  C2  UNL d   1      -0.905   1.037   0.423  0.00  0.00    -0.001 A 
ATOM      4  C3  UNL d   1      -0.642   1.744  -0.751  0.00  0.00     0.003 A 
ATOM      5  C4  UNL d   1       0.331   1.290  -1.639  0.00  0.00    -0.005 A 
ATOM      6  C5  UNL d   1       1.042   0.125  -1.354  0.00  0.00     0.003 A 
ATOM      7  C6  UNL d   1       0.780  -0.584  -0.180  0.00  0.00    -0.001 A 
ENDROOT
TORSDOF 0
ENDMDL
