MODEL 1
REMARK minimizedAffinity -5.05939198
REMARK minimizedRMSD -1
REMARK  0 active torsions:
REMARK  status: ('A' for Active; 'I' for Inactive)
ROOT
ATOM      1  C   UNL d   1      -2.316   1.953   1.230  0.00  0.00     0.078 C 
ATOM      2  C1  UNL d   1      -1.284   1.063   0.606  0.00  0.00    -0.077 A 
ATOM      3  C2  UNL d   1      -0.842  -0.096   1.256  0.00  0.00    -0.001 A 
ATOM      4  C3  UNL d   1       0.127  -0.910   0.667  0.00  0.00     0.003 A 
ATOM      5  C4  UNL d   1       0.664  -0.573  -0.574  0.00  0.00    -0.005 A 
ATOM      6  C5  UNL d   1       0.232   0.579  -1.228  0.00  0.00     0.003 A 
ATOM      7  C6  UNL d   1      -0.737   1.395  -0.641  0.00  0.00    -0.001 A 
ENDROOT
TORSDOF 0
ENDMDL
