MODEL 1
REMARK minimizedAffinity -5.27378845
REMARK minimizedRMSD -1
REMARK  0 active torsions:
REMARK  status: ('A' for Active; 'I' for Inactive)
ROOT
ATOM      1  C   UNL d   1      -0.113   3.624   0.386  0.00  0.00     0.078 C 
ATOM      2  C1  UNL d   1       0.050   2.135   0.444  0.00  0.00    -0.077 A 
ATOM      3  C2  UNL d   1       0.778   1.450  -0.536  0.00  0.00    -0.001 A 
ATOM      4  C3  UNL d   1       0.913   0.062  -0.475  0.00  0.00     0.003 A 
ATOM      5  C4  UNL d   1       0.321  -0.653   0.564  0.00  0.00    -0.005 A 
ATOM      6  C5  UNL d   1      -0.408   0.019   1.543  0.00  0.00     0.003 A 
ATOM      7  C6  UNL d   1      -0.544   1.407   1.483  0.00  0.00    -0.001 A 
ENDROOT
TORSDOF 0
ENDMDL
