MODEL 1
REMARK minimizedAffinity -3.10986543
REMARK minimizedRMSD -1
REMARK  0 active torsions:
REMARK  status: ('A' for Active; 'I' for Inactive)
ROOT
ATOM      1  C   UNL d   1       0.239  -0.169  -0.203  0.00  0.00     0.078 C 
ATOM      2  C1  UNL d   1       0.354  -1.407  -1.042  0.00  0.00    -0.077 A 
ATOM      3  C2  UNL d   1       1.315  -2.385  -0.757  0.00  0.00    -0.001 A 
ATOM      4  C3  UNL d   1       1.417  -3.527  -1.552  0.00  0.00     0.003 A 
ATOM      5  C4  UNL d   1       0.564  -3.701  -2.640  0.00  0.00    -0.005 A 
ATOM      6  C5  UNL d   1      -0.393  -2.732  -2.934  0.00  0.00     0.003 A 
ATOM      7  C6  UNL d   1      -0.498  -1.589  -2.139  0.00  0.00    -0.001 A 
ENDROOT
TORSDOF 0
ENDMDL
