MODEL 1
REMARK minimizedAffinity -4.02514458
REMARK minimizedRMSD -1
REMARK  0 active torsions:
REMARK  status: ('A' for Active; 'I' for Inactive)
ROOT
ATOM      1  C   UNL d   1      -1.070   0.693   1.562  0.00  0.00     0.078 C 
ATOM      2  C1  UNL d   1      -0.571  -0.241   0.500  0.00  0.00    -0.077 A 
ATOM      3  C2  UNL d   1      -1.463  -0.947  -0.317  0.00  0.00    -0.001 A 
ATOM      4  C3  UNL d   1      -0.985  -1.820  -1.295  0.00  0.00     0.003 A 
ATOM      5  C4  UNL d   1       0.386  -1.998  -1.464  0.00  0.00    -0.005 A 
ATOM      6  C5  UNL d   1       1.282  -1.302  -0.655  0.00  0.00     0.003 A 
ATOM      7  C6  UNL d   1       0.806  -0.428   0.324  0.00  0.00    -0.001 A 
ENDROOT
TORSDOF 0
ENDMDL
