MODEL 1
REMARK minimizedAffinity -5.67929268
REMARK minimizedRMSD -1
REMARK  0 active torsions:
REMARK  status: ('A' for Active; 'I' for Inactive)
ROOT
ATOM      1  C   UNL d   1       0.006  -0.270  -0.401  0.00  0.00     0.078 C 
ATOM      2  C1  UNL d   1      -0.300   1.116   0.084  0.00  0.00    -0.077 A 
ATOM      3  C2  UNL d   1       0.218   2.240  -0.570  0.00  0.00    -0.001 A 
ATOM      4  C3  UNL d   1      -0.067   3.523  -0.101  0.00  0.00     0.003 A 
ATOM      5  C4  UNL d   1      -0.871   3.695   1.024  0.00  0.00    -0.005 A 
ATOM      6  C5  UNL d   1      -1.390   2.582   1.683  0.00  0.00     0.003 A 
ATOM      7  C6  UNL d   1      -1.105   1.298   1.216  0.00  0.00    -0.001 A 
ENDROOT
TORSDOF 0
ENDMDL
