MODEL 1
REMARK minimizedAffinity -5.1920228
REMARK minimizedRMSD -1
REMARK  0 active torsions:
REMARK  status: ('A' for Active; 'I' for Inactive)
ROOT
ATOM      1  C   UNL d   1      -1.062   0.227   2.224  0.00  0.00     0.078 C 
ATOM      2  C1  UNL d   1      -0.706   1.235   1.172  0.00  0.00    -0.077 A 
ATOM      3  C2  UNL d   1      -0.074   0.846  -0.016  0.00  0.00    -0.001 A 
ATOM      4  C3  UNL d   1       0.260   1.796  -0.982  0.00  0.00     0.003 A 
ATOM      5  C4  UNL d   1      -0.032   3.142  -0.770  0.00  0.00    -0.005 A 
ATOM      6  C5  UNL d   1      -0.658   3.539   0.410  0.00  0.00     0.003 A 
ATOM      7  C6  UNL d   1      -0.993   2.590   1.377  0.00  0.00    -0.001 A 
ENDROOT
TORSDOF 0
ENDMDL
