MODEL 1
REMARK minimizedAffinity -4.2030592
REMARK minimizedRMSD -1
REMARK  0 active torsions:
REMARK  status: ('A' for Active; 'I' for Inactive)
ROOT
ATOM      1  C   UNL d   1       0.791  -1.174  -1.112  0.00  0.00     0.078 C 
ATOM      2  C1  UNL d   1       0.235  -0.128  -0.192  0.00  0.00    -0.077 A 
ATOM      3  C2  UNL d   1      -0.513  -0.483   0.937  0.00  0.00    -0.001 A 
ATOM      4  C3  UNL d   1      -1.032   0.503   1.778  0.00  0.00     0.003 A 
ATOM      5  C4  UNL d   1      -0.809   1.849   1.499  0.00  0.00    -0.005 A 
ATOM      6  C5  UNL d   1      -0.068   2.213   0.376  0.00  0.00     0.003 A 
ATOM      7  C6  UNL d   1       0.452   1.229  -0.466  0.00  0.00    -0.001 A 
ENDROOT
TORSDOF 0
ENDMDL
