MODEL 1
REMARK minimizedAffinity -3.18355131
REMARK minimizedRMSD -1
REMARK  0 active torsions:
REMARK  status: ('A' for Active; 'I' for Inactive)
ROOT
ATOM      1  C   UNL d   1       0.549   0.169  -0.345  0.00  0.00     0.078 C 
ATOM      2  C1  UNL d   1       0.492  -1.172  -1.013  0.00  0.00    -0.077 A 
ATOM      3  C2  UNL d   1      -0.331  -1.390  -2.124  0.00  0.00    -0.001 A 
ATOM      4  C3  UNL d   1      -0.382  -2.646  -2.730  0.00  0.00     0.003 A 
ATOM      5  C4  UNL d   1       0.388  -3.695  -2.231  0.00  0.00    -0.005 A 
ATOM      6  C5  UNL d   1       1.208  -3.489  -1.124  0.00  0.00     0.003 A 
ATOM      7  C6  UNL d   1       1.260  -2.233  -0.517  0.00  0.00    -0.001 A 
ENDROOT
TORSDOF 0
ENDMDL
