MODEL 1
REMARK minimizedAffinity 9.26950073
REMARK minimizedRMSD -1
REMARK  0 active torsions:
REMARK  status: ('A' for Active; 'I' for Inactive)
ROOT
ATOM      1  C   UNL d   1      -2.120   0.763  -0.299  0.00  0.00     0.124 A 
ATOM      2  C1  UNL d   1      -1.139   1.740  -0.203  0.00  0.00     0.062 A 
ATOM      3  C2  UNL d   1       0.202   1.380  -0.116  0.00  0.00     0.162 A 
ATOM      4  C3  UNL d   1       0.572   0.035  -0.125  0.00  0.00    -0.034 A 
ATOM      5  C4  UNL d   1      -0.420  -0.943  -0.220  0.00  0.00     0.162 A 
ATOM      6  C5  UNL d   1      -1.759  -0.577  -0.308  0.00  0.00     0.062 A 
ATOM      7  F   UNL d   1      -2.705  -1.524  -0.400  0.00  0.00    -0.097 F 
ATOM      8  F1  UNL d   1      -0.100  -2.245  -0.231  0.00  0.00    -0.096 F 
ATOM      9  I   UNL d   1       2.577  -0.508   0.006  0.00  0.00    -0.060 I 
ATOM     10  F2  UNL d   1       1.128   2.346  -0.024  0.00  0.00    -0.096 F 
ATOM     11  F3  UNL d   1      -1.485   3.036  -0.194  0.00  0.00    -0.097 F 
ATOM     12  F4  UNL d   1      -3.410   1.112  -0.383  0.00  0.00    -0.092 F 
ENDROOT
TORSDOF 0
ENDMDL
