MODEL 1
REMARK minimizedAffinity -0.215576142
REMARK minimizedRMSD -1
REMARK  0 active torsions:
REMARK  status: ('A' for Active; 'I' for Inactive)
ROOT
ATOM      1  C   UNL d   1      -1.924  -0.185   1.827  0.00  0.00     0.124 A 
ATOM      2  C1  UNL d   1      -0.836   0.064   2.651  0.00  0.00     0.062 A 
ATOM      3  C2  UNL d   1       0.458   0.003   2.140  0.00  0.00     0.162 A 
ATOM      4  C3  UNL d   1       0.670  -0.309   0.797  0.00  0.00    -0.034 A 
ATOM      5  C4  UNL d   1      -0.430  -0.559  -0.025  0.00  0.00     0.162 A 
ATOM      6  C5  UNL d   1      -1.720  -0.496   0.490  0.00  0.00     0.062 A 
ATOM      7  F   UNL d   1      -2.771  -0.738  -0.308  0.00  0.00    -0.097 F 
ATOM      8  F1  UNL d   1      -0.262  -0.861  -1.321  0.00  0.00    -0.096 F 
ATOM      9  I   UNL d   1       2.602  -0.401   0.030  0.00  0.00    -0.060 I 
ATOM     10  F2  UNL d   1       1.491   0.249   2.960  0.00  0.00    -0.096 F 
ATOM     11  F3  UNL d   1      -1.030   0.364   3.943  0.00  0.00    -0.097 F 
ATOM     12  F4  UNL d   1      -3.167  -0.126   2.321  0.00  0.00    -0.092 F 
ENDROOT
TORSDOF 0
ENDMDL
