MODEL 1
REMARK minimizedAffinity 0.921382129
REMARK minimizedRMSD -1
REMARK  0 active torsions:
REMARK  status: ('A' for Active; 'I' for Inactive)
ROOT
ATOM      1  C   UNL d   1      -1.910   0.834   0.962  0.00  0.00     0.124 A 
ATOM      2  C1  UNL d   1      -1.632   0.262   2.196  0.00  0.00     0.062 A 
ATOM      3  C2  UNL d   1      -0.325  -0.074   2.534  0.00  0.00     0.162 A 
ATOM      4  C3  UNL d   1       0.717   0.162   1.636  0.00  0.00    -0.034 A 
ATOM      5  C4  UNL d   1       0.430   0.736   0.397  0.00  0.00     0.162 A 
ATOM      6  C5  UNL d   1      -0.879   1.070   0.064  0.00  0.00     0.062 A 
ATOM      7  F   UNL d   1      -1.145   1.622  -1.129  0.00  0.00    -0.097 F 
ATOM      8  F1  UNL d   1       1.407   0.976  -0.490  0.00  0.00    -0.096 F 
ATOM      9  I   UNL d   1       2.674  -0.339   2.137  0.00  0.00    -0.060 I 
ATOM     10  F2  UNL d   1      -0.086  -0.625   3.733  0.00  0.00    -0.096 F 
ATOM     11  F3  UNL d   1      -2.627   0.032   3.066  0.00  0.00    -0.097 F 
ATOM     12  F4  UNL d   1      -3.169   1.155   0.639  0.00  0.00    -0.092 F 
ENDROOT
TORSDOF 0
ENDMDL
