MODEL 1
REMARK minimizedAffinity -1.26964581
REMARK minimizedRMSD -1
REMARK  0 active torsions:
REMARK  status: ('A' for Active; 'I' for Inactive)
ROOT
ATOM      1  C   UNL d   1      -0.251   0.237   1.996  0.00  0.00     0.124 A 
ATOM      2  C1  UNL d   1      -1.394   0.383   1.223  0.00  0.00     0.062 A 
ATOM      3  C2  UNL d   1      -1.336   0.193  -0.155  0.00  0.00     0.162 A 
ATOM      4  C3  UNL d   1      -0.131  -0.147  -0.769  0.00  0.00    -0.034 A 
ATOM      5  C4  UNL d   1       1.015  -0.292   0.016  0.00  0.00     0.162 A 
ATOM      6  C5  UNL d   1       0.952  -0.101   1.392  0.00  0.00     0.062 A 
ATOM      7  F   UNL d   1       2.058  -0.243   2.138  0.00  0.00    -0.097 F 
ATOM      8  F1  UNL d   1       2.190  -0.618  -0.542  0.00  0.00    -0.096 F 
ATOM      9  I   UNL d   1      -0.040  -0.433  -2.828  0.00  0.00    -0.060 I 
ATOM     10  F2  UNL d   1      -2.457   0.341  -0.878  0.00  0.00    -0.096 F 
ATOM     11  F3  UNL d   1      -2.557   0.710   1.803  0.00  0.00    -0.097 F 
ATOM     12  F4  UNL d   1      -0.309   0.421   3.321  0.00  0.00    -0.092 F 
ENDROOT
TORSDOF 0
ENDMDL
