MODEL 1
REMARK minimizedAffinity 2.34581542
REMARK minimizedRMSD -1
REMARK  0 active torsions:
REMARK  status: ('A' for Active; 'I' for Inactive)
ROOT
ATOM      1  C   UNL d   1       1.817  -0.846   0.294  0.00  0.00     0.124 A 
ATOM      2  C1  UNL d   1       1.195  -0.517   1.490  0.00  0.00     0.062 A 
ATOM      3  C2  UNL d   1      -0.136  -0.108   1.498  0.00  0.00     0.162 A 
ATOM      4  C3  UNL d   1      -0.855  -0.028   0.305  0.00  0.00    -0.034 A 
ATOM      5  C4  UNL d   1      -0.222  -0.359  -0.894  0.00  0.00     0.162 A 
ATOM      6  C5  UNL d   1       1.108  -0.767  -0.897  0.00  0.00     0.062 A 
ATOM      7  F   UNL d   1       1.707  -1.084  -2.054  0.00  0.00    -0.097 F 
ATOM      8  F1  UNL d   1      -0.883  -0.293  -2.059  0.00  0.00    -0.096 F 
ATOM      9  I   UNL d   1      -2.844   0.583   0.313  0.00  0.00    -0.060 I 
ATOM     10  F2  UNL d   1      -0.712   0.204   2.669  0.00  0.00    -0.096 F 
ATOM     11  F3  UNL d   1       1.877  -0.591   2.642  0.00  0.00    -0.097 F 
ATOM     12  F4  UNL d   1       3.097  -1.238   0.289  0.00  0.00    -0.092 F 
ENDROOT
TORSDOF 0
ENDMDL
