MODEL 1
REMARK minimizedAffinity 10.9052982
REMARK minimizedRMSD -1
REMARK  0 active torsions:
REMARK  status: ('A' for Active; 'I' for Inactive)
ROOT
ATOM      1  C   UNL d   1      -0.020  -0.350   2.327  0.00  0.00     0.124 A 
ATOM      2  C1  UNL d   1      -1.240  -0.091   1.717  0.00  0.00     0.062 A 
ATOM      3  C2  UNL d   1      -1.308   0.095   0.340  0.00  0.00     0.162 A 
ATOM      4  C3  UNL d   1      -0.152   0.022  -0.438  0.00  0.00    -0.034 A 
ATOM      5  C4  UNL d   1       1.071  -0.238   0.182  0.00  0.00     0.162 A 
ATOM      6  C5  UNL d   1       1.134  -0.423   1.560  0.00  0.00     0.062 A 
ATOM      7  F   UNL d   1       2.313  -0.674   2.147  0.00  0.00    -0.097 F 
ATOM      8  F1  UNL d   1       2.201  -0.315  -0.536  0.00  0.00    -0.096 F 
ATOM      9  I   UNL d   1      -0.250   0.299  -2.499  0.00  0.00    -0.060 I 
ATOM     10  F2  UNL d   1      -2.500   0.344  -0.223  0.00  0.00    -0.096 F 
ATOM     11  F3  UNL d   1      -2.356  -0.019   2.457  0.00  0.00    -0.097 F 
ATOM     12  F4  UNL d   1       0.043  -0.528   3.653  0.00  0.00    -0.092 F 
ENDROOT
TORSDOF 0
ENDMDL
