MODEL 1
REMARK minimizedAffinity 8.64297867
REMARK minimizedRMSD -1
REMARK  0 active torsions:
REMARK  status: ('A' for Active; 'I' for Inactive)
ROOT
ATOM      1  C   UNL d   1      -0.845   0.169   0.397  0.00  0.00     0.124 A 
ATOM      2  C1  UNL d   1      -2.051   0.821   0.177  0.00  0.00     0.062 A 
ATOM      3  C2  UNL d   1      -3.194   0.092  -0.136  0.00  0.00     0.162 A 
ATOM      4  C3  UNL d   1      -3.138  -1.299  -0.230  0.00  0.00    -0.034 A 
ATOM      5  C4  UNL d   1      -1.922  -1.947  -0.009  0.00  0.00     0.162 A 
ATOM      6  C5  UNL d   1      -0.782  -1.214   0.304  0.00  0.00     0.062 A 
ATOM      7  F   UNL d   1       0.382  -1.846   0.516  0.00  0.00    -0.097 F 
ATOM      8  F1  UNL d   1      -1.833  -3.283  -0.091  0.00  0.00    -0.096 F 
ATOM      9  I   UNL d   1      -4.846  -2.393  -0.698  0.00  0.00    -0.060 I 
ATOM     10  F2  UNL d   1      -4.345   0.748  -0.344  0.00  0.00    -0.096 F 
ATOM     11  F3  UNL d   1      -2.114   2.158   0.265  0.00  0.00    -0.097 F 
ATOM     12  F4  UNL d   1       0.254   0.873   0.697  0.00  0.00    -0.092 F 
ENDROOT
TORSDOF 0
ENDMDL
