MODEL 1
REMARK minimizedAffinity -3.96062684
REMARK minimizedRMSD -1
REMARK  0 active torsions:
REMARK  status: ('A' for Active; 'I' for Inactive)
ROOT
ATOM      1  C   UNL d   1       0.391   0.705   2.964  0.00  0.00     0.124 A 
ATOM      2  C1  UNL d   1       1.465  -0.076   2.561  0.00  0.00     0.062 A 
ATOM      3  C2  UNL d   1       1.545  -0.531   1.248  0.00  0.00     0.162 A 
ATOM      4  C3  UNL d   1       0.549  -0.206   0.328  0.00  0.00    -0.034 A 
ATOM      5  C4  UNL d   1      -0.529   0.580   0.741  0.00  0.00     0.162 A 
ATOM      6  C5  UNL d   1      -0.605   1.032   2.054  0.00  0.00     0.062 A 
ATOM      7  F   UNL d   1      -1.643   1.786   2.442  0.00  0.00    -0.097 F 
ATOM      8  F1  UNL d   1      -1.504   0.911  -0.118  0.00  0.00    -0.096 F 
ATOM      9  I   UNL d   1       0.666  -0.884  -1.637  0.00  0.00    -0.060 I 
ATOM     10  F2  UNL d   1       2.595  -1.285   0.886  0.00  0.00    -0.096 F 
ATOM     11  F3  UNL d   1       2.427  -0.395   3.438  0.00  0.00    -0.097 F 
ATOM     12  F4  UNL d   1       0.315   1.140   4.228  0.00  0.00    -0.092 F 
ENDROOT
TORSDOF 0
ENDMDL
