MODEL 1
REMARK minimizedAffinity -4.62696743
REMARK minimizedRMSD -1
REMARK  0 active torsions:
REMARK  status: ('A' for Active; 'I' for Inactive)
ROOT
ATOM      1  C   UNL d   1       0.311   0.717   3.371  0.00  0.00     0.124 A 
ATOM      2  C1  UNL d   1      -0.522   1.246   2.394  0.00  0.00     0.062 A 
ATOM      3  C2  UNL d   1      -0.415   0.816   1.075  0.00  0.00     0.162 A 
ATOM      4  C3  UNL d   1       0.528  -0.150   0.724  0.00  0.00    -0.034 A 
ATOM      5  C4  UNL d   1       1.363  -0.677   1.711  0.00  0.00     0.162 A 
ATOM      6  C5  UNL d   1       1.252  -0.243   3.028  0.00  0.00     0.062 A 
ATOM      7  F   UNL d   1       2.058  -0.756   3.970  0.00  0.00    -0.097 F 
ATOM      8  F1  UNL d   1       2.280  -1.607   1.408  0.00  0.00    -0.096 F 
ATOM      9  I   UNL d   1       0.691  -0.796  -1.248  0.00  0.00    -0.060 I 
ATOM     10  F2  UNL d   1      -1.233   1.344   0.152  0.00  0.00    -0.096 F 
ATOM     11  F3  UNL d   1      -1.432   2.175   2.723  0.00  0.00    -0.097 F 
ATOM     12  F4  UNL d   1       0.207   1.134   4.639  0.00  0.00    -0.092 F 
ENDROOT
TORSDOF 0
ENDMDL
