MODEL 1
REMARK minimizedAffinity 1.58438051
REMARK minimizedRMSD -1
REMARK  0 active torsions:
REMARK  status: ('A' for Active; 'I' for Inactive)
ROOT
ATOM      1  C   UNL d   1       0.891   0.820   2.618  0.00  0.00     0.124 A 
ATOM      2  C1  UNL d   1       1.133   0.510   1.286  0.00  0.00     0.062 A 
ATOM      3  C2  UNL d   1       0.098   0.055   0.474  0.00  0.00     0.162 A 
ATOM      4  C3  UNL d   1      -1.189  -0.093   0.991  0.00  0.00    -0.034 A 
ATOM      5  C4  UNL d   1      -1.424   0.219   2.331  0.00  0.00     0.162 A 
ATOM      6  C5  UNL d   1      -0.387   0.674   3.139  0.00  0.00     0.062 A 
ATOM      7  F   UNL d   1      -0.623   0.972   4.425  0.00  0.00    -0.097 F 
ATOM      8  F1  UNL d   1      -2.650   0.088   2.860  0.00  0.00    -0.096 F 
ATOM      9  I   UNL d   1      -2.739  -0.774  -0.220  0.00  0.00    -0.060 I 
ATOM     10  F2  UNL d   1       0.361  -0.237  -0.808  0.00  0.00    -0.096 F 
ATOM     11  F3  UNL d   1       2.367   0.649   0.781  0.00  0.00    -0.097 F 
ATOM     12  F4  UNL d   1       1.889   1.257   3.397  0.00  0.00    -0.092 F 
ENDROOT
TORSDOF 0
ENDMDL
