MODEL 1
REMARK minimizedAffinity 2.15428257
REMARK minimizedRMSD -1
REMARK  0 active torsions:
REMARK  status: ('A' for Active; 'I' for Inactive)
ROOT
ATOM      1  C   UNL d   1       1.129   1.907  -1.409  0.00  0.00     0.078 C 
ATOM      2  C1  UNL d   1       1.154   3.230  -0.704  0.00  0.00    -0.077 A 
ATOM      3  C2  UNL d   1       1.396   4.417  -1.406  0.00  0.00    -0.001 A 
ATOM      4  C3  UNL d   1       1.426   5.641  -0.735  0.00  0.00     0.003 A 
ATOM      5  C4  UNL d   1       1.216   5.689   0.641  0.00  0.00    -0.005 A 
ATOM      6  C5  UNL d   1       0.976   4.513   1.349  0.00  0.00     0.003 A 
ATOM      7  C6  UNL d   1       0.946   3.289   0.680  0.00  0.00    -0.001 A 
ENDROOT
TORSDOF 0
ENDMDL
