MODEL 1
REMARK minimizedAffinity 1.79063785
REMARK minimizedRMSD -1
REMARK  0 active torsions:
REMARK  status: ('A' for Active; 'I' for Inactive)
ROOT
ATOM      1  C   UNL d   1       2.606  -4.740  -1.906  0.00  0.00     0.078 C 
ATOM      2  C1  UNL d   1       2.316  -3.345  -1.438  0.00  0.00    -0.077 A 
ATOM      3  C2  UNL d   1       1.002  -2.867  -1.369  0.00  0.00    -0.001 A 
ATOM      4  C3  UNL d   1       0.747  -1.563  -0.941  0.00  0.00     0.003 A 
ATOM      5  C4  UNL d   1       1.801  -0.726  -0.580  0.00  0.00    -0.005 A 
ATOM      6  C5  UNL d   1       3.112  -1.193  -0.648  0.00  0.00     0.003 A 
ATOM      7  C6  UNL d   1       3.369  -2.496  -1.075  0.00  0.00    -0.001 A 
ENDROOT
TORSDOF 0
ENDMDL
