MODEL 1
REMARK minimizedAffinity 7.44933844
REMARK minimizedRMSD -1
REMARK  0 active torsions:
REMARK  status: ('A' for Active; 'I' for Inactive)
ROOT
ATOM      1  C   UNL d   1       3.793   0.399  -0.400  0.00  0.00     0.078 C 
ATOM      2  C1  UNL d   1       2.670  -0.576  -0.595  0.00  0.00    -0.077 A 
ATOM      3  C2  UNL d   1       2.914  -1.875  -1.057  0.00  0.00    -0.001 A 
ATOM      4  C3  UNL d   1       1.858  -2.768  -1.243  0.00  0.00     0.003 A 
ATOM      5  C4  UNL d   1       0.550  -2.372  -0.970  0.00  0.00    -0.005 A 
ATOM      6  C5  UNL d   1       0.297  -1.081  -0.512  0.00  0.00     0.003 A 
ATOM      7  C6  UNL d   1       1.352  -0.186  -0.325  0.00  0.00    -0.001 A 
ENDROOT
TORSDOF 0
ENDMDL
