MODEL 1
REMARK minimizedAffinity -1.2327621
REMARK minimizedRMSD -1
REMARK  0 active torsions:
REMARK  status: ('A' for Active; 'I' for Inactive)
ROOT
ATOM      1  C   UNL d   1       2.425   2.055  -1.008  0.00  0.00     0.078 C 
ATOM      2  C1  UNL d   1       1.564   1.029  -0.335  0.00  0.00    -0.077 A 
ATOM      3  C2  UNL d   1       0.903   1.316   0.866  0.00  0.00    -0.001 A 
ATOM      4  C3  UNL d   1       0.113   0.348   1.486  0.00  0.00     0.003 A 
ATOM      5  C4  UNL d   1      -0.024  -0.915   0.914  0.00  0.00    -0.005 A 
ATOM      6  C5  UNL d   1       0.631  -1.212  -0.279  0.00  0.00     0.003 A 
ATOM      7  C6  UNL d   1       1.422  -0.245  -0.901  0.00  0.00    -0.001 A 
ENDROOT
TORSDOF 0
ENDMDL
