MODEL 1
REMARK minimizedAffinity -3.71804118
REMARK minimizedRMSD -1
REMARK  0 active torsions:
REMARK  status: ('A' for Active; 'I' for Inactive)
ROOT
ATOM      1  C   UNL d   1      -0.155  -0.236   1.013  0.00  0.00     0.078 C 
ATOM      2  C1  UNL d   1       0.236  -0.089  -0.427  0.00  0.00    -0.077 A 
ATOM      3  C2  UNL d   1       1.003   1.000  -0.858  0.00  0.00    -0.001 A 
ATOM      4  C3  UNL d   1       1.352   1.130  -2.203  0.00  0.00     0.003 A 
ATOM      5  C4  UNL d   1       0.936   0.174  -3.129  0.00  0.00    -0.005 A 
ATOM      6  C5  UNL d   1       0.170  -0.911  -2.710  0.00  0.00     0.003 A 
ATOM      7  C6  UNL d   1      -0.179  -1.043  -1.365  0.00  0.00    -0.001 A 
ENDROOT
TORSDOF 0
ENDMDL
