MODEL 1
REMARK minimizedAffinity -2.78294277
REMARK minimizedRMSD -1
REMARK  0 active torsions:
REMARK  status: ('A' for Active; 'I' for Inactive)
ROOT
ATOM      1  C   UNL d   1       0.749   1.401   0.735  0.00  0.00     0.078 C 
ATOM      2  C1  UNL d   1       0.401   0.562  -0.458  0.00  0.00    -0.077 A 
ATOM      3  C2  UNL d   1       1.359   0.269  -1.437  0.00  0.00    -0.001 A 
ATOM      4  C3  UNL d   1       1.019  -0.506  -2.547  0.00  0.00     0.003 A 
ATOM      5  C4  UNL d   1      -0.279  -0.991  -2.690  0.00  0.00    -0.005 A 
ATOM      6  C5  UNL d   1      -1.239  -0.702  -1.723  0.00  0.00     0.003 A 
ATOM      7  C6  UNL d   1      -0.901   0.072  -0.612  0.00  0.00    -0.001 A 
ENDROOT
TORSDOF 0
ENDMDL
