MODEL 1
REMARK minimizedAffinity 2.43122625
REMARK minimizedRMSD -1
REMARK  0 active torsions:
REMARK  status: ('A' for Active; 'I' for Inactive)
ROOT
ATOM      1  C   UNL d   1      -5.719   1.717   2.870  0.00  0.00     0.078 C 
ATOM      2  C1  UNL d   1      -4.368   2.287   2.557  0.00  0.00    -0.077 A 
ATOM      3  C2  UNL d   1      -4.093   2.845   1.303  0.00  0.00    -0.001 A 
ATOM      4  C3  UNL d   1      -2.828   3.363   1.022  0.00  0.00     0.003 A 
ATOM      5  C4  UNL d   1      -1.827   3.327   1.990  0.00  0.00    -0.005 A 
ATOM      6  C5  UNL d   1      -2.090   2.772   3.241  0.00  0.00     0.003 A 
ATOM      7  C6  UNL d   1      -3.354   2.254   3.524  0.00  0.00    -0.001 A 
ENDROOT
TORSDOF 0
ENDMDL
