MODEL 1
REMARK minimizedAffinity -0.0196251571
REMARK minimizedRMSD -1
REMARK  0 active torsions:
REMARK  status: ('A' for Active; 'I' for Inactive)
ROOT
ATOM      1  C   UNL d   1      -4.528  -4.985  -6.000  0.00  0.00     0.078 C 
ATOM      2  C1  UNL d   1      -4.845  -3.658  -5.377  0.00  0.00    -0.077 A 
ATOM      3  C2  UNL d   1      -5.721  -2.760  -5.999  0.00  0.00    -0.001 A 
ATOM      4  C3  UNL d   1      -6.000  -1.524  -5.413  0.00  0.00     0.003 A 
ATOM      5  C4  UNL d   1      -5.406  -1.175  -4.202  0.00  0.00    -0.005 A 
ATOM      6  C5  UNL d   1      -4.532  -2.061  -3.576  0.00  0.00     0.003 A 
ATOM      7  C6  UNL d   1      -4.252  -3.297  -4.161  0.00  0.00    -0.001 A 
ENDROOT
TORSDOF 0
ENDMDL
