MODEL 1
REMARK minimizedAffinity 1.40291595
REMARK minimizedRMSD -1
REMARK  0 active torsions:
REMARK  status: ('A' for Active; 'I' for Inactive)
ROOT
ATOM      1  C   UNL d   1      -3.922  -1.558  -5.285  0.00  0.00     0.078 C 
ATOM      2  C1  UNL d   1      -3.813  -0.117  -4.882  0.00  0.00    -0.077 A 
ATOM      3  C2  UNL d   1      -2.946   0.281  -3.857  0.00  0.00    -0.001 A 
ATOM      4  C3  UNL d   1      -2.862   1.624  -3.486  0.00  0.00     0.003 A 
ATOM      5  C4  UNL d   1      -3.643   2.579  -4.134  0.00  0.00    -0.005 A 
ATOM      6  C5  UNL d   1      -4.510   2.192  -5.154  0.00  0.00     0.003 A 
ATOM      7  C6  UNL d   1      -4.595   0.849  -5.526  0.00  0.00    -0.001 A 
ENDROOT
TORSDOF 0
ENDMDL
