MODEL 1
REMARK minimizedAffinity 8.82152939
REMARK minimizedRMSD -1
REMARK  0 active torsions:
REMARK  status: ('A' for Active; 'I' for Inactive)
ROOT
ATOM      1  C   UNL d   1       1.842  -4.147  -1.125  0.00  0.00     0.078 C 
ATOM      2  C1  UNL d   1       1.405  -2.715  -1.218  0.00  0.00    -0.077 A 
ATOM      3  C2  UNL d   1       0.637  -2.264  -2.299  0.00  0.00    -0.001 A 
ATOM      4  C3  UNL d   1       0.246  -0.927  -2.378  0.00  0.00     0.003 A 
ATOM      5  C4  UNL d   1       0.618  -0.029  -1.379  0.00  0.00    -0.005 A 
ATOM      6  C5  UNL d   1       1.383  -0.468  -0.300  0.00  0.00     0.003 A 
ATOM      7  C6  UNL d   1       1.775  -1.805  -0.220  0.00  0.00    -0.001 A 
ENDROOT
TORSDOF 0
ENDMDL
