MODEL 1
REMARK minimizedAffinity 7.35945559
REMARK minimizedRMSD -1
REMARK  0 active torsions:
REMARK  status: ('A' for Active; 'I' for Inactive)
ROOT
ATOM      1  C   UNL d   1      -0.160  -5.021  -3.990  0.00  0.00     0.078 C 
ATOM      2  C1  UNL d   1       0.726  -4.564  -2.870  0.00  0.00    -0.077 A 
ATOM      3  C2  UNL d   1       0.399  -3.437  -2.105  0.00  0.00    -0.001 A 
ATOM      4  C3  UNL d   1       1.238  -3.018  -1.072  0.00  0.00     0.003 A 
ATOM      5  C4  UNL d   1       2.410  -3.718  -0.794  0.00  0.00    -0.005 A 
ATOM      6  C5  UNL d   1       2.746  -4.839  -1.551  0.00  0.00     0.003 A 
ATOM      7  C6  UNL d   1       1.908  -5.260  -2.585  0.00  0.00    -0.001 A 
ENDROOT
TORSDOF 0
ENDMDL
