MODEL 1
REMARK minimizedAffinity 4.44574165
REMARK minimizedRMSD -1
REMARK  0 active torsions:
REMARK  status: ('A' for Active; 'I' for Inactive)
ROOT
ATOM      1  C   UNL d   1      -4.126   2.225   2.429  0.00  0.00     0.078 C 
ATOM      2  C1  UNL d   1      -3.259   1.890   3.605  0.00  0.00    -0.077 A 
ATOM      3  C2  UNL d   1      -1.911   1.551   3.435  0.00  0.00    -0.001 A 
ATOM      4  C3  UNL d   1      -1.119   1.232   4.539  0.00  0.00     0.003 A 
ATOM      5  C4  UNL d   1      -1.665   1.248   5.821  0.00  0.00    -0.005 A 
ATOM      6  C5  UNL d   1      -3.006   1.581   6.000  0.00  0.00     0.003 A 
ATOM      7  C6  UNL d   1      -3.800   1.901   4.897  0.00  0.00    -0.001 A 
ENDROOT
TORSDOF 0
ENDMDL
