MODEL 1
REMARK minimizedAffinity 13.2035074
REMARK minimizedRMSD -1
REMARK  0 active torsions:
REMARK  status: ('A' for Active; 'I' for Inactive)
ROOT
ATOM      1  C   UNL d   1      -3.373   2.249  -5.998  0.00  0.00     0.078 C 
ATOM      2  C1  UNL d   1      -3.301   0.896  -5.357  0.00  0.00    -0.077 A 
ATOM      3  C2  UNL d   1      -3.821  -0.235  -5.999  0.00  0.00    -0.001 A 
ATOM      4  C3  UNL d   1      -3.755  -1.487  -5.387  0.00  0.00     0.003 A 
ATOM      5  C4  UNL d   1      -3.172  -1.621  -4.128  0.00  0.00    -0.005 A 
ATOM      6  C5  UNL d   1      -2.654  -0.501  -3.481  0.00  0.00     0.003 A 
ATOM      7  C6  UNL d   1      -2.718   0.752  -4.092  0.00  0.00    -0.001 A 
ENDROOT
TORSDOF 0
ENDMDL
