MODEL 1
REMARK minimizedAffinity -0.835897386
REMARK minimizedRMSD -1
REMARK  0 active torsions:
REMARK  status: ('A' for Active; 'I' for Inactive)
ROOT
ATOM      1  C   UNL d   1       1.535   1.779  -1.119  0.00  0.00     0.078 C 
ATOM      2  C1  UNL d   1       1.262   0.305  -1.141  0.00  0.00    -0.077 A 
ATOM      3  C2  UNL d   1       0.571  -0.285  -2.206  0.00  0.00    -0.001 A 
ATOM      4  C3  UNL d   1       0.316  -1.658  -2.209  0.00  0.00     0.003 A 
ATOM      5  C4  UNL d   1       0.747  -2.451  -1.148  0.00  0.00    -0.005 A 
ATOM      6  C5  UNL d   1       1.434  -1.873  -0.082  0.00  0.00     0.003 A 
ATOM      7  C6  UNL d   1       1.690  -0.501  -0.078  0.00  0.00    -0.001 A 
ENDROOT
TORSDOF 0
ENDMDL
