MODEL 1
REMARK minimizedAffinity 20.6193008
REMARK minimizedRMSD -1
REMARK  0 active torsions:
REMARK  status: ('A' for Active; 'I' for Inactive)
ROOT
ATOM      1  C   UNL d   1       3.812  -0.900   1.379  0.00  0.00     0.124 A 
ATOM      2  C1  UNL d   1       3.038  -2.052   1.351  0.00  0.00     0.062 A 
ATOM      3  C2  UNL d   1       2.075  -2.225   0.361  0.00  0.00     0.162 A 
ATOM      4  C3  UNL d   1       1.881  -1.243  -0.611  0.00  0.00    -0.034 A 
ATOM      5  C4  UNL d   1       2.662  -0.087  -0.576  0.00  0.00     0.162 A 
ATOM      6  C5  UNL d   1       3.623   0.081   0.416  0.00  0.00     0.062 A 
ATOM      7  F   UNL d   1       4.370   1.195   0.441  0.00  0.00    -0.097 F 
ATOM      8  F1  UNL d   1       2.502   0.877  -1.495  0.00  0.00    -0.096 F 
ATOM      9  I   UNL d   1       0.442  -1.497  -2.093  0.00  0.00    -0.060 I 
ATOM     10  F2  UNL d   1       1.342  -3.348   0.358  0.00  0.00    -0.096 F 
ATOM     11  F3  UNL d   1       3.217  -3.001   2.281  0.00  0.00    -0.097 F 
ATOM     12  F4  UNL d   1       4.737  -0.736   2.333  0.00  0.00    -0.092 F 
ENDROOT
TORSDOF 0
ENDMDL
