MODEL 1
REMARK minimizedAffinity 27.4310722
REMARK minimizedRMSD -1
REMARK  0 active torsions:
REMARK  status: ('A' for Active; 'I' for Inactive)
ROOT
ATOM      1  C   UNL d   1       2.932   0.903   0.079  0.00  0.00     0.124 A 
ATOM      2  C1  UNL d   1       2.453  -0.351   0.432  0.00  0.00     0.062 A 
ATOM      3  C2  UNL d   1       2.344  -1.354  -0.527  0.00  0.00     0.162 A 
ATOM      4  C3  UNL d   1       2.715  -1.108  -1.849  0.00  0.00    -0.034 A 
ATOM      5  C4  UNL d   1       3.195   0.156  -2.196  0.00  0.00     0.162 A 
ATOM      6  C5  UNL d   1       3.302   1.155  -1.234  0.00  0.00     0.062 A 
ATOM      7  F   UNL d   1       3.765   2.366  -1.577  0.00  0.00    -0.097 F 
ATOM      8  F1  UNL d   1       3.561   0.427  -3.458  0.00  0.00    -0.096 F 
ATOM      9  I   UNL d   1       2.554  -2.605  -3.285  0.00  0.00    -0.060 I 
ATOM     10  F2  UNL d   1       1.878  -2.557  -0.158  0.00  0.00    -0.096 F 
ATOM     11  F3  UNL d   1       2.093  -0.598   1.700  0.00  0.00    -0.097 F 
ATOM     12  F4  UNL d   1       3.034   1.866   1.003  0.00  0.00    -0.092 F 
ENDROOT
TORSDOF 0
ENDMDL
