MODEL 1
REMARK minimizedAffinity 16.4360619
REMARK minimizedRMSD -1
REMARK  0 active torsions:
REMARK  status: ('A' for Active; 'I' for Inactive)
ROOT
ATOM      1  C   UNL d   1       4.541   0.352   1.253  0.00  0.00     0.124 A 
ATOM      2  C1  UNL d   1       4.205   1.406   0.414  0.00  0.00     0.062 A 
ATOM      3  C2  UNL d   1       3.198   1.251  -0.535  0.00  0.00     0.162 A 
ATOM      4  C3  UNL d   1       2.520   0.038  -0.650  0.00  0.00    -0.034 A 
ATOM      5  C4  UNL d   1       2.864  -1.017   0.197  0.00  0.00     0.162 A 
ATOM      6  C5  UNL d   1       3.870  -0.858   1.143  0.00  0.00     0.062 A 
ATOM      7  F   UNL d   1       4.194  -1.877   1.953  0.00  0.00    -0.097 F 
ATOM      8  F1  UNL d   1       2.232  -2.197   0.113  0.00  0.00    -0.096 F 
ATOM      9  I   UNL d   1       1.014  -0.197  -2.068  0.00  0.00    -0.060 I 
ATOM     10  F2  UNL d   1       2.895   2.286  -1.332  0.00  0.00    -0.096 F 
ATOM     11  F3  UNL d   1       4.852   2.576   0.517  0.00  0.00    -0.097 F 
ATOM     12  F4  UNL d   1       5.510   0.504   2.164  0.00  0.00    -0.092 F 
ENDROOT
TORSDOF 0
ENDMDL
