MODEL 1
REMARK minimizedAffinity 9.77953148
REMARK minimizedRMSD -1
REMARK  0 active torsions:
REMARK  status: ('A' for Active; 'I' for Inactive)
ROOT
ATOM      1  C   UNL d   1      -4.439   1.811  -0.183  0.00  0.00     0.124 A 
ATOM      2  C1  UNL d   1      -5.074   2.651  -1.087  0.00  0.00     0.062 A 
ATOM      3  C2  UNL d   1      -5.386   2.197  -2.365  0.00  0.00     0.162 A 
ATOM      4  C3  UNL d   1      -5.063   0.895  -2.748  0.00  0.00    -0.034 A 
ATOM      5  C4  UNL d   1      -4.423   0.056  -1.834  0.00  0.00     0.162 A 
ATOM      6  C5  UNL d   1      -4.114   0.515  -0.557  0.00  0.00     0.062 A 
ATOM      7  F   UNL d   1      -3.499  -0.299   0.314  0.00  0.00    -0.097 F 
ATOM      8  F1  UNL d   1      -4.098  -1.201  -2.169  0.00  0.00    -0.096 F 
ATOM      9  I   UNL d   1      -5.527   0.213  -4.658  0.00  0.00    -0.060 I 
ATOM     10  F2  UNL d   1      -6.000   3.031  -3.217  0.00  0.00    -0.096 F 
ATOM     11  F3  UNL d   1      -5.388   3.904  -0.728  0.00  0.00    -0.097 F 
ATOM     12  F4  UNL d   1      -4.139   2.250   1.046  0.00  0.00    -0.092 F 
ENDROOT
TORSDOF 0
ENDMDL
