MODEL 1
REMARK minimizedAffinity 22.0119476
REMARK minimizedRMSD -1
REMARK  0 active torsions:
REMARK  status: ('A' for Active; 'I' for Inactive)
ROOT
ATOM      1  C   UNL d   1       2.501  -0.392   0.982  0.00  0.00     0.124 A 
ATOM      2  C1  UNL d   1       3.880  -0.552   0.983  0.00  0.00     0.062 A 
ATOM      3  C2  UNL d   1       4.670   0.182   0.103  0.00  0.00     0.162 A 
ATOM      4  C3  UNL d   1       4.084   1.083  -0.786  0.00  0.00    -0.034 A 
ATOM      5  C4  UNL d   1       2.696   1.238  -0.782  0.00  0.00     0.162 A 
ATOM      6  C5  UNL d   1       1.911   0.502   0.100  0.00  0.00     0.062 A 
ATOM      7  F   UNL d   1       0.579   0.658   0.097  0.00  0.00    -0.097 F 
ATOM      8  F1  UNL d   1       2.100   2.095  -1.623  0.00  0.00    -0.096 F 
ATOM      9  I   UNL d   1       5.262   2.182  -2.103  0.00  0.00    -0.060 I 
ATOM     10  F2  UNL d   1       6.000   0.007   0.126  0.00  0.00    -0.096 F 
ATOM     11  F3  UNL d   1       4.452  -1.416   1.834  0.00  0.00    -0.097 F 
ATOM     12  F4  UNL d   1       1.743  -1.100   1.829  0.00  0.00    -0.092 F 
ENDROOT
TORSDOF 0
ENDMDL
