MODEL 1
REMARK minimizedAffinity 16.1795998
REMARK minimizedRMSD -1
REMARK  0 active torsions:
REMARK  status: ('A' for Active; 'I' for Inactive)
ROOT
ATOM      1  C   UNL d   1       4.091   2.276  -1.735  0.00  0.00     0.124 A 
ATOM      2  C1  UNL d   1       3.380   1.168  -2.174  0.00  0.00     0.062 A 
ATOM      3  C2  UNL d   1       2.975   0.192  -1.268  0.00  0.00     0.162 A 
ATOM      4  C3  UNL d   1       3.278   0.321   0.087  0.00  0.00    -0.034 A 
ATOM      5  C4  UNL d   1       3.995   1.437   0.521  0.00  0.00     0.162 A 
ATOM      6  C5  UNL d   1       4.397   2.410  -0.388  0.00  0.00     0.062 A 
ATOM      7  F   UNL d   1       5.084   3.480   0.039  0.00  0.00    -0.097 F 
ATOM      8  F1  UNL d   1       4.303   1.592   1.818  0.00  0.00    -0.096 F 
ATOM      9  I   UNL d   1       2.674  -1.136   1.445  0.00  0.00    -0.060 I 
ATOM     10  F2  UNL d   1       2.289  -0.868  -1.721  0.00  0.00    -0.096 F 
ATOM     11  F3  UNL d   1       3.084   1.036  -3.475  0.00  0.00    -0.097 F 
ATOM     12  F4  UNL d   1       4.481   3.213  -2.609  0.00  0.00    -0.092 F 
ENDROOT
TORSDOF 0
ENDMDL
