MODEL 1
REMARK minimizedAffinity 16.0405998
REMARK minimizedRMSD -1
REMARK  0 active torsions:
REMARK  status: ('A' for Active; 'I' for Inactive)
ROOT
ATOM      1  C   UNL d   1       4.193   0.390   0.603  0.00  0.00     0.124 A 
ATOM      2  C1  UNL d   1       4.206   1.056  -0.615  0.00  0.00     0.062 A 
ATOM      3  C2  UNL d   1       3.564   0.506  -1.720  0.00  0.00     0.162 A 
ATOM      4  C3  UNL d   1       2.902  -0.717  -1.613  0.00  0.00    -0.034 A 
ATOM      5  C4  UNL d   1       2.894  -1.382  -0.386  0.00  0.00     0.162 A 
ATOM      6  C5  UNL d   1       3.537  -0.828   0.716  0.00  0.00     0.062 A 
ATOM      7  F   UNL d   1       3.523  -1.473   1.892  0.00  0.00    -0.097 F 
ATOM      8  F1  UNL d   1       2.267  -2.559  -0.247  0.00  0.00    -0.096 F 
ATOM      9  I   UNL d   1       1.940  -1.543  -3.264  0.00  0.00    -0.060 I 
ATOM     10  F2  UNL d   1       3.592   1.171  -2.885  0.00  0.00    -0.096 F 
ATOM     11  F3  UNL d   1       4.840   2.232  -0.727  0.00  0.00    -0.097 F 
ATOM     12  F4  UNL d   1       4.812   0.921   1.665  0.00  0.00    -0.092 F 
ENDROOT
TORSDOF 0
ENDMDL
