MODEL 1
REMARK minimizedAffinity 25.7520218
REMARK minimizedRMSD -1
REMARK  0 active torsions:
REMARK  status: ('A' for Active; 'I' for Inactive)
ROOT
ATOM      1  C   UNL d   1      -5.315   1.105  -1.977  0.00  0.00     0.124 A 
ATOM      2  C1  UNL d   1      -4.607   0.573  -0.909  0.00  0.00     0.062 A 
ATOM      3  C2  UNL d   1      -3.895   1.410  -0.055  0.00  0.00     0.162 A 
ATOM      4  C3  UNL d   1      -3.887   2.789  -0.266  0.00  0.00    -0.034 A 
ATOM      5  C4  UNL d   1      -4.601   3.316  -1.343  0.00  0.00     0.162 A 
ATOM      6  C5  UNL d   1      -5.311   2.476  -2.194  0.00  0.00     0.062 A 
ATOM      7  F   UNL d   1      -5.995   2.992  -3.226  0.00  0.00    -0.097 F 
ATOM      8  F1  UNL d   1      -4.615   4.637  -1.575  0.00  0.00    -0.096 F 
ATOM      9  I   UNL d   1      -2.823   4.043   1.009  0.00  0.00    -0.060 I 
ATOM     10  F2  UNL d   1      -3.220   0.868   0.970  0.00  0.00    -0.096 F 
ATOM     11  F3  UNL d   1      -4.609  -0.751  -0.698  0.00  0.00    -0.097 F 
ATOM     12  F4  UNL d   1      -5.999   0.297  -2.798  0.00  0.00    -0.092 F 
ENDROOT
TORSDOF 0
ENDMDL
