MODEL 1
REMARK minimizedAffinity 31.3230839
REMARK minimizedRMSD -1
REMARK  0 active torsions:
REMARK  status: ('A' for Active; 'I' for Inactive)
ROOT
ATOM      1  C   UNL d   1       2.206   4.513   3.722  0.00  0.00     0.124 A 
ATOM      2  C1  UNL d   1       1.998   3.382   4.499  0.00  0.00     0.062 A 
ATOM      3  C2  UNL d   1       3.080   2.615   4.922  0.00  0.00     0.162 A 
ATOM      4  C3  UNL d   1       4.380   2.977   4.571  0.00  0.00    -0.034 A 
ATOM      5  C4  UNL d   1       4.581   4.116   3.788  0.00  0.00     0.162 A 
ATOM      6  C5  UNL d   1       3.497   4.879   3.367  0.00  0.00     0.062 A 
ATOM      7  F   UNL d   1       3.700   5.972   2.617  0.00  0.00    -0.097 F 
ATOM      8  F1  UNL d   1       5.818   4.493   3.432  0.00  0.00    -0.096 F 
ATOM      9  I   UNL d   1       6.000   1.834   5.202  0.00  0.00    -0.060 I 
ATOM     10  F2  UNL d   1       2.849   1.527   5.672  0.00  0.00    -0.096 F 
ATOM     11  F3  UNL d   1       0.752   3.026   4.842  0.00  0.00    -0.097 F 
ATOM     12  F4  UNL d   1       1.163   5.249   3.315  0.00  0.00    -0.092 F 
ENDROOT
TORSDOF 0
ENDMDL
