MODEL 1
REMARK minimizedAffinity 15.3377523
REMARK minimizedRMSD -1
REMARK  0 active torsions:
REMARK  status: ('A' for Active; 'I' for Inactive)
ROOT
ATOM      1  C   UNL d   1      -5.130   2.606   0.885  0.00  0.00     0.124 A 
ATOM      2  C1  UNL d   1      -5.061   1.834   2.037  0.00  0.00     0.062 A 
ATOM      3  C2  UNL d   1      -5.309   2.409   3.280  0.00  0.00     0.162 A 
ATOM      4  C3  UNL d   1      -5.629   3.763   3.379  0.00  0.00    -0.034 A 
ATOM      5  C4  UNL d   1      -5.695   4.533   2.216  0.00  0.00     0.162 A 
ATOM      6  C5  UNL d   1      -5.447   3.954   0.976  0.00  0.00     0.062 A 
ATOM      7  F   UNL d   1      -5.514   4.701  -0.136  0.00  0.00    -0.097 F 
ATOM      8  F1  UNL d   1      -6.000   5.838   2.275  0.00  0.00    -0.096 F 
ATOM      9  I   UNL d   1      -5.999   4.626   5.236  0.00  0.00    -0.060 I 
ATOM     10  F2  UNL d   1      -5.235   1.639   4.377  0.00  0.00    -0.096 F 
ATOM     11  F3  UNL d   1      -4.754   0.532   1.952  0.00  0.00    -0.097 F 
ATOM     12  F4  UNL d   1      -4.890   2.051  -0.310  0.00  0.00    -0.092 F 
ENDROOT
TORSDOF 0
ENDMDL
