MODEL 1
REMARK minimizedAffinity 25.3825321
REMARK minimizedRMSD -1
REMARK  0 active torsions:
REMARK  status: ('A' for Active; 'I' for Inactive)
ROOT
ATOM      1  C   UNL d   1      -5.257   4.449  -2.829  0.00  0.00     0.124 A 
ATOM      2  C1  UNL d   1      -4.878   4.317  -1.500  0.00  0.00     0.062 A 
ATOM      3  C2  UNL d   1      -4.875   3.063  -0.895  0.00  0.00     0.162 A 
ATOM      4  C3  UNL d   1      -5.251   1.931  -1.618  0.00  0.00    -0.034 A 
ATOM      5  C4  UNL d   1      -5.631   2.073  -2.954  0.00  0.00     0.162 A 
ATOM      6  C5  UNL d   1      -5.633   3.328  -3.554  0.00  0.00     0.062 A 
ATOM      7  F   UNL d   1      -5.999   3.454  -4.838  0.00  0.00    -0.097 F 
ATOM      8  F1  UNL d   1      -5.998   1.005  -3.678  0.00  0.00    -0.096 F 
ATOM      9  I   UNL d   1      -5.247   0.055  -0.717  0.00  0.00    -0.060 I 
ATOM     10  F2  UNL d   1      -4.504   2.965   0.391  0.00  0.00    -0.096 F 
ATOM     11  F3  UNL d   1      -4.516   5.399  -0.796  0.00  0.00    -0.097 F 
ATOM     12  F4  UNL d   1      -5.261   5.656  -3.408  0.00  0.00    -0.092 F 
ENDROOT
TORSDOF 0
ENDMDL
