MODEL 1
REMARK minimizedAffinity -4.85193825
REMARK minimizedRMSD -1
REMARK  0 active torsions:
REMARK  status: ('A' for Active; 'I' for Inactive)
ROOT
ATOM      1  C2' OXE d   1       2.752  -1.130   0.333  0.00  0.00     0.078 C 
ATOM      2  C1' OXE d   1       2.049  -1.061   3.050  0.00  0.00     0.078 C 
ATOM      3  C1  OXE d   1       0.967  -0.785   2.036  0.00  0.00    -0.078 A 
ATOM      4  C2  OXE d   1       1.330  -0.775   0.711  0.00  0.00    -0.078 A 
ATOM      5  C3  OXE d   1       0.360  -0.580  -0.268  0.00  0.00     0.003 A 
ATOM      6  C4  OXE d   1      -0.951  -0.243   0.090  0.00  0.00    -0.002 A 
ATOM      7  C5  OXE d   1      -1.333  -0.209   1.435  0.00  0.00    -0.002 A 
ATOM      8  C6  OXE d   1      -0.399  -0.519   2.417  0.00  0.00     0.003 A 
ENDROOT
TORSDOF 0
ENDMDL
