MODEL 1
REMARK minimizedAffinity -4.09376001
REMARK minimizedRMSD -1
REMARK  0 active torsions:
REMARK  status: ('A' for Active; 'I' for Inactive)
ROOT
ATOM      1  C2' OXE d   1      -0.370   2.692   1.606  0.00  0.00     0.078 C 
ATOM      2  C1' OXE d   1      -0.804  -0.050   1.193  0.00  0.00     0.078 C 
ATOM      3  C1  OXE d   1      -0.635   0.826  -0.023  0.00  0.00    -0.078 A 
ATOM      4  C2  OXE d   1      -0.470   2.174   0.187  0.00  0.00    -0.078 A 
ATOM      5  C3  OXE d   1      -0.254   3.019  -0.897  0.00  0.00     0.003 A 
ATOM      6  C4  OXE d   1      -0.357   2.533  -2.206  0.00  0.00    -0.002 A 
ATOM      7  C5  OXE d   1      -0.565   1.170  -2.443  0.00  0.00    -0.002 A 
ATOM      8  C6  OXE d   1      -0.663   0.298  -1.364  0.00  0.00     0.003 A 
ENDROOT
TORSDOF 0
ENDMDL
