MODEL 1
REMARK minimizedAffinity -2.43135548
REMARK minimizedRMSD -1
REMARK  0 active torsions:
REMARK  status: ('A' for Active; 'I' for Inactive)
ROOT
ATOM      1  C2' OXE d   1      -0.824  -0.009   2.258  0.00  0.00     0.078 C 
ATOM      2  C1' OXE d   1      -0.156   0.295  -0.452  0.00  0.00     0.078 C 
ATOM      3  C1  OXE d   1       0.595  -0.741   0.346  0.00  0.00    -0.078 A 
ATOM      4  C2  OXE d   1       0.294  -0.851   1.682  0.00  0.00    -0.078 A 
ATOM      5  C3  OXE d   1       0.919  -1.828   2.452  0.00  0.00     0.003 A 
ATOM      6  C4  OXE d   1       1.960  -2.595   1.914  0.00  0.00    -0.002 A 
ATOM      7  C5  OXE d   1       2.310  -2.472   0.566  0.00  0.00    -0.002 A 
ATOM      8  C6  OXE d   1       1.610  -1.581  -0.241  0.00  0.00     0.003 A 
ENDROOT
TORSDOF 0
ENDMDL
