MODEL 1
REMARK minimizedAffinity -2.10506845
REMARK minimizedRMSD -1
REMARK  0 active torsions:
REMARK  status: ('A' for Active; 'I' for Inactive)
ROOT
ATOM      1  C2' OXE d   1      -0.479   3.212  -1.819  0.00  0.00     0.078 C 
ATOM      2  C1' OXE d   1       2.306   2.887  -1.687  0.00  0.00     0.078 C 
ATOM      3  C1  OXE d   1       1.442   1.704  -1.328  0.00  0.00    -0.078 A 
ATOM      4  C2  OXE d   1       0.080   1.886  -1.350  0.00  0.00    -0.078 A 
ATOM      5  C3  OXE d   1      -0.764   0.812  -1.081  0.00  0.00     0.003 A 
ATOM      6  C4  OXE d   1      -0.239  -0.409  -0.639  0.00  0.00    -0.002 A 
ATOM      7  C5  OXE d   1       1.145  -0.603  -0.571  0.00  0.00    -0.002 A 
ATOM      8  C6  OXE d   1       1.998   0.427  -0.952  0.00  0.00     0.003 A 
ENDROOT
TORSDOF 0
ENDMDL
