MODEL 1
REMARK minimizedAffinity -3.53259206
REMARK minimizedRMSD -1
REMARK  0 active torsions:
REMARK  status: ('A' for Active; 'I' for Inactive)
ROOT
ATOM      1  C2' OXE d   1       1.646  -1.125   2.872  0.00  0.00     0.078 C 
ATOM      2  C1' OXE d   1       2.709  -1.357   0.284  0.00  0.00     0.078 C 
ATOM      3  C1  OXE d   1       1.307  -0.818   0.423  0.00  0.00    -0.078 A 
ATOM      4  C2  OXE d   1       0.778  -0.752   1.689  0.00  0.00    -0.078 A 
ATOM      5  C3  OXE d   1      -0.491  -0.211   1.879  0.00  0.00     0.003 A 
ATOM      6  C4  OXE d   1      -1.291   0.122   0.779  0.00  0.00    -0.002 A 
ATOM      7  C5  OXE d   1      -0.786   0.025  -0.522  0.00  0.00    -0.002 A 
ATOM      8  C6  OXE d   1       0.524  -0.402  -0.714  0.00  0.00     0.003 A 
ENDROOT
TORSDOF 0
ENDMDL
