MODEL 1
REMARK minimizedAffinity -0.0729217455
REMARK minimizedRMSD -1
REMARK  0 active torsions:
REMARK  status: ('A' for Active; 'I' for Inactive)
ROOT
ATOM      1  C2' OXE d   1       2.329  -0.608   3.296  0.00  0.00     0.078 C 
ATOM      2  C1' OXE d   1       2.587  -1.044   0.535  0.00  0.00     0.078 C 
ATOM      3  C1  OXE d   1       1.195  -0.897   1.096  0.00  0.00    -0.078 A 
ATOM      4  C2  OXE d   1       1.076  -0.731   2.455  0.00  0.00    -0.078 A 
ATOM      5  C3  OXE d   1      -0.182  -0.535   3.018  0.00  0.00     0.003 A 
ATOM      6  C4  OXE d   1      -1.336  -0.660   2.236  0.00  0.00    -0.002 A 
ATOM      7  C5  OXE d   1      -1.239  -0.869   0.856  0.00  0.00    -0.002 A 
ATOM      8  C6  OXE d   1       0.018  -0.947   0.265  0.00  0.00     0.003 A 
ENDROOT
TORSDOF 0
ENDMDL
