MODEL 1
REMARK minimizedAffinity 6.32442474
REMARK minimizedRMSD -1
REMARK  0 active torsions:
REMARK  status: ('A' for Active; 'I' for Inactive)
ROOT
ATOM      1  C2' OXE d   1      -1.458  -3.739   3.666  0.00  0.00     0.078 C 
ATOM      2  C1' OXE d   1       0.681  -4.572   2.051  0.00  0.00     0.078 C 
ATOM      3  C1  OXE d   1       0.567  -3.101   2.363  0.00  0.00    -0.078 A 
ATOM      4  C2  OXE d   1      -0.509  -2.696   3.115  0.00  0.00    -0.078 A 
ATOM      5  C3  OXE d   1      -0.633  -1.358   3.478  0.00  0.00     0.003 A 
ATOM      6  C4  OXE d   1       0.243  -0.399   2.956  0.00  0.00    -0.002 A 
ATOM      7  C5  OXE d   1       1.323  -0.784   2.155  0.00  0.00    -0.002 A 
ATOM      8  C6  OXE d   1       1.523  -2.134   1.884  0.00  0.00     0.003 A 
ENDROOT
TORSDOF 0
ENDMDL
