MODEL 1
REMARK minimizedAffinity 19.8479252
REMARK minimizedRMSD -1
REMARK  0 active torsions:
REMARK  status: ('A' for Active; 'I' for Inactive)
ROOT
ATOM      1  C   UNL d   1      -0.394  -1.481   3.528  0.00  0.00     0.124 A 
ATOM      2  C1  UNL d   1      -0.359  -0.099   3.400  0.00  0.00     0.062 A 
ATOM      3  C2  UNL d   1      -1.492   0.594   2.985  0.00  0.00     0.162 A 
ATOM      4  C3  UNL d   1      -2.671  -0.093   2.693  0.00  0.00    -0.034 A 
ATOM      5  C4  UNL d   1      -2.697  -1.483   2.823  0.00  0.00     0.162 A 
ATOM      6  C5  UNL d   1      -1.562  -2.171   3.239  0.00  0.00     0.062 A 
ATOM      7  F   UNL d   1      -1.597  -3.506   3.361  0.00  0.00    -0.097 F 
ATOM      8  F1  UNL d   1      -3.814  -2.176   2.551  0.00  0.00    -0.096 F 
ATOM      9  I   UNL d   1      -4.367   0.939   2.071  0.00  0.00    -0.060 I 
ATOM     10  F2  UNL d   1      -1.431   1.929   2.870  0.00  0.00    -0.096 F 
ATOM     11  F3  UNL d   1       0.769   0.571   3.678  0.00  0.00    -0.097 F 
ATOM     12  F4  UNL d   1       0.698  -2.145   3.927  0.00  0.00    -0.092 F 
ENDROOT
TORSDOF 0
ENDMDL
