MODEL 1
REMARK minimizedAffinity 21.3379002
REMARK minimizedRMSD -1
REMARK  0 active torsions:
REMARK  status: ('A' for Active; 'I' for Inactive)
ROOT
ATOM      1  C   UNL d   1       0.051  -2.467   2.436  0.00  0.00     0.124 A 
ATOM      2  C1  UNL d   1      -0.245  -3.818   2.319  0.00  0.00     0.062 A 
ATOM      3  C2  UNL d   1       0.698  -4.699   1.796  0.00  0.00     0.162 A 
ATOM      4  C3  UNL d   1       1.947  -4.231   1.387  0.00  0.00    -0.034 A 
ATOM      5  C4  UNL d   1       2.237  -2.871   1.507  0.00  0.00     0.162 A 
ATOM      6  C5  UNL d   1       1.292  -1.995   2.030  0.00  0.00     0.062 A 
ATOM      7  F   UNL d   1       1.580  -0.690   2.142  0.00  0.00    -0.097 F 
ATOM      8  F1  UNL d   1       3.428  -2.388   1.123  0.00  0.00    -0.096 F 
ATOM      9  I   UNL d   1       3.359  -5.545   0.605  0.00  0.00    -0.060 I 
ATOM     10  F2  UNL d   1       0.385  -5.999   1.695  0.00  0.00    -0.096 F 
ATOM     11  F3  UNL d   1      -1.443  -4.277   2.710  0.00  0.00    -0.097 F 
ATOM     12  F4  UNL d   1      -0.858  -1.622   2.938  0.00  0.00    -0.092 F 
ENDROOT
TORSDOF 0
ENDMDL
