MODEL 1
REMARK minimizedAffinity 14.0213423
REMARK minimizedRMSD -1
REMARK  0 active torsions:
REMARK  status: ('A' for Active; 'I' for Inactive)
ROOT
ATOM      1  C   UNL d   1       2.427   2.638   2.943  0.00  0.00     0.124 A 
ATOM      2  C1  UNL d   1       2.111   1.577   2.105  0.00  0.00     0.062 A 
ATOM      3  C2  UNL d   1       3.103   0.963   1.347  0.00  0.00     0.162 A 
ATOM      4  C3  UNL d   1       4.423   1.407   1.424  0.00  0.00    -0.034 A 
ATOM      5  C4  UNL d   1       4.734   2.475   2.268  0.00  0.00     0.162 A 
ATOM      6  C5  UNL d   1       3.738   3.085   3.023  0.00  0.00     0.062 A 
ATOM      7  F   UNL d   1       4.046   4.110   3.832  0.00  0.00    -0.097 F 
ATOM      8  F1  UNL d   1       5.993   2.927   2.366  0.00  0.00    -0.096 F 
ATOM      9  I   UNL d   1       5.911   0.491   0.293  0.00  0.00    -0.060 I 
ATOM     10  F2  UNL d   1       2.769  -0.060   0.547  0.00  0.00    -0.096 F 
ATOM     11  F3  UNL d   1       0.844   1.143   2.025  0.00  0.00    -0.097 F 
ATOM     12  F4  UNL d   1       1.470   3.228   3.670  0.00  0.00    -0.092 F 
ENDROOT
TORSDOF 0
ENDMDL
