MODEL 1
REMARK minimizedAffinity 15.1160078
REMARK minimizedRMSD -1
REMARK  0 active torsions:
REMARK  status: ('A' for Active; 'I' for Inactive)
ROOT
ATOM      1  C   UNL d   1       1.848  -2.884   2.584  0.00  0.00     0.124 A 
ATOM      2  C1  UNL d   1       2.036  -2.300   3.829  0.00  0.00     0.062 A 
ATOM      3  C2  UNL d   1       2.778  -2.958   4.806  0.00  0.00     0.162 A 
ATOM      4  C3  UNL d   1       3.339  -4.207   4.541  0.00  0.00    -0.034 A 
ATOM      5  C4  UNL d   1       3.145  -4.789   3.287  0.00  0.00     0.162 A 
ATOM      6  C5  UNL d   1       2.402  -4.127   2.314  0.00  0.00     0.062 A 
ATOM      7  F   UNL d   1       2.222  -4.693   1.112  0.00  0.00    -0.097 F 
ATOM      8  F1  UNL d   1       3.670  -5.989   2.999  0.00  0.00    -0.096 F 
ATOM      9  I   UNL d   1       4.449  -5.194   5.999  0.00  0.00    -0.060 I 
ATOM     10  F2  UNL d   1       2.943  -2.370   6.000  0.00  0.00    -0.096 F 
ATOM     11  F3  UNL d   1       1.500  -1.100   4.092  0.00  0.00    -0.097 F 
ATOM     12  F4  UNL d   1       1.133  -2.250   1.646  0.00  0.00    -0.092 F 
ENDROOT
TORSDOF 0
ENDMDL
