MODEL 1
REMARK minimizedAffinity 12.6039314
REMARK minimizedRMSD -1
REMARK  0 active torsions:
REMARK  status: ('A' for Active; 'I' for Inactive)
ROOT
ATOM      1  C   UNL d   1       3.839   1.897   1.334  0.00  0.00     0.124 A 
ATOM      2  C1  UNL d   1       4.691   2.297   2.353  0.00  0.00     0.062 A 
ATOM      3  C2  UNL d   1       4.192   2.992   3.451  0.00  0.00     0.162 A 
ATOM      4  C3  UNL d   1       2.832   3.291   3.536  0.00  0.00    -0.034 A 
ATOM      5  C4  UNL d   1       1.981   2.887   2.506  0.00  0.00     0.162 A 
ATOM      6  C5  UNL d   1       2.485   2.192   1.411  0.00  0.00     0.062 A 
ATOM      7  F   UNL d   1       1.660   1.807   0.426  0.00  0.00    -0.097 F 
ATOM      8  F1  UNL d   1       0.669   3.158   2.555  0.00  0.00    -0.096 F 
ATOM      9  I   UNL d   1       2.082   4.330   5.176  0.00  0.00    -0.060 I 
ATOM     10  F2  UNL d   1       5.039   3.365   4.422  0.00  0.00    -0.096 F 
ATOM     11  F3  UNL d   1       6.000   2.014   2.281  0.00  0.00    -0.097 F 
ATOM     12  F4  UNL d   1       4.322   1.229   0.278  0.00  0.00    -0.092 F 
ENDROOT
TORSDOF 0
ENDMDL
