MODEL 1
REMARK minimizedAffinity 9.57846451
REMARK minimizedRMSD -1
REMARK  0 active torsions:
REMARK  status: ('A' for Active; 'I' for Inactive)
ROOT
ATOM      1  C   UNL d   1       0.599  -2.424   2.236  0.00  0.00     0.124 A 
ATOM      2  C1  UNL d   1       0.318  -3.780   2.139  0.00  0.00     0.062 A 
ATOM      3  C2  UNL d   1       1.239  -4.646   1.556  0.00  0.00     0.162 A 
ATOM      4  C3  UNL d   1       2.450  -4.158   1.066  0.00  0.00    -0.034 A 
ATOM      5  C4  UNL d   1       2.725  -2.793   1.166  0.00  0.00     0.162 A 
ATOM      6  C5  UNL d   1       1.802  -1.932   1.750  0.00  0.00     0.062 A 
ATOM      7  F   UNL d   1       2.075  -0.623   1.842  0.00  0.00    -0.097 F 
ATOM      8  F1  UNL d   1       3.881  -2.292   0.705  0.00  0.00    -0.096 F 
ATOM      9  I   UNL d   1       3.830  -5.450   0.194  0.00  0.00    -0.060 I 
ATOM     10  F2  UNL d   1       0.941  -5.951   1.476  0.00  0.00    -0.096 F 
ATOM     11  F3  UNL d   1      -0.844  -4.257   2.608  0.00  0.00    -0.097 F 
ATOM     12  F4  UNL d   1      -0.289  -1.593   2.797  0.00  0.00    -0.092 F 
ENDROOT
TORSDOF 0
ENDMDL
