MODEL 1
REMARK minimizedAffinity 8.79551983
REMARK minimizedRMSD -1
REMARK  0 active torsions:
REMARK  status: ('A' for Active; 'I' for Inactive)
ROOT
ATOM      1  C   UNL d   1       5.999   2.486  -2.277  0.00  0.00     0.124 A 
ATOM      2  C1  UNL d   1       5.998   2.725  -0.910  0.00  0.00     0.062 A 
ATOM      3  C2  UNL d   1       5.997   1.660  -0.013  0.00  0.00     0.162 A 
ATOM      4  C3  UNL d   1       5.998   0.346  -0.481  0.00  0.00    -0.034 A 
ATOM      5  C4  UNL d   1       5.997   0.114  -1.858  0.00  0.00     0.162 A 
ATOM      6  C5  UNL d   1       5.998   1.181  -2.749  0.00  0.00     0.062 A 
ATOM      7  F   UNL d   1       5.998   0.949  -4.070  0.00  0.00    -0.097 F 
ATOM      8  F1  UNL d   1       5.997  -1.137  -2.342  0.00  0.00    -0.096 F 
ATOM      9  I   UNL d   1       5.996  -1.249   0.856  0.00  0.00    -0.060 I 
ATOM     10  F2  UNL d   1       5.997   1.920   1.303  0.00  0.00    -0.096 F 
ATOM     11  F3  UNL d   1       5.998   3.984  -0.450  0.00  0.00    -0.097 F 
ATOM     12  F4  UNL d   1       5.999   3.512  -3.137  0.00  0.00    -0.092 F 
ENDROOT
TORSDOF 0
ENDMDL
