MODEL 1
REMARK minimizedAffinity 3.05306005
REMARK minimizedRMSD -1
REMARK  1 active torsions:
REMARK  status: ('A' for Active; 'I' for Inactive)
REMARK    1  A    between atoms: C1_2  and  C2_3 
ROOT
ATOM      1  C2  UNL d   1       4.948   5.086  -3.664  0.00  0.00    -0.081 A 
ATOM      2  C3  UNL d   1       5.310   5.491  -2.373  0.00  0.00     0.006 A 
ATOM      3  C4  UNL d   1       4.377   5.462  -1.334  0.00  0.00     0.002 A 
ATOM      4  C5  UNL d   1       3.070   5.021  -1.566  0.00  0.00    -0.080 A 
ATOM      5  C6  UNL d   1       2.066   4.957  -0.453  0.00  0.00     0.076 C 
ATOM      6  C7  UNL d   1       2.703   4.633  -2.859  0.00  0.00     0.002 A 
ATOM      7  C8  UNL d   1       3.635   4.662  -3.899  0.00  0.00     0.006 A 
ENDROOT
BRANCH   1   8
ATOM      8  C1  UNL d   1       5.969   5.054  -4.772  0.00  0.00     0.054 C 
ATOM      9  C   UNL d   1       5.933   3.729  -5.520  0.00  0.00     0.018 C 
ENDBRANCH   1   8
TORSDOF 1
ENDMDL
