MODEL 1
REMARK minimizedAffinity 8.44855499
REMARK minimizedRMSD -1
REMARK  1 active torsions:
REMARK  status: ('A' for Active; 'I' for Inactive)
REMARK    1  A    between atoms: C1_2  and  C2_3 
ROOT
ATOM      1  C2  UNL d   1       5.182   5.367  -4.254  0.00  0.00    -0.081 A 
ATOM      2  C3  UNL d   1       3.820   5.646  -4.089  0.00  0.00     0.006 A 
ATOM      3  C4  UNL d   1       3.286   5.839  -2.813  0.00  0.00     0.002 A 
ATOM      4  C5  UNL d   1       4.105   5.764  -1.682  0.00  0.00    -0.080 A 
ATOM      5  C6  UNL d   1       3.550   5.999  -0.308  0.00  0.00     0.076 C 
ATOM      6  C7  UNL d   1       5.463   5.468  -1.845  0.00  0.00     0.002 A 
ATOM      7  C8  UNL d   1       5.997   5.274  -3.121  0.00  0.00     0.006 A 
ENDROOT
BRANCH   1   8
ATOM      8  C1  UNL d   1       5.773   5.223  -5.633  0.00  0.00     0.054 C 
ATOM      9  C   UNL d   1       5.971   3.759  -6.000  0.00  0.00     0.018 C 
ENDBRANCH   1   8
TORSDOF 1
ENDMDL
