MODEL 1
REMARK minimizedAffinity 25.8801289
REMARK minimizedRMSD -1
REMARK  1 active torsions:
REMARK  status: ('A' for Active; 'I' for Inactive)
REMARK    1  A    between atoms: C1_2  and  C2_3 
ROOT
ATOM      1  C2  UNL d   1      -1.349  -2.003  -1.404  0.00  0.00    -0.081 A 
ATOM      2  C3  UNL d   1      -0.045  -1.632  -1.754  0.00  0.00     0.006 A 
ATOM      3  C4  UNL d   1       0.360  -1.645  -3.091  0.00  0.00     0.002 A 
ATOM      4  C5  UNL d   1      -0.533  -2.021  -4.100  0.00  0.00    -0.080 A 
ATOM      5  C6  UNL d   1      -0.120  -2.010  -5.541  0.00  0.00     0.076 C 
ATOM      6  C7  UNL d   1      -1.830  -2.408  -3.748  0.00  0.00     0.002 A 
ATOM      7  C8  UNL d   1      -2.236  -2.397  -2.412  0.00  0.00     0.006 A 
ENDROOT
BRANCH   1   8
ATOM      8  C1  UNL d   1      -1.809  -1.928   0.030  0.00  0.00     0.054 C 
ATOM      9  C   UNL d   1      -3.325  -2.007   0.129  0.00  0.00     0.018 C 
ENDBRANCH   1   8
TORSDOF 1
ENDMDL
