MODEL 1
REMARK minimizedAffinity 19.3918934
REMARK minimizedRMSD -1
REMARK  1 active torsions:
REMARK  status: ('A' for Active; 'I' for Inactive)
REMARK    1  A    between atoms: C1_2  and  C2_3 
ROOT
ATOM      1  C2  UNL d   1       1.438  -2.178  -2.548  0.00  0.00    -0.081 A 
ATOM      2  C3  UNL d   1       0.382  -1.333  -2.911  0.00  0.00     0.006 A 
ATOM      3  C4  UNL d   1      -0.729  -1.189  -2.077  0.00  0.00     0.002 A 
ATOM      4  C5  UNL d   1      -0.801  -1.882  -0.864  0.00  0.00    -0.080 A 
ATOM      5  C6  UNL d   1      -1.974  -1.714   0.055  0.00  0.00     0.076 C 
ATOM      6  C7  UNL d   1       0.246  -2.740  -0.509  0.00  0.00     0.002 A 
ATOM      7  C8  UNL d   1       1.357  -2.884  -1.342  0.00  0.00     0.006 A 
ENDROOT
BRANCH   1   8
ATOM      8  C1  UNL d   1       2.667  -2.285  -3.414  0.00  0.00     0.054 C 
ATOM      9  C   UNL d   1       3.776  -1.369  -2.916  0.00  0.00     0.018 C 
ENDBRANCH   1   8
TORSDOF 1
ENDMDL
