MODEL 1
REMARK minimizedAffinity 6.67264986
REMARK minimizedRMSD -1
REMARK  1 active torsions:
REMARK  status: ('A' for Active; 'I' for Inactive)
REMARK    1  A    between atoms: C1_2  and  C2_3 
ROOT
ATOM      1  C2  UNL d   1       5.391   5.230  -1.951  0.00  0.00    -0.081 A 
ATOM      2  C3  UNL d   1       5.963   4.387  -2.912  0.00  0.00     0.006 A 
ATOM      3  C4  UNL d   1       5.434   4.324  -4.203  0.00  0.00     0.002 A 
ATOM      4  C5  UNL d   1       4.330   5.106  -4.557  0.00  0.00    -0.080 A 
ATOM      5  C6  UNL d   1       3.771   5.070  -5.949  0.00  0.00     0.076 C 
ATOM      6  C7  UNL d   1       3.747   5.936  -3.593  0.00  0.00     0.002 A 
ATOM      7  C8  UNL d   1       4.275   5.999  -2.301  0.00  0.00     0.006 A 
ENDROOT
BRANCH   1   8
ATOM      8  C1  UNL d   1       5.998   5.350  -0.577  0.00  0.00     0.054 C 
ATOM      9  C   UNL d   1       6.000   4.010   0.146  0.00  0.00     0.018 C 
ENDBRANCH   1   8
TORSDOF 1
ENDMDL
