MODEL 1
REMARK minimizedAffinity 14.984601
REMARK minimizedRMSD -1
REMARK  1 active torsions:
REMARK  status: ('A' for Active; 'I' for Inactive)
REMARK    1  A    between atoms: C1_2  and  C2_3 
ROOT
ATOM      1  C2  UNL d   1      -0.629  -1.264  -1.631  0.00  0.00    -0.081 A 
ATOM      2  C3  UNL d   1      -0.502  -1.647  -0.290  0.00  0.00     0.006 A 
ATOM      3  C4  UNL d   1      -0.122  -2.949   0.042  0.00  0.00     0.002 A 
ATOM      4  C5  UNL d   1       0.146  -3.887  -0.961  0.00  0.00    -0.080 A 
ATOM      5  C6  UNL d   1       0.584  -5.280  -0.618  0.00  0.00     0.076 C 
ATOM      6  C7  UNL d   1       0.003  -3.510  -2.300  0.00  0.00     0.002 A 
ATOM      7  C8  UNL d   1      -0.378  -2.208  -2.633  0.00  0.00     0.006 A 
ENDROOT
BRANCH   1   8
ATOM      8  C1  UNL d   1      -0.976   0.158  -1.993  0.00  0.00     0.054 C 
ATOM      9  C   UNL d   1      -0.846   1.082  -0.791  0.00  0.00     0.018 C 
ENDBRANCH   1   8
TORSDOF 1
ENDMDL
