MODEL 1
REMARK minimizedAffinity 18.2306061
REMARK minimizedRMSD -1
REMARK  1 active torsions:
REMARK  status: ('A' for Active; 'I' for Inactive)
REMARK    1  A    between atoms: C1_2  and  C2_3 
ROOT
ATOM      1  C2  UNL d   1      -0.817  -2.272  -3.698  0.00  0.00    -0.081 A 
ATOM      2  C3  UNL d   1       0.237  -3.133  -3.368  0.00  0.00     0.006 A 
ATOM      3  C4  UNL d   1       0.706  -3.206  -2.054  0.00  0.00     0.002 A 
ATOM      4  C5  UNL d   1       0.125  -2.426  -1.049  0.00  0.00    -0.080 A 
ATOM      5  C6  UNL d   1       0.600  -2.518   0.371  0.00  0.00     0.076 C 
ATOM      6  C7  UNL d   1      -0.916  -1.554  -1.382  0.00  0.00     0.002 A 
ATOM      7  C8  UNL d   1      -1.385  -1.480  -2.695  0.00  0.00     0.006 A 
ENDROOT
BRANCH   1   8
ATOM      8  C1  UNL d   1      -1.368  -2.239  -5.101  0.00  0.00     0.054 C 
ATOM      9  C   UNL d   1      -2.385  -3.349  -5.322  0.00  0.00     0.018 C 
ENDBRANCH   1   8
TORSDOF 1
ENDMDL
