MODEL 1
REMARK minimizedAffinity 7.63640213
REMARK minimizedRMSD -1
REMARK  1 active torsions:
REMARK  status: ('A' for Active; 'I' for Inactive)
REMARK    1  A    between atoms: C1_2  and  C2_3 
ROOT
ATOM      1  C2  UNL d   1      -1.738  -2.232  -2.636  0.00  0.00    -0.081 A 
ATOM      2  C3  UNL d   1      -0.559  -2.983  -2.714  0.00  0.00     0.006 A 
ATOM      3  C4  UNL d   1       0.326  -3.027  -1.634  0.00  0.00     0.002 A 
ATOM      4  C5  UNL d   1       0.043  -2.328  -0.456  0.00  0.00    -0.080 A 
ATOM      5  C6  UNL d   1       0.969  -2.392   0.722  0.00  0.00     0.076 C 
ATOM      6  C7  UNL d   1      -1.127  -1.564  -0.383  0.00  0.00     0.002 A 
ATOM      7  C8  UNL d   1      -2.012  -1.519  -1.463  0.00  0.00     0.006 A 
ENDROOT
BRANCH   1   8
ATOM      8  C1  UNL d   1      -2.726  -2.235  -3.774  0.00  0.00     0.054 C 
ATOM      9  C   UNL d   1      -2.607  -3.503  -4.607  0.00  0.00     0.018 C 
ENDBRANCH   1   8
TORSDOF 1
ENDMDL
