MODEL 1
REMARK minimizedAffinity 11.6778545
REMARK minimizedRMSD -1
REMARK  1 active torsions:
REMARK  status: ('A' for Active; 'I' for Inactive)
REMARK    1  A    between atoms: C1_2  and  C2_3 
ROOT
ATOM      1  C2  UNL d   1       2.324   4.370  -0.258  0.00  0.00    -0.081 A 
ATOM      2  C3  UNL d   1       1.658   5.110  -1.242  0.00  0.00     0.006 A 
ATOM      3  C4  UNL d   1       0.379   5.619  -1.001  0.00  0.00     0.002 A 
ATOM      4  C5  UNL d   1      -0.250   5.403   0.230  0.00  0.00    -0.080 A 
ATOM      5  C6  UNL d   1      -1.609   5.970   0.513  0.00  0.00     0.076 C 
ATOM      6  C7  UNL d   1       0.409   4.649   1.207  0.00  0.00     0.002 A 
ATOM      7  C8  UNL d   1       1.687   4.140   0.966  0.00  0.00     0.006 A 
ENDROOT
BRANCH   1   8
ATOM      8  C1  UNL d   1       3.729   3.875  -0.492  0.00  0.00     0.054 C 
ATOM      9  C   UNL d   1       4.712   5.032  -0.603  0.00  0.00     0.018 C 
ENDBRANCH   1   8
TORSDOF 1
ENDMDL
