MODEL 1
REMARK minimizedAffinity 13.5928278
REMARK minimizedRMSD -1
REMARK  1 active torsions:
REMARK  status: ('A' for Active; 'I' for Inactive)
REMARK    1  A    between atoms: C1_2  and  C2_3 
ROOT
ATOM      1  C2  UNL d   1       3.008  -2.345  -4.140  0.00  0.00    -0.081 A 
ATOM      2  C3  UNL d   1       4.210  -2.485  -3.437  0.00  0.00     0.006 A 
ATOM      3  C4  UNL d   1       5.186  -1.487  -3.496  0.00  0.00     0.002 A 
ATOM      4  C5  UNL d   1       4.973  -0.330  -4.252  0.00  0.00    -0.080 A 
ATOM      5  C6  UNL d   1       5.999   0.763  -4.300  0.00  0.00     0.076 C 
ATOM      6  C7  UNL d   1       3.779  -0.197  -4.969  0.00  0.00     0.002 A 
ATOM      7  C8  UNL d   1       2.803  -1.195  -4.911  0.00  0.00     0.006 A 
ENDROOT
BRANCH   1   8
ATOM      8  C1  UNL d   1       1.927  -3.389  -4.027  0.00  0.00     0.054 C 
ATOM      9  C   UNL d   1       1.098  -3.193  -2.766  0.00  0.00     0.018 C 
ENDBRANCH   1   8
TORSDOF 1
ENDMDL
