MODEL 1
REMARK minimizedAffinity 8.22576904
REMARK minimizedRMSD -1
REMARK  1 active torsions:
REMARK  status: ('A' for Active; 'I' for Inactive)
REMARK    1  A    between atoms: C1_2  and  C2_3 
ROOT
ATOM      1  C2  UNL d   1       0.189  -4.124  -3.503  0.00  0.00    -0.081 A 
ATOM      2  C3  UNL d   1      -0.238  -2.807  -3.286  0.00  0.00     0.006 A 
ATOM      3  C4  UNL d   1      -0.520  -2.358  -1.994  0.00  0.00     0.002 A 
ATOM      4  C5  UNL d   1      -0.374  -3.214  -0.897  0.00  0.00    -0.080 A 
ATOM      5  C6  UNL d   1      -0.645  -2.736   0.498  0.00  0.00     0.076 C 
ATOM      6  C7  UNL d   1       0.035  -4.534  -1.116  0.00  0.00     0.002 A 
ATOM      7  C8  UNL d   1       0.317  -4.984  -2.407  0.00  0.00     0.006 A 
ENDROOT
BRANCH   1   8
ATOM      8  C1  UNL d   1       0.557  -4.592  -4.888  0.00  0.00     0.054 C 
ATOM      9  C   UNL d   1       2.053  -4.468  -5.135  0.00  0.00     0.018 C 
ENDBRANCH   1   8
TORSDOF 1
ENDMDL
