MODEL 1
REMARK minimizedAffinity 4.19024754
REMARK minimizedRMSD -1
REMARK  1 active torsions:
REMARK  status: ('A' for Active; 'I' for Inactive)
REMARK    1  A    between atoms: C1_2  and  C2_3 
ROOT
ATOM      1  C2  UNL d   1       1.624  -2.550  -3.892  0.00  0.00    -0.081 A 
ATOM      2  C3  UNL d   1       0.851  -2.900  -5.006  0.00  0.00     0.006 A 
ATOM      3  C4  UNL d   1      -0.544  -2.888  -4.932  0.00  0.00     0.002 A 
ATOM      4  C5  UNL d   1      -1.189  -2.518  -3.747  0.00  0.00    -0.080 A 
ATOM      5  C6  UNL d   1      -2.686  -2.471  -3.664  0.00  0.00     0.076 C 
ATOM      6  C7  UNL d   1      -0.417  -2.184  -2.629  0.00  0.00     0.002 A 
ATOM      7  C8  UNL d   1       0.978  -2.197  -2.702  0.00  0.00     0.006 A 
ENDROOT
BRANCH   1   8
ATOM      8  C1  UNL d   1       3.127  -2.499  -3.987  0.00  0.00     0.054 C 
ATOM      9  C   UNL d   1       3.758  -2.206  -2.634  0.00  0.00     0.018 C 
ENDBRANCH   1   8
TORSDOF 1
ENDMDL
