MODEL 1
REMARK minimizedAffinity 16.7737541
REMARK minimizedRMSD -1
REMARK  1 active torsions:
REMARK  status: ('A' for Active; 'I' for Inactive)
REMARK    1  A    between atoms: C1_2  and  C2_3 
ROOT
ATOM      1  C2  UNL d   1       4.981  -0.665  -4.726  0.00  0.00    -0.081 A 
ATOM      2  C3  UNL d   1       4.928  -1.633  -5.736  0.00  0.00     0.006 A 
ATOM      3  C4  UNL d   1       4.783  -2.985  -5.415  0.00  0.00     0.002 A 
ATOM      4  C5  UNL d   1       4.681  -3.390  -4.080  0.00  0.00    -0.080 A 
ATOM      5  C6  UNL d   1       4.494  -4.835  -3.722  0.00  0.00     0.076 C 
ATOM      6  C7  UNL d   1       4.751  -2.425  -3.070  0.00  0.00     0.002 A 
ATOM      7  C8  UNL d   1       4.897  -1.073  -3.390  0.00  0.00     0.006 A 
ENDROOT
BRANCH   1   8
ATOM      8  C1  UNL d   1       5.073   0.799  -5.072  0.00  0.00     0.054 C 
ATOM      9  C   UNL d   1       3.694   1.440  -5.136  0.00  0.00     0.018 C 
ENDBRANCH   1   8
TORSDOF 1
ENDMDL
