MODEL 1
REMARK minimizedAffinity 3.2591908
REMARK minimizedRMSD -1
REMARK  2 active torsions:
REMARK  status: ('A' for Active; 'I' for Inactive)
REMARK    1  A    between atoms: C1_2  and  C2_3 
REMARK    2  A    between atoms: C2_3  and  C3_4 
ROOT
ATOM      1  C3  UNL d   1       2.672   2.084   0.455  0.00  0.00    -0.075 A 
ATOM      2  C4  UNL d   1       2.365   0.887   1.119  0.00  0.00     0.002 A 
ATOM      3  C5  UNL d   1       1.059   0.398   1.132  0.00  0.00     0.002 A 
ATOM      4  C6  UNL d   1       0.042   1.103   0.492  0.00  0.00    -0.004 A 
ATOM      5  C7  UNL d   1       0.331   2.302  -0.157  0.00  0.00     0.002 A 
ATOM      6  C8  UNL d   1       1.639   2.791  -0.175  0.00  0.00     0.002 A 
ENDROOT
BRANCH   1   7
ATOM      7  C2  UNL d   1       4.089   2.603   0.412  0.00  0.00     0.056 C 
BRANCH   7   8
ATOM      8  C1  UNL d   1       5.154   1.529   0.659  0.00  0.00     0.007 C 
ATOM      9  C   UNL d   1       5.996   1.793   1.900  0.00  0.00     0.009 C 
ENDBRANCH   7   8
ENDBRANCH   1   7
TORSDOF 2
ENDMDL
