MODEL 1
REMARK minimizedAffinity -0.0515310429
REMARK minimizedRMSD -1
REMARK  2 active torsions:
REMARK  status: ('A' for Active; 'I' for Inactive)
REMARK    1  A    between atoms: C1_2  and  C2_3 
REMARK    2  A    between atoms: C2_3  and  C3_4 
ROOT
ATOM      1  C3  UNL d   1      -1.453   5.946  -2.890  0.00  0.00    -0.075 A 
ATOM      2  C4  UNL d   1      -2.460   5.963  -3.865  0.00  0.00     0.002 A 
ATOM      3  C5  UNL d   1      -3.804   5.995  -3.495  0.00  0.00     0.002 A 
ATOM      4  C6  UNL d   1      -4.159   6.000  -2.148  0.00  0.00    -0.004 A 
ATOM      5  C7  UNL d   1      -3.167   5.966  -1.170  0.00  0.00     0.002 A 
ATOM      6  C8  UNL d   1      -1.821   5.939  -1.538  0.00  0.00     0.002 A 
ENDROOT
BRANCH   1   7
ATOM      7  C2  UNL d   1       0.005   5.942  -3.284  0.00  0.00     0.056 C 
BRANCH   7   8
ATOM      8  C1  UNL d   1       0.244   5.766  -4.787  0.00  0.00     0.007 C 
ATOM      9  C   UNL d   1       1.713   5.865  -5.177  0.00  0.00     0.009 C 
ENDBRANCH   7   8
ENDBRANCH   1   7
TORSDOF 2
ENDMDL
