MODEL 1
REMARK minimizedAffinity 2.59658718
REMARK minimizedRMSD -1
REMARK  2 active torsions:
REMARK  status: ('A' for Active; 'I' for Inactive)
REMARK    1  A    between atoms: C1_2  and  C2_3 
REMARK    2  A    between atoms: C2_3  and  C3_4 
ROOT
ATOM      1  C3  UNL d   1       1.240   2.337  -0.289  0.00  0.00    -0.075 A 
ATOM      2  C4  UNL d   1       1.540   1.545  -1.407  0.00  0.00     0.002 A 
ATOM      3  C5  UNL d   1       1.464   0.154  -1.331  0.00  0.00     0.002 A 
ATOM      4  C6  UNL d   1       1.099  -0.462  -0.136  0.00  0.00    -0.004 A 
ATOM      5  C7  UNL d   1       0.816   0.314   0.986  0.00  0.00     0.002 A 
ATOM      6  C8  UNL d   1       0.886   1.706   0.911  0.00  0.00     0.002 A 
ENDROOT
BRANCH   1   7
ATOM      7  C2  UNL d   1       1.292   3.844  -0.374  0.00  0.00     0.056 C 
BRANCH   7   8
ATOM      8  C1  UNL d   1       0.708   4.416  -1.670  0.00  0.00     0.007 C 
ATOM      9  C   UNL d   1      -0.201   5.616  -1.440  0.00  0.00     0.009 C 
ENDBRANCH   7   8
ENDBRANCH   1   7
TORSDOF 2
ENDMDL
