MODEL 1
REMARK minimizedAffinity 2.54305243
REMARK minimizedRMSD -1
REMARK  2 active torsions:
REMARK  status: ('A' for Active; 'I' for Inactive)
REMARK    1  A    between atoms: C1_2  and  C2_3 
REMARK    2  A    between atoms: C2_3  and  C3_4 
ROOT
ATOM      1  C3  UNL d   1       5.227   3.694  -4.996  0.00  0.00    -0.075 A 
ATOM      2  C4  UNL d   1       5.878   4.786  -5.589  0.00  0.00     0.002 A 
ATOM      3  C5  UNL d   1       5.164   5.932  -5.938  0.00  0.00     0.002 A 
ATOM      4  C6  UNL d   1       3.791   5.998  -5.709  0.00  0.00    -0.004 A 
ATOM      5  C7  UNL d   1       3.131   4.913  -5.136  0.00  0.00     0.002 A 
ATOM      6  C8  UNL d   1       3.844   3.767  -4.781  0.00  0.00     0.002 A 
ENDROOT
BRANCH   1   7
ATOM      7  C2  UNL d   1       5.999   2.462  -4.588  0.00  0.00     0.056 C 
BRANCH   7   8
ATOM      8  C1  UNL d   1       5.606   1.905  -3.216  0.00  0.00     0.007 C 
ATOM      9  C   UNL d   1       6.000   2.818  -2.062  0.00  0.00     0.009 C 
ENDBRANCH   7   8
ENDBRANCH   1   7
TORSDOF 2
ENDMDL
