MODEL 1
REMARK minimizedAffinity 7.24424219
REMARK minimizedRMSD -1
REMARK  2 active torsions:
REMARK  status: ('A' for Active; 'I' for Inactive)
REMARK    1  A    between atoms: C1_2  and  C2_3 
REMARK    2  A    between atoms: C2_3  and  C3_4 
ROOT
ATOM      1  C3  UNL d   1      -2.254  -1.703  -3.649  0.00  0.00    -0.075 A 
ATOM      2  C4  UNL d   1      -1.028  -2.104  -3.099  0.00  0.00     0.002 A 
ATOM      3  C5  UNL d   1       0.168  -1.835  -3.765  0.00  0.00     0.002 A 
ATOM      4  C6  UNL d   1       0.153  -1.172  -4.990  0.00  0.00    -0.004 A 
ATOM      5  C7  UNL d   1      -1.060  -0.784  -5.553  0.00  0.00     0.002 A 
ATOM      6  C8  UNL d   1      -2.259  -1.048  -4.887  0.00  0.00     0.002 A 
ENDROOT
BRANCH   1   7
ATOM      7  C2  UNL d   1      -3.550  -1.965  -2.919  0.00  0.00     0.056 C 
BRANCH   7   8
ATOM      8  C1  UNL d   1      -3.453  -1.806  -1.398  0.00  0.00     0.007 C 
ATOM      9  C   UNL d   1      -4.211  -2.882  -0.632  0.00  0.00     0.009 C 
ENDBRANCH   7   8
ENDBRANCH   1   7
TORSDOF 2
ENDMDL
