MODEL 1
REMARK minimizedAffinity 9.33039856
REMARK minimizedRMSD -1
REMARK  2 active torsions:
REMARK  status: ('A' for Active; 'I' for Inactive)
REMARK    1  A    between atoms: C1_2  and  C2_3 
REMARK    2  A    between atoms: C2_3  and  C3_4 
ROOT
ATOM      1  C3  UNL d   1       0.775   1.238   0.336  0.00  0.00    -0.075 A 
ATOM      2  C4  UNL d   1       1.536   0.915  -0.796  0.00  0.00     0.002 A 
ATOM      3  C5  UNL d   1       2.149   1.918  -1.548  0.00  0.00     0.002 A 
ATOM      4  C6  UNL d   1       2.000   3.254  -1.184  0.00  0.00    -0.004 A 
ATOM      5  C7  UNL d   1       1.232   3.588  -0.070  0.00  0.00     0.002 A 
ATOM      6  C8  UNL d   1       0.622   2.586   0.686  0.00  0.00     0.002 A 
ENDROOT
BRANCH   1   7
ATOM      7  C2  UNL d   1       0.133   0.155   1.171  0.00  0.00     0.056 C 
BRANCH   7   8
ATOM      8  C1  UNL d   1       0.211   0.402   2.681  0.00  0.00     0.007 C 
ATOM      9  C   UNL d   1      -0.964   1.208   3.219  0.00  0.00     0.009 C 
ENDBRANCH   7   8
ENDBRANCH   1   7
TORSDOF 2
ENDMDL
