MODEL 1
REMARK minimizedAffinity 4.29420853
REMARK minimizedRMSD -1
REMARK  2 active torsions:
REMARK  status: ('A' for Active; 'I' for Inactive)
REMARK    1  A    between atoms: C1_2  and  C2_3 
REMARK    2  A    between atoms: C2_3  and  C3_4 
ROOT
ATOM      1  C3  UNL d   1       0.055   0.206   0.552  0.00  0.00    -0.075 A 
ATOM      2  C4  UNL d   1       0.974   0.517   1.565  0.00  0.00     0.002 A 
ATOM      3  C5  UNL d   1       1.689   1.714   1.530  0.00  0.00     0.002 A 
ATOM      4  C6  UNL d   1       1.503   2.610   0.479  0.00  0.00    -0.004 A 
ATOM      5  C7  UNL d   1       0.605   2.304  -0.541  0.00  0.00     0.002 A 
ATOM      6  C8  UNL d   1      -0.116   1.109  -0.507  0.00  0.00     0.002 A 
ENDROOT
BRANCH   1   7
ATOM      7  C2  UNL d   1      -0.744  -1.074   0.599  0.00  0.00     0.056 C 
BRANCH   7   8
ATOM      8  C1  UNL d   1       0.111  -2.338   0.739  0.00  0.00     0.007 C 
ATOM      9  C   UNL d   1      -0.622  -3.487   1.418  0.00  0.00     0.009 C 
ENDBRANCH   7   8
ENDBRANCH   1   7
TORSDOF 2
ENDMDL
