MODEL 1
REMARK minimizedAffinity 1.21007013
REMARK minimizedRMSD -1
REMARK  2 active torsions:
REMARK  status: ('A' for Active; 'I' for Inactive)
REMARK    1  A    between atoms: C1_2  and  C2_3 
REMARK    2  A    between atoms: C2_3  and  C3_4 
ROOT
ATOM      1  C3  UNL d   1      -1.627   5.993  -4.035  0.00  0.00    -0.075 A 
ATOM      2  C4  UNL d   1      -1.152   5.997  -2.715  0.00  0.00     0.002 A 
ATOM      3  C5  UNL d   1      -2.043   5.985  -1.642  0.00  0.00     0.002 A 
ATOM      4  C6  UNL d   1      -3.417   5.979  -1.873  0.00  0.00    -0.004 A 
ATOM      5  C7  UNL d   1      -3.900   5.992  -3.180  0.00  0.00     0.002 A 
ATOM      6  C8  UNL d   1      -3.010   5.999  -4.256  0.00  0.00     0.002 A 
ENDROOT
BRANCH   1   7
ATOM      7  C2  UNL d   1      -0.667   5.976  -5.201  0.00  0.00     0.056 C 
BRANCH   7   8
ATOM      8  C1  UNL d   1       0.810   5.971  -4.794  0.00  0.00     0.007 C 
ATOM      9  C   UNL d   1       1.761   5.997  -5.983  0.00  0.00     0.009 C 
ENDBRANCH   7   8
ENDBRANCH   1   7
TORSDOF 2
ENDMDL
