MODEL 1
REMARK minimizedAffinity -2.81949401
REMARK minimizedRMSD -1
REMARK  2 active torsions:
REMARK  status: ('A' for Active; 'I' for Inactive)
REMARK    1  A    between atoms: C1_2  and  C2_3 
REMARK    2  A    between atoms: C2_3  and  C3_4 
ROOT
ATOM      1  C3  UNL d   1      -1.702   5.953  -3.718  0.00  0.00    -0.075 A 
ATOM      2  C4  UNL d   1      -0.393   5.921  -3.215  0.00  0.00     0.002 A 
ATOM      3  C5  UNL d   1       0.699   5.911  -4.084  0.00  0.00     0.002 A 
ATOM      4  C6  UNL d   1       0.497   5.923  -5.462  0.00  0.00    -0.004 A 
ATOM      5  C7  UNL d   1      -0.799   5.938  -5.972  0.00  0.00     0.002 A 
ATOM      6  C8  UNL d   1      -1.893   5.952  -5.106  0.00  0.00     0.002 A 
ENDROOT
BRANCH   1   7
ATOM      7  C2  UNL d   1      -2.887   5.994  -2.783  0.00  0.00     0.056 C 
BRANCH   7   8
ATOM      8  C1  UNL d   1      -2.511   5.965  -1.298  0.00  0.00     0.007 C 
ATOM      9  C   UNL d   1      -3.720   5.999  -0.372  0.00  0.00     0.009 C 
ENDBRANCH   7   8
ENDBRANCH   1   7
TORSDOF 2
ENDMDL
