MODEL 1
REMARK minimizedAffinity 6.9481926
REMARK minimizedRMSD -1
REMARK  2 active torsions:
REMARK  status: ('A' for Active; 'I' for Inactive)
REMARK    1  A    between atoms: C1_2  and  C2_3 
REMARK    2  A    between atoms: C2_3  and  C3_4 
ROOT
ATOM      1  C3  UNL d   1       2.172   5.311  -5.369  0.00  0.00    -0.075 A 
ATOM      2  C4  UNL d   1       3.412   5.954  -5.503  0.00  0.00     0.002 A 
ATOM      3  C5  UNL d   1       4.566   5.388  -4.962  0.00  0.00     0.002 A 
ATOM      4  C6  UNL d   1       4.495   4.180  -4.272  0.00  0.00    -0.004 A 
ATOM      5  C7  UNL d   1       3.266   3.541  -4.118  0.00  0.00     0.002 A 
ATOM      6  C8  UNL d   1       2.110   4.103  -4.663  0.00  0.00     0.002 A 
ENDROOT
BRANCH   1   7
ATOM      7  C2  UNL d   1       0.925   5.905  -5.979  0.00  0.00     0.056 C 
BRANCH   7   8
ATOM      8  C1  UNL d   1      -0.259   5.997  -5.010  0.00  0.00     0.007 C 
ATOM      9  C   UNL d   1      -1.612   5.929  -5.706  0.00  0.00     0.009 C 
ENDBRANCH   7   8
ENDBRANCH   1   7
TORSDOF 2
ENDMDL
