MODEL 1
REMARK minimizedAffinity -3.63484979
REMARK minimizedRMSD -1
REMARK  2 active torsions:
REMARK  status: ('A' for Active; 'I' for Inactive)
REMARK    1  A    between atoms: C1_2  and  C2_3 
REMARK    2  A    between atoms: C2_3  and  C3_4 
ROOT
ATOM      1  C3  UNL d   1       1.280   5.837  -5.211  0.00  0.00    -0.075 A 
ATOM      2  C4  UNL d   1       1.271   6.000  -3.818  0.00  0.00     0.002 A 
ATOM      3  C5  UNL d   1       0.093   5.823  -3.092  0.00  0.00     0.002 A 
ATOM      4  C6  UNL d   1      -1.090   5.491  -3.748  0.00  0.00    -0.004 A 
ATOM      5  C7  UNL d   1      -1.096   5.343  -5.134  0.00  0.00     0.002 A 
ATOM      6  C8  UNL d   1       0.082   5.515  -5.862  0.00  0.00     0.002 A 
ENDROOT
BRANCH   1   7
ATOM      7  C2  UNL d   1       2.558   5.998  -6.000  0.00  0.00     0.056 C 
BRANCH   7   8
ATOM      8  C1  UNL d   1       3.826   5.997  -5.139  0.00  0.00     0.007 C 
ATOM      9  C   UNL d   1       5.107   5.914  -5.959  0.00  0.00     0.009 C 
ENDBRANCH   7   8
ENDBRANCH   1   7
TORSDOF 2
ENDMDL
