MODEL 1
REMARK minimizedAffinity 8.27650166
REMARK minimizedRMSD -1
REMARK  2 active torsions:
REMARK  status: ('A' for Active; 'I' for Inactive)
REMARK    1  A    between atoms: C1_2  and  C2_3 
REMARK    2  A    between atoms: C2_3  and  C3_4 
ROOT
ATOM      1  C3  UNL d   1       0.675   1.418  -0.456  0.00  0.00    -0.075 A 
ATOM      2  C4  UNL d   1       0.998   0.940  -1.734  0.00  0.00     0.002 A 
ATOM      3  C5  UNL d   1       1.797   1.697  -2.592  0.00  0.00     0.002 A 
ATOM      4  C6  UNL d   1       2.272   2.943  -2.188  0.00  0.00    -0.004 A 
ATOM      5  C7  UNL d   1       1.943   3.435  -0.927  0.00  0.00     0.002 A 
ATOM      6  C8  UNL d   1       1.148   2.677  -0.065  0.00  0.00     0.002 A 
ENDROOT
BRANCH   1   7
ATOM      7  C2  UNL d   1      -0.165   0.591   0.488  0.00  0.00     0.056 C 
BRANCH   7   8
ATOM      8  C1  UNL d   1       0.552   0.207   1.787  0.00  0.00     0.007 C 
ATOM      9  C   UNL d   1      -0.133   0.750   3.034  0.00  0.00     0.009 C 
ENDBRANCH   7   8
ENDBRANCH   1   7
TORSDOF 2
ENDMDL
