MODEL 1
REMARK minimizedAffinity 10.267664
REMARK minimizedRMSD -1
REMARK  2 active torsions:
REMARK  status: ('A' for Active; 'I' for Inactive)
REMARK    1  A    between atoms: C1_2  and  C2_3 
REMARK    2  A    between atoms: C2_3  and  C3_4 
ROOT
ATOM      1  C3  UNL d   1      -0.330   3.598  -5.303  0.00  0.00    -0.075 A 
ATOM      2  C4  UNL d   1       0.871   3.684  -4.584  0.00  0.00     0.002 A 
ATOM      3  C5  UNL d   1       1.588   4.881  -4.544  0.00  0.00     0.002 A 
ATOM      4  C6  UNL d   1       1.120   6.000  -5.229  0.00  0.00    -0.004 A 
ATOM      5  C7  UNL d   1      -0.063   5.921  -5.960  0.00  0.00     0.002 A 
ATOM      6  C8  UNL d   1      -0.785   4.726  -5.998  0.00  0.00     0.002 A 
ENDROOT
BRANCH   1   7
ATOM      7  C2  UNL d   1      -1.126   2.315  -5.326  0.00  0.00     0.056 C 
BRANCH   7   8
ATOM      8  C1  UNL d   1      -0.302   1.064  -5.001  0.00  0.00     0.007 C 
ATOM      9  C   UNL d   1      -1.112  -0.026  -4.312  0.00  0.00     0.009 C 
ENDBRANCH   7   8
ENDBRANCH   1   7
TORSDOF 2
ENDMDL
