MODEL 1
REMARK minimizedAffinity 8.42133808
REMARK minimizedRMSD -1
REMARK  2 active torsions:
REMARK  status: ('A' for Active; 'I' for Inactive)
REMARK    1  A    between atoms: C1_2  and  C2_3 
REMARK    2  A    between atoms: C2_3  and  C3_4 
ROOT
ATOM      1  C3  UNL d   1      -0.927  -1.287  -2.778  0.00  0.00    -0.075 A 
ATOM      2  C4  UNL d   1      -2.239  -1.569  -2.370  0.00  0.00     0.002 A 
ATOM      3  C5  UNL d   1      -2.686  -1.186  -1.105  0.00  0.00     0.002 A 
ATOM      4  C6  UNL d   1      -1.826  -0.526  -0.230  0.00  0.00    -0.004 A 
ATOM      5  C7  UNL d   1      -0.516  -0.255  -0.618  0.00  0.00     0.002 A 
ATOM      6  C8  UNL d   1      -0.067  -0.634  -1.884  0.00  0.00     0.002 A 
ENDROOT
BRANCH   1   7
ATOM      7  C2  UNL d   1      -0.446  -1.673  -4.156  0.00  0.00     0.056 C 
BRANCH   7   8
ATOM      8  C1  UNL d   1      -1.296  -1.102  -5.296  0.00  0.00     0.007 C 
ATOM      9  C   UNL d   1      -1.355   0.420  -5.297  0.00  0.00     0.009 C 
ENDBRANCH   7   8
ENDBRANCH   1   7
TORSDOF 2
ENDMDL
