MODEL 1
REMARK minimizedAffinity -0.044241935
REMARK minimizedRMSD -1
REMARK  2 active torsions:
REMARK  status: ('A' for Active; 'I' for Inactive)
REMARK    1  A    between atoms: C1_2  and  C2_3 
REMARK    2  A    between atoms: C2_3  and  C3_4 
ROOT
ATOM      1  C3  UNL d   1      -1.502   5.984  -4.147  0.00  0.00    -0.075 A 
ATOM      2  C4  UNL d   1      -2.856   5.975  -4.513  0.00  0.00     0.002 A 
ATOM      3  C5  UNL d   1      -3.853   5.988  -3.537  0.00  0.00     0.002 A 
ATOM      4  C6  UNL d   1      -3.511   6.000  -2.187  0.00  0.00    -0.004 A 
ATOM      5  C7  UNL d   1      -2.170   5.991  -1.812  0.00  0.00     0.002 A 
ATOM      6  C8  UNL d   1      -1.169   5.983  -2.785  0.00  0.00     0.002 A 
ENDROOT
BRANCH   1   7
ATOM      7  C2  UNL d   1      -0.418   6.000  -5.197  0.00  0.00     0.056 C 
BRANCH   7   8
ATOM      8  C1  UNL d   1       0.586   4.848  -5.075  0.00  0.00     0.007 C 
ATOM      9  C   UNL d   1       1.788   4.999  -5.998  0.00  0.00     0.009 C 
ENDBRANCH   7   8
ENDBRANCH   1   7
TORSDOF 2
ENDMDL
