MODEL 1
REMARK minimizedAffinity -3.02525568
REMARK minimizedRMSD -1
REMARK  2 active torsions:
REMARK  status: ('A' for Active; 'I' for Inactive)
REMARK    1  A    between atoms: C1_2  and  C2_3 
REMARK    2  A    between atoms: C2_3  and  C3_4 
ROOT
ATOM      1  C3  UNL d   1       0.022   5.298  -4.576  0.00  0.00    -0.075 A 
ATOM      2  C4  UNL d   1       1.041   6.000  -3.916  0.00  0.00     0.002 A 
ATOM      3  C5  UNL d   1       2.372   5.847  -4.304  0.00  0.00     0.002 A 
ATOM      4  C6  UNL d   1       2.702   4.986  -5.348  0.00  0.00    -0.004 A 
ATOM      5  C7  UNL d   1       1.700   4.271  -6.000  0.00  0.00     0.002 A 
ATOM      6  C8  UNL d   1       0.366   4.425  -5.616  0.00  0.00     0.002 A 
ENDROOT
BRANCH   1   7
ATOM      7  C2  UNL d   1      -1.424   5.481  -4.180  0.00  0.00     0.056 C 
BRANCH   7   8
ATOM      8  C1  UNL d   1      -1.636   5.705  -2.679  0.00  0.00     0.007 C 
ATOM      9  C   UNL d   1      -3.085   5.999  -2.315  0.00  0.00     0.009 C 
ENDBRANCH   7   8
ENDBRANCH   1   7
TORSDOF 2
ENDMDL
