MODEL 1
REMARK minimizedAffinity 2.54260254
REMARK minimizedRMSD -1
REMARK  2 active torsions:
REMARK  status: ('A' for Active; 'I' for Inactive)
REMARK    1  A    between atoms: C1_2  and  C2_3 
REMARK    2  A    between atoms: C2_3  and  C3_4 
ROOT
ATOM      1  C3  UNL d   1       2.690   4.765  -5.721  0.00  0.00    -0.075 A 
ATOM      2  C4  UNL d   1       3.365   3.660  -5.182  0.00  0.00     0.002 A 
ATOM      3  C5  UNL d   1       4.730   3.732  -4.903  0.00  0.00     0.002 A 
ATOM      4  C6  UNL d   1       5.439   4.901  -5.169  0.00  0.00    -0.004 A 
ATOM      5  C7  UNL d   1       4.782   5.999  -5.720  0.00  0.00     0.002 A 
ATOM      6  C8  UNL d   1       3.415   5.932  -5.996  0.00  0.00     0.002 A 
ENDROOT
BRANCH   1   7
ATOM      7  C2  UNL d   1       1.207   4.704  -5.998  0.00  0.00     0.056 C 
BRANCH   7   8
ATOM      8  C1  UNL d   1       0.457   5.999  -5.666  0.00  0.00     0.007 C 
ATOM      9  C   UNL d   1      -0.242   5.957  -4.314  0.00  0.00     0.009 C 
ENDBRANCH   7   8
ENDBRANCH   1   7
TORSDOF 2
ENDMDL
