MODEL 1
REMARK minimizedAffinity 8.18686295
REMARK minimizedRMSD -1
REMARK  0 active torsions:
REMARK  status: ('A' for Active; 'I' for Inactive)
ROOT
ATOM      1  C4' PXY d   1      -0.547  -1.354   0.039  0.00  0.00     0.077 C 
ATOM      2  C1' PXY d   1       0.805   4.121   1.311  0.00  0.00     0.077 C 
ATOM      3  C1  PXY d   1       0.447   2.689   0.965  0.00  0.00    -0.082 A 
ATOM      4  C2  PXY d   1       0.161   1.834   1.934  0.00  0.00     0.003 A 
ATOM      5  C3  PXY d   1      -0.134   0.527   1.641  0.00  0.00     0.003 A 
ATOM      6  C4  PXY d   1      -0.189   0.104   0.340  0.00  0.00    -0.082 A 
ATOM      7  C5  PXY d   1       0.091   0.973  -0.654  0.00  0.00     0.003 A 
ATOM      8  C6  PXY d   1       0.428   2.284  -0.334  0.00  0.00     0.003 A 
ENDROOT
TORSDOF 0
ENDMDL
