MODEL 1
REMARK minimizedAffinity 0.954685032
REMARK minimizedRMSD -1
REMARK  0 active torsions:
REMARK  status: ('A' for Active; 'I' for Inactive)
ROOT
ATOM      1  C4' PXY d   1      -6.000   3.377  -5.251  0.00  0.00     0.077 C 
ATOM      2  C1' PXY d   1      -0.512   2.412  -3.713  0.00  0.00     0.077 C 
ATOM      3  C1  PXY d   1      -1.949   2.678  -4.117  0.00  0.00    -0.082 A 
ATOM      4  C2  PXY d   1      -2.900   1.840  -3.740  0.00  0.00     0.003 A 
ATOM      5  C3  PXY d   1      -4.200   2.047  -4.124  0.00  0.00     0.003 A 
ATOM      6  C4  PXY d   1      -4.537   3.153  -4.858  0.00  0.00    -0.082 A 
ATOM      7  C5  PXY d   1      -3.574   4.019  -5.238  0.00  0.00     0.003 A 
ATOM      8  C6  PXY d   1      -2.254   3.768  -4.872  0.00  0.00     0.003 A 
ENDROOT
TORSDOF 0
ENDMDL
