MODEL 1
REMARK minimizedAffinity 3.30045414
REMARK minimizedRMSD -1
REMARK  0 active torsions:
REMARK  status: ('A' for Active; 'I' for Inactive)
ROOT
ATOM      1  C4' PXY d   1      -6.000  -0.347  -3.018  0.00  0.00     0.077 C 
ATOM      2  C1' PXY d   1      -3.907   4.140  -6.000  0.00  0.00     0.077 C 
ATOM      3  C1  PXY d   1      -4.445   2.963  -5.211  0.00  0.00    -0.082 A 
ATOM      4  C2  PXY d   1      -5.353   2.171  -5.756  0.00  0.00     0.003 A 
ATOM      5  C3  PXY d   1      -5.874   1.120  -5.044  0.00  0.00     0.003 A 
ATOM      6  C4  PXY d   1      -5.422   0.847  -3.781  0.00  0.00    -0.082 A 
ATOM      7  C5  PXY d   1      -4.487   1.645  -3.222  0.00  0.00     0.003 A 
ATOM      8  C6  PXY d   1      -4.001   2.730  -3.945  0.00  0.00     0.003 A 
ENDROOT
TORSDOF 0
ENDMDL
