MODEL 1
REMARK minimizedAffinity 4.91654253
REMARK minimizedRMSD -1
REMARK  0 active torsions:
REMARK  status: ('A' for Active; 'I' for Inactive)
ROOT
ATOM      1  C4' PXY d   1      -0.915   2.296  -1.862  0.00  0.00     0.077 C 
ATOM      2  C1' PXY d   1       1.566  -0.199   2.724  0.00  0.00     0.077 C 
ATOM      3  C1  PXY d   1       0.910   0.464   1.529  0.00  0.00    -0.082 A 
ATOM      4  C2  PXY d   1       0.699  -0.236   0.427  0.00  0.00     0.003 A 
ATOM      5  C3  PXY d   1       0.136   0.357  -0.674  0.00  0.00     0.003 A 
ATOM      6  C4  PXY d   1      -0.264   1.665  -0.628  0.00  0.00    -0.082 A 
ATOM      7  C5  PXY d   1      -0.062   2.384   0.497  0.00  0.00     0.003 A 
ATOM      8  C6  PXY d   1       0.549   1.775   1.590  0.00  0.00     0.003 A 
ENDROOT
TORSDOF 0
ENDMDL
