MODEL 1
REMARK minimizedAffinity 8.43407249
REMARK minimizedRMSD -1
REMARK  0 active torsions:
REMARK  status: ('A' for Active; 'I' for Inactive)
ROOT
ATOM      1  C4' PXY d   1       1.197  -2.140  -0.289  0.00  0.00     0.077 C 
ATOM      2  C1' PXY d   1       0.018   3.087   1.880  0.00  0.00     0.077 C 
ATOM      3  C1  PXY d   1       0.326   1.721   1.299  0.00  0.00    -0.082 A 
ATOM      4  C2  PXY d   1       0.151   0.640   2.042  0.00  0.00     0.003 A 
ATOM      5  C3  PXY d   1       0.454  -0.601   1.543  0.00  0.00     0.003 A 
ATOM      6  C4  PXY d   1       0.891  -0.741   0.253  0.00  0.00    -0.082 A 
ATOM      7  C5  PXY d   1       1.061   0.356  -0.515  0.00  0.00     0.003 A 
ATOM      8  C6  PXY d   1       0.787   1.610   0.024  0.00  0.00     0.003 A 
ENDROOT
TORSDOF 0
ENDMDL
