MODEL 1
REMARK minimizedAffinity 8.11453342
REMARK minimizedRMSD -1
REMARK  0 active torsions:
REMARK  status: ('A' for Active; 'I' for Inactive)
ROOT
ATOM      1  C4' PXY d   1       0.800   0.325  -3.529  0.00  0.00     0.077 C 
ATOM      2  C1' PXY d   1      -0.175   2.140   1.872  0.00  0.00     0.077 C 
ATOM      3  C1  PXY d   1       0.089   1.655   0.460  0.00  0.00    -0.082 A 
ATOM      4  C2  PXY d   1      -0.120   2.470  -0.561  0.00  0.00     0.003 A 
ATOM      5  C3  PXY d   1       0.083   2.037  -1.847  0.00  0.00     0.003 A 
ATOM      6  C4  PXY d   1       0.556   0.775  -2.086  0.00  0.00    -0.082 A 
ATOM      7  C5  PXY d   1       0.783  -0.059  -1.049  0.00  0.00     0.003 A 
ATOM      8  C6  PXY d   1       0.531   0.386   0.246  0.00  0.00     0.003 A 
ENDROOT
TORSDOF 0
ENDMDL
