MODEL 1
REMARK minimizedAffinity 3.498698
REMARK minimizedRMSD -1
REMARK  0 active torsions:
REMARK  status: ('A' for Active; 'I' for Inactive)
ROOT
ATOM      1  C4' PXY d   1       1.675   2.935   3.813  0.00  0.00     0.077 C 
ATOM      2  C1' PXY d   1      -1.116   1.696  -1.095  0.00  0.00     0.077 C 
ATOM      3  C1  PXY d   1      -0.379   2.032   0.187  0.00  0.00    -0.082 A 
ATOM      4  C2  PXY d   1      -0.079   1.067   1.041  0.00  0.00     0.003 A 
ATOM      5  C3  PXY d   1       0.559   1.357   2.219  0.00  0.00     0.003 A 
ATOM      6  C4  PXY d   1       0.940   2.641   2.502  0.00  0.00    -0.082 A 
ATOM      7  C5  PXY d   1       0.647   3.630   1.631  0.00  0.00     0.003 A 
ATOM      8  C6  PXY d   1      -0.037   3.320   0.459  0.00  0.00     0.003 A 
ENDROOT
TORSDOF 0
ENDMDL
