MODEL 1
REMARK minimizedAffinity 1.06363583
REMARK minimizedRMSD -1
REMARK  0 active torsions:
REMARK  status: ('A' for Active; 'I' for Inactive)
ROOT
ATOM      1  C4' PXY d   1      -5.998  -0.576  -3.185  0.00  0.00     0.077 C 
ATOM      2  C1' PXY d   1      -4.609   4.281  -5.995  0.00  0.00     0.077 C 
ATOM      3  C1  PXY d   1      -4.983   3.005  -5.267  0.00  0.00    -0.082 A 
ATOM      4  C2  PXY d   1      -4.654   2.858  -3.994  0.00  0.00     0.003 A 
ATOM      5  C3  PXY d   1      -4.956   1.697  -3.329  0.00  0.00     0.003 A 
ATOM      6  C4  PXY d   1      -5.650   0.699  -3.958  0.00  0.00    -0.082 A 
ATOM      7  C5  PXY d   1      -5.999   0.846  -5.253  0.00  0.00     0.003 A 
ATOM      8  C6  PXY d   1      -5.647   2.014  -5.922  0.00  0.00     0.003 A 
ENDROOT
TORSDOF 0
ENDMDL
