MODEL 1
REMARK minimizedAffinity 0.587720871
REMARK minimizedRMSD -1
REMARK  0 active torsions:
REMARK  status: ('A' for Active; 'I' for Inactive)
ROOT
ATOM      1  C4' PXY d   1      -2.714   0.408  -4.885  0.00  0.00     0.077 C 
ATOM      2  C1' PXY d   1      -6.000   5.039  -5.972  0.00  0.00     0.077 C 
ATOM      3  C1  PXY d   1      -5.147   3.821  -5.677  0.00  0.00    -0.082 A 
ATOM      4  C2  PXY d   1      -3.863   3.828  -6.000  0.00  0.00     0.003 A 
ATOM      5  C3  PXY d   1      -3.084   2.723  -5.770  0.00  0.00     0.003 A 
ATOM      6  C4  PXY d   1      -3.612   1.619  -5.155  0.00  0.00    -0.082 A 
ATOM      7  C5  PXY d   1      -4.918   1.608  -4.813  0.00  0.00     0.003 A 
ATOM      8  C6  PXY d   1      -5.701   2.724  -5.093  0.00  0.00     0.003 A 
ENDROOT
TORSDOF 0
ENDMDL
