MODEL 1
REMARK minimizedAffinity 5.67302132
REMARK minimizedRMSD -1
REMARK  0 active torsions:
REMARK  status: ('A' for Active; 'I' for Inactive)
ROOT
ATOM      1  C4' PXY d   1      -5.028  -0.737  -3.574  0.00  0.00     0.077 C 
ATOM      2  C1' PXY d   1      -5.664   4.473  -5.998  0.00  0.00     0.077 C 
ATOM      3  C1  PXY d   1      -5.508   3.102  -5.369  0.00  0.00    -0.082 A 
ATOM      4  C2  PXY d   1      -4.883   2.982  -4.209  0.00  0.00     0.003 A 
ATOM      5  C3  PXY d   1      -4.704   1.747  -3.641  0.00  0.00     0.003 A 
ATOM      6  C4  PXY d   1      -5.217   0.628  -4.242  0.00  0.00    -0.082 A 
ATOM      7  C5  PXY d   1      -5.865   0.744  -5.420  0.00  0.00     0.003 A 
ATOM      8  C6  PXY d   1      -6.000   2.002  -6.000  0.00  0.00     0.003 A 
ENDROOT
TORSDOF 0
ENDMDL
