MODEL 1
REMARK minimizedAffinity 10.5760479
REMARK minimizedRMSD -1
REMARK  0 active torsions:
REMARK  status: ('A' for Active; 'I' for Inactive)
ROOT
ATOM      1  C4' PXY d   1       0.282   0.251   0.754  0.00  0.00     0.077 C 
ATOM      2  C1' PXY d   1       0.753   6.000   1.125  0.00  0.00     0.077 C 
ATOM      3  C1  PXY d   1       0.619   4.494   1.020  0.00  0.00    -0.082 A 
ATOM      4  C2  PXY d   1       1.125   3.724   1.970  0.00  0.00     0.003 A 
ATOM      5  C3  PXY d   1       1.041   2.359   1.875  0.00  0.00     0.003 A 
ATOM      6  C4  PXY d   1       0.386   1.777   0.823  0.00  0.00    -0.082 A 
ATOM      7  C5  PXY d   1      -0.142   2.555  -0.145  0.00  0.00     0.003 A 
ATOM      8  C6  PXY d   1      -0.010   3.938  -0.051  0.00  0.00     0.003 A 
ENDROOT
TORSDOF 0
ENDMDL
