MODEL 1
REMARK minimizedAffinity 5.85554266
REMARK minimizedRMSD -1
REMARK  0 active torsions:
REMARK  status: ('A' for Active; 'I' for Inactive)
ROOT
ATOM      1  C4' PXY d   1       1.659   4.126   4.046  0.00  0.00     0.077 C 
ATOM      2  C1' PXY d   1      -0.767   1.589  -0.546  0.00  0.00     0.077 C 
ATOM      3  C1  PXY d   1      -0.124   2.262   0.650  0.00  0.00    -0.082 A 
ATOM      4  C2  PXY d   1      -0.086   1.631   1.813  0.00  0.00     0.003 A 
ATOM      5  C3  PXY d   1       0.464   2.238   2.913  0.00  0.00     0.003 A 
ATOM      6  C4  PXY d   1       1.028   3.481   2.809  0.00  0.00    -0.082 A 
ATOM      7  C5  PXY d   1       1.002   4.127   1.624  0.00  0.00     0.003 A 
ATOM      8  C6  PXY d   1       0.403   3.510   0.529  0.00  0.00     0.003 A 
ENDROOT
TORSDOF 0
ENDMDL
