MODEL 1
REMARK minimizedAffinity 2.93752885
REMARK minimizedRMSD -1
REMARK  0 active torsions:
REMARK  status: ('A' for Active; 'I' for Inactive)
ROOT
ATOM      1  C4' PXY d   1      -0.653  -1.012   0.001  0.00  0.00     0.077 C 
ATOM      2  C1' PXY d   1       0.623   4.416   1.525  0.00  0.00     0.077 C 
ATOM      3  C1  PXY d   1       0.283   2.997   1.114  0.00  0.00    -0.082 A 
ATOM      4  C2  PXY d   1       0.176   2.057   2.039  0.00  0.00     0.003 A 
ATOM      5  C3  PXY d   1      -0.100   0.762   1.682  0.00  0.00     0.003 A 
ATOM      6  C4  PXY d   1      -0.320   0.436   0.370  0.00  0.00    -0.082 A 
ATOM      7  C5  PXY d   1      -0.223   1.392  -0.578  0.00  0.00     0.003 A 
ATOM      8  C6  PXY d   1       0.098   2.693  -0.199  0.00  0.00     0.003 A 
ENDROOT
TORSDOF 0
ENDMDL
