MODEL 1
REMARK minimizedAffinity 3.69097853
REMARK minimizedRMSD -1
REMARK  0 active torsions:
REMARK  status: ('A' for Active; 'I' for Inactive)
ROOT
ATOM      1  C4' PXY d   1      -5.983   4.277  -5.996  0.00  0.00     0.077 C 
ATOM      2  C1' PXY d   1      -2.274   1.853  -2.284  0.00  0.00     0.077 C 
ATOM      3  C1  PXY d   1      -3.248   2.477  -3.264  0.00  0.00    -0.082 A 
ATOM      4  C2  PXY d   1      -3.226   3.785  -3.464  0.00  0.00     0.003 A 
ATOM      5  C3  PXY d   1      -4.121   4.370  -4.322  0.00  0.00     0.003 A 
ATOM      6  C4  PXY d   1      -5.012   3.602  -5.023  0.00  0.00    -0.082 A 
ATOM      7  C5  PXY d   1      -5.034   2.266  -4.832  0.00  0.00     0.003 A 
ATOM      8  C6  PXY d   1      -4.145   1.696  -3.926  0.00  0.00     0.003 A 
ENDROOT
TORSDOF 0
ENDMDL
