MODEL 1
REMARK minimizedAffinity 7.85872555
REMARK minimizedRMSD -1
REMARK  0 active torsions:
REMARK  status: ('A' for Active; 'I' for Inactive)
ROOT
ATOM      1  C4' PXY d   1      -0.061  -1.492  -0.369  0.00  0.00     0.077 C 
ATOM      2  C1' PXY d   1       0.406   3.804   1.902  0.00  0.00     0.077 C 
ATOM      3  C1  PXY d   1       0.275   2.419   1.298  0.00  0.00    -0.082 A 
ATOM      4  C2  PXY d   1       0.603   1.358   2.016  0.00  0.00     0.003 A 
ATOM      5  C3  PXY d   1       0.521   0.101   1.475  0.00  0.00     0.003 A 
ATOM      6  C4  PXY d   1       0.047  -0.075   0.203  0.00  0.00    -0.082 A 
ATOM      7  C5  PXY d   1      -0.301   1.002  -0.533  0.00  0.00     0.003 A 
ATOM      8  C6  PXY d   1      -0.171   2.272   0.020  0.00  0.00     0.003 A 
ENDROOT
TORSDOF 0
ENDMDL
