MODEL 1
REMARK minimizedAffinity 5.11476898
REMARK minimizedRMSD -1
REMARK  0 active torsions:
REMARK  status: ('A' for Active; 'I' for Inactive)
ROOT
ATOM      1  C4' PXY d   1       0.330   0.350  -3.558  0.00  0.00     0.077 C 
ATOM      2  C1' PXY d   1       0.186   1.525   2.100  0.00  0.00     0.077 C 
ATOM      3  C1  PXY d   1       0.211   1.214   0.616  0.00  0.00    -0.082 A 
ATOM      4  C2  PXY d   1       1.351   0.867   0.040  0.00  0.00     0.003 A 
ATOM      5  C3  PXY d   1       1.397   0.613  -1.307  0.00  0.00     0.003 A 
ATOM      6  C4  PXY d   1       0.256   0.664  -2.061  0.00  0.00    -0.082 A 
ATOM      7  C5  PXY d   1      -0.912   1.008  -1.479  0.00  0.00     0.003 A 
ATOM      8  C6  PXY d   1      -0.931   1.301  -0.118  0.00  0.00     0.003 A 
ENDROOT
TORSDOF 0
ENDMDL
