MODEL 1
REMARK minimizedAffinity 6.55987883
REMARK minimizedRMSD -1
REMARK  0 active torsions:
REMARK  status: ('A' for Active; 'I' for Inactive)
ROOT
ATOM      1  C4' PXY d   1      -2.251   1.863  -1.978  0.00  0.00     0.077 C 
ATOM      2  C1' PXY d   1      -5.999   3.651  -6.000  0.00  0.00     0.077 C 
ATOM      3  C1  PXY d   1      -5.008   3.192  -4.948  0.00  0.00    -0.082 A 
ATOM      4  C2  PXY d   1      -4.974   1.918  -4.593  0.00  0.00     0.003 A 
ATOM      5  C3  PXY d   1      -4.106   1.492  -3.621  0.00  0.00     0.003 A 
ATOM      6  C4  PXY d   1      -3.228   2.370  -3.043  0.00  0.00    -0.082 A 
ATOM      7  C5  PXY d   1      -3.250   3.669  -3.407  0.00  0.00     0.003 A 
ATOM      8  C6  PXY d   1      -4.166   4.089  -4.366  0.00  0.00     0.003 A 
ENDROOT
TORSDOF 0
ENDMDL
