MODEL 1
REMARK minimizedAffinity -2.60636687
REMARK minimizedRMSD -1
REMARK  0 active torsions:
REMARK  status: ('A' for Active; 'I' for Inactive)
ROOT
ATOM      1  C4' PXY d   1      -5.999  -0.622  -3.527  0.00  0.00     0.077 C 
ATOM      2  C1' PXY d   1      -4.800   4.474  -5.978  0.00  0.00     0.077 C 
ATOM      3  C1  PXY d   1      -5.115   3.132  -5.347  0.00  0.00    -0.082 A 
ATOM      4  C2  PXY d   1      -5.722   3.088  -4.172  0.00  0.00     0.003 A 
ATOM      5  C3  PXY d   1      -5.985   1.883  -3.573  0.00  0.00     0.003 A 
ATOM      6  C4  PXY d   1      -5.670   0.710  -4.206  0.00  0.00    -0.082 A 
ATOM      7  C5  PXY d   1      -5.060   0.747  -5.410  0.00  0.00     0.003 A 
ATOM      8  C6  PXY d   1      -4.765   1.981  -5.983  0.00  0.00     0.003 A 
ENDROOT
TORSDOF 0
ENDMDL
