MODEL 1
REMARK minimizedAffinity -3.04566765
REMARK minimizedRMSD -1
REMARK  2 active torsions:
REMARK  status: ('A' for Active; 'I' for Inactive)
REMARK    1  A    between atoms: C1_2  and  C2_3 
REMARK    2  A    between atoms: C2_3  and  C3_4 
ROOT
ATOM      1  C3  UNL d   1       0.249   0.522  -0.149  0.00  0.00    -0.075 A 
ATOM      2  C4  UNL d   1       0.439   0.141  -1.485  0.00  0.00     0.002 A 
ATOM      3  C5  UNL d   1       0.002  -1.105  -1.935  0.00  0.00     0.002 A 
ATOM      4  C6  UNL d   1      -0.621  -1.988  -1.055  0.00  0.00    -0.004 A 
ATOM      5  C7  UNL d   1      -0.800  -1.627   0.278  0.00  0.00     0.002 A 
ATOM      6  C8  UNL d   1      -0.368  -0.379   0.730  0.00  0.00     0.002 A 
ENDROOT
BRANCH   1   7
ATOM      7  C2  UNL d   1       0.693   1.881   0.338  0.00  0.00     0.056 C 
BRANCH   7   8
ATOM      8  C1  UNL d   1       2.209   2.014   0.517  0.00  0.00     0.007 C 
ATOM      9  C   UNL d   1       2.606   3.161   1.436  0.00  0.00     0.009 C 
ENDBRANCH   7   8
ENDBRANCH   1   7
TORSDOF 2
ENDMDL
