MODEL 1
REMARK minimizedAffinity 2.575176
REMARK minimizedRMSD -1
REMARK  2 active torsions:
REMARK  status: ('A' for Active; 'I' for Inactive)
REMARK    1  A    between atoms: C1_2  and  C2_3 
REMARK    2  A    between atoms: C2_3  and  C3_4 
ROOT
ATOM      1  C3  UNL d   1       0.543   0.279   0.485  0.00  0.00    -0.075 A 
ATOM      2  C4  UNL d   1      -0.684   0.551  -0.138  0.00  0.00     0.002 A 
ATOM      3  C5  UNL d   1      -1.818  -0.198   0.175  0.00  0.00     0.002 A 
ATOM      4  C6  UNL d   1      -1.739  -1.233   1.105  0.00  0.00    -0.004 A 
ATOM      5  C7  UNL d   1      -0.522  -1.522   1.718  0.00  0.00     0.002 A 
ATOM      6  C8  UNL d   1       0.614  -0.771   1.410  0.00  0.00     0.002 A 
ENDROOT
BRANCH   1   7
ATOM      7  C2  UNL d   1       1.768   1.105   0.172  0.00  0.00     0.056 C 
BRANCH   7   8
ATOM      8  C1  UNL d   1       1.716   2.533   0.726  0.00  0.00     0.007 C 
ATOM      9  C   UNL d   1       3.083   3.073   1.122  0.00  0.00     0.009 C 
ENDBRANCH   7   8
ENDBRANCH   1   7
TORSDOF 2
ENDMDL
