MODEL 1
REMARK minimizedAffinity 3.94929552
REMARK minimizedRMSD -1
REMARK  2 active torsions:
REMARK  status: ('A' for Active; 'I' for Inactive)
REMARK    1  A    between atoms: C1_2  and  C2_3 
REMARK    2  A    between atoms: C2_3  and  C3_4 
ROOT
ATOM      1  C3  UNL d   1       0.157   0.011  -0.015  0.00  0.00    -0.075 A 
ATOM      2  C4  UNL d   1      -0.125  -1.129   0.752  0.00  0.00     0.002 A 
ATOM      3  C5  UNL d   1      -1.314  -1.219   1.477  0.00  0.00     0.002 A 
ATOM      4  C6  UNL d   1      -2.229  -0.168   1.453  0.00  0.00    -0.004 A 
ATOM      5  C7  UNL d   1      -1.951   0.976   0.708  0.00  0.00     0.002 A 
ATOM      6  C8  UNL d   1      -0.765   1.066  -0.022  0.00  0.00     0.002 A 
ENDROOT
BRANCH   1   7
ATOM      7  C2  UNL d   1       1.428   0.102  -0.825  0.00  0.00     0.056 C 
BRANCH   7   8
ATOM      8  C1  UNL d   1       1.197   0.291  -2.328  0.00  0.00     0.007 C 
ATOM      9  C   UNL d   1       1.011  -1.022  -3.077  0.00  0.00     0.009 C 
ENDBRANCH   7   8
ENDBRANCH   1   7
TORSDOF 2
ENDMDL
