MODEL 1
REMARK minimizedAffinity -0.142734483
REMARK minimizedRMSD -1
REMARK  2 active torsions:
REMARK  status: ('A' for Active; 'I' for Inactive)
REMARK    1  A    between atoms: C1_2  and  C2_3 
REMARK    2  A    between atoms: C2_3  and  C3_4 
ROOT
ATOM      1  C3  UNL d   1      -0.684   0.057   0.235  0.00  0.00    -0.075 A 
ATOM      2  C4  UNL d   1       0.127  -0.490   1.240  0.00  0.00     0.002 A 
ATOM      3  C5  UNL d   1       1.432  -0.895   0.955  0.00  0.00     0.002 A 
ATOM      4  C6  UNL d   1       1.937  -0.767  -0.337  0.00  0.00    -0.004 A 
ATOM      5  C7  UNL d   1       1.134  -0.240  -1.347  0.00  0.00     0.002 A 
ATOM      6  C8  UNL d   1      -0.170   0.170  -1.063  0.00  0.00     0.002 A 
ENDROOT
BRANCH   1   7
ATOM      7  C2  UNL d   1      -2.087   0.524   0.544  0.00  0.00     0.056 C 
BRANCH   7   8
ATOM      8  C1  UNL d   1      -2.517   0.289   1.996  0.00  0.00     0.007 C 
ATOM      9  C   UNL d   1      -3.806   1.011   2.364  0.00  0.00     0.009 C 
ENDBRANCH   7   8
ENDBRANCH   1   7
TORSDOF 2
ENDMDL
