MODEL 1
REMARK minimizedAffinity -3.32946062
REMARK minimizedRMSD -1
REMARK  2 active torsions:
REMARK  status: ('A' for Active; 'I' for Inactive)
REMARK    1  A    between atoms: C1_2  and  C2_3 
REMARK    2  A    between atoms: C2_3  and  C3_4 
ROOT
ATOM      1  C3  UNL d   1       0.713   1.562   0.241  0.00  0.00    -0.075 A 
ATOM      2  C4  UNL d   1       2.050   1.671  -0.169  0.00  0.00     0.002 A 
ATOM      3  C5  UNL d   1       2.824   2.764   0.222  0.00  0.00     0.002 A 
ATOM      4  C6  UNL d   1       2.270   3.765   1.017  0.00  0.00    -0.004 A 
ATOM      5  C7  UNL d   1       0.938   3.675   1.417  0.00  0.00     0.002 A 
ATOM      6  C8  UNL d   1       0.163   2.580   1.031  0.00  0.00     0.002 A 
ENDROOT
BRANCH   1   7
ATOM      7  C2  UNL d   1      -0.121   0.367  -0.154  0.00  0.00     0.056 C 
BRANCH   7   8
ATOM      8  C1  UNL d   1      -1.136  -0.064   0.910  0.00  0.00     0.007 C 
ATOM      9  C   UNL d   1      -0.549  -1.005   1.954  0.00  0.00     0.009 C 
ENDBRANCH   7   8
ENDBRANCH   1   7
TORSDOF 2
ENDMDL
