MODEL 1
REMARK minimizedAffinity -1.23575127
REMARK minimizedRMSD -1
REMARK  2 active torsions:
REMARK  status: ('A' for Active; 'I' for Inactive)
REMARK    1  A    between atoms: C1_2  and  C2_3 
REMARK    2  A    between atoms: C2_3  and  C3_4 
ROOT
ATOM      1  C3  UNL d   1       0.606   1.211   0.431  0.00  0.00    -0.075 A 
ATOM      2  C4  UNL d   1      -0.700   1.355  -0.058  0.00  0.00     0.002 A 
ATOM      3  C5  UNL d   1      -1.717   0.504   0.376  0.00  0.00     0.002 A 
ATOM      4  C6  UNL d   1      -1.439  -0.507   1.294  0.00  0.00    -0.004 A 
ATOM      5  C7  UNL d   1      -0.141  -0.670   1.773  0.00  0.00     0.002 A 
ATOM      6  C8  UNL d   1       0.877   0.184   1.345  0.00  0.00     0.002 A 
ENDROOT
BRANCH   1   7
ATOM      7  C2  UNL d   1       1.705   2.148  -0.012  0.00  0.00     0.056 C 
BRANCH   7   8
ATOM      8  C1  UNL d   1       1.593   3.560   0.571  0.00  0.00     0.007 C 
ATOM      9  C   UNL d   1       1.925   3.625   2.056  0.00  0.00     0.009 C 
ENDBRANCH   7   8
ENDBRANCH   1   7
TORSDOF 2
ENDMDL
