MODEL 1
REMARK minimizedAffinity -4.98198032
REMARK minimizedRMSD -1
REMARK  2 active torsions:
REMARK  status: ('A' for Active; 'I' for Inactive)
REMARK    1  A    between atoms: C1_2  and  C2_3 
REMARK    2  A    between atoms: C2_3  and  C3_4 
ROOT
ATOM      1  C3  UNL d   1      -0.432   1.185   0.316  0.00  0.00    -0.075 A 
ATOM      2  C4  UNL d   1      -1.690   1.328   0.920  0.00  0.00     0.002 A 
ATOM      3  C5  UNL d   1      -2.161   0.365   1.813  0.00  0.00     0.002 A 
ATOM      4  C6  UNL d   1      -1.387  -0.756   2.105  0.00  0.00    -0.004 A 
ATOM      5  C7  UNL d   1      -0.143  -0.917   1.498  0.00  0.00     0.002 A 
ATOM      6  C8  UNL d   1       0.332   0.047   0.608  0.00  0.00     0.002 A 
ENDROOT
BRANCH   1   7
ATOM      7  C2  UNL d   1       0.095   2.238  -0.628  0.00  0.00     0.056 C 
BRANCH   7   8
ATOM      8  C1  UNL d   1       0.671   3.473   0.073  0.00  0.00     0.007 C 
ATOM      9  C   UNL d   1       2.123   3.749  -0.293  0.00  0.00     0.009 C 
ENDBRANCH   7   8
ENDBRANCH   1   7
TORSDOF 2
ENDMDL
