MODEL 1
REMARK minimizedAffinity -4.20634794
REMARK minimizedRMSD -1
REMARK  2 active torsions:
REMARK  status: ('A' for Active; 'I' for Inactive)
REMARK    1  A    between atoms: C1_2  and  C2_3 
REMARK    2  A    between atoms: C2_3  and  C3_4 
ROOT
ATOM      1  C3  UNL d   1       0.762   2.106  -0.414  0.00  0.00    -0.075 A 
ATOM      2  C4  UNL d   1       2.088   2.287  -0.833  0.00  0.00     0.002 A 
ATOM      3  C5  UNL d   1       2.844   3.355  -0.349  0.00  0.00     0.002 A 
ATOM      4  C6  UNL d   1       2.283   4.259   0.549  0.00  0.00    -0.004 A 
ATOM      5  C7  UNL d   1       0.961   4.099   0.959  0.00  0.00     0.002 A 
ATOM      6  C8  UNL d   1       0.203   3.028   0.481  0.00  0.00     0.002 A 
ENDROOT
BRANCH   1   7
ATOM      7  C2  UNL d   1      -0.052   0.935  -0.911  0.00  0.00     0.056 C 
BRANCH   7   8
ATOM      8  C1  UNL d   1       0.283  -0.394  -0.226  0.00  0.00     0.007 C 
ATOM      9  C   UNL d   1      -0.417  -0.572   1.115  0.00  0.00     0.009 C 
ENDBRANCH   7   8
ENDBRANCH   1   7
TORSDOF 2
ENDMDL
