MODEL 1
REMARK minimizedAffinity 3.69845557
REMARK minimizedRMSD -1
REMARK  2 active torsions:
REMARK  status: ('A' for Active; 'I' for Inactive)
REMARK    1  A    between atoms: C1_2  and  C2_3 
REMARK    2  A    between atoms: C2_3  and  C3_4 
ROOT
ATOM      1  C3  UNL d   1      -0.793   0.017   0.227  0.00  0.00    -0.075 A 
ATOM      2  C4  UNL d   1       0.118  -0.561   1.122  0.00  0.00     0.002 A 
ATOM      3  C5  UNL d   1      -0.240  -0.785   2.452  0.00  0.00     0.002 A 
ATOM      4  C6  UNL d   1      -1.507  -0.425   2.905  0.00  0.00    -0.004 A 
ATOM      5  C7  UNL d   1      -2.415   0.165   2.029  0.00  0.00     0.002 A 
ATOM      6  C8  UNL d   1      -2.061   0.387   0.697  0.00  0.00     0.002 A 
ENDROOT
BRANCH   1   7
ATOM      7  C2  UNL d   1      -0.422   0.235  -1.220  0.00  0.00     0.056 C 
BRANCH   7   8
ATOM      8  C1  UNL d   1       0.980  -0.261  -1.586  0.00  0.00     0.007 C 
ATOM      9  C   UNL d   1       1.128  -0.612  -3.061  0.00  0.00     0.009 C 
ENDBRANCH   7   8
ENDBRANCH   1   7
TORSDOF 2
ENDMDL
