MODEL 1
REMARK minimizedAffinity 0.228295684
REMARK minimizedRMSD -1
REMARK  2 active torsions:
REMARK  status: ('A' for Active; 'I' for Inactive)
REMARK    1  A    between atoms: C1_2  and  C2_3 
REMARK    2  A    between atoms: C2_3  and  C3_4 
ROOT
ATOM      1  C3  UNL d   1      -0.293   0.551  -0.136  0.00  0.00    -0.075 A 
ATOM      2  C4  UNL d   1      -0.310  -0.128  -1.363  0.00  0.00     0.002 A 
ATOM      3  C5  UNL d   1       0.815  -0.131  -2.187  0.00  0.00     0.002 A 
ATOM      4  C6  UNL d   1       1.967   0.551  -1.801  0.00  0.00    -0.004 A 
ATOM      5  C7  UNL d   1       1.990   1.244  -0.592  0.00  0.00     0.002 A 
ATOM      6  C8  UNL d   1       0.866   1.245   0.236  0.00  0.00     0.002 A 
ENDROOT
BRANCH   1   7
ATOM      7  C2  UNL d   1      -1.498   0.534   0.774  0.00  0.00     0.056 C 
BRANCH   7   8
ATOM      8  C1  UNL d   1      -1.390  -0.462   1.933  0.00  0.00     0.007 C 
ATOM      9  C   UNL d   1      -1.630  -1.905   1.510  0.00  0.00     0.009 C 
ENDBRANCH   7   8
ENDBRANCH   1   7
TORSDOF 2
ENDMDL
