MODEL 1
REMARK minimizedAffinity -4.93780994
REMARK minimizedRMSD -1
REMARK  2 active torsions:
REMARK  status: ('A' for Active; 'I' for Inactive)
REMARK    1  A    between atoms: C1_2  and  C2_3 
REMARK    2  A    between atoms: C2_3  and  C3_4 
ROOT
ATOM      1  C3  UNL d   1      -0.390  -1.295  -0.622  0.00  0.00    -0.075 A 
ATOM      2  C4  UNL d   1      -0.682  -2.615  -0.250  0.00  0.00     0.002 A 
ATOM      3  C5  UNL d   1      -0.600  -3.649  -1.183  0.00  0.00     0.002 A 
ATOM      4  C6  UNL d   1      -0.236  -3.376  -2.499  0.00  0.00    -0.004 A 
ATOM      5  C7  UNL d   1       0.040  -2.066  -2.885  0.00  0.00     0.002 A 
ATOM      6  C8  UNL d   1      -0.037  -1.030  -1.952  0.00  0.00     0.002 A 
ENDROOT
BRANCH   1   7
ATOM      7  C2  UNL d   1      -0.448  -0.175   0.390  0.00  0.00     0.056 C 
BRANCH   7   8
ATOM      8  C1  UNL d   1       0.914   0.452   0.704  0.00  0.00     0.007 C 
ATOM      9  C   UNL d   1       1.076   1.853   0.130  0.00  0.00     0.009 C 
ENDBRANCH   7   8
ENDBRANCH   1   7
TORSDOF 2
ENDMDL
