MODEL 1
REMARK minimizedAffinity -5.86493349
REMARK minimizedRMSD -1
REMARK  2 active torsions:
REMARK  status: ('A' for Active; 'I' for Inactive)
REMARK    1  A    between atoms: C1_2  and  C2_3 
REMARK    2  A    between atoms: C2_3  and  C3_4 
ROOT
ATOM      1  C3  UNL d   1       0.049  -0.805   0.087  0.00  0.00    -0.075 A 
ATOM      2  C4  UNL d   1       0.326  -0.963  -1.279  0.00  0.00     0.002 A 
ATOM      3  C5  UNL d   1       0.310  -2.230  -1.863  0.00  0.00     0.002 A 
ATOM      4  C6  UNL d   1       0.028  -3.353  -1.090  0.00  0.00    -0.004 A 
ATOM      5  C7  UNL d   1      -0.233  -3.210   0.271  0.00  0.00     0.002 A 
ATOM      6  C8  UNL d   1      -0.222  -1.943   0.858  0.00  0.00     0.002 A 
ENDROOT
BRANCH   1   7
ATOM      7  C2  UNL d   1       0.036   0.566   0.719  0.00  0.00     0.056 C 
BRANCH   7   8
ATOM      8  C1  UNL d   1       0.217   1.715  -0.279  0.00  0.00     0.007 C 
ATOM      9  C   UNL d   1       1.221   2.762   0.186  0.00  0.00     0.009 C 
ENDBRANCH   7   8
ENDBRANCH   1   7
TORSDOF 2
ENDMDL
