MODEL 1
REMARK minimizedAffinity -2.62616754
REMARK minimizedRMSD -1
REMARK  2 active torsions:
REMARK  status: ('A' for Active; 'I' for Inactive)
REMARK    1  A    between atoms: C1_2  and  C2_3 
REMARK    2  A    between atoms: C2_3  and  C3_4 
ROOT
ATOM      1  C3  UNL d   1      -0.015   1.608   0.289  0.00  0.00    -0.075 A 
ATOM      2  C4  UNL d   1      -0.968   1.124   1.196  0.00  0.00     0.002 A 
ATOM      3  C5  UNL d   1      -1.399  -0.202   1.130  0.00  0.00     0.002 A 
ATOM      4  C6  UNL d   1      -0.892  -1.054   0.152  0.00  0.00    -0.004 A 
ATOM      5  C7  UNL d   1       0.043  -0.579  -0.765  0.00  0.00     0.002 A 
ATOM      6  C8  UNL d   1       0.480   0.745  -0.698  0.00  0.00     0.002 A 
ENDROOT
BRANCH   1   7
ATOM      7  C2  UNL d   1       0.478   3.033   0.374  0.00  0.00     0.056 C 
BRANCH   7   8
ATOM      8  C1  UNL d   1       1.647   3.232   1.344  0.00  0.00     0.007 C 
ATOM      9  C   UNL d   1       2.971   3.505   0.642  0.00  0.00     0.009 C 
ENDBRANCH   7   8
ENDBRANCH   1   7
TORSDOF 2
ENDMDL
