MODEL 1
REMARK minimizedAffinity 13.9723997
REMARK minimizedRMSD -1
REMARK  1 active torsions:
REMARK  status: ('A' for Active; 'I' for Inactive)
REMARK    1  A    between atoms: C1_2  and  C2_3 
ROOT
ATOM      1  C2  UNL d   1       2.442   4.720   3.727  0.00  0.00    -0.073 A 
ATOM      2  C3  UNL d   1       3.026   5.915   4.162  0.00  0.00    -0.002 A 
ATOM      3  C4  UNL d   1       4.406   5.997   4.354  0.00  0.00     0.004 A 
ATOM      4  C5  UNL d   1       5.216   4.888   4.109  0.00  0.00    -0.004 A 
ATOM      5  C6  UNL d   1       4.652   3.688   3.663  0.00  0.00    -0.075 A 
ATOM      6  C7  UNL d   1       5.510   2.486   3.396  0.00  0.00     0.076 C 
ATOM      7  C8  UNL d   1       3.266   3.613   3.474  0.00  0.00     0.001 A 
ENDROOT
BRANCH   1   8
ATOM      8  C1  UNL d   1       0.954   4.629   3.511  0.00  0.00     0.053 C 
ATOM      9  C   UNL d   1       0.318   5.999   3.339  0.00  0.00     0.018 C 
ENDBRANCH   1   8
TORSDOF 1
ENDMDL
