MODEL 1
REMARK minimizedAffinity 3.64736199
REMARK minimizedRMSD -1
REMARK  1 active torsions:
REMARK  status: ('A' for Active; 'I' for Inactive)
REMARK    1  A    between atoms: C1_2  and  C2_3 
ROOT
ATOM      1  C2  UNL d   1       2.227  -0.636  -0.026  0.00  0.00    -0.073 A 
ATOM      2  C3  UNL d   1       1.465   0.335   0.633  0.00  0.00    -0.002 A 
ATOM      3  C4  UNL d   1       1.917   1.654   0.708  0.00  0.00     0.004 A 
ATOM      4  C5  UNL d   1       3.129   2.015   0.119  0.00  0.00    -0.004 A 
ATOM      5  C6  UNL d   1       3.898   1.061  -0.554  0.00  0.00    -0.075 A 
ATOM      6  C7  UNL d   1       5.205   1.433  -1.191  0.00  0.00     0.076 C 
ATOM      7  C8  UNL d   1       3.439  -0.261  -0.623  0.00  0.00     0.001 A 
ENDROOT
BRANCH   1   8
ATOM      8  C1  UNL d   1       1.740  -2.060  -0.115  0.00  0.00     0.053 C 
ATOM      9  C   UNL d   1       2.362  -2.802  -1.287  0.00  0.00     0.018 C 
ENDBRANCH   1   8
TORSDOF 1
ENDMDL
