MODEL 1
REMARK minimizedAffinity 3.46889496
REMARK minimizedRMSD -1
REMARK  1 active torsions:
REMARK  status: ('A' for Active; 'I' for Inactive)
REMARK    1  A    between atoms: C1_2  and  C2_3 
ROOT
ATOM      1  C2  UNL d   1       1.279  -2.544  -0.356  0.00  0.00    -0.073 A 
ATOM      2  C3  UNL d   1       2.540  -3.107  -0.133  0.00  0.00    -0.002 A 
ATOM      3  C4  UNL d   1       2.679  -4.488   0.011  0.00  0.00     0.004 A 
ATOM      4  C5  UNL d   1       1.562  -5.319  -0.073  0.00  0.00    -0.004 A 
ATOM      5  C6  UNL d   1       0.295  -4.776  -0.307  0.00  0.00    -0.075 A 
ATOM      6  C7  UNL d   1      -0.917  -5.656  -0.398  0.00  0.00     0.076 C 
ATOM      7  C8  UNL d   1       0.163  -3.388  -0.448  0.00  0.00     0.001 A 
ENDROOT
BRANCH   1   8
ATOM      8  C1  UNL d   1       1.124  -1.054  -0.518  0.00  0.00     0.053 C 
ATOM      9  C   UNL d   1       2.468  -0.348  -0.611  0.00  0.00     0.018 C 
ENDBRANCH   1   8
TORSDOF 1
ENDMDL
