MODEL 1
REMARK minimizedAffinity -1.35518658
REMARK minimizedRMSD -1
REMARK  1 active torsions:
REMARK  status: ('A' for Active; 'I' for Inactive)
REMARK    1  A    between atoms: C1_2  and  C2_3 
ROOT
ATOM      1  C2  UNL d   1       1.356  -0.756  -0.349  0.00  0.00    -0.073 A 
ATOM      2  C3  UNL d   1       2.724  -1.048  -0.400  0.00  0.00    -0.002 A 
ATOM      3  C4  UNL d   1       3.162  -2.373  -0.400  0.00  0.00     0.004 A 
ATOM      4  C5  UNL d   1       2.239  -3.418  -0.355  0.00  0.00    -0.004 A 
ATOM      5  C6  UNL d   1       0.868  -3.146  -0.316  0.00  0.00    -0.075 A 
ATOM      6  C7  UNL d   1      -0.138  -4.259  -0.266  0.00  0.00     0.076 C 
ATOM      7  C8  UNL d   1       0.435  -1.813  -0.314  0.00  0.00     0.001 A 
ENDROOT
BRANCH   1   8
ATOM      8  C1  UNL d   1       0.878   0.673  -0.356  0.00  0.00     0.053 C 
ATOM      9  C   UNL d   1       1.873   1.610   0.309  0.00  0.00     0.018 C 
ENDBRANCH   1   8
TORSDOF 1
ENDMDL
