MODEL 1
REMARK minimizedAffinity -1.36428559
REMARK minimizedRMSD -1
REMARK  1 active torsions:
REMARK  status: ('A' for Active; 'I' for Inactive)
REMARK    1  A    between atoms: C1_2  and  C2_3 
ROOT
ATOM      1  C2  UNL d   1       0.312  -3.700  -1.279  0.00  0.00    -0.073 A 
ATOM      2  C3  UNL d   1       1.456  -4.319  -0.761  0.00  0.00    -0.002 A 
ATOM      3  C4  UNL d   1       2.600  -3.570  -0.484  0.00  0.00     0.004 A 
ATOM      4  C5  UNL d   1       2.610  -2.194  -0.715  0.00  0.00    -0.004 A 
ATOM      5  C6  UNL d   1       1.474  -1.555  -1.221  0.00  0.00    -0.075 A 
ATOM      6  C7  UNL d   1       1.470  -0.076  -1.477  0.00  0.00     0.076 C 
ATOM      7  C8  UNL d   1       0.330  -2.315  -1.499  0.00  0.00     0.001 A 
ENDROOT
BRANCH   1   8
ATOM      8  C1  UNL d   1      -0.927  -4.504  -1.573  0.00  0.00     0.053 C 
ATOM      9  C   UNL d   1      -0.650  -5.999  -1.571  0.00  0.00     0.018 C 
ENDBRANCH   1   8
TORSDOF 1
ENDMDL
