MODEL 1
REMARK minimizedAffinity -3.00844407
REMARK minimizedRMSD -1
REMARK  1 active torsions:
REMARK  status: ('A' for Active; 'I' for Inactive)
REMARK    1  A    between atoms: C1_2  and  C2_3 
ROOT
ATOM      1  C2  UNL d   1       0.186  -0.107  -1.461  0.00  0.00    -0.073 A 
ATOM      2  C3  UNL d   1       1.422   0.550  -1.458  0.00  0.00    -0.002 A 
ATOM      3  C4  UNL d   1       2.607  -0.179  -1.352  0.00  0.00     0.004 A 
ATOM      4  C5  UNL d   1       2.570  -1.570  -1.255  0.00  0.00    -0.004 A 
ATOM      5  C6  UNL d   1       1.346  -2.245  -1.268  0.00  0.00    -0.075 A 
ATOM      6  C7  UNL d   1       1.289  -3.741  -1.163  0.00  0.00     0.076 C 
ATOM      7  C8  UNL d   1       0.160  -1.507  -1.372  0.00  0.00     0.001 A 
ENDROOT
BRANCH   1   8
ATOM      8  C1  UNL d   1      -1.096   0.675  -1.582  0.00  0.00     0.053 C 
ATOM      9  C   UNL d   1      -0.982   1.804  -2.593  0.00  0.00     0.018 C 
ENDBRANCH   1   8
TORSDOF 1
ENDMDL
