MODEL 1
REMARK minimizedAffinity -4.50494909
REMARK minimizedRMSD -1
REMARK  1 active torsions:
REMARK  status: ('A' for Active; 'I' for Inactive)
REMARK    1  A    between atoms: C1_2  and  C2_3 
ROOT
ATOM      1  C2  UNL d   1      -0.064  -0.250  -1.937  0.00  0.00    -0.073 A 
ATOM      2  C3  UNL d   1      -0.523  -1.548  -1.685  0.00  0.00    -0.002 A 
ATOM      3  C4  UNL d   1       0.363  -2.538  -1.259  0.00  0.00     0.004 A 
ATOM      4  C5  UNL d   1       1.713  -2.241  -1.075  0.00  0.00    -0.004 A 
ATOM      5  C6  UNL d   1       2.188  -0.946  -1.310  0.00  0.00    -0.075 A 
ATOM      6  C7  UNL d   1       3.638  -0.610  -1.118  0.00  0.00     0.076 C 
ATOM      7  C8  UNL d   1       1.293   0.042  -1.740  0.00  0.00     0.001 A 
ENDROOT
BRANCH   1   8
ATOM      8  C1  UNL d   1      -1.019   0.825  -2.390  0.00  0.00     0.053 C 
ATOM      9  C   UNL d   1      -2.436   0.571  -1.902  0.00  0.00     0.018 C 
ENDBRANCH   1   8
TORSDOF 1
ENDMDL
