MODEL 1
REMARK minimizedAffinity -2.83516097
REMARK minimizedRMSD -1
REMARK  0 active torsions:
REMARK  status: ('A' for Active; 'I' for Inactive)
ROOT
ATOM      1  C1  BNZ d   1       1.759   0.277   0.447  0.00  0.00     0.000 A 
ATOM      2  C2  BNZ d   1       2.485   0.763  -0.608  0.00  0.00     0.000 A 
ATOM      3  C3  BNZ d   1       3.227  -0.076  -1.392  0.00  0.00     0.000 A 
ATOM      4  C4  BNZ d   1       3.275  -1.390  -1.096  0.00  0.00     0.000 A 
ATOM      5  C5  BNZ d   1       2.557  -1.894  -0.030  0.00  0.00     0.000 A 
ATOM      6  C6  BNZ d   1       1.779  -1.053   0.733  0.00  0.00     0.000 A 
ENDROOT
TORSDOF 0
ENDMDL
