MODEL 1
REMARK minimizedAffinity 1.29788589
REMARK minimizedRMSD -1
REMARK  0 active torsions:
REMARK  status: ('A' for Active; 'I' for Inactive)
ROOT
ATOM      1  C1  BNZ d   1       2.960  -1.441  -0.063  0.00  0.00     0.000 A 
ATOM      2  C2  BNZ d   1       2.216  -2.394   0.581  0.00  0.00     0.000 A 
ATOM      3  C3  BNZ d   1       0.957  -2.111   1.032  0.00  0.00     0.000 A 
ATOM      4  C4  BNZ d   1       0.460  -0.867   0.876  0.00  0.00     0.000 A 
ATOM      5  C5  BNZ d   1       1.202   0.107   0.237  0.00  0.00     0.000 A 
ATOM      6  C6  BNZ d   1       2.453  -0.192  -0.251  0.00  0.00     0.000 A 
ENDROOT
TORSDOF 0
ENDMDL
