MODEL 1
REMARK minimizedAffinity 0.0638787448
REMARK minimizedRMSD -1
REMARK  0 active torsions:
REMARK  status: ('A' for Active; 'I' for Inactive)
ROOT
ATOM      1  C1  BNZ d   1       1.549  -0.075   0.378  0.00  0.00     0.000 A 
ATOM      2  C2  BNZ d   1       2.355  -0.549  -0.623  0.00  0.00     0.000 A 
ATOM      3  C3  BNZ d   1       2.949  -1.776  -0.520  0.00  0.00     0.000 A 
ATOM      4  C4  BNZ d   1       2.770  -2.508   0.598  0.00  0.00     0.000 A 
ATOM      5  C5  BNZ d   1       1.968  -2.039   1.620  0.00  0.00     0.000 A 
ATOM      6  C6  BNZ d   1       1.340  -0.821   1.496  0.00  0.00     0.000 A 
ENDROOT
TORSDOF 0
ENDMDL
