MODEL 1
REMARK minimizedAffinity 2.29140568
REMARK minimizedRMSD -1
REMARK  0 active torsions:
REMARK  status: ('A' for Active; 'I' for Inactive)
ROOT
ATOM      1  C1  BNZ d   1       2.004  -0.461   0.834  0.00  0.00     0.000 A 
ATOM      2  C2  BNZ d   1       2.597   0.152  -0.237  0.00  0.00     0.000 A 
ATOM      3  C3  BNZ d   1       3.051  -0.579  -1.299  0.00  0.00     0.000 A 
ATOM      4  C4  BNZ d   1       2.947  -1.923  -1.271  0.00  0.00     0.000 A 
ATOM      5  C5  BNZ d   1       2.360  -2.557  -0.195  0.00  0.00     0.000 A 
ATOM      6  C6  BNZ d   1       1.869  -1.815   0.855  0.00  0.00     0.000 A 
ENDROOT
TORSDOF 0
ENDMDL
