MODEL 1
REMARK minimizedAffinity 2.22478104
REMARK minimizedRMSD -1
REMARK  0 active torsions:
REMARK  status: ('A' for Active; 'I' for Inactive)
ROOT
ATOM      1  C1  BNZ d   1      -3.097   0.677  -1.479  0.00  0.00     0.000 A 
ATOM      2  C2  BNZ d   1      -2.227   1.075  -2.458  0.00  0.00     0.000 A 
ATOM      3  C3  BNZ d   1      -2.527   2.130  -3.275  0.00  0.00     0.000 A 
ATOM      4  C4  BNZ d   1      -3.712   2.758  -3.137  0.00  0.00     0.000 A 
ATOM      5  C5  BNZ d   1      -4.604   2.363  -2.160  0.00  0.00     0.000 A 
ATOM      6  C6  BNZ d   1      -4.282   1.326  -1.315  0.00  0.00     0.000 A 
ENDROOT
TORSDOF 0
ENDMDL
