MODEL 1
REMARK minimizedAffinity 4.50108576
REMARK minimizedRMSD -1
REMARK  0 active torsions:
REMARK  status: ('A' for Active; 'I' for Inactive)
ROOT
ATOM      1  C1  BNZ d   1       3.083   0.290  -0.081  0.00  0.00     0.000 A 
ATOM      2  C2  BNZ d   1       2.207   1.054   0.642  0.00  0.00     0.000 A 
ATOM      3  C3  BNZ d   1       0.858   0.851   0.546  0.00  0.00     0.000 A 
ATOM      4  C4  BNZ d   1       0.387  -0.086  -0.301  0.00  0.00     0.000 A 
ATOM      5  C5  BNZ d   1       1.258  -0.858  -1.044  0.00  0.00     0.000 A 
ATOM      6  C6  BNZ d   1       2.616  -0.678  -0.916  0.00  0.00     0.000 A 
ENDROOT
TORSDOF 0
ENDMDL
