MODEL 1
REMARK minimizedAffinity -3.64660382
REMARK minimizedRMSD -1
REMARK  0 active torsions:
REMARK  status: ('A' for Active; 'I' for Inactive)
ROOT
ATOM      1  C1  BNZ d   1       0.024  -4.849   4.383  0.00  0.00     0.000 A 
ATOM      2  C2  BNZ d   1      -0.109  -3.729   3.606  0.00  0.00     0.000 A 
ATOM      3  C3  BNZ d   1       0.982  -2.981   3.263  0.00  0.00     0.000 A 
ATOM      4  C4  BNZ d   1       2.199  -3.330   3.730  0.00  0.00     0.000 A 
ATOM      5  C5  BNZ d   1       2.348  -4.451   4.522  0.00  0.00     0.000 A 
ATOM      6  C6  BNZ d   1       1.253  -5.224   4.833  0.00  0.00     0.000 A 
ENDROOT
TORSDOF 0
ENDMDL
