MODEL 1
REMARK minimizedAffinity -0.509860575
REMARK minimizedRMSD -1
REMARK  0 active torsions:
REMARK  status: ('A' for Active; 'I' for Inactive)
ROOT
ATOM      1  C1  BNZ d   1      -3.057  -4.784   0.405  0.00  0.00     0.000 A 
ATOM      2  C2  BNZ d   1      -3.718  -4.697   1.602  0.00  0.00     0.000 A 
ATOM      3  C3  BNZ d   1      -4.946  -5.275   1.767  0.00  0.00     0.000 A 
ATOM      4  C4  BNZ d   1      -5.528  -5.903   0.725  0.00  0.00     0.000 A 
ATOM      5  C5  BNZ d   1      -4.879  -5.992  -0.490  0.00  0.00     0.000 A 
ATOM      6  C6  BNZ d   1      -3.626  -5.443  -0.641  0.00  0.00     0.000 A 
ENDROOT
TORSDOF 0
ENDMDL
