MODEL 1
REMARK minimizedAffinity 0.965559304
REMARK minimizedRMSD -1
REMARK  0 active torsions:
REMARK  status: ('A' for Active; 'I' for Inactive)
ROOT
ATOM      1  C1  BNZ d   1      -2.394  -4.202  -0.108  0.00  0.00     0.000 A 
ATOM      2  C2  BNZ d   1      -2.367  -3.985   1.244  0.00  0.00     0.000 A 
ATOM      3  C3  BNZ d   1      -3.321  -4.528   2.058  0.00  0.00     0.000 A 
ATOM      4  C4  BNZ d   1      -4.322  -5.252   1.517  0.00  0.00     0.000 A 
ATOM      5  C5  BNZ d   1      -4.368  -5.471   0.154  0.00  0.00     0.000 A 
ATOM      6  C6  BNZ d   1      -3.384  -4.956  -0.658  0.00  0.00     0.000 A 
ENDROOT
TORSDOF 0
ENDMDL
