MODEL 1
REMARK minimizedAffinity 1.16953373
REMARK minimizedRMSD -1
REMARK  0 active torsions:
REMARK  status: ('A' for Active; 'I' for Inactive)
ROOT
ATOM      1  C1  BNZ d   1       1.129  -5.279  -3.614  0.00  0.00     0.000 A 
ATOM      2  C2  BNZ d   1      -0.187  -5.651  -3.677  0.00  0.00     0.000 A 
ATOM      3  C3  BNZ d   1      -0.760  -5.999  -4.868  0.00  0.00     0.000 A 
ATOM      4  C4  BNZ d   1      -0.028  -5.937  -5.999  0.00  0.00     0.000 A 
ATOM      5  C5  BNZ d   1       1.298  -5.556  -5.954  0.00  0.00     0.000 A 
ATOM      6  C6  BNZ d   1       1.882  -5.243  -4.748  0.00  0.00     0.000 A 
ENDROOT
TORSDOF 0
ENDMDL
