MODEL 1
REMARK minimizedAffinity 2.08479977
REMARK minimizedRMSD -1
REMARK  0 active torsions:
REMARK  status: ('A' for Active; 'I' for Inactive)
ROOT
ATOM      1  C1  BNZ d   1       2.557  -5.196  -4.811  0.00  0.00     0.000 A 
ATOM      2  C2  BNZ d   1       1.903  -5.434  -5.991  0.00  0.00     0.000 A 
ATOM      3  C3  BNZ d   1       0.590  -5.814  -5.999  0.00  0.00     0.000 A 
ATOM      4  C4  BNZ d   1      -0.055  -5.994  -4.828  0.00  0.00     0.000 A 
ATOM      5  C5  BNZ d   1       0.593  -5.767  -3.630  0.00  0.00     0.000 A 
ATOM      6  C6  BNZ d   1       1.904  -5.347  -3.627  0.00  0.00     0.000 A 
ENDROOT
TORSDOF 0
ENDMDL
