MODEL 1
REMARK minimizedAffinity -2.99296522
REMARK minimizedRMSD -1
REMARK  0 active torsions:
REMARK  status: ('A' for Active; 'I' for Inactive)
ROOT
ATOM      1  C1  BNZ d   1       2.401  -5.464  -4.060  0.00  0.00     0.000 A 
ATOM      2  C2  BNZ d   1       1.906  -5.477  -5.337  0.00  0.00     0.000 A 
ATOM      3  C3  BNZ d   1       0.583  -5.725  -5.572  0.00  0.00     0.000 A 
ATOM      4  C4  BNZ d   1      -0.235  -6.000  -4.536  0.00  0.00     0.000 A 
ATOM      5  C5  BNZ d   1       0.251  -6.000  -3.243  0.00  0.00     0.000 A 
ATOM      6  C6  BNZ d   1       1.575  -5.711  -3.007  0.00  0.00     0.000 A 
ENDROOT
TORSDOF 0
ENDMDL
