MODEL 1
REMARK minimizedAffinity 3.35654593
REMARK minimizedRMSD -1
REMARK  0 active torsions:
REMARK  status: ('A' for Active; 'I' for Inactive)
ROOT
ATOM      1  C1  BNZ d   1       2.035  -0.221  -1.838  0.00  0.00     0.000 A 
ATOM      2  C2  BNZ d   1       1.548   0.325  -2.996  0.00  0.00     0.000 A 
ATOM      3  C3  BNZ d   1       0.377   1.031  -2.998  0.00  0.00     0.000 A 
ATOM      4  C4  BNZ d   1      -0.323   1.156  -1.852  0.00  0.00     0.000 A 
ATOM      5  C5  BNZ d   1       0.151   0.604  -0.679  0.00  0.00     0.000 A 
ATOM      6  C6  BNZ d   1       1.349  -0.073  -0.673  0.00  0.00     0.000 A 
ENDROOT
TORSDOF 0
ENDMDL
