MODEL 1
REMARK minimizedAffinity -0.25862512
REMARK minimizedRMSD -1
REMARK  0 active torsions:
REMARK  status: ('A' for Active; 'I' for Inactive)
ROOT
ATOM      1  C1  BNZ d   1      -2.518  -0.851  -0.828  0.00  0.00     0.000 A 
ATOM      2  C2  BNZ d   1      -2.498   0.481  -1.144  0.00  0.00     0.000 A 
ATOM      3  C3  BNZ d   1      -2.062   1.409  -0.240  0.00  0.00     0.000 A 
ATOM      4  C4  BNZ d   1      -1.686   1.009   0.992  0.00  0.00     0.000 A 
ATOM      5  C5  BNZ d   1      -1.709  -0.330   1.329  0.00  0.00     0.000 A 
ATOM      6  C6  BNZ d   1      -2.111  -1.265   0.403  0.00  0.00     0.000 A 
ENDROOT
TORSDOF 0
ENDMDL
