MODEL 1
REMARK minimizedAffinity 0.0162610132
REMARK minimizedRMSD -1
REMARK  0 active torsions:
REMARK  status: ('A' for Active; 'I' for Inactive)
ROOT
ATOM      1  C1  BNZ d   1       0.353   6.000  -3.571  0.00  0.00     0.000 A 
ATOM      2  C2  BNZ d   1      -0.374   5.996  -4.731  0.00  0.00     0.000 A 
ATOM      3  C3  BNZ d   1       0.244   5.878  -5.945  0.00  0.00     0.000 A 
ATOM      4  C4  BNZ d   1       1.589   5.804  -5.999  0.00  0.00     0.000 A 
ATOM      5  C5  BNZ d   1       2.338   5.816  -4.839  0.00  0.00     0.000 A 
ATOM      6  C6  BNZ d   1       1.709   5.896  -3.617  0.00  0.00     0.000 A 
ENDROOT
TORSDOF 0
ENDMDL
