MODEL 1
REMARK minimizedAffinity -1.76101995
REMARK minimizedRMSD -1
REMARK  0 active torsions:
REMARK  status: ('A' for Active; 'I' for Inactive)
ROOT
ATOM      1  C1  BNZ d   1      -3.718   5.989  -3.317  0.00  0.00     0.000 A 
ATOM      2  C2  BNZ d   1      -3.057   5.999  -4.516  0.00  0.00     0.000 A 
ATOM      3  C3  BNZ d   1      -1.691   5.984  -4.563  0.00  0.00     0.000 A 
ATOM      4  C4  BNZ d   1      -0.988   6.000  -3.412  0.00  0.00     0.000 A 
ATOM      5  C5  BNZ d   1      -1.640   5.999  -2.195  0.00  0.00     0.000 A 
ATOM      6  C6  BNZ d   1      -3.015   5.974  -2.151  0.00  0.00     0.000 A 
ENDROOT
TORSDOF 0
ENDMDL
