MODEL 1
REMARK minimizedAffinity -2.9036808
REMARK minimizedRMSD -1
REMARK  0 active torsions:
REMARK  status: ('A' for Active; 'I' for Inactive)
ROOT
ATOM      1  C1  BNZ d   1       3.335   5.998  -5.991  0.00  0.00     0.000 A 
ATOM      2  C2  BNZ d   1       4.702   5.917  -5.996  0.00  0.00     0.000 A 
ATOM      3  C3  BNZ d   1       5.350   4.983  -5.237  0.00  0.00     0.000 A 
ATOM      4  C4  BNZ d   1       4.634   4.159  -4.444  0.00  0.00     0.000 A 
ATOM      5  C5  BNZ d   1       3.255   4.236  -4.421  0.00  0.00     0.000 A 
ATOM      6  C6  BNZ d   1       2.604   5.151  -5.216  0.00  0.00     0.000 A 
ENDROOT
TORSDOF 0
ENDMDL
