MODEL 1
REMARK minimizedAffinity -2.79051352
REMARK minimizedRMSD -1
REMARK  0 active torsions:
REMARK  status: ('A' for Active; 'I' for Inactive)
ROOT
ATOM      1  C1  BNZ d   1      -0.762   5.923  -1.400  0.00  0.00     0.000 A 
ATOM      2  C2  BNZ d   1       0.004   5.908  -2.535  0.00  0.00     0.000 A 
ATOM      3  C3  BNZ d   1      -0.576   5.964  -3.772  0.00  0.00     0.000 A 
ATOM      4  C4  BNZ d   1      -1.921   5.994  -3.872  0.00  0.00     0.000 A 
ATOM      5  C5  BNZ d   1      -2.707   6.000  -2.737  0.00  0.00     0.000 A 
ATOM      6  C6  BNZ d   1      -2.118   5.983  -1.494  0.00  0.00     0.000 A 
ENDROOT
TORSDOF 0
ENDMDL
