MODEL 1
REMARK minimizedAffinity -1.61514521
REMARK minimizedRMSD -1
REMARK  0 active torsions:
REMARK  status: ('A' for Active; 'I' for Inactive)
ROOT
ATOM      1  C1  BNZ d   1       2.217   4.592  -4.096  0.00  0.00     0.000 A 
ATOM      2  C2  BNZ d   1       3.586   4.546  -4.114  0.00  0.00     0.000 A 
ATOM      3  C3  BNZ d   1       4.297   5.243  -5.051  0.00  0.00     0.000 A 
ATOM      4  C4  BNZ d   1       3.638   5.952  -5.991  0.00  0.00     0.000 A 
ATOM      5  C5  BNZ d   1       2.259   6.000  -5.992  0.00  0.00     0.000 A 
ATOM      6  C6  BNZ d   1       1.547   5.329  -5.024  0.00  0.00     0.000 A 
ENDROOT
TORSDOF 0
ENDMDL
