MODEL 1
REMARK minimizedAffinity -1.96323049
REMARK minimizedRMSD -1
REMARK  0 active torsions:
REMARK  status: ('A' for Active; 'I' for Inactive)
ROOT
ATOM      1  C1  BNZ d   1      -1.362   5.996  -2.254  0.00  0.00     0.000 A 
ATOM      2  C2  BNZ d   1      -2.663   5.975  -1.825  0.00  0.00     0.000 A 
ATOM      3  C3  BNZ d   1      -3.695   5.935  -2.721  0.00  0.00     0.000 A 
ATOM      4  C4  BNZ d   1      -3.427   5.955  -4.042  0.00  0.00     0.000 A 
ATOM      5  C5  BNZ d   1      -2.121   5.985  -4.491  0.00  0.00     0.000 A 
ATOM      6  C6  BNZ d   1      -1.084   5.986  -3.586  0.00  0.00     0.000 A 
ENDROOT
TORSDOF 0
ENDMDL
