MODEL 1
REMARK minimizedAffinity 2.32500672
REMARK minimizedRMSD -1
REMARK  0 active torsions:
REMARK  status: ('A' for Active; 'I' for Inactive)
ROOT
ATOM      1  C1  BNZ d   1       2.855   3.930  -4.875  0.00  0.00     0.000 A 
ATOM      2  C2  BNZ d   1       2.376   4.979  -5.615  0.00  0.00     0.000 A 
ATOM      3  C3  BNZ d   1       3.201   6.000  -5.997  0.00  0.00     0.000 A 
ATOM      4  C4  BNZ d   1       4.492   5.991  -5.606  0.00  0.00     0.000 A 
ATOM      5  C5  BNZ d   1       4.987   4.946  -4.852  0.00  0.00     0.000 A 
ATOM      6  C6  BNZ d   1       4.163   3.901  -4.502  0.00  0.00     0.000 A 
ENDROOT
TORSDOF 0
ENDMDL
