MODEL 1
REMARK minimizedAffinity -0.856624186
REMARK minimizedRMSD -1
REMARK  0 active torsions:
REMARK  status: ('A' for Active; 'I' for Inactive)
ROOT
ATOM      1  C1  BNZ d   1       0.497   5.981  -3.505  0.00  0.00     0.000 A 
ATOM      2  C2  BNZ d   1       1.861   5.976  -3.629  0.00  0.00     0.000 A 
ATOM      3  C3  BNZ d   1       2.451   5.998  -4.862  0.00  0.00     0.000 A 
ATOM      4  C4  BNZ d   1       1.679   5.985  -5.967  0.00  0.00     0.000 A 
ATOM      5  C5  BNZ d   1       0.302   5.981  -5.859  0.00  0.00     0.000 A 
ATOM      6  C6  BNZ d   1      -0.289   5.998  -4.616  0.00  0.00     0.000 A 
ENDROOT
TORSDOF 0
ENDMDL
