MODEL 1
REMARK minimizedAffinity -1.23377085
REMARK minimizedRMSD -1
REMARK  0 active torsions:
REMARK  status: ('A' for Active; 'I' for Inactive)
ROOT
ATOM      1  C1  BNZ d   1      -0.662  -5.068   3.833  0.00  0.00     0.000 A 
ATOM      2  C2  BNZ d   1      -1.320  -4.639   4.954  0.00  0.00     0.000 A 
ATOM      3  C3  BNZ d   1      -2.097  -3.515   4.923  0.00  0.00     0.000 A 
ATOM      4  C4  BNZ d   1      -2.183  -2.799   3.783  0.00  0.00     0.000 A 
ATOM      5  C5  BNZ d   1      -1.518  -3.213   2.646  0.00  0.00     0.000 A 
ATOM      6  C6  BNZ d   1      -0.768  -4.367   2.671  0.00  0.00     0.000 A 
ENDROOT
TORSDOF 0
ENDMDL
