MODEL 1
REMARK minimizedAffinity -2.65166092
REMARK minimizedRMSD -1
REMARK  0 active torsions:
REMARK  status: ('A' for Active; 'I' for Inactive)
ROOT
ATOM      1  C1  BNZ d   1      -3.587   5.989  -2.954  0.00  0.00     0.000 A 
ATOM      2  C2  BNZ d   1      -2.884   5.997  -4.129  0.00  0.00     0.000 A 
ATOM      3  C3  BNZ d   1      -1.517   5.980  -4.127  0.00  0.00     0.000 A 
ATOM      4  C4  BNZ d   1      -0.856   5.997  -2.952  0.00  0.00     0.000 A 
ATOM      5  C5  BNZ d   1      -1.551   5.999  -1.758  0.00  0.00     0.000 A 
ATOM      6  C6  BNZ d   1      -2.926   5.976  -1.765  0.00  0.00     0.000 A 
ENDROOT
TORSDOF 0
ENDMDL
