MODEL 1
REMARK minimizedAffinity -3.16078162
REMARK minimizedRMSD -1
REMARK  0 active torsions:
REMARK  status: ('A' for Active; 'I' for Inactive)
ROOT
ATOM      1  C1  BNZ d   1      -0.379   6.000  -2.657  0.00  0.00     0.000 A 
ATOM      2  C2  BNZ d   1      -1.710   5.999  -2.338  0.00  0.00     0.000 A 
ATOM      3  C3  BNZ d   1      -2.650   5.618  -3.255  0.00  0.00     0.000 A 
ATOM      4  C4  BNZ d   1      -2.260   5.276  -4.500  0.00  0.00     0.000 A 
ATOM      5  C5  BNZ d   1      -0.922   5.281  -4.840  0.00  0.00     0.000 A 
ATOM      6  C6  BNZ d   1       0.024   5.628  -3.903  0.00  0.00     0.000 A 
ENDROOT
TORSDOF 0
ENDMDL
