MODEL 1
REMARK minimizedAffinity -2.49064279
REMARK minimizedRMSD -1
REMARK  0 active torsions:
REMARK  status: ('A' for Active; 'I' for Inactive)
ROOT
ATOM      1  C1  BNZ d   1       0.303   5.836  -4.730  0.00  0.00     0.000 A 
ATOM      2  C2  BNZ d   1       0.713   5.844  -3.423  0.00  0.00     0.000 A 
ATOM      3  C3  BNZ d   1      -0.196   5.904  -2.404  0.00  0.00     0.000 A 
ATOM      4  C4  BNZ d   1      -1.510   5.997  -2.693  0.00  0.00     0.000 A 
ATOM      5  C5  BNZ d   1      -1.939   5.999  -4.005  0.00  0.00     0.000 A 
ATOM      6  C6  BNZ d   1      -1.023   5.899  -5.028  0.00  0.00     0.000 A 
ENDROOT
TORSDOF 0
ENDMDL
