MODEL 1
REMARK minimizedAffinity -0.790665805
REMARK minimizedRMSD -1
REMARK  0 active torsions:
REMARK  status: ('A' for Active; 'I' for Inactive)
ROOT
ATOM      1  C1  BNZ d   1      -1.855   5.956  -4.591  0.00  0.00     0.000 A 
ATOM      2  C2  BNZ d   1      -2.726   5.956  -3.534  0.00  0.00     0.000 A 
ATOM      3  C3  BNZ d   1      -2.266   5.999  -2.247  0.00  0.00     0.000 A 
ATOM      4  C4  BNZ d   1      -0.937   6.000  -2.018  0.00  0.00     0.000 A 
ATOM      5  C5  BNZ d   1      -0.046   5.990  -3.073  0.00  0.00     0.000 A 
ATOM      6  C6  BNZ d   1      -0.513   5.987  -4.367  0.00  0.00     0.000 A 
ENDROOT
TORSDOF 0
ENDMDL
