MODEL 1
REMARK minimizedAffinity 1.65790164
REMARK minimizedRMSD -1
REMARK  0 active torsions:
REMARK  status: ('A' for Active; 'I' for Inactive)
ROOT
ATOM      1  C1  BNZ d   1      -0.565   5.982  -3.682  0.00  0.00     0.000 A 
ATOM      2  C2  BNZ d   1      -0.955   5.999  -4.995  0.00  0.00     0.000 A 
ATOM      3  C3  BNZ d   1      -0.029   5.986  -6.000  0.00  0.00     0.000 A 
ATOM      4  C4  BNZ d   1       1.284   5.996  -5.692  0.00  0.00     0.000 A 
ATOM      5  C5  BNZ d   1       1.693   5.989  -4.373  0.00  0.00     0.000 A 
ATOM      6  C6  BNZ d   1       0.758   5.963  -3.364  0.00  0.00     0.000 A 
ENDROOT
TORSDOF 0
ENDMDL
