MODEL 1
REMARK minimizedAffinity -0.821289062
REMARK minimizedRMSD -1
REMARK  0 active torsions:
REMARK  status: ('A' for Active; 'I' for Inactive)
ROOT
ATOM      1  C1  BNZ d   1       3.544   4.392  -4.866  0.00  0.00     0.000 A 
ATOM      2  C2  BNZ d   1       4.685   3.703  -4.551  0.00  0.00     0.000 A 
ATOM      3  C3  BNZ d   1       5.911   4.168  -4.935  0.00  0.00     0.000 A 
ATOM      4  C4  BNZ d   1       5.993   5.298  -5.666  0.00  0.00     0.000 A 
ATOM      5  C5  BNZ d   1       4.851   5.999  -5.999  0.00  0.00     0.000 A 
ATOM      6  C6  BNZ d   1       3.621   5.549  -5.577  0.00  0.00     0.000 A 
ENDROOT
TORSDOF 0
ENDMDL
