MODEL 1
REMARK minimizedAffinity -0.677809715
REMARK minimizedRMSD -1
REMARK  0 active torsions:
REMARK  status: ('A' for Active; 'I' for Inactive)
ROOT
ATOM      1  C   UNL d   1      -0.547   5.974  -4.716  0.00  0.00     0.077 C 
ATOM      2  C1  UNL d   1      -2.046   5.978  -4.756  0.00  0.00    -0.074 A 
ATOM      3  C2  UNL d   1      -2.733   5.955  -5.975  0.00  0.00    -0.005 A 
ATOM      4  C3  UNL d   1      -4.127   5.949  -5.996  0.00  0.00     0.006 A 
ATOM      5  C4  UNL d   1      -4.848   5.967  -4.802  0.00  0.00    -0.005 A 
ATOM      6  C5  UNL d   1      -4.179   5.990  -3.574  0.00  0.00    -0.074 A 
ATOM      7  C6  UNL d   1      -4.939   5.999  -2.281  0.00  0.00     0.077 C 
ATOM      8  C7  UNL d   1      -2.778   5.988  -3.561  0.00  0.00    -0.001 A 
ENDROOT
TORSDOF 0
ENDMDL
