MODEL 1
REMARK minimizedAffinity 4.41847324
REMARK minimizedRMSD -1
REMARK  0 active torsions:
REMARK  status: ('A' for Active; 'I' for Inactive)
ROOT
ATOM      1  C   UNL d   1      -2.327  -1.166   0.766  0.00  0.00     0.077 C 
ATOM      2  C1  UNL d   1      -3.021  -0.943   2.077  0.00  0.00    -0.074 A 
ATOM      3  C2  UNL d   1      -4.188  -1.642   2.401  0.00  0.00    -0.005 A 
ATOM      4  C3  UNL d   1      -4.817  -1.431   3.628  0.00  0.00     0.006 A 
ATOM      5  C4  UNL d   1      -4.285  -0.521   4.542  0.00  0.00    -0.005 A 
ATOM      6  C5  UNL d   1      -3.118   0.186   4.237  0.00  0.00    -0.074 A 
ATOM      7  C6  UNL d   1      -2.527   1.160   5.212  0.00  0.00     0.077 C 
ATOM      8  C7  UNL d   1      -2.488  -0.037   3.004  0.00  0.00    -0.001 A 
ENDROOT
TORSDOF 0
ENDMDL
