MODEL 1
REMARK minimizedAffinity 7.83701134
REMARK minimizedRMSD -1
REMARK  0 active torsions:
REMARK  status: ('A' for Active; 'I' for Inactive)
ROOT
ATOM      1  C   UNL d   1      -6.000  -2.607   5.739  0.00  0.00     0.077 C 
ATOM      2  C1  UNL d   1      -5.210  -1.678   4.866  0.00  0.00    -0.074 A 
ATOM      3  C2  UNL d   1      -5.266  -1.779   3.472  0.00  0.00    -0.005 A 
ATOM      4  C3  UNL d   1      -4.533  -0.902   2.674  0.00  0.00     0.006 A 
ATOM      5  C4  UNL d   1      -3.737   0.084   3.259  0.00  0.00    -0.005 A 
ATOM      6  C5  UNL d   1      -3.669   0.200   4.651  0.00  0.00    -0.074 A 
ATOM      7  C6  UNL d   1      -2.826   1.260   5.297  0.00  0.00     0.077 C 
ATOM      8  C7  UNL d   1      -4.414  -0.681   5.447  0.00  0.00    -0.001 A 
ENDROOT
TORSDOF 0
ENDMDL
