MODEL 1
REMARK minimizedAffinity 15.3353519
REMARK minimizedRMSD -1
REMARK  0 active torsions:
REMARK  status: ('A' for Active; 'I' for Inactive)
ROOT
ATOM      1  C   UNL d   1      -6.000  -0.737  -3.758  0.00  0.00     0.077 C 
ATOM      2  C1  UNL d   1      -5.786  -0.052  -2.442  0.00  0.00    -0.074 A 
ATOM      3  C2  UNL d   1      -5.818  -0.772  -1.243  0.00  0.00    -0.005 A 
ATOM      4  C3  UNL d   1      -5.607  -0.123  -0.027  0.00  0.00     0.006 A 
ATOM      5  C4  UNL d   1      -5.363   1.250   0.004  0.00  0.00    -0.005 A 
ATOM      6  C5  UNL d   1      -5.326   1.987  -1.185  0.00  0.00    -0.074 A 
ATOM      7  C6  UNL d   1      -5.055   3.462  -1.171  0.00  0.00     0.077 C 
ATOM      8  C7  UNL d   1      -5.532   1.326  -2.404  0.00  0.00    -0.001 A 
ENDROOT
TORSDOF 0
ENDMDL
