MODEL 1
REMARK minimizedAffinity 17.300066
REMARK minimizedRMSD -1
REMARK  0 active torsions:
REMARK  status: ('A' for Active; 'I' for Inactive)
ROOT
ATOM      1  C   UNL d   1       3.281   0.609   1.226  0.00  0.00     0.077 C 
ATOM      2  C1  UNL d   1       2.313  -0.339   1.869  0.00  0.00    -0.074 A 
ATOM      3  C2  UNL d   1       2.724  -1.208   2.885  0.00  0.00    -0.005 A 
ATOM      4  C3  UNL d   1       1.809  -2.077   3.480  0.00  0.00     0.006 A 
ATOM      5  C4  UNL d   1       0.477  -2.086   3.066  0.00  0.00    -0.005 A 
ATOM      6  C5  UNL d   1       0.047  -1.223   2.052  0.00  0.00    -0.074 A 
ATOM      7  C6  UNL d   1      -1.384  -1.213   1.603  0.00  0.00     0.077 C 
ATOM      8  C7  UNL d   1       0.970  -0.348   1.464  0.00  0.00    -0.001 A 
ENDROOT
TORSDOF 0
ENDMDL
