MODEL 1
REMARK minimizedAffinity 13.6662493
REMARK minimizedRMSD -1
REMARK  0 active torsions:
REMARK  status: ('A' for Active; 'I' for Inactive)
ROOT
ATOM      1  C   UNL d   1       2.980   1.150  -0.323  0.00  0.00     0.077 C 
ATOM      2  C1  UNL d   1       2.578   1.936  -1.535  0.00  0.00    -0.074 A 
ATOM      3  C2  UNL d   1       1.245   2.307  -1.741  0.00  0.00    -0.005 A 
ATOM      4  C3  UNL d   1       0.887   3.047  -2.868  0.00  0.00     0.006 A 
ATOM      5  C4  UNL d   1       1.857   3.423  -3.799  0.00  0.00    -0.005 A 
ATOM      6  C5  UNL d   1       3.194   3.062  -3.609  0.00  0.00    -0.074 A 
ATOM      7  C6  UNL d   1       4.250   3.466  -4.594  0.00  0.00     0.077 C 
ATOM      8  C7  UNL d   1       3.547   2.324  -2.470  0.00  0.00    -0.001 A 
ENDROOT
TORSDOF 0
ENDMDL
