MODEL 1
REMARK minimizedAffinity 10.3989735
REMARK minimizedRMSD -1
REMARK  0 active torsions:
REMARK  status: ('A' for Active; 'I' for Inactive)
ROOT
ATOM      1  C   UNL d   1      -3.949  -3.472   1.246  0.00  0.00     0.077 C 
ATOM      2  C1  UNL d   1      -4.606  -4.070   2.455  0.00  0.00    -0.074 A 
ATOM      3  C2  UNL d   1      -4.855  -5.444   2.532  0.00  0.00    -0.005 A 
ATOM      4  C3  UNL d   1      -5.459  -5.986   3.666  0.00  0.00     0.006 A 
ATOM      5  C4  UNL d   1      -5.820  -5.162   4.733  0.00  0.00    -0.005 A 
ATOM      6  C5  UNL d   1      -5.578  -3.786   4.674  0.00  0.00    -0.074 A 
ATOM      7  C6  UNL d   1      -5.951  -2.887   5.815  0.00  0.00     0.077 C 
ATOM      8  C7  UNL d   1      -4.965  -3.249   3.533  0.00  0.00    -0.001 A 
ENDROOT
TORSDOF 0
ENDMDL
