MODEL 1
REMARK minimizedAffinity 5.58721924
REMARK minimizedRMSD -1
REMARK  0 active torsions:
REMARK  status: ('A' for Active; 'I' for Inactive)
ROOT
ATOM      1  C   UNL d   1       1.870  -2.071   3.646  0.00  0.00     0.077 C 
ATOM      2  C1  UNL d   1       0.579  -1.566   3.074  0.00  0.00    -0.074 A 
ATOM      3  C2  UNL d   1       0.094  -2.052   1.855  0.00  0.00    -0.005 A 
ATOM      4  C3  UNL d   1      -1.113  -1.581   1.340  0.00  0.00     0.006 A 
ATOM      5  C4  UNL d   1      -1.847  -0.620   2.037  0.00  0.00    -0.005 A 
ATOM      6  C5  UNL d   1      -1.378  -0.123   3.257  0.00  0.00    -0.074 A 
ATOM      7  C6  UNL d   1      -2.160   0.903   4.024  0.00  0.00     0.077 C 
ATOM      8  C7  UNL d   1      -0.168  -0.607   3.772  0.00  0.00    -0.001 A 
ENDROOT
TORSDOF 0
ENDMDL
