MODEL 1
REMARK minimizedAffinity 13.1802769
REMARK minimizedRMSD -1
REMARK  0 active torsions:
REMARK  status: ('A' for Active; 'I' for Inactive)
ROOT
ATOM      1  C   UNL d   1      -5.212   2.197   3.975  0.00  0.00     0.077 C 
ATOM      2  C1  UNL d   1      -3.987   1.400   3.636  0.00  0.00    -0.074 A 
ATOM      3  C2  UNL d   1      -3.756   0.959   2.329  0.00  0.00    -0.005 A 
ATOM      4  C3  UNL d   1      -2.607   0.227   2.027  0.00  0.00     0.006 A 
ATOM      5  C4  UNL d   1      -1.681  -0.071   3.027  0.00  0.00    -0.005 A 
ATOM      6  C5  UNL d   1      -1.895   0.362   4.339  0.00  0.00    -0.074 A 
ATOM      7  C6  UNL d   1      -0.904   0.059   5.424  0.00  0.00     0.077 C 
ATOM      8  C7  UNL d   1      -3.048   1.103   4.633  0.00  0.00    -0.001 A 
ENDROOT
TORSDOF 0
ENDMDL
