MODEL 1
REMARK minimizedAffinity 8.19663239
REMARK minimizedRMSD -1
REMARK  0 active torsions:
REMARK  status: ('A' for Active; 'I' for Inactive)
ROOT
ATOM      1  C   UNL d   1      -3.644  -0.568  -1.798  0.00  0.00     0.077 C 
ATOM      2  C1  UNL d   1      -3.134  -0.346  -0.405  0.00  0.00    -0.074 A 
ATOM      3  C2  UNL d   1      -3.918   0.305   0.553  0.00  0.00    -0.005 A 
ATOM      4  C3  UNL d   1      -3.433   0.495   1.847  0.00  0.00     0.006 A 
ATOM      5  C4  UNL d   1      -2.162   0.038   2.195  0.00  0.00    -0.005 A 
ATOM      6  C5  UNL d   1      -1.364  -0.616   1.251  0.00  0.00    -0.074 A 
ATOM      7  C6  UNL d   1       0.001  -1.123   1.613  0.00  0.00     0.077 C 
ATOM      8  C7  UNL d   1      -1.861  -0.810  -0.045  0.00  0.00    -0.001 A 
ENDROOT
TORSDOF 0
ENDMDL
