MODEL 1
REMARK minimizedAffinity 13.2647371
REMARK minimizedRMSD -1
REMARK  0 active torsions:
REMARK  status: ('A' for Active; 'I' for Inactive)
ROOT
ATOM      1  C   UNL d   1      -1.005  -1.660   0.886  0.00  0.00     0.077 C 
ATOM      2  C1  UNL d   1      -1.939  -0.613   1.417  0.00  0.00    -0.074 A 
ATOM      3  C2  UNL d   1      -1.623   0.115   2.569  0.00  0.00    -0.005 A 
ATOM      4  C3  UNL d   1      -2.497   1.092   3.044  0.00  0.00     0.006 A 
ATOM      5  C4  UNL d   1      -3.693   1.351   2.375  0.00  0.00    -0.005 A 
ATOM      6  C5  UNL d   1      -4.025   0.634   1.221  0.00  0.00    -0.074 A 
ATOM      7  C6  UNL d   1      -5.303   0.907   0.483  0.00  0.00     0.077 C 
ATOM      8  C7  UNL d   1      -3.139  -0.341   0.745  0.00  0.00    -0.001 A 
ENDROOT
TORSDOF 0
ENDMDL
