MODEL 1
REMARK minimizedAffinity 14.4495497
REMARK minimizedRMSD -1
REMARK  0 active torsions:
REMARK  status: ('A' for Active; 'I' for Inactive)
ROOT
ATOM      1  C   UNL d   1      -1.948  -3.390  -2.407  0.00  0.00     0.077 C 
ATOM      2  C1  UNL d   1      -1.924  -4.293  -3.604  0.00  0.00    -0.074 A 
ATOM      3  C2  UNL d   1      -0.713  -4.741  -4.142  0.00  0.00    -0.005 A 
ATOM      4  C3  UNL d   1      -0.707  -5.588  -5.250  0.00  0.00     0.006 A 
ATOM      5  C4  UNL d   1      -1.909  -5.996  -5.830  0.00  0.00    -0.005 A 
ATOM      6  C5  UNL d   1      -3.129  -5.560  -5.305  0.00  0.00    -0.074 A 
ATOM      7  C6  UNL d   1      -4.430  -5.996  -5.909  0.00  0.00     0.077 C 
ATOM      8  C7  UNL d   1      -3.127  -4.714  -4.187  0.00  0.00    -0.001 A 
ENDROOT
TORSDOF 0
ENDMDL
