MODEL 1
REMARK minimizedAffinity 4.90098143
REMARK minimizedRMSD -1
REMARK  0 active torsions:
REMARK  status: ('A' for Active; 'I' for Inactive)
ROOT
ATOM      1  C   UNL d   1      -5.944  -4.589   5.997  0.00  0.00     0.077 C 
ATOM      2  C1  UNL d   1      -5.341  -4.511   4.626  0.00  0.00    -0.074 A 
ATOM      3  C2  UNL d   1      -5.402  -5.601   3.752  0.00  0.00    -0.005 A 
ATOM      4  C3  UNL d   1      -4.844  -5.510   2.476  0.00  0.00     0.006 A 
ATOM      5  C4  UNL d   1      -4.221  -4.332   2.063  0.00  0.00    -0.005 A 
ATOM      6  C5  UNL d   1      -4.152  -3.232   2.924  0.00  0.00    -0.074 A 
ATOM      7  C6  UNL d   1      -3.495  -1.955   2.492  0.00  0.00     0.077 C 
ATOM      8  C7  UNL d   1      -4.720  -3.328   4.201  0.00  0.00    -0.001 A 
ENDROOT
TORSDOF 0
ENDMDL
