MODEL 1
REMARK minimizedAffinity 11.7810497
REMARK minimizedRMSD -1
REMARK  0 active torsions:
REMARK  status: ('A' for Active; 'I' for Inactive)
ROOT
ATOM      1  C   UNL d   1      -5.988   0.109   1.816  0.00  0.00     0.077 C 
ATOM      2  C1  UNL d   1      -5.993   0.577   0.391  0.00  0.00    -0.074 A 
ATOM      3  C2  UNL d   1      -5.982   1.941   0.082  0.00  0.00    -0.005 A 
ATOM      4  C3  UNL d   1      -5.978   2.361  -1.248  0.00  0.00     0.006 A 
ATOM      5  C4  UNL d   1      -5.985   1.423  -2.281  0.00  0.00    -0.005 A 
ATOM      6  C5  UNL d   1      -5.996   0.055  -1.992  0.00  0.00    -0.074 A 
ATOM      7  C6  UNL d   1      -5.994  -0.967  -3.090  0.00  0.00     0.077 C 
ATOM      8  C7  UNL d   1      -5.993  -0.359  -0.652  0.00  0.00    -0.001 A 
ENDROOT
TORSDOF 0
ENDMDL
