MODEL 1
REMARK minimizedAffinity 11.0937443
REMARK minimizedRMSD -1
REMARK  0 active torsions:
REMARK  status: ('A' for Active; 'I' for Inactive)
ROOT
ATOM      1  C   UNL d   1       0.491   5.998  -1.744  0.00  0.00     0.077 C 
ATOM      2  C1  UNL d   1       1.551   5.140  -2.367  0.00  0.00    -0.074 A 
ATOM      3  C2  UNL d   1       1.215   3.979  -3.070  0.00  0.00    -0.005 A 
ATOM      4  C3  UNL d   1       2.212   3.195  -3.652  0.00  0.00     0.006 A 
ATOM      5  C4  UNL d   1       3.552   3.565  -3.537  0.00  0.00    -0.005 A 
ATOM      6  C5  UNL d   1       3.908   4.723  -2.838  0.00  0.00    -0.074 A 
ATOM      7  C6  UNL d   1       5.343   5.140  -2.714  0.00  0.00     0.077 C 
ATOM      8  C7  UNL d   1       2.900   5.509  -2.262  0.00  0.00    -0.001 A 
ENDROOT
TORSDOF 0
ENDMDL
