MODEL 1
REMARK minimizedAffinity -0.633322358
REMARK minimizedRMSD -1
REMARK  0 active torsions:
REMARK  status: ('A' for Active; 'I' for Inactive)
ROOT
ATOM      1  C   UNL d   1       1.587   0.633  -0.387  0.00  0.00     0.078 C 
ATOM      2  C1  UNL d   1       0.606  -0.206   0.377  0.00  0.00    -0.077 A 
ATOM      3  C2  UNL d   1      -0.756   0.115   0.396  0.00  0.00    -0.001 A 
ATOM      4  C3  UNL d   1      -1.657  -0.670   1.118  0.00  0.00     0.003 A 
ATOM      5  C4  UNL d   1      -1.204  -1.779   1.829  0.00  0.00    -0.005 A 
ATOM      6  C5  UNL d   1       0.151  -2.105   1.818  0.00  0.00     0.003 A 
ATOM      7  C6  UNL d   1       1.053  -1.322   1.096  0.00  0.00    -0.001 A 
ENDROOT
TORSDOF 0
ENDMDL
