MODEL 1
REMARK minimizedAffinity -4.8157177
REMARK minimizedRMSD -1
REMARK  0 active torsions:
REMARK  status: ('A' for Active; 'I' for Inactive)
ROOT
ATOM      1  C   UNL d   1      -3.145  -0.826  -0.162  0.00  0.00     0.078 C 
ATOM      2  C1  UNL d   1      -1.670  -0.730   0.090  0.00  0.00    -0.077 A 
ATOM      3  C2  UNL d   1      -1.050  -1.527   1.060  0.00  0.00    -0.001 A 
ATOM      4  C3  UNL d   1       0.323  -1.420   1.290  0.00  0.00     0.003 A 
ATOM      5  C4  UNL d   1       1.087  -0.516   0.555  0.00  0.00    -0.005 A 
ATOM      6  C5  UNL d   1       0.479   0.282  -0.412  0.00  0.00     0.003 A 
ATOM      7  C6  UNL d   1      -0.894   0.177  -0.643  0.00  0.00    -0.001 A 
ENDROOT
TORSDOF 0
ENDMDL
