MODEL 1
REMARK minimizedAffinity -1.59108019
REMARK minimizedRMSD -1
REMARK  0 active torsions:
REMARK  status: ('A' for Active; 'I' for Inactive)
ROOT
ATOM      1  C   UNL d   1       2.392   2.132   0.391  0.00  0.00     0.078 C 
ATOM      2  C1  UNL d   1       1.344   1.076   0.203  0.00  0.00    -0.077 A 
ATOM      3  C2  UNL d   1       0.346   1.215  -0.769  0.00  0.00    -0.001 A 
ATOM      4  C3  UNL d   1      -0.629   0.229  -0.927  0.00  0.00     0.003 A 
ATOM      5  C4  UNL d   1      -0.617  -0.903  -0.114  0.00  0.00    -0.005 A 
ATOM      6  C5  UNL d   1       0.371  -1.049   0.858  0.00  0.00     0.003 A 
ATOM      7  C6  UNL d   1       1.346  -0.064   1.017  0.00  0.00    -0.001 A 
ENDROOT
TORSDOF 0
ENDMDL
