MODEL 1
REMARK minimizedAffinity -4.49891853
REMARK minimizedRMSD -1
REMARK  0 active torsions:
REMARK  status: ('A' for Active; 'I' for Inactive)
ROOT
ATOM      1  C   UNL d   1       1.614   0.198  -0.042  0.00  0.00     0.078 C 
ATOM      2  C1  UNL d   1       0.149  -0.095  -0.168  0.00  0.00    -0.077 A 
ATOM      3  C2  UNL d   1      -0.529   0.121  -1.375  0.00  0.00    -0.001 A 
ATOM      4  C3  UNL d   1      -1.895  -0.147  -1.475  0.00  0.00     0.003 A 
ATOM      5  C4  UNL d   1      -2.596  -0.631  -0.372  0.00  0.00    -0.005 A 
ATOM      6  C5  UNL d   1      -1.931  -0.847   0.833  0.00  0.00     0.003 A 
ATOM      7  C6  UNL d   1      -0.565  -0.580   0.935  0.00  0.00    -0.001 A 
ENDROOT
TORSDOF 0
ENDMDL
