MODEL 1
REMARK minimizedAffinity -3.56650567
REMARK minimizedRMSD -1
REMARK  0 active torsions:
REMARK  status: ('A' for Active; 'I' for Inactive)
ROOT
ATOM      1  C   UNL d   1      -3.207  -0.496  -0.501  0.00  0.00     0.078 C 
ATOM      2  C1  UNL d   1      -1.809  -0.040  -0.208  0.00  0.00    -0.077 A 
ATOM      3  C2  UNL d   1      -1.401   1.268  -0.498  0.00  0.00    -0.001 A 
ATOM      4  C3  UNL d   1      -0.094   1.676  -0.230  0.00  0.00     0.003 A 
ATOM      5  C4  UNL d   1       0.817   0.782   0.330  0.00  0.00    -0.005 A 
ATOM      6  C5  UNL d   1       0.421  -0.522   0.620  0.00  0.00     0.003 A 
ATOM      7  C6  UNL d   1      -0.886  -0.932   0.352  0.00  0.00    -0.001 A 
ENDROOT
TORSDOF 0
ENDMDL
