MODEL 1
REMARK minimizedAffinity -2.80193996
REMARK minimizedRMSD -1
REMARK  0 active torsions:
REMARK  status: ('A' for Active; 'I' for Inactive)
ROOT
ATOM      1  C   UNL d   1       1.431   0.261   0.194  0.00  0.00     0.078 C 
ATOM      2  C1  UNL d   1      -0.038   0.038  -0.012  0.00  0.00    -0.077 A 
ATOM      3  C2  UNL d   1      -0.575  -0.084  -1.300  0.00  0.00    -0.001 A 
ATOM      4  C3  UNL d   1      -1.945  -0.282  -1.477  0.00  0.00     0.003 A 
ATOM      5  C4  UNL d   1      -2.790  -0.358  -0.371  0.00  0.00    -0.005 A 
ATOM      6  C5  UNL d   1      -2.265  -0.235   0.913  0.00  0.00     0.003 A 
ATOM      7  C6  UNL d   1      -0.895  -0.037   1.093  0.00  0.00    -0.001 A 
ENDROOT
TORSDOF 0
ENDMDL
