MODEL 1
REMARK minimizedAffinity -5.25616598
REMARK minimizedRMSD -1
REMARK  0 active torsions:
REMARK  status: ('A' for Active; 'I' for Inactive)
ROOT
ATOM      1  C   UNL d   1       1.309   0.377   0.438  0.00  0.00     0.078 C 
ATOM      2  C1  UNL d   1      -0.112   0.083   0.060  0.00  0.00    -0.077 A 
ATOM      3  C2  UNL d   1      -0.981  -0.551   0.956  0.00  0.00    -0.001 A 
ATOM      4  C3  UNL d   1      -2.298  -0.826   0.588  0.00  0.00     0.003 A 
ATOM      5  C4  UNL d   1      -2.759  -0.472  -0.679  0.00  0.00    -0.005 A 
ATOM      6  C5  UNL d   1      -1.902   0.158  -1.579  0.00  0.00     0.003 A 
ATOM      7  C6  UNL d   1      -0.584   0.434  -1.212  0.00  0.00    -0.001 A 
ENDROOT
TORSDOF 0
ENDMDL
