MODEL 1
REMARK minimizedAffinity -4.10090923
REMARK minimizedRMSD -1
REMARK  0 active torsions:
REMARK  status: ('A' for Active; 'I' for Inactive)
ROOT
ATOM      1  C   UNL d   1      -0.736  -2.614   2.636  0.00  0.00     0.078 C 
ATOM      2  C1  UNL d   1      -0.421  -1.561   1.615  0.00  0.00    -0.077 A 
ATOM      3  C2  UNL d   1      -1.441  -0.814   1.013  0.00  0.00    -0.001 A 
ATOM      4  C3  UNL d   1      -1.135   0.156   0.058  0.00  0.00     0.003 A 
ATOM      5  C4  UNL d   1       0.191   0.387  -0.305  0.00  0.00    -0.005 A 
ATOM      6  C5  UNL d   1       1.212  -0.353   0.287  0.00  0.00     0.003 A 
ATOM      7  C6  UNL d   1       0.908  -1.324   1.243  0.00  0.00    -0.001 A 
ENDROOT
TORSDOF 0
ENDMDL
