MODEL 1
REMARK minimizedAffinity -4.36175394
REMARK minimizedRMSD -1
REMARK  0 active torsions:
REMARK  status: ('A' for Active; 'I' for Inactive)
ROOT
ATOM      1  C   UNL d   1       1.267   0.755   0.366  0.00  0.00     0.078 C 
ATOM      2  C1  UNL d   1      -0.119   0.268   0.066  0.00  0.00    -0.077 A 
ATOM      3  C2  UNL d   1      -0.615   0.265  -1.244  0.00  0.00    -0.001 A 
ATOM      4  C3  UNL d   1      -1.910  -0.183  -1.507  0.00  0.00     0.003 A 
ATOM      5  C4  UNL d   1      -2.721  -0.629  -0.466  0.00  0.00    -0.005 A 
ATOM      6  C5  UNL d   1      -2.238  -0.628   0.841  0.00  0.00     0.003 A 
ATOM      7  C6  UNL d   1      -0.943  -0.181   1.106  0.00  0.00    -0.001 A 
ENDROOT
TORSDOF 0
ENDMDL
