MODEL 1
REMARK minimizedAffinity -0.316638708
REMARK minimizedRMSD -1
REMARK  1 active torsions:
REMARK  status: ('A' for Active; 'I' for Inactive)
REMARK    1  A    between atoms: C1_2  and  C2_3 
ROOT
ATOM      1  C2  UNL d   1       1.137  -0.446  -0.245  0.00  0.00    -0.076 A 
ATOM      2  C3  UNL d   1       1.465  -1.185   0.906  0.00  0.00     0.004 A 
ATOM      3  C4  UNL d   1       0.868  -0.903   2.133  0.00  0.00    -0.003 A 
ATOM      4  C5  UNL d   1      -0.067   0.122   2.230  0.00  0.00     0.000 A 
ATOM      5  C6  UNL d   1      -0.417   0.853   1.096  0.00  0.00     0.000 A 
ATOM      6  C7  UNL d   1       0.163   0.571  -0.153  0.00  0.00    -0.073 A 
ATOM      7  C8  UNL d   1      -0.247   1.395  -1.342  0.00  0.00     0.078 C 
ENDROOT
BRANCH   1   8
ATOM      8  C1  UNL d   1       1.837  -0.779  -1.543  0.00  0.00     0.053 C 
ATOM      9  C   UNL d   1       1.691  -2.244  -1.925  0.00  0.00     0.018 C 
ENDBRANCH   1   8
TORSDOF 1
ENDMDL
