MODEL 1
REMARK minimizedAffinity -3.86126947
REMARK minimizedRMSD -1
REMARK  1 active torsions:
REMARK  status: ('A' for Active; 'I' for Inactive)
REMARK    1  A    between atoms: C1_2  and  C2_3 
ROOT
ATOM      1  C2  UNL d   1       1.043  -1.501  -0.934  0.00  0.00    -0.076 A 
ATOM      2  C3  UNL d   1      -0.316  -1.449  -0.576  0.00  0.00     0.004 A 
ATOM      3  C4  UNL d   1      -0.866  -0.297  -0.017  0.00  0.00    -0.003 A 
ATOM      4  C5  UNL d   1      -0.067   0.822   0.192  0.00  0.00     0.000 A 
ATOM      5  C6  UNL d   1       1.278   0.794  -0.174  0.00  0.00     0.000 A 
ATOM      6  C7  UNL d   1       1.845  -0.354  -0.754  0.00  0.00    -0.073 A 
ATOM      7  C8  UNL d   1       3.303  -0.332  -1.124  0.00  0.00     0.078 C 
ENDROOT
BRANCH   1   8
ATOM      8  C1  UNL d   1       1.590  -2.787  -1.512  0.00  0.00     0.053 C 
ATOM      9  C   UNL d   1       1.376  -2.889  -3.014  0.00  0.00     0.018 C 
ENDBRANCH   1   8
TORSDOF 1
ENDMDL
