MODEL 1
REMARK minimizedAffinity -3.90322876
REMARK minimizedRMSD -1
REMARK  1 active torsions:
REMARK  status: ('A' for Active; 'I' for Inactive)
REMARK    1  A    between atoms: C1_2  and  C2_3 
ROOT
ATOM      1  C2  UNL d   1       1.094   0.041  -1.082  0.00  0.00    -0.076 A 
ATOM      2  C3  UNL d   1       1.942  -0.641  -1.972  0.00  0.00     0.004 A 
ATOM      3  C4  UNL d   1       2.180  -2.007  -1.831  0.00  0.00    -0.003 A 
ATOM      4  C5  UNL d   1       1.572  -2.714  -0.799  0.00  0.00     0.000 A 
ATOM      5  C6  UNL d   1       0.714  -2.057   0.082  0.00  0.00     0.000 A 
ATOM      6  C7  UNL d   1       0.451  -0.683  -0.056  0.00  0.00    -0.073 A 
ATOM      7  C8  UNL d   1      -0.478  -0.024   0.927  0.00  0.00     0.078 C 
ENDROOT
BRANCH   1   8
ATOM      8  C1  UNL d   1       0.896   1.529  -1.268  0.00  0.00     0.053 C 
ATOM      9  C   UNL d   1      -0.355   1.854  -2.070  0.00  0.00     0.018 C 
ENDBRANCH   1   8
TORSDOF 1
ENDMDL
