MODEL 1
REMARK minimizedAffinity -4.94689941
REMARK minimizedRMSD -1
REMARK  1 active torsions:
REMARK  status: ('A' for Active; 'I' for Inactive)
REMARK    1  A    between atoms: C1_2  and  C2_3 
ROOT
ATOM      1  C2  UNL d   1      -0.006   0.010  -0.306  0.00  0.00    -0.076 A 
ATOM      2  C3  UNL d   1       0.248  -1.325   0.056  0.00  0.00     0.004 A 
ATOM      3  C4  UNL d   1       1.406  -1.975  -0.368  0.00  0.00    -0.003 A 
ATOM      4  C5  UNL d   1       2.330  -1.300  -1.159  0.00  0.00     0.000 A 
ATOM      5  C6  UNL d   1       2.103   0.029  -1.512  0.00  0.00     0.000 A 
ATOM      6  C7  UNL d   1       0.948   0.704  -1.080  0.00  0.00    -0.073 A 
ATOM      7  C8  UNL d   1       0.751   2.136  -1.496  0.00  0.00     0.078 C 
ENDROOT
BRANCH   1   8
ATOM      8  C1  UNL d   1      -1.292   0.654   0.160  0.00  0.00     0.053 C 
ATOM      9  C   UNL d   1      -1.664   0.252   1.579  0.00  0.00     0.018 C 
ENDBRANCH   1   8
TORSDOF 1
ENDMDL
