MODEL 1
REMARK minimizedAffinity -5.11214352
REMARK minimizedRMSD -1
REMARK  1 active torsions:
REMARK  status: ('A' for Active; 'I' for Inactive)
REMARK    1  A    between atoms: C1_2  and  C2_3 
ROOT
ATOM      1  C2  UNL d   1      -0.306  -0.535  -0.435  0.00  0.00    -0.076 A 
ATOM      2  C3  UNL d   1      -0.205  -1.905  -0.134  0.00  0.00     0.004 A 
ATOM      3  C4  UNL d   1       0.955  -2.620  -0.428  0.00  0.00    -0.003 A 
ATOM      4  C5  UNL d   1       2.033  -1.977  -1.026  0.00  0.00     0.000 A 
ATOM      5  C6  UNL d   1       1.956  -0.615  -1.316  0.00  0.00     0.000 A 
ATOM      6  C7  UNL d   1       0.800   0.124  -1.012  0.00  0.00    -0.073 A 
ATOM      7  C8  UNL d   1       0.770   1.589  -1.352  0.00  0.00     0.078 C 
ENDROOT
BRANCH   1   8
ATOM      8  C1  UNL d   1      -1.599   0.182  -0.119  0.00  0.00     0.053 C 
ATOM      9  C   UNL d   1      -2.142  -0.175   1.256  0.00  0.00     0.018 C 
ENDBRANCH   1   8
TORSDOF 1
ENDMDL
