MODEL 1
REMARK minimizedAffinity -5.56871319
REMARK minimizedRMSD -1
REMARK  1 active torsions:
REMARK  status: ('A' for Active; 'I' for Inactive)
REMARK    1  A    between atoms: C1_2  and  C2_3 
ROOT
ATOM      1  C2  UNL d   1       0.703  -1.524  -0.727  0.00  0.00    -0.076 A 
ATOM      2  C3  UNL d   1      -0.693  -1.380  -0.636  0.00  0.00     0.004 A 
ATOM      3  C4  UNL d   1      -1.277  -0.121  -0.513  0.00  0.00    -0.003 A 
ATOM      4  C5  UNL d   1      -0.476   1.015  -0.480  0.00  0.00     0.000 A 
ATOM      5  C6  UNL d   1       0.909   0.892  -0.587  0.00  0.00     0.000 A 
ATOM      6  C7  UNL d   1       1.514  -0.369  -0.728  0.00  0.00    -0.073 A 
ATOM      7  C8  UNL d   1       3.012  -0.444  -0.833  0.00  0.00     0.078 C 
ENDROOT
BRANCH   1   8
ATOM      8  C1  UNL d   1       1.282  -2.917  -0.831  0.00  0.00     0.053 C 
ATOM      9  C   UNL d   1       0.421  -3.959  -0.133  0.00  0.00     0.018 C 
ENDBRANCH   1   8
TORSDOF 1
ENDMDL
