MODEL 1
REMARK minimizedAffinity -5.36787176
REMARK minimizedRMSD -1
REMARK  1 active torsions:
REMARK  status: ('A' for Active; 'I' for Inactive)
REMARK    1  A    between atoms: C1_2  and  C2_3 
ROOT
ATOM      1  C2  UNL d   1       0.148   0.088  -0.127  0.00  0.00    -0.076 A 
ATOM      2  C3  UNL d   1       0.277  -1.310  -0.057  0.00  0.00     0.004 A 
ATOM      3  C4  UNL d   1       1.368  -1.959  -0.633  0.00  0.00    -0.003 A 
ATOM      4  C5  UNL d   1       2.347  -1.221  -1.289  0.00  0.00     0.000 A 
ATOM      5  C6  UNL d   1       2.243   0.168  -1.353  0.00  0.00     0.000 A 
ATOM      6  C7  UNL d   1       1.159   0.840  -0.763  0.00  0.00    -0.073 A 
ATOM      7  C8  UNL d   1       1.095   2.339  -0.868  0.00  0.00     0.078 C 
ENDROOT
BRANCH   1   8
ATOM      8  C1  UNL d   1      -1.070   0.735   0.493  0.00  0.00     0.053 C 
ATOM      9  C   UNL d   1      -0.842   1.139   1.941  0.00  0.00     0.018 C 
ENDBRANCH   1   8
TORSDOF 1
ENDMDL
