MODEL 1
REMARK minimizedAffinity -5.20465612
REMARK minimizedRMSD -1
REMARK  1 active torsions:
REMARK  status: ('A' for Active; 'I' for Inactive)
REMARK    1  A    between atoms: C1_2  and  C2_3 
ROOT
ATOM      1  C2  UNL d   1      -0.674   0.370  -0.752  0.00  0.00    -0.076 A 
ATOM      2  C3  UNL d   1      -0.623  -0.080  -2.082  0.00  0.00     0.004 A 
ATOM      3  C4  UNL d   1      -1.360   0.552  -3.083  0.00  0.00    -0.003 A 
ATOM      4  C5  UNL d   1      -2.159   1.646  -2.768  0.00  0.00     0.000 A 
ATOM      5  C6  UNL d   1      -2.208   2.117  -1.457  0.00  0.00     0.000 A 
ATOM      6  C7  UNL d   1      -1.459   1.501  -0.439  0.00  0.00    -0.073 A 
ATOM      7  C8  UNL d   1      -1.554   2.047   0.959  0.00  0.00     0.078 C 
ENDROOT
BRANCH   1   8
ATOM      8  C1  UNL d   1       0.125  -0.373   0.295  0.00  0.00     0.053 C 
ATOM      9  C   UNL d   1       1.590  -0.520  -0.086  0.00  0.00     0.018 C 
ENDBRANCH   1   8
TORSDOF 1
ENDMDL
