MODEL 1
REMARK minimizedAffinity -5.76599646
REMARK minimizedRMSD -1
REMARK  1 active torsions:
REMARK  status: ('A' for Active; 'I' for Inactive)
REMARK    1  A    between atoms: C1_2  and  C2_3 
ROOT
ATOM      1  C2  UNL d   1      -0.017  -0.739   0.872  0.00  0.00    -0.076 A 
ATOM      2  C3  UNL d   1      -0.928  -1.244   1.815  0.00  0.00     0.004 A 
ATOM      3  C4  UNL d   1      -0.692  -2.456   2.463  0.00  0.00    -0.003 A 
ATOM      4  C5  UNL d   1       0.459  -3.182   2.178  0.00  0.00     0.000 A 
ATOM      5  C6  UNL d   1       1.382  -2.687   1.258  0.00  0.00     0.000 A 
ATOM      6  C7  UNL d   1       1.168  -1.459   0.608  0.00  0.00    -0.073 A 
ATOM      7  C8  UNL d   1       2.195  -0.977  -0.380  0.00  0.00     0.078 C 
ENDROOT
BRANCH   1   8
ATOM      8  C1  UNL d   1      -0.338   0.567   0.181  0.00  0.00     0.053 C 
ATOM      9  C   UNL d   1      -1.287   1.436   0.991  0.00  0.00     0.018 C 
ENDBRANCH   1   8
TORSDOF 1
ENDMDL
