MODEL 1
REMARK minimizedAffinity -5.05289412
REMARK minimizedRMSD -1
REMARK  1 active torsions:
REMARK  status: ('A' for Active; 'I' for Inactive)
REMARK    1  A    between atoms: C1_2  and  C2_3 
ROOT
ATOM      1  C2  UNL d   1      -0.370  -1.168   1.761  0.00  0.00    -0.076 A 
ATOM      2  C3  UNL d   1      -0.834   0.129   1.481  0.00  0.00     0.004 A 
ATOM      3  C4  UNL d   1      -0.640   0.705   0.226  0.00  0.00    -0.003 A 
ATOM      4  C5  UNL d   1       0.020  -0.008  -0.769  0.00  0.00     0.000 A 
ATOM      5  C6  UNL d   1       0.471  -1.302  -0.514  0.00  0.00     0.000 A 
ATOM      6  C7  UNL d   1       0.270  -1.903   0.741  0.00  0.00    -0.073 A 
ATOM      7  C8  UNL d   1       0.783  -3.300   0.963  0.00  0.00     0.078 C 
ENDROOT
BRANCH   1   8
ATOM      8  C1  UNL d   1      -0.584  -1.729   3.148  0.00  0.00     0.053 C 
ATOM      9  C   UNL d   1       0.519  -1.329   4.116  0.00  0.00     0.018 C 
ENDBRANCH   1   8
TORSDOF 1
ENDMDL
