MODEL 1
REMARK minimizedAffinity -1.38504839
REMARK minimizedRMSD -1
REMARK  1 active torsions:
REMARK  status: ('A' for Active; 'I' for Inactive)
REMARK    1  A    between atoms: C1_2  and  C2_3 
ROOT
ATOM      1  C2  UNL d   1       0.706  -1.189   2.159  0.00  0.00    -0.076 A 
ATOM      2  C3  UNL d   1       1.960  -1.526   1.620  0.00  0.00     0.004 A 
ATOM      3  C4  UNL d   1       2.294  -1.184   0.311  0.00  0.00    -0.003 A 
ATOM      4  C5  UNL d   1       1.379  -0.499  -0.481  0.00  0.00     0.000 A 
ATOM      5  C6  UNL d   1       0.137  -0.142   0.042  0.00  0.00     0.000 A 
ATOM      6  C7  UNL d   1      -0.209  -0.465   1.366  0.00  0.00    -0.073 A 
ATOM      7  C8  UNL d   1      -1.565  -0.060   1.876  0.00  0.00     0.078 C 
ENDROOT
BRANCH   1   8
ATOM      8  C1  UNL d   1       0.389  -1.611   3.576  0.00  0.00     0.053 C 
ATOM      9  C   UNL d   1       1.496  -1.246   4.553  0.00  0.00     0.018 C 
ENDBRANCH   1   8
TORSDOF 1
ENDMDL
