MODEL 1
REMARK minimizedAffinity -1.78399551
REMARK minimizedRMSD -1
REMARK  1 active torsions:
REMARK  status: ('A' for Active; 'I' for Inactive)
REMARK    1  A    between atoms: C1_2  and  C2_3 
ROOT
ATOM      1  C2  UNL d   1       1.257  -0.719   0.415  0.00  0.00    -0.076 A 
ATOM      2  C3  UNL d   1      -0.018  -0.705   1.006  0.00  0.00     0.004 A 
ATOM      3  C4  UNL d   1      -1.023   0.132   0.524  0.00  0.00    -0.003 A 
ATOM      4  C5  UNL d   1      -0.770   0.968  -0.558  0.00  0.00     0.000 A 
ATOM      5  C6  UNL d   1       0.484   0.954  -1.168  0.00  0.00     0.000 A 
ATOM      6  C7  UNL d   1       1.504   0.105  -0.705  0.00  0.00    -0.073 A 
ATOM      7  C8  UNL d   1       2.839   0.136  -1.396  0.00  0.00     0.078 C 
ENDROOT
BRANCH   1   8
ATOM      8  C1  UNL d   1       2.316  -1.627   0.998  0.00  0.00     0.053 C 
ATOM      9  C   UNL d   1       1.812  -3.045   1.215  0.00  0.00     0.018 C 
ENDBRANCH   1   8
TORSDOF 1
ENDMDL
