MODEL 1
REMARK minimizedAffinity -2.17291737
REMARK minimizedRMSD -1
REMARK  1 active torsions:
REMARK  status: ('A' for Active; 'I' for Inactive)
REMARK    1  A    between atoms: C1_2  and  C2_3 
ROOT
ATOM      1  C2  UNL d   1       0.552  -0.215  -0.206  0.00  0.00    -0.076 A 
ATOM      2  C3  UNL d   1      -0.122  -1.335   0.309  0.00  0.00     0.004 A 
ATOM      3  C4  UNL d   1       0.582  -2.445   0.775  0.00  0.00    -0.003 A 
ATOM      4  C5  UNL d   1       1.972  -2.451   0.733  0.00  0.00     0.000 A 
ATOM      5  C6  UNL d   1       2.658  -1.341   0.241  0.00  0.00     0.000 A 
ATOM      6  C7  UNL d   1       1.964  -0.208  -0.217  0.00  0.00    -0.073 A 
ATOM      7  C8  UNL d   1       2.754   0.959  -0.742  0.00  0.00     0.078 C 
ENDROOT
BRANCH   1   8
ATOM      8  C1  UNL d   1      -0.265   0.948  -0.721  0.00  0.00     0.053 C 
ATOM      9  C   UNL d   1      -1.414   0.504  -1.613  0.00  0.00     0.018 C 
ENDBRANCH   1   8
TORSDOF 1
ENDMDL
