MODEL 1
REMARK minimizedAffinity -3.52282214
REMARK minimizedRMSD -1
REMARK  1 active torsions:
REMARK  status: ('A' for Active; 'I' for Inactive)
REMARK    1  A    between atoms: C1_2  and  C2_3 
ROOT
ATOM      1  C2  UNL d   1      -0.317   0.040   0.008  0.00  0.00    -0.076 A 
ATOM      2  C3  UNL d   1       0.855   0.182  -0.755  0.00  0.00     0.004 A 
ATOM      3  C4  UNL d   1       1.935  -0.682  -0.580  0.00  0.00    -0.003 A 
ATOM      4  C5  UNL d   1       1.859  -1.703   0.361  0.00  0.00     0.000 A 
ATOM      5  C6  UNL d   1       0.697  -1.870   1.114  0.00  0.00     0.000 A 
ATOM      6  C7  UNL d   1      -0.406  -1.017   0.938  0.00  0.00    -0.073 A 
ATOM      7  C8  UNL d   1      -1.631  -1.238   1.782  0.00  0.00     0.078 C 
ENDROOT
BRANCH   1   8
ATOM      8  C1  UNL d   1      -1.444   1.025  -0.207  0.00  0.00     0.053 C 
ATOM      9  C   UNL d   1      -1.531   1.505  -1.647  0.00  0.00     0.018 C 
ENDBRANCH   1   8
TORSDOF 1
ENDMDL
