MODEL 1
REMARK minimizedAffinity -3.91978288
REMARK minimizedRMSD -1
REMARK  1 active torsions:
REMARK  status: ('A' for Active; 'I' for Inactive)
REMARK    1  A    between atoms: C1_2  and  C2_3 
ROOT
ATOM      1  C2  UNL d   1       0.174   0.094  -0.253  0.00  0.00    -0.076 A 
ATOM      2  C3  UNL d   1      -0.627  -0.844   0.421  0.00  0.00     0.004 A 
ATOM      3  C4  UNL d   1      -0.092  -2.048   0.877  0.00  0.00    -0.003 A 
ATOM      4  C5  UNL d   1       1.252  -2.332   0.667  0.00  0.00     0.000 A 
ATOM      5  C6  UNL d   1       2.066  -1.406   0.016  0.00  0.00     0.000 A 
ATOM      6  C7  UNL d   1       1.546  -0.180  -0.435  0.00  0.00    -0.073 A 
ATOM      7  C8  UNL d   1       2.467   0.780  -1.137  0.00  0.00     0.078 C 
ENDROOT
BRANCH   1   8
ATOM      8  C1  UNL d   1      -0.467   1.371  -0.748  0.00  0.00     0.053 C 
ATOM      9  C   UNL d   1      -1.872   1.146  -1.287  0.00  0.00     0.018 C 
ENDBRANCH   1   8
TORSDOF 1
ENDMDL
