MODEL 1
REMARK minimizedAffinity -2.10677028
REMARK minimizedRMSD -1
REMARK  1 active torsions:
REMARK  status: ('A' for Active; 'I' for Inactive)
REMARK    1  A    between atoms: C1_2  and  C2_3 
ROOT
ATOM      1  C2  UNL d   1      -0.165  -0.400   0.202  0.00  0.00    -0.076 A 
ATOM      2  C3  UNL d   1      -0.910   0.760   0.476  0.00  0.00     0.004 A 
ATOM      3  C4  UNL d   1      -1.918   0.754   1.438  0.00  0.00    -0.003 A 
ATOM      4  C5  UNL d   1      -2.197  -0.411   2.144  0.00  0.00     0.000 A 
ATOM      5  C6  UNL d   1      -1.455  -1.566   1.898  0.00  0.00     0.000 A 
ATOM      6  C7  UNL d   1      -0.425  -1.573   0.942  0.00  0.00    -0.073 A 
ATOM      7  C8  UNL d   1       0.339  -2.849   0.713  0.00  0.00     0.078 C 
ENDROOT
BRANCH   1   8
ATOM      8  C1  UNL d   1       0.898  -0.341  -0.872  0.00  0.00     0.053 C 
ATOM      9  C   UNL d   1       1.874   0.807  -0.664  0.00  0.00     0.018 C 
ENDBRANCH   1   8
TORSDOF 1
ENDMDL
