MODEL 1
REMARK minimizedAffinity -2.90104985
REMARK minimizedRMSD -1
REMARK  1 active torsions:
REMARK  status: ('A' for Active; 'I' for Inactive)
REMARK    1  A    between atoms: C1_2  and  C2_3 
ROOT
ATOM      1  C2  UNL d   1      -1.065   0.557  -1.264  0.00  0.00    -0.076 A 
ATOM      2  C3  UNL d   1      -0.504  -0.562  -1.903  0.00  0.00     0.004 A 
ATOM      3  C4  UNL d   1       0.663  -1.153  -1.422  0.00  0.00    -0.003 A 
ATOM      4  C5  UNL d   1       1.288  -0.635  -0.293  0.00  0.00     0.000 A 
ATOM      5  C6  UNL d   1       0.735   0.464   0.364  0.00  0.00     0.000 A 
ATOM      6  C7  UNL d   1      -0.449   1.061  -0.098  0.00  0.00    -0.073 A 
ATOM      7  C8  UNL d   1      -0.998   2.248   0.646  0.00  0.00     0.078 C 
ENDROOT
BRANCH   1   8
ATOM      8  C1  UNL d   1      -2.317   1.172  -1.847  0.00  0.00     0.053 C 
ATOM      9  C   UNL d   1      -2.304   1.188  -3.368  0.00  0.00     0.018 C 
ENDBRANCH   1   8
TORSDOF 1
ENDMDL
