MODEL 1
REMARK minimizedAffinity -1.73345101
REMARK minimizedRMSD -1
REMARK  1 active torsions:
REMARK  status: ('A' for Active; 'I' for Inactive)
REMARK    1  A    between atoms: C1_2  and  C2_3 
ROOT
ATOM      1  C2  UNL d   1      -0.923   0.322  -1.319  0.00  0.00    -0.076 A 
ATOM      2  C3  UNL d   1      -1.076   0.063  -2.693  0.00  0.00     0.004 A 
ATOM      3  C4  UNL d   1      -1.733   0.969  -3.524  0.00  0.00    -0.003 A 
ATOM      4  C5  UNL d   1      -2.247   2.148  -2.996  0.00  0.00     0.000 A 
ATOM      5  C6  UNL d   1      -2.089   2.429  -1.640  0.00  0.00     0.000 A 
ATOM      6  C7  UNL d   1      -1.416   1.534  -0.790  0.00  0.00    -0.073 A 
ATOM      7  C8  UNL d   1      -1.280   1.885   0.666  0.00  0.00     0.078 C 
ENDROOT
BRANCH   1   8
ATOM      8  C1  UNL d   1      -0.226  -0.709  -0.461  0.00  0.00     0.053 C 
ATOM      9  C   UNL d   1       1.176  -0.279  -0.057  0.00  0.00     0.018 C 
ENDBRANCH   1   8
TORSDOF 1
ENDMDL
