MODEL 1
REMARK minimizedAffinity -3.32712793
REMARK minimizedRMSD -1
REMARK  0 active torsions:
REMARK  status: ('A' for Active; 'I' for Inactive)
ROOT
ATOM      1  C1  BNZ d   1      -0.069  -0.299   0.013  0.00  0.00     0.000 A 
ATOM      2  C2  BNZ d   1      -0.125  -1.207  -1.011  0.00  0.00     0.000 A 
ATOM      3  C3  BNZ d   1      -1.285  -1.872  -1.295  0.00  0.00     0.000 A 
ATOM      4  C4  BNZ d   1      -2.376  -1.658  -0.531  0.00  0.00     0.000 A 
ATOM      5  C5  BNZ d   1      -2.333  -0.752   0.511  0.00  0.00     0.000 A 
ATOM      6  C6  BNZ d   1      -1.174  -0.056   0.769  0.00  0.00     0.000 A 
ENDROOT
TORSDOF 0
ENDMDL
