MODEL 1
REMARK minimizedAffinity -2.40089798
REMARK minimizedRMSD -1
REMARK  0 active torsions:
REMARK  status: ('A' for Active; 'I' for Inactive)
ROOT
ATOM      1  C1  BNZ d   1       0.372  -1.318  -5.996  0.00  0.00     0.000 A 
ATOM      2  C2  BNZ d   1       0.667   0.017  -5.925  0.00  0.00     0.000 A 
ATOM      3  C3  BNZ d   1       0.187   0.786  -4.902  0.00  0.00     0.000 A 
ATOM      4  C4  BNZ d   1      -0.619   0.229  -3.975  0.00  0.00     0.000 A 
ATOM      5  C5  BNZ d   1      -0.933  -1.114  -4.039  0.00  0.00     0.000 A 
ATOM      6  C6  BNZ d   1      -0.417  -1.894  -5.048  0.00  0.00     0.000 A 
ENDROOT
TORSDOF 0
ENDMDL
