MODEL 1
REMARK minimizedAffinity -3.42036152
REMARK minimizedRMSD -1
REMARK  0 active torsions:
REMARK  status: ('A' for Active; 'I' for Inactive)
ROOT
ATOM      1  C1  BNZ d   1      -1.819  -0.242   2.001  0.00  0.00     0.000 A 
ATOM      2  C2  BNZ d   1      -0.669   0.501   1.962  0.00  0.00     0.000 A 
ATOM      3  C3  BNZ d   1       0.544  -0.071   2.229  0.00  0.00     0.000 A 
ATOM      4  C4  BNZ d   1       0.600  -1.374   2.574  0.00  0.00     0.000 A 
ATOM      5  C5  BNZ d   1      -0.551  -2.134   2.627  0.00  0.00     0.000 A 
ATOM      6  C6  BNZ d   1      -1.765  -1.564   2.319  0.00  0.00     0.000 A 
ENDROOT
TORSDOF 0
ENDMDL
