MODEL 1
REMARK minimizedAffinity 4.28759098
REMARK minimizedRMSD -1
REMARK  0 active torsions:
REMARK  status: ('A' for Active; 'I' for Inactive)
ROOT
ATOM      1  C1  BNZ d   1      -1.285  -1.036   2.273  0.00  0.00     0.000 A 
ATOM      2  C2  BNZ d   1      -0.162  -0.269   2.435  0.00  0.00     0.000 A 
ATOM      3  C3  BNZ d   1       1.045  -0.847   2.711  0.00  0.00     0.000 A 
ATOM      4  C4  BNZ d   1       1.121  -2.185   2.864  0.00  0.00     0.000 A 
ATOM      5  C5  BNZ d   1      -0.004  -2.970   2.713  0.00  0.00     0.000 A 
ATOM      6  C6  BNZ d   1      -1.211  -2.389   2.396  0.00  0.00     0.000 A 
ENDROOT
TORSDOF 0
ENDMDL
