MODEL 1
REMARK minimizedAffinity 4.38639355
REMARK minimizedRMSD -1
REMARK  0 active torsions:
REMARK  status: ('A' for Active; 'I' for Inactive)
ROOT
ATOM      1  C1  BNZ d   1      -2.835  -2.354   0.840  0.00  0.00     0.000 A 
ATOM      2  C2  BNZ d   1      -2.865  -2.008  -0.485  0.00  0.00     0.000 A 
ATOM      3  C3  BNZ d   1      -3.115  -0.719  -0.866  0.00  0.00     0.000 A 
ATOM      4  C4  BNZ d   1      -3.374   0.212   0.074  0.00  0.00     0.000 A 
ATOM      5  C5  BNZ d   1      -3.357  -0.123   1.413  0.00  0.00     0.000 A 
ATOM      6  C6  BNZ d   1      -3.066  -1.412   1.795  0.00  0.00     0.000 A 
ENDROOT
TORSDOF 0
ENDMDL
