MODEL 1
REMARK minimizedAffinity -2.27311802
REMARK minimizedRMSD -1
REMARK  0 active torsions:
REMARK  status: ('A' for Active; 'I' for Inactive)
ROOT
ATOM      1  C1  BNZ d   1      -2.894  -0.349   1.053  0.00  0.00     0.000 A 
ATOM      2  C2  BNZ d   1      -2.875  -0.978  -0.164  0.00  0.00     0.000 A 
ATOM      3  C3  BNZ d   1      -1.702  -1.436  -0.696  0.00  0.00     0.000 A 
ATOM      4  C4  BNZ d   1      -0.547  -1.231  -0.031  0.00  0.00     0.000 A 
ATOM      5  C5  BNZ d   1      -0.549  -0.591   1.192  0.00  0.00     0.000 A 
ATOM      6  C6  BNZ d   1      -1.736  -0.165   1.743  0.00  0.00     0.000 A 
ENDROOT
TORSDOF 0
ENDMDL
