MODEL 1
REMARK minimizedAffinity -4.2893815
REMARK minimizedRMSD -1
REMARK  0 active torsions:
REMARK  status: ('A' for Active; 'I' for Inactive)
ROOT
ATOM      1  C1  BNZ d   1      -2.908  -0.076   0.025  0.00  0.00     0.000 A 
ATOM      2  C2  BNZ d   1      -3.302  -0.013   1.335  0.00  0.00     0.000 A 
ATOM      3  C3  BNZ d   1      -2.461  -0.404   2.339  0.00  0.00     0.000 A 
ATOM      4  C4  BNZ d   1      -1.243  -0.894   2.030  0.00  0.00     0.000 A 
ATOM      5  C5  BNZ d   1      -0.834  -0.973   0.714  0.00  0.00     0.000 A 
ATOM      6  C6  BNZ d   1      -1.669  -0.542  -0.292  0.00  0.00     0.000 A 
ENDROOT
TORSDOF 0
ENDMDL
