MODEL 1
REMARK minimizedAffinity 0.543130219
REMARK minimizedRMSD -1
REMARK  0 active torsions:
REMARK  status: ('A' for Active; 'I' for Inactive)
ROOT
ATOM      1  C   UNL d   1       0.975   0.068  -2.250  0.00  0.00     0.077 C 
ATOM      2  C1  UNL d   1       1.056   1.228  -1.302  0.00  0.00    -0.074 A 
ATOM      3  C2  UNL d   1       0.778   1.064   0.059  0.00  0.00    -0.005 A 
ATOM      4  C3  UNL d   1       0.867   2.150   0.930  0.00  0.00     0.006 A 
ATOM      5  C4  UNL d   1       1.233   3.408   0.450  0.00  0.00    -0.005 A 
ATOM      6  C5  UNL d   1       1.516   3.590  -0.907  0.00  0.00    -0.074 A 
ATOM      7  C6  UNL d   1       1.921   4.933  -1.438  0.00  0.00     0.077 C 
ATOM      8  C7  UNL d   1       1.431   2.493  -1.775  0.00  0.00    -0.001 A 
ENDROOT
TORSDOF 0
ENDMDL
