MODEL 1
REMARK minimizedAffinity 1.59243941
REMARK minimizedRMSD -1
REMARK  0 active torsions:
REMARK  status: ('A' for Active; 'I' for Inactive)
ROOT
ATOM      1  C   UNL d   1       1.788   4.203  -1.874  0.00  0.00     0.077 C 
ATOM      2  C1  UNL d   1       1.721   2.777  -1.416  0.00  0.00    -0.074 A 
ATOM      3  C2  UNL d   1       2.003   1.726  -2.295  0.00  0.00    -0.005 A 
ATOM      4  C3  UNL d   1       1.945   0.404  -1.852  0.00  0.00     0.006 A 
ATOM      5  C4  UNL d   1       1.607   0.121  -0.528  0.00  0.00    -0.005 A 
ATOM      6  C5  UNL d   1       1.322   1.159   0.365  0.00  0.00    -0.074 A 
ATOM      7  C6  UNL d   1       0.966   0.872   1.793  0.00  0.00     0.077 C 
ATOM      8  C7  UNL d   1       1.389   2.484  -0.086  0.00  0.00    -0.001 A 
ENDROOT
TORSDOF 0
ENDMDL
