MODEL 1
REMARK minimizedAffinity -4.51384163
REMARK minimizedRMSD -1
REMARK  0 active torsions:
REMARK  status: ('A' for Active; 'I' for Inactive)
ROOT
ATOM      1  C   UNL d   1       1.445  -2.178  -0.736  0.00  0.00     0.077 C 
ATOM      2  C1  UNL d   1       1.358  -0.697  -0.961  0.00  0.00    -0.074 A 
ATOM      3  C2  UNL d   1       1.605  -0.146  -2.223  0.00  0.00    -0.005 A 
ATOM      4  C3  UNL d   1       1.511   1.231  -2.419  0.00  0.00     0.006 A 
ATOM      5  C4  UNL d   1       1.170   2.071  -1.358  0.00  0.00    -0.005 A 
ATOM      6  C5  UNL d   1       0.919   1.538  -0.090  0.00  0.00    -0.074 A 
ATOM      7  C6  UNL d   1       0.541   2.425   1.060  0.00  0.00     0.077 C 
ATOM      8  C7  UNL d   1       1.008   0.152   0.098  0.00  0.00    -0.001 A 
ENDROOT
TORSDOF 0
ENDMDL
