MODEL 1
REMARK minimizedAffinity -4.72651196
REMARK minimizedRMSD -1
REMARK  0 active torsions:
REMARK  status: ('A' for Active; 'I' for Inactive)
ROOT
ATOM      1  C   UNL d   1       1.248  -1.146  -1.067  0.00  0.00     0.077 C 
ATOM      2  C1  UNL d   1       1.168   0.272  -0.585  0.00  0.00    -0.074 A 
ATOM      3  C2  UNL d   1       1.036   0.563   0.776  0.00  0.00    -0.005 A 
ATOM      4  C3  UNL d   1       0.973   1.887   1.210  0.00  0.00     0.006 A 
ATOM      5  C4  UNL d   1       1.041   2.932   0.288  0.00  0.00    -0.005 A 
ATOM      6  C5  UNL d   1       1.174   2.661  -1.077  0.00  0.00    -0.074 A 
ATOM      7  C6  UNL d   1       1.259   3.773  -2.081  0.00  0.00     0.077 C 
ATOM      8  C7  UNL d   1       1.244   1.328  -1.505  0.00  0.00    -0.001 A 
ENDROOT
TORSDOF 0
ENDMDL
