MODEL 1
REMARK minimizedAffinity -0.11213617
REMARK minimizedRMSD -1
REMARK  0 active torsions:
REMARK  status: ('A' for Active; 'I' for Inactive)
ROOT
ATOM      1  C   UNL d   1       0.735   1.271  -2.273  0.00  0.00     0.077 C 
ATOM      2  C1  UNL d   1       1.099   2.363  -1.311  0.00  0.00    -0.074 A 
ATOM      3  C2  UNL d   1       1.090   2.138   0.069  0.00  0.00    -0.005 A 
ATOM      4  C3  UNL d   1       1.440   3.161   0.950  0.00  0.00     0.006 A 
ATOM      5  C4  UNL d   1       1.803   4.416   0.461  0.00  0.00    -0.005 A 
ATOM      6  C5  UNL d   1       1.819   4.659  -0.916  0.00  0.00    -0.074 A 
ATOM      7  C6  UNL d   1       2.217   6.000  -1.458  0.00  0.00     0.077 C 
ATOM      8  C7  UNL d   1       1.473   3.625  -1.795  0.00  0.00    -0.001 A 
ENDROOT
TORSDOF 0
ENDMDL
