MODEL 1
REMARK minimizedAffinity -1.18402374
REMARK minimizedRMSD -1
REMARK  0 active torsions:
REMARK  status: ('A' for Active; 'I' for Inactive)
ROOT
ATOM      1  C   UNL d   1       1.346  -1.159  -0.355  0.00  0.00     0.077 C 
ATOM      2  C1  UNL d   1       1.435   0.324  -0.560  0.00  0.00    -0.074 A 
ATOM      3  C2  UNL d   1       1.731   0.859  -1.818  0.00  0.00    -0.005 A 
ATOM      4  C3  UNL d   1       1.802   2.241  -1.995  0.00  0.00     0.006 A 
ATOM      5  C4  UNL d   1       1.577   3.100  -0.918  0.00  0.00    -0.005 A 
ATOM      6  C5  UNL d   1       1.279   2.583   0.347  0.00  0.00    -0.074 A 
ATOM      7  C6  UNL d   1       1.025   3.492   1.512  0.00  0.00     0.077 C 
ATOM      8  C7  UNL d   1       1.203   1.193   0.515  0.00  0.00    -0.001 A 
ENDROOT
TORSDOF 0
ENDMDL
