MODEL 1
REMARK minimizedAffinity 8.42471695
REMARK minimizedRMSD -1
REMARK  0 active torsions:
REMARK  status: ('A' for Active; 'I' for Inactive)
ROOT
ATOM      1  C   UNL d   1       0.462  -1.652  -1.712  0.00  0.00     0.077 C 
ATOM      2  C1  UNL d   1       1.039  -0.420  -1.081  0.00  0.00    -0.074 A 
ATOM      3  C2  UNL d   1       1.726  -0.490   0.136  0.00  0.00    -0.005 A 
ATOM      4  C3  UNL d   1       2.265   0.663   0.706  0.00  0.00     0.006 A 
ATOM      5  C4  UNL d   1       2.124   1.895   0.066  0.00  0.00    -0.005 A 
ATOM      6  C5  UNL d   1       1.441   1.984  -1.151  0.00  0.00    -0.074 A 
ATOM      7  C6  UNL d   1       1.288   3.299  -1.856  0.00  0.00     0.077 C 
ATOM      8  C7  UNL d   1       0.908   0.820  -1.721  0.00  0.00    -0.001 A 
ENDROOT
TORSDOF 0
ENDMDL
