MODEL 1
REMARK minimizedAffinity -4.85366249
REMARK minimizedRMSD -1
REMARK  0 active torsions:
REMARK  status: ('A' for Active; 'I' for Inactive)
ROOT
ATOM      1  C   UNL d   1       1.232  -0.653  -1.236  0.00  0.00     0.077 C 
ATOM      2  C1  UNL d   1       1.194   0.669  -0.528  0.00  0.00    -0.074 A 
ATOM      3  C2  UNL d   1       0.902   0.745   0.837  0.00  0.00    -0.005 A 
ATOM      4  C3  UNL d   1       0.879   1.981   1.484  0.00  0.00     0.006 A 
ATOM      5  C4  UNL d   1       1.148   3.151   0.772  0.00  0.00    -0.005 A 
ATOM      6  C5  UNL d   1       1.443   3.094  -0.594  0.00  0.00    -0.074 A 
ATOM      7  C6  UNL d   1       1.744   4.341  -1.371  0.00  0.00     0.077 C 
ATOM      8  C7  UNL d   1       1.471   1.848  -1.234  0.00  0.00    -0.001 A 
ENDROOT
TORSDOF 0
ENDMDL
