MODEL 1
REMARK minimizedAffinity -4.4438324
REMARK minimizedRMSD -1
REMARK  0 active torsions:
REMARK  status: ('A' for Active; 'I' for Inactive)
ROOT
ATOM      1  C   UNL d   1       1.841   5.818  -0.768  0.00  0.00     0.077 C 
ATOM      2  C1  UNL d   1       1.586   4.353  -0.960  0.00  0.00    -0.074 A 
ATOM      3  C2  UNL d   1       1.609   3.780  -2.236  0.00  0.00    -0.005 A 
ATOM      4  C3  UNL d   1       1.380   2.414  -2.398  0.00  0.00     0.006 A 
ATOM      5  C4  UNL d   1       1.124   1.608  -1.288  0.00  0.00    -0.005 A 
ATOM      6  C5  UNL d   1       1.098   2.163  -0.005  0.00  0.00    -0.074 A 
ATOM      7  C6  UNL d   1       0.835   1.308   1.200  0.00  0.00     0.077 C 
ATOM      8  C7  UNL d   1       1.337   3.535   0.151  0.00  0.00    -0.001 A 
ENDROOT
TORSDOF 0
ENDMDL
