MODEL 1
REMARK minimizedAffinity 5.3609376
REMARK minimizedRMSD -1
REMARK  0 active torsions:
REMARK  status: ('A' for Active; 'I' for Inactive)
ROOT
ATOM      1  C   UNL d   1       1.826   0.914  -1.946  0.00  0.00     0.077 C 
ATOM      2  C1  UNL d   1       1.621   2.097  -1.048  0.00  0.00    -0.074 A 
ATOM      3  C2  UNL d   1       1.332   1.928   0.310  0.00  0.00    -0.005 A 
ATOM      4  C3  UNL d   1       1.154   3.039   1.135  0.00  0.00     0.006 A 
ATOM      5  C4  UNL d   1       1.263   4.328   0.611  0.00  0.00    -0.005 A 
ATOM      6  C5  UNL d   1       1.553   4.516  -0.744  0.00  0.00    -0.074 A 
ATOM      7  C6  UNL d   1       1.683   5.895  -1.321  0.00  0.00     0.077 C 
ATOM      8  C7  UNL d   1       1.737   3.395  -1.565  0.00  0.00    -0.001 A 
ENDROOT
TORSDOF 0
ENDMDL
