MODEL 1
REMARK minimizedAffinity -0.151120842
REMARK minimizedRMSD -1
REMARK  0 active torsions:
REMARK  status: ('A' for Active; 'I' for Inactive)
ROOT
ATOM      1  C   UNL d   1       1.558   5.012  -1.280  0.00  0.00     0.077 C 
ATOM      2  C1  UNL d   1       1.343   3.587  -0.864  0.00  0.00    -0.074 A 
ATOM      3  C2  UNL d   1       1.254   3.238   0.487  0.00  0.00    -0.005 A 
ATOM      4  C3  UNL d   1       1.044   1.910   0.858  0.00  0.00     0.006 A 
ATOM      5  C4  UNL d   1       0.922   0.919  -0.117  0.00  0.00    -0.005 A 
ATOM      6  C5  UNL d   1       1.008   1.249  -1.473  0.00  0.00    -0.074 A 
ATOM      7  C6  UNL d   1       0.870   0.198  -2.534  0.00  0.00     0.077 C 
ATOM      8  C7  UNL d   1       1.212   2.587  -1.838  0.00  0.00    -0.001 A 
ENDROOT
TORSDOF 0
ENDMDL
