MODEL 1
REMARK minimizedAffinity -3.95306373
REMARK minimizedRMSD -1
REMARK  0 active torsions:
REMARK  status: ('A' for Active; 'I' for Inactive)
ROOT
ATOM      1  C   UNL d   1       1.223   4.650  -0.796  0.00  0.00     0.077 C 
ATOM      2  C1  UNL d   1       1.205   3.234  -0.302  0.00  0.00    -0.074 A 
ATOM      3  C2  UNL d   1       1.245   2.949   1.066  0.00  0.00    -0.005 A 
ATOM      4  C3  UNL d   1       1.217   1.627   1.511  0.00  0.00     0.006 A 
ATOM      5  C4  UNL d   1       1.150   0.578   0.593  0.00  0.00    -0.005 A 
ATOM      6  C5  UNL d   1       1.109   0.844  -0.780  0.00  0.00    -0.074 A 
ATOM      7  C6  UNL d   1       1.026  -0.271  -1.779  0.00  0.00     0.077 C 
ATOM      8  C7  UNL d   1       1.129   2.175  -1.218  0.00  0.00    -0.001 A 
ENDROOT
TORSDOF 0
ENDMDL
