MODEL 1
REMARK minimizedAffinity 5.31627083
REMARK minimizedRMSD -1
REMARK  0 active torsions:
REMARK  status: ('A' for Active; 'I' for Inactive)
ROOT
ATOM      1  C   UNL d   1       0.295   4.793  -1.439  0.00  0.00     0.077 C 
ATOM      2  C1  UNL d   1       0.836   3.602  -0.705  0.00  0.00    -0.074 A 
ATOM      3  C2  UNL d   1       1.058   3.648   0.675  0.00  0.00    -0.005 A 
ATOM      4  C3  UNL d   1       1.552   2.530   1.346  0.00  0.00     0.006 A 
ATOM      5  C4  UNL d   1       1.830   1.356   0.645  0.00  0.00    -0.005 A 
ATOM      6  C5  UNL d   1       1.614   1.291  -0.736  0.00  0.00    -0.074 A 
ATOM      7  C6  UNL d   1       1.898   0.034  -1.503  0.00  0.00     0.077 C 
ATOM      8  C7  UNL d   1       1.110   2.417  -1.401  0.00  0.00    -0.001 A 
ENDROOT
TORSDOF 0
ENDMDL
