MODEL 1
REMARK minimizedAffinity -0.884544015
REMARK minimizedRMSD -1
REMARK  0 active torsions:
REMARK  status: ('A' for Active; 'I' for Inactive)
ROOT
ATOM      1  C   UNL d   1       1.104   2.532  -3.161  0.00  0.00     0.077 C 
ATOM      2  C1  UNL d   1       1.163   2.014  -1.755  0.00  0.00    -0.074 A 
ATOM      3  C2  UNL d   1       0.765   2.813  -0.678  0.00  0.00    -0.005 A 
ATOM      4  C3  UNL d   1       0.816   2.314   0.624  0.00  0.00     0.006 A 
ATOM      5  C4  UNL d   1       1.266   1.015   0.862  0.00  0.00    -0.005 A 
ATOM      6  C5  UNL d   1       1.668   0.202  -0.203  0.00  0.00    -0.074 A 
ATOM      7  C6  UNL d   1       2.145  -1.200   0.034  0.00  0.00     0.077 C 
ATOM      8  C7  UNL d   1       1.607   0.707  -1.509  0.00  0.00    -0.001 A 
ENDROOT
TORSDOF 0
ENDMDL
