MODEL 1
REMARK minimizedAffinity -1.27285564
REMARK minimizedRMSD -1
REMARK  0 active torsions:
REMARK  status: ('A' for Active; 'I' for Inactive)
ROOT
ATOM      1  C   UNL d   1       1.241  -1.970  -1.217  0.00  0.00     0.077 C 
ATOM      2  C1  UNL d   1       1.269  -0.555  -0.721  0.00  0.00    -0.074 A 
ATOM      3  C2  UNL d   1       1.437  -0.274   0.639  0.00  0.00    -0.005 A 
ATOM      4  C3  UNL d   1       1.471   1.047   1.084  0.00  0.00     0.006 A 
ATOM      5  C4  UNL d   1       1.339   2.099   0.177  0.00  0.00    -0.005 A 
ATOM      6  C5  UNL d   1       1.171   1.837  -1.187  0.00  0.00    -0.074 A 
ATOM      7  C6  UNL d   1       1.037   2.955  -2.177  0.00  0.00     0.077 C 
ATOM      8  C7  UNL d   1       1.145   0.506  -1.628  0.00  0.00    -0.001 A 
ENDROOT
TORSDOF 0
ENDMDL
