MODEL 1
REMARK minimizedAffinity -0.647290587
REMARK minimizedRMSD -1
REMARK  1 active torsions:
REMARK  status: ('A' for Active; 'I' for Inactive)
REMARK    1  A    between atoms: C1_2  and  C2_3 
ROOT
ATOM      1  C2  UNL d   1      -0.264   0.816   0.112  0.00  0.00    -0.076 A 
ATOM      2  C3  UNL d   1       0.091  -0.537   0.245  0.00  0.00     0.004 A 
ATOM      3  C4  UNL d   1       1.412  -0.952   0.087  0.00  0.00    -0.003 A 
ATOM      4  C5  UNL d   1       2.401  -0.019  -0.204  0.00  0.00     0.000 A 
ATOM      5  C6  UNL d   1       2.071   1.330  -0.322  0.00  0.00     0.000 A 
ATOM      6  C7  UNL d   1       0.746   1.767  -0.151  0.00  0.00    -0.073 A 
ATOM      7  C8  UNL d   1       0.445   3.234  -0.295  0.00  0.00     0.078 C 
ENDROOT
BRANCH   1   8
ATOM      8  C1  UNL d   1      -1.717   1.203   0.266  0.00  0.00     0.053 C 
ATOM      9  C   UNL d   1      -1.959   2.086   1.481  0.00  0.00     0.018 C 
ENDBRANCH   1   8
TORSDOF 1
ENDMDL
