MODEL 1
REMARK minimizedAffinity -3.54947805
REMARK minimizedRMSD -1
REMARK  1 active torsions:
REMARK  status: ('A' for Active; 'I' for Inactive)
REMARK    1  A    between atoms: C1_2  and  C2_3 
ROOT
ATOM      1  C2  UNL d   1       0.772   1.132  -0.159  0.00  0.00    -0.076 A 
ATOM      2  C3  UNL d   1      -0.353   0.320   0.065  0.00  0.00     0.004 A 
ATOM      3  C4  UNL d   1      -0.212  -1.018   0.428  0.00  0.00    -0.003 A 
ATOM      4  C5  UNL d   1       1.058  -1.566   0.575  0.00  0.00     0.000 A 
ATOM      5  C6  UNL d   1       2.185  -0.771   0.374  0.00  0.00     0.000 A 
ATOM      6  C7  UNL d   1       2.060   0.585   0.023  0.00  0.00    -0.073 A 
ATOM      7  C8  UNL d   1       3.310   1.394  -0.187  0.00  0.00     0.078 C 
ENDROOT
BRANCH   1   8
ATOM      8  C1  UNL d   1       0.557   2.569  -0.578  0.00  0.00     0.053 C 
ATOM      9  C   UNL d   1       0.123   3.455   0.580  0.00  0.00     0.018 C 
ENDBRANCH   1   8
TORSDOF 1
ENDMDL
