MODEL 1
REMARK minimizedAffinity 0.340733707
REMARK minimizedRMSD -1
REMARK  1 active torsions:
REMARK  status: ('A' for Active; 'I' for Inactive)
REMARK    1  A    between atoms: C1_2  and  C2_3 
ROOT
ATOM      1  C2  UNL d   1      -0.223  -0.860  -0.652  0.00  0.00    -0.076 A 
ATOM      2  C3  UNL d   1      -0.781  -1.037   0.626  0.00  0.00     0.004 A 
ATOM      3  C4  UNL d   1      -1.099   0.057   1.428  0.00  0.00    -0.003 A 
ATOM      4  C5  UNL d   1      -0.864   1.347   0.965  0.00  0.00     0.000 A 
ATOM      5  C6  UNL d   1      -0.328   1.542  -0.307  0.00  0.00     0.000 A 
ATOM      6  C7  UNL d   1      -0.017   0.450  -1.135  0.00  0.00    -0.073 A 
ATOM      7  C8  UNL d   1       0.566   0.718  -2.496  0.00  0.00     0.078 C 
ENDROOT
BRANCH   1   8
ATOM      8  C1  UNL d   1       0.127  -2.086  -1.465  0.00  0.00     0.053 C 
ATOM      9  C   UNL d   1      -0.961  -3.147  -1.417  0.00  0.00     0.018 C 
ENDBRANCH   1   8
TORSDOF 1
ENDMDL
