MODEL 1
REMARK minimizedAffinity -5.07209969
REMARK minimizedRMSD -1
REMARK  1 active torsions:
REMARK  status: ('A' for Active; 'I' for Inactive)
REMARK    1  A    between atoms: C1_2  and  C2_3 
ROOT
ATOM      1  C2  UNL d   1      -1.036   1.424   0.886  0.00  0.00    -0.076 A 
ATOM      2  C3  UNL d   1      -1.898   0.711   1.737  0.00  0.00     0.004 A 
ATOM      3  C4  UNL d   1      -2.387   1.286   2.909  0.00  0.00    -0.003 A 
ATOM      4  C5  UNL d   1      -2.022   2.584   3.248  0.00  0.00     0.000 A 
ATOM      5  C6  UNL d   1      -1.181   3.312   2.407  0.00  0.00     0.000 A 
ATOM      6  C7  UNL d   1      -0.692   2.753   1.214  0.00  0.00    -0.073 A 
ATOM      7  C8  UNL d   1       0.216   3.581   0.347  0.00  0.00     0.078 C 
ENDROOT
BRANCH   1   8
ATOM      8  C1  UNL d   1      -0.516   0.738  -0.357  0.00  0.00     0.053 C 
ATOM      9  C   UNL d   1       0.562  -0.290  -0.049  0.00  0.00     0.018 C 
ENDBRANCH   1   8
TORSDOF 1
ENDMDL
