MODEL 1
REMARK minimizedAffinity -3.63647079
REMARK minimizedRMSD -1
REMARK  1 active torsions:
REMARK  status: ('A' for Active; 'I' for Inactive)
REMARK    1  A    between atoms: C1_2  and  C2_3 
ROOT
ATOM      1  C2  UNL d   1      -0.036   0.063   0.029  0.00  0.00    -0.076 A 
ATOM      2  C3  UNL d   1       1.124   0.511  -0.627  0.00  0.00     0.004 A 
ATOM      3  C4  UNL d   1       1.291   1.856  -0.951  0.00  0.00    -0.003 A 
ATOM      4  C5  UNL d   1       0.301   2.776  -0.623  0.00  0.00     0.000 A 
ATOM      5  C6  UNL d   1      -0.848   2.352   0.043  0.00  0.00     0.000 A 
ATOM      6  C7  UNL d   1      -1.025   1.002   0.392  0.00  0.00    -0.073 A 
ATOM      7  C8  UNL d   1      -2.286   0.600   1.105  0.00  0.00     0.078 C 
ENDROOT
BRANCH   1   8
ATOM      8  C1  UNL d   1      -0.174  -1.412   0.330  0.00  0.00     0.053 C 
ATOM      9  C   UNL d   1      -0.913  -2.164  -0.766  0.00  0.00     0.018 C 
ENDBRANCH   1   8
TORSDOF 1
ENDMDL
