MODEL 1
REMARK minimizedAffinity 6.99784327
REMARK minimizedRMSD -1
REMARK  1 active torsions:
REMARK  status: ('A' for Active; 'I' for Inactive)
REMARK    1  A    between atoms: C1_2  and  C2_3 
ROOT
ATOM      1  C2  UNL d   1      -0.796   0.205   1.811  0.00  0.00    -0.076 A 
ATOM      2  C3  UNL d   1      -1.441   1.400   2.173  0.00  0.00     0.004 A 
ATOM      3  C4  UNL d   1      -1.048   2.621   1.629  0.00  0.00    -0.003 A 
ATOM      4  C5  UNL d   1      -0.003   2.667   0.713  0.00  0.00     0.000 A 
ATOM      5  C6  UNL d   1       0.637   1.489   0.328  0.00  0.00     0.000 A 
ATOM      6  C7  UNL d   1       0.242   0.248   0.855  0.00  0.00    -0.073 A 
ATOM      7  C8  UNL d   1       0.971  -0.990   0.410  0.00  0.00     0.078 C 
ENDROOT
BRANCH   1   8
ATOM      8  C1  UNL d   1      -1.248  -1.086   2.455  0.00  0.00     0.053 C 
ATOM      9  C   UNL d   1      -2.721  -1.064   2.833  0.00  0.00     0.018 C 
ENDBRANCH   1   8
TORSDOF 1
ENDMDL
