MODEL 1
REMARK minimizedAffinity 5.64152241
REMARK minimizedRMSD -1
REMARK  1 active torsions:
REMARK  status: ('A' for Active; 'I' for Inactive)
REMARK    1  A    between atoms: C1_2  and  C2_3 
ROOT
ATOM      1  C2  UNL d   1       0.953   2.088   0.908  0.00  0.00    -0.076 A 
ATOM      2  C3  UNL d   1       1.518   3.332   1.242  0.00  0.00     0.004 A 
ATOM      3  C4  UNL d   1       2.900   3.492   1.327  0.00  0.00    -0.003 A 
ATOM      4  C5  UNL d   1       3.739   2.412   1.078  0.00  0.00     0.000 A 
ATOM      5  C6  UNL d   1       3.197   1.176   0.728  0.00  0.00     0.000 A 
ATOM      6  C7  UNL d   1       1.806   1.001   0.623  0.00  0.00    -0.073 A 
ATOM      7  C8  UNL d   1       1.275  -0.355   0.248  0.00  0.00     0.078 C 
ENDROOT
BRANCH   1   8
ATOM      8  C1  UNL d   1      -0.554   1.968   0.858  0.00  0.00     0.053 C 
ATOM      9  C   UNL d   1      -1.168   2.797  -0.259  0.00  0.00     0.018 C 
ENDBRANCH   1   8
TORSDOF 1
ENDMDL
