MODEL 1
REMARK minimizedAffinity -5.38711071
REMARK minimizedRMSD -1
REMARK  1 active torsions:
REMARK  status: ('A' for Active; 'I' for Inactive)
REMARK    1  A    between atoms: C1_2  and  C2_3 
ROOT
ATOM      1  C2  UNL d   1       0.829   0.579   0.452  0.00  0.00    -0.076 A 
ATOM      2  C3  UNL d   1      -0.508   1.004   0.364  0.00  0.00     0.004 A 
ATOM      3  C4  UNL d   1      -0.823   2.353   0.208  0.00  0.00    -0.003 A 
ATOM      4  C5  UNL d   1       0.194   3.298   0.137  0.00  0.00     0.000 A 
ATOM      5  C6  UNL d   1       1.527   2.892   0.205  0.00  0.00     0.000 A 
ATOM      6  C7  UNL d   1       1.862   1.535   0.346  0.00  0.00    -0.073 A 
ATOM      7  C8  UNL d   1       3.315   1.154   0.420  0.00  0.00     0.078 C 
ENDROOT
BRANCH   1   8
ATOM      8  C1  UNL d   1       1.109  -0.894   0.648  0.00  0.00     0.053 C 
ATOM      9  C   UNL d   1      -0.102  -1.763   0.346  0.00  0.00     0.018 C 
ENDBRANCH   1   8
TORSDOF 1
ENDMDL
