MODEL 1
REMARK minimizedAffinity 1.99581099
REMARK minimizedRMSD -1
REMARK  1 active torsions:
REMARK  status: ('A' for Active; 'I' for Inactive)
REMARK    1  A    between atoms: C1_2  and  C2_3 
ROOT
ATOM      1  C2  UNL d   1      -0.204   1.642   0.417  0.00  0.00    -0.076 A 
ATOM      2  C3  UNL d   1       1.193   1.799   0.388  0.00  0.00     0.004 A 
ATOM      3  C4  UNL d   1       1.781   2.867  -0.286  0.00  0.00    -0.003 A 
ATOM      4  C5  UNL d   1       0.982   3.797  -0.942  0.00  0.00     0.000 A 
ATOM      5  C6  UNL d   1      -0.406   3.667  -0.909  0.00  0.00     0.000 A 
ATOM      6  C7  UNL d   1      -1.016   2.605  -0.220  0.00  0.00    -0.073 A 
ATOM      7  C8  UNL d   1      -2.517   2.510  -0.223  0.00  0.00     0.078 C 
ENDROOT
BRANCH   1   8
ATOM      8  C1  UNL d   1      -0.785   0.448   1.141  0.00  0.00     0.053 C 
ATOM      9  C   UNL d   1      -0.044  -0.842   0.825  0.00  0.00     0.018 C 
ENDBRANCH   1   8
TORSDOF 1
ENDMDL
