MODEL 1
REMARK minimizedAffinity -4.31222582
REMARK minimizedRMSD -1
REMARK  1 active torsions:
REMARK  status: ('A' for Active; 'I' for Inactive)
REMARK    1  A    between atoms: C1_2  and  C2_3 
ROOT
ATOM      1  C2  UNL d   1       0.246  -0.142   0.183  0.00  0.00    -0.076 A 
ATOM      2  C3  UNL d   1      -1.092   0.252   0.359  0.00  0.00     0.004 A 
ATOM      3  C4  UNL d   1      -1.447   1.600   0.376  0.00  0.00    -0.003 A 
ATOM      4  C5  UNL d   1      -0.470   2.576   0.217  0.00  0.00     0.000 A 
ATOM      5  C6  UNL d   1       0.860   2.203   0.023  0.00  0.00     0.000 A 
ATOM      6  C7  UNL d   1       1.232   0.848  -0.013  0.00  0.00    -0.073 A 
ATOM      7  C8  UNL d   1       2.682   0.503  -0.219  0.00  0.00     0.078 C 
ENDROOT
BRANCH   1   8
ATOM      8  C1  UNL d   1       0.575  -1.617   0.200  0.00  0.00     0.053 C 
ATOM      9  C   UNL d   1      -0.559  -2.473  -0.343  0.00  0.00     0.018 C 
ENDBRANCH   1   8
TORSDOF 1
ENDMDL
