MODEL 1
REMARK minimizedAffinity 3.23599815
REMARK minimizedRMSD -1
REMARK  0 active torsions:
REMARK  status: ('A' for Active; 'I' for Inactive)
ROOT
ATOM      1  C1  DEN d   1      -4.486  -2.656   2.028  0.00  0.00     0.130 A 
ATOM      2  C2  DEN d   1      -5.660  -2.443   2.870  0.00  0.00    -0.031 A 
ATOM      3  C3  DEN d   1      -5.443  -1.208   3.651  0.00  0.00     0.027 A 
ATOM      4  C4  DEN d   1      -3.417   0.388   3.634  0.00  0.00     0.027 A 
ATOM      5  C5  DEN d   1      -2.172   0.616   3.090  0.00  0.00    -0.003 A 
ATOM      6  C6  DEN d   1      -1.602  -0.241   2.187  0.00  0.00     0.001 A 
ATOM      7  C7  DEN d   1      -2.296  -1.344   1.766  0.00  0.00     0.017 A 
ATOM      8  C8  DEN d   1      -3.549  -1.585   2.315  0.00  0.00    -0.094 A 
ATOM      9  C9  DEN d   1      -4.114  -0.700   3.218  0.00  0.00    -0.072 A 
ENDROOT
TORSDOF 0
ENDMDL
