MODEL 1
REMARK minimizedAffinity 4.13754797
REMARK minimizedRMSD -1
REMARK  0 active torsions:
REMARK  status: ('A' for Active; 'I' for Inactive)
ROOT
ATOM      1  C1  DEN d   1       1.170   2.704  -2.400  0.00  0.00     0.130 A 
ATOM      2  C2  DEN d   1       2.103   3.276  -3.366  0.00  0.00    -0.031 A 
ATOM      3  C3  DEN d   1       3.469   3.128  -2.825  0.00  0.00     0.027 A 
ATOM      4  C4  DEN d   1       4.226   2.070  -0.598  0.00  0.00     0.027 A 
ATOM      5  C5  DEN d   1       3.794   1.461   0.559  0.00  0.00    -0.003 A 
ATOM      6  C6  DEN d   1       2.466   1.255   0.824  0.00  0.00     0.001 A 
ATOM      7  C7  DEN d   1       1.525   1.622  -0.100  0.00  0.00     0.017 A 
ATOM      8  C8  DEN d   1       1.952   2.244  -1.266  0.00  0.00    -0.094 A 
ATOM      9  C9  DEN d   1       3.300   2.432  -1.521  0.00  0.00    -0.072 A 
ENDROOT
TORSDOF 0
ENDMDL
