MODEL 1
REMARK minimizedAffinity 15.213521
REMARK minimizedRMSD -1
REMARK  0 active torsions:
REMARK  status: ('A' for Active; 'I' for Inactive)
ROOT
ATOM      1  C1  DEN d   1      -2.820  -4.224  -4.526  0.00  0.00     0.130 A 
ATOM      2  C2  DEN d   1      -2.407  -5.625  -4.522  0.00  0.00    -0.031 A 
ATOM      3  C3  DEN d   1      -1.500  -5.830  -3.375  0.00  0.00     0.027 A 
ATOM      4  C4  DEN d   1      -0.701  -4.125  -1.612  0.00  0.00     0.027 A 
ATOM      5  C5  DEN d   1      -0.774  -2.810  -1.209  0.00  0.00    -0.003 A 
ATOM      6  C6  DEN d   1      -1.500  -1.874  -1.897  0.00  0.00     0.001 A 
ATOM      7  C7  DEN d   1      -2.220  -2.250  -3.000  0.00  0.00     0.017 A 
ATOM      8  C8  DEN d   1      -2.146  -3.573  -3.417  0.00  0.00    -0.094 A 
ATOM      9  C9  DEN d   1      -1.416  -4.507  -2.701  0.00  0.00    -0.072 A 
ENDROOT
TORSDOF 0
ENDMDL
