MODEL 1
REMARK minimizedAffinity 17.0040932
REMARK minimizedRMSD -1
REMARK  0 active torsions:
REMARK  status: ('A' for Active; 'I' for Inactive)
ROOT
ATOM      1  C1  DEN d   1       3.275   3.374  -1.757  0.00  0.00     0.130 A 
ATOM      2  C2  DEN d   1       2.078   2.723  -2.283  0.00  0.00    -0.031 A 
ATOM      3  C3  DEN d   1       2.223   2.616  -3.749  0.00  0.00     0.027 A 
ATOM      4  C4  DEN d   1       4.176   3.387  -5.247  0.00  0.00     0.027 A 
ATOM      5  C5  DEN d   1       5.408   4.002  -5.256  0.00  0.00    -0.003 A 
ATOM      6  C6  DEN d   1       5.996   4.478  -4.114  0.00  0.00     0.001 A 
ATOM      7  C7  DEN d   1       5.371   4.305  -2.907  0.00  0.00     0.017 A 
ATOM      8  C8  DEN d   1       4.125   3.692  -2.890  0.00  0.00    -0.094 A 
ATOM      9  C9  DEN d   1       3.553   3.208  -4.054  0.00  0.00    -0.072 A 
ENDROOT
TORSDOF 0
ENDMDL
