MODEL 1
REMARK minimizedAffinity 11.6235695
REMARK minimizedRMSD -1
REMARK  0 active torsions:
REMARK  status: ('A' for Active; 'I' for Inactive)
ROOT
ATOM      1  C1  DEN d   1      -4.975  -0.561   0.681  0.00  0.00     0.130 A 
ATOM      2  C2  DEN d   1      -5.669   0.435   1.493  0.00  0.00    -0.031 A 
ATOM      3  C3  DEN d   1      -4.720   0.939   2.505  0.00  0.00     0.027 A 
ATOM      4  C4  DEN d   1      -2.256   0.281   2.890  0.00  0.00     0.027 A 
ATOM      5  C5  DEN d   1      -1.230  -0.530   2.458  0.00  0.00    -0.003 A 
ATOM      6  C6  DEN d   1      -1.389  -1.426   1.434  0.00  0.00     0.001 A 
ATOM      7  C7  DEN d   1      -2.589  -1.500   0.778  0.00  0.00     0.017 A 
ATOM      8  C8  DEN d   1      -3.630  -0.690   1.212  0.00  0.00    -0.094 A 
ATOM      9  C9  DEN d   1      -3.446   0.218   2.241  0.00  0.00    -0.072 A 
ENDROOT
TORSDOF 0
ENDMDL
