MODEL 1
REMARK minimizedAffinity 19.1215134
REMARK minimizedRMSD -1
REMARK  0 active torsions:
REMARK  status: ('A' for Active; 'I' for Inactive)
ROOT
ATOM      1  C1  DEN d   1       2.696   2.624  -4.192  0.00  0.00     0.130 A 
ATOM      2  C2  DEN d   1       1.964   2.327  -2.964  0.00  0.00    -0.031 A 
ATOM      3  C3  DEN d   1       2.739   2.866  -1.829  0.00  0.00     0.027 A 
ATOM      4  C4  DEN d   1       4.988   4.129  -1.854  0.00  0.00     0.027 A 
ATOM      5  C5  DEN d   1       5.998   4.608  -2.659  0.00  0.00    -0.003 A 
ATOM      6  C6  DEN d   1       5.994   4.431  -4.017  0.00  0.00     0.001 A 
ATOM      7  C7  DEN d   1       4.938   3.797  -4.617  0.00  0.00     0.017 A 
ATOM      8  C8  DEN d   1       3.920   3.305  -3.810  0.00  0.00    -0.094 A 
ATOM      9  C9  DEN d   1       3.936   3.505  -2.440  0.00  0.00    -0.072 A 
ENDROOT
TORSDOF 0
ENDMDL
