MODEL 1
REMARK minimizedAffinity 9.6164484
REMARK minimizedRMSD -1
REMARK  0 active torsions:
REMARK  status: ('A' for Active; 'I' for Inactive)
ROOT
ATOM      1  C1  DEN d   1      -5.996   1.210   4.881  0.00  0.00     0.130 A 
ATOM      2  C2  DEN d   1      -4.939   1.212   5.889  0.00  0.00    -0.031 A 
ATOM      3  C3  DEN d   1      -3.671   0.856   5.220  0.00  0.00     0.027 A 
ATOM      4  C4  DEN d   1      -3.244   0.309   2.736  0.00  0.00     0.027 A 
ATOM      5  C5  DEN d   1      -3.835   0.168   1.500  0.00  0.00    -0.003 A 
ATOM      6  C6  DEN d   1      -5.182   0.330   1.312  0.00  0.00     0.001 A 
ATOM      7  C7  DEN d   1      -5.977   0.687   2.370  0.00  0.00     0.017 A 
ATOM      8  C8  DEN d   1      -5.389   0.824   3.620  0.00  0.00    -0.094 A 
ATOM      9  C9  DEN d   1      -4.024   0.668   3.787  0.00  0.00    -0.072 A 
ENDROOT
TORSDOF 0
ENDMDL
