MODEL 1
REMARK minimizedAffinity 12.1333475
REMARK minimizedRMSD -1
REMARK  0 active torsions:
REMARK  status: ('A' for Active; 'I' for Inactive)
ROOT
ATOM      1  C1  DEN d   1      -0.636  -0.455   2.969  0.00  0.00     0.130 A 
ATOM      2  C2  DEN d   1      -0.545  -1.397   1.857  0.00  0.00    -0.031 A 
ATOM      3  C3  DEN d   1      -1.859  -1.440   1.186  0.00  0.00     0.027 A 
ATOM      4  C4  DEN d   1      -4.014  -0.141   1.754  0.00  0.00     0.027 A 
ATOM      5  C5  DEN d   1      -4.582   0.768   2.619  0.00  0.00    -0.003 A 
ATOM      6  C6  DEN d   1      -3.890   1.303   3.673  0.00  0.00     0.001 A 
ATOM      7  C7  DEN d   1      -2.575   0.968   3.863  0.00  0.00     0.017 A 
ATOM      8  C8  DEN d   1      -1.998   0.046   2.999  0.00  0.00    -0.094 A 
ATOM      9  C9  DEN d   1      -2.711  -0.474   1.932  0.00  0.00    -0.072 A 
ENDROOT
TORSDOF 0
ENDMDL
