MODEL 1
REMARK minimizedAffinity 7.82761621
REMARK minimizedRMSD -1
REMARK  0 active torsions:
REMARK  status: ('A' for Active; 'I' for Inactive)
ROOT
ATOM      1  C1  DEN d   1      -5.390  -0.505   2.099  0.00  0.00     0.130 A 
ATOM      2  C2  DEN d   1      -4.942  -1.892   2.177  0.00  0.00    -0.031 A 
ATOM      3  C3  DEN d   1      -4.490  -2.149   3.559  0.00  0.00     0.027 A 
ATOM      4  C4  DEN d   1      -4.447  -0.543   5.577  0.00  0.00     0.027 A 
ATOM      5  C5  DEN d   1      -4.718   0.741   5.995  0.00  0.00    -0.003 A 
ATOM      6  C6  DEN d   1      -5.195   1.702   5.143  0.00  0.00     0.001 A 
ATOM      7  C7  DEN d   1      -5.460   1.380   3.838  0.00  0.00     0.017 A 
ATOM      8  C8  DEN d   1      -5.183   0.090   3.407  0.00  0.00    -0.094 A 
ATOM      9  C9  DEN d   1      -4.712  -0.870   4.287  0.00  0.00    -0.072 A 
ENDROOT
TORSDOF 0
ENDMDL
