MODEL 1
REMARK minimizedAffinity 18.5199871
REMARK minimizedRMSD -1
REMARK  0 active torsions:
REMARK  status: ('A' for Active; 'I' for Inactive)
ROOT
ATOM      1  C1  DEN d   1      -5.076  -6.000   4.688  0.00  0.00     0.130 A 
ATOM      2  C2  DEN d   1      -5.015  -5.358   5.998  0.00  0.00    -0.031 A 
ATOM      3  C3  DEN d   1      -4.926  -3.899   5.789  0.00  0.00     0.027 A 
ATOM      4  C4  DEN d   1      -4.881  -2.578   3.574  0.00  0.00     0.027 A 
ATOM      5  C5  DEN d   1      -4.898  -2.687   2.202  0.00  0.00    -0.003 A 
ATOM      6  C6  DEN d   1      -4.942  -3.900   1.566  0.00  0.00     0.001 A 
ATOM      7  C7  DEN d   1      -5.015  -5.051   2.305  0.00  0.00     0.017 A 
ATOM      8  C8  DEN d   1      -4.990  -4.949   3.690  0.00  0.00    -0.094 A 
ATOM      9  C9  DEN d   1      -4.958  -3.714   4.313  0.00  0.00    -0.072 A 
ENDROOT
TORSDOF 0
ENDMDL
