MODEL 1
REMARK minimizedAffinity 14.5813856
REMARK minimizedRMSD -1
REMARK  0 active torsions:
REMARK  status: ('A' for Active; 'I' for Inactive)
ROOT
ATOM      1  C1  DEN d   1       2.991   1.256   1.750  0.00  0.00     0.130 A 
ATOM      2  C2  DEN d   1       2.464   0.881   0.441  0.00  0.00    -0.031 A 
ATOM      3  C3  DEN d   1       3.241   1.601  -0.587  0.00  0.00     0.027 A 
ATOM      4  C4  DEN d   1       5.202   3.248  -0.281  0.00  0.00     0.027 A 
ATOM      5  C5  DEN d   1       5.998   3.887   0.644  0.00  0.00    -0.003 A 
ATOM      6  C6  DEN d   1       5.826   3.722   1.993  0.00  0.00     0.001 A 
ATOM      7  C7  DEN d   1       4.864   2.862   2.454  0.00  0.00     0.017 A 
ATOM      8  C8  DEN d   1       4.054   2.219   1.527  0.00  0.00    -0.094 A 
ATOM      9  C9  DEN d   1       4.251   2.391   0.168  0.00  0.00    -0.072 A 
ENDROOT
TORSDOF 0
ENDMDL
