MODEL 1
REMARK minimizedAffinity 9.6685915
REMARK minimizedRMSD -1
REMARK  0 active torsions:
REMARK  status: ('A' for Active; 'I' for Inactive)
ROOT
ATOM      1  C1  DEN d   1       1.018  -5.276  -2.978  0.00  0.00     0.130 A 
ATOM      2  C2  DEN d   1       2.134  -5.652  -3.842  0.00  0.00    -0.031 A 
ATOM      3  C3  DEN d   1       1.588  -5.989  -5.172  0.00  0.00     0.027 A 
ATOM      4  C4  DEN d   1      -0.862  -5.960  -5.975  0.00  0.00     0.027 A 
ATOM      5  C5  DEN d   1      -2.165  -5.720  -5.597  0.00  0.00    -0.003 A 
ATOM      6  C6  DEN d   1      -2.498  -5.351  -4.321  0.00  0.00     0.001 A 
ATOM      7  C7  DEN d   1      -1.512  -5.168  -3.388  0.00  0.00     0.017 A 
ATOM      8  C8  DEN d   1      -0.198  -5.415  -3.759  0.00  0.00    -0.094 A 
ATOM      9  C9  DEN d   1       0.120  -5.775  -5.058  0.00  0.00    -0.072 A 
ENDROOT
TORSDOF 0
ENDMDL
