MODEL 1
REMARK minimizedAffinity 9.08770847
REMARK minimizedRMSD -1
REMARK  0 active torsions:
REMARK  status: ('A' for Active; 'I' for Inactive)
ROOT
ATOM      1  C1  DEN d   1       1.257  -6.000  -4.934  0.00  0.00     0.130 A 
ATOM      2  C2  DEN d   1       1.837  -5.386  -3.743  0.00  0.00    -0.031 A 
ATOM      3  C3  DEN d   1       0.758  -4.685  -3.019  0.00  0.00     0.027 A 
ATOM      4  C4  DEN d   1      -1.743  -4.495  -3.622  0.00  0.00     0.027 A 
ATOM      5  C5  DEN d   1      -2.705  -4.840  -4.546  0.00  0.00    -0.003 A 
ATOM      6  C6  DEN d   1      -2.409  -5.561  -5.672  0.00  0.00     0.001 A 
ATOM      7  C7  DEN d   1      -1.128  -5.999  -5.881  0.00  0.00     0.017 A 
ATOM      8  C8  DEN d   1      -0.152  -5.649  -4.958  0.00  0.00    -0.094 A 
ATOM      9  C9  DEN d   1      -0.473  -4.930  -3.819  0.00  0.00    -0.072 A 
ENDROOT
TORSDOF 0
ENDMDL
