MODEL 1
REMARK minimizedAffinity 4.73582554
REMARK minimizedRMSD -1
REMARK  0 active torsions:
REMARK  status: ('A' for Active; 'I' for Inactive)
ROOT
ATOM      1  C1  DEN d   1       0.796  -1.063   4.533  0.00  0.00     0.130 A 
ATOM      2  C2  DEN d   1       1.159  -0.862   3.133  0.00  0.00    -0.031 A 
ATOM      3  C3  DEN d   1       0.228   0.129   2.558  0.00  0.00     0.027 A 
ATOM      4  C4  DEN d   1      -1.729   1.367   3.695  0.00  0.00     0.027 A 
ATOM      5  C5  DEN d   1      -2.431   1.517   4.870  0.00  0.00    -0.003 A 
ATOM      6  C6  DEN d   1      -2.131   0.798   5.996  0.00  0.00     0.001 A 
ATOM      7  C7  DEN d   1      -1.073  -0.072   5.985  0.00  0.00     0.017 A 
ATOM      8  C8  DEN d   1      -0.364  -0.233   4.801  0.00  0.00    -0.094 A 
ATOM      9  C9  DEN d   1      -0.676   0.512   3.677  0.00  0.00    -0.072 A 
ENDROOT
TORSDOF 0
ENDMDL
