MODEL 1
REMARK minimizedAffinity 8.28382587
REMARK minimizedRMSD -1
REMARK  0 active torsions:
REMARK  status: ('A' for Active; 'I' for Inactive)
ROOT
ATOM      1  C1  DEN d   1       2.986   1.692   1.505  0.00  0.00     0.130 A 
ATOM      2  C2  DEN d   1       2.430   1.115   0.284  0.00  0.00    -0.031 A 
ATOM      3  C3  DEN d   1       3.196   1.646  -0.861  0.00  0.00     0.027 A 
ATOM      4  C4  DEN d   1       5.180   3.293  -0.863  0.00  0.00     0.027 A 
ATOM      5  C5  DEN d   1       5.999   4.064  -0.069  0.00  0.00    -0.003 A 
ATOM      6  C6  DEN d   1       5.851   4.125   1.291  0.00  0.00     0.001 A 
ATOM      7  C7  DEN d   1       4.889   3.366   1.904  0.00  0.00     0.017 A 
ATOM      8  C8  DEN d   1       4.054   2.591   1.109  0.00  0.00    -0.094 A 
ATOM      9  C9  DEN d   1       4.228   2.534  -0.264  0.00  0.00    -0.072 A 
ENDROOT
TORSDOF 0
ENDMDL
