MODEL 1
REMARK minimizedAffinity -3.31499267
REMARK minimizedRMSD -1
REMARK  0 active torsions:
REMARK  status: ('A' for Active; 'I' for Inactive)
ROOT
ATOM      1  C   UNL d   1       0.415  -0.394  -0.444  0.00  0.00     0.172 C 
ATOM      2  N   UNL d   1      -0.558   0.443   0.219  0.00  0.00    -0.070 N 
ATOM      3  C1  UNL d   1      -0.885   0.387   1.547  0.00  0.00    -0.004 A 
ATOM      4  C2  UNL d   1      -1.848   1.344   1.785  0.00  0.00    -0.047 A 
ATOM      5  C3  UNL d   1      -2.109   1.997   0.557  0.00  0.00    -0.047 A 
ATOM      6  C4  UNL d   1      -1.296   1.419  -0.395  0.00  0.00    -0.004 A 
ENDROOT
TORSDOF 0
ENDMDL
