MODEL 1
REMARK minimizedAffinity -2.52850795
REMARK minimizedRMSD -1
REMARK  0 active torsions:
REMARK  status: ('A' for Active; 'I' for Inactive)
ROOT
ATOM      1  C   UNL d   1       0.274   0.584  -1.209  0.00  0.00     0.172 C 
ATOM      2  N   UNL d   1       0.494  -0.808  -1.523  0.00  0.00    -0.070 N 
ATOM      3  C1  UNL d   1       0.017  -1.463  -2.627  0.00  0.00    -0.004 A 
ATOM      4  C2  UNL d   1       0.445  -2.771  -2.559  0.00  0.00    -0.047 A 
ATOM      5  C3  UNL d   1       1.206  -2.907  -1.374  0.00  0.00    -0.047 A 
ATOM      6  C4  UNL d   1       1.220  -1.677  -0.752  0.00  0.00    -0.004 A 
ENDROOT
TORSDOF 0
ENDMDL
