MODEL 1
REMARK minimizedAffinity -4.07479286
REMARK minimizedRMSD -1
REMARK  0 active torsions:
REMARK  status: ('A' for Active; 'I' for Inactive)
ROOT
ATOM      1  C   UNL d   1       1.117  -0.352  -0.184  0.00  0.00     0.172 C 
ATOM      2  N   UNL d   1       0.083   0.304   0.581  0.00  0.00    -0.070 N 
ATOM      3  C1  UNL d   1      -0.445  -0.148   1.761  0.00  0.00    -0.004 A 
ATOM      4  C2  UNL d   1      -1.401   0.757   2.169  0.00  0.00    -0.047 A 
ATOM      5  C3  UNL d   1      -1.449   1.788   1.201  0.00  0.00    -0.047 A 
ATOM      6  C4  UNL d   1      -0.520   1.483   0.229  0.00  0.00    -0.004 A 
ENDROOT
TORSDOF 0
ENDMDL
