MODEL 1
REMARK minimizedAffinity -3.74083662
REMARK minimizedRMSD -1
REMARK  0 active torsions:
REMARK  status: ('A' for Active; 'I' for Inactive)
ROOT
ATOM      1  C   UNL d   1       0.322  -0.564  -0.800  0.00  0.00     0.172 C 
ATOM      2  N   UNL d   1      -0.468   0.231   0.111  0.00  0.00    -0.070 N 
ATOM      3  C1  UNL d   1      -0.791  -0.112   1.396  0.00  0.00    -0.004 A 
ATOM      4  C2  UNL d   1      -1.551   0.908   1.927  0.00  0.00    -0.047 A 
ATOM      5  C3  UNL d   1      -1.690   1.898   0.926  0.00  0.00    -0.047 A 
ATOM      6  C4  UNL d   1      -1.009   1.454  -0.188  0.00  0.00    -0.004 A 
ENDROOT
TORSDOF 0
ENDMDL
