MODEL 1
REMARK minimizedAffinity -1.33919942
REMARK minimizedRMSD -1
REMARK  0 active torsions:
REMARK  status: ('A' for Active; 'I' for Inactive)
ROOT
ATOM      1  C   UNL d   1      -0.120   2.258  -1.300  0.00  0.00     0.172 C 
ATOM      2  N   UNL d   1       0.034   0.952  -0.704  0.00  0.00    -0.070 N 
ATOM      3  C1  UNL d   1       0.852  -0.044  -1.165  0.00  0.00    -0.004 A 
ATOM      4  C2  UNL d   1       0.715  -1.127  -0.323  0.00  0.00    -0.047 A 
ATOM      5  C3  UNL d   1      -0.218  -0.769   0.678  0.00  0.00    -0.047 A 
ATOM      6  C4  UNL d   1      -0.624   0.523   0.418  0.00  0.00    -0.004 A 
ENDROOT
TORSDOF 0
ENDMDL
