MODEL 1
REMARK minimizedAffinity -4.00121021
REMARK minimizedRMSD -1
REMARK  0 active torsions:
REMARK  status: ('A' for Active; 'I' for Inactive)
ROOT
ATOM      1  C   UNL d   1       0.649  -0.544  -0.619  0.00  0.00     0.172 C 
ATOM      2  N   UNL d   1      -0.230   0.230   0.225  0.00  0.00    -0.070 N 
ATOM      3  C1  UNL d   1      -0.733   1.469  -0.071  0.00  0.00    -0.004 A 
ATOM      4  C2  UNL d   1      -1.526   1.865   0.984  0.00  0.00    -0.047 A 
ATOM      5  C3  UNL d   1      -1.499   0.829   1.947  0.00  0.00    -0.047 A 
ATOM      6  C4  UNL d   1      -0.689  -0.171   1.451  0.00  0.00    -0.004 A 
ENDROOT
TORSDOF 0
ENDMDL
