MODEL 1
REMARK minimizedAffinity -4.09957266
REMARK minimizedRMSD -1
REMARK  0 active torsions:
REMARK  status: ('A' for Active; 'I' for Inactive)
ROOT
ATOM      1  C   UNL d   1       0.755   0.373  -0.739  0.00  0.00     0.172 C 
ATOM      2  N   UNL d   1      -0.369   0.791   0.066  0.00  0.00    -0.070 N 
ATOM      3  C1  UNL d   1      -1.338   1.679  -0.317  0.00  0.00    -0.004 A 
ATOM      4  C2  UNL d   1      -2.228   1.809   0.727  0.00  0.00    -0.047 A 
ATOM      5  C3  UNL d   1      -1.777   0.970   1.775  0.00  0.00    -0.047 A 
ATOM      6  C4  UNL d   1      -0.624   0.352   1.338  0.00  0.00    -0.004 A 
ENDROOT
TORSDOF 0
ENDMDL
