MODEL 1
REMARK minimizedAffinity -2.70437503
REMARK minimizedRMSD -1
REMARK  0 active torsions:
REMARK  status: ('A' for Active; 'I' for Inactive)
ROOT
ATOM      1  C   UNL d   1      -2.163   1.839   0.887  0.00  0.00     0.172 C 
ATOM      2  N   UNL d   1      -0.883   1.447   0.345  0.00  0.00    -0.070 N 
ATOM      3  C1  UNL d   1      -0.211   2.090  -0.659  0.00  0.00    -0.004 A 
ATOM      4  C2  UNL d   1       0.965   1.407  -0.884  0.00  0.00    -0.047 A 
ATOM      5  C3  UNL d   1       1.000   0.315   0.015  0.00  0.00    -0.047 A 
ATOM      6  C4  UNL d   1      -0.157   0.364   0.764  0.00  0.00    -0.004 A 
ENDROOT
TORSDOF 0
ENDMDL
