MODEL 1
REMARK minimizedAffinity -3.00746632
REMARK minimizedRMSD -1
REMARK  0 active torsions:
REMARK  status: ('A' for Active; 'I' for Inactive)
ROOT
ATOM      1  C   UNL d   1       1.002   2.334  -1.406  0.00  0.00     0.172 C 
ATOM      2  N   UNL d   1       0.699   1.075  -0.768  0.00  0.00    -0.070 N 
ATOM      3  C1  UNL d   1      -0.233   0.884   0.217  0.00  0.00    -0.004 A 
ATOM      4  C2  UNL d   1      -0.220  -0.452   0.557  0.00  0.00    -0.047 A 
ATOM      5  C3  UNL d   1       0.755  -1.085  -0.251  0.00  0.00    -0.047 A 
ATOM      6  C4  UNL d   1       1.308  -0.116  -1.062  0.00  0.00    -0.004 A 
ENDROOT
TORSDOF 0
ENDMDL
