MODEL 1
REMARK minimizedAffinity -1.53195024
REMARK minimizedRMSD -1
REMARK  0 active torsions:
REMARK  status: ('A' for Active; 'I' for Inactive)
ROOT
ATOM      1  C   UNL d   1       0.290   0.009  -0.443  0.00  0.00     0.172 C 
ATOM      2  N   UNL d   1      -0.431   0.945   0.386  0.00  0.00    -0.070 N 
ATOM      3  C1  UNL d   1      -1.155   0.629   1.504  0.00  0.00    -0.004 A 
ATOM      4  C2  UNL d   1      -1.687   1.796   2.008  0.00  0.00    -0.047 A 
ATOM      5  C3  UNL d   1      -1.269   2.851   1.162  0.00  0.00    -0.047 A 
ATOM      6  C4  UNL d   1      -0.493   2.296   0.166  0.00  0.00    -0.004 A 
ENDROOT
TORSDOF 0
ENDMDL
