MODEL 1
REMARK minimizedAffinity -2.56244707
REMARK minimizedRMSD -1
REMARK  0 active torsions:
REMARK  status: ('A' for Active; 'I' for Inactive)
ROOT
ATOM      1  C   UNL d   1       0.336  -0.351   0.856  0.00  0.00     0.172 C 
ATOM      2  N   UNL d   1      -0.714   0.597   1.147  0.00  0.00    -0.070 N 
ATOM      3  C1  UNL d   1      -0.754   1.899   0.723  0.00  0.00    -0.004 A 
ATOM      4  C2  UNL d   1      -1.913   2.465   1.208  0.00  0.00    -0.047 A 
ATOM      5  C3  UNL d   1      -2.593   1.469   1.949  0.00  0.00    -0.047 A 
ATOM      6  C4  UNL d   1      -1.828   0.323   1.895  0.00  0.00    -0.004 A 
ENDROOT
TORSDOF 0
ENDMDL
