MODEL 1
REMARK minimizedAffinity -3.02227092
REMARK minimizedRMSD -1
REMARK  0 active torsions:
REMARK  status: ('A' for Active; 'I' for Inactive)
ROOT
ATOM      1  C   UNL d   1      -1.324   1.621   0.009  0.00  0.00     0.172 C 
ATOM      2  N   UNL d   1      -0.438   0.554   0.411  0.00  0.00    -0.070 N 
ATOM      3  C1  UNL d   1       0.163  -0.344  -0.430  0.00  0.00    -0.004 A 
ATOM      4  C2  UNL d   1       0.927  -1.196   0.338  0.00  0.00    -0.047 A 
ATOM      5  C3  UNL d   1       0.779  -0.797   1.688  0.00  0.00    -0.047 A 
ATOM      6  C4  UNL d   1      -0.072   0.289   1.704  0.00  0.00    -0.004 A 
ENDROOT
TORSDOF 0
ENDMDL
