MODEL 1
REMARK minimizedAffinity -3.94601893
REMARK minimizedRMSD -1
REMARK  0 active torsions:
REMARK  status: ('A' for Active; 'I' for Inactive)
ROOT
ATOM      1  C   UNL d   1       0.729  -0.850  -0.659  0.00  0.00     0.172 C 
ATOM      2  N   UNL d   1      -0.154  -0.068   0.174  0.00  0.00    -0.070 N 
ATOM      3  C1  UNL d   1      -1.002   0.915  -0.263  0.00  0.00    -0.004 A 
ATOM      4  C2  UNL d   1      -1.668   1.416   0.834  0.00  0.00    -0.047 A 
ATOM      5  C3  UNL d   1      -1.205   0.710   1.970  0.00  0.00    -0.047 A 
ATOM      6  C4  UNL d   1      -0.268  -0.202   1.532  0.00  0.00    -0.004 A 
ENDROOT
TORSDOF 0
ENDMDL
