MODEL 1
REMARK minimizedAffinity -2.53474879
REMARK minimizedRMSD -1
REMARK  0 active torsions:
REMARK  status: ('A' for Active; 'I' for Inactive)
ROOT
ATOM      1  C   UNL d   1      -2.045   1.572   1.145  0.00  0.00     0.172 C 
ATOM      2  N   UNL d   1      -1.034   0.698   0.598  0.00  0.00    -0.070 N 
ATOM      3  C1  UNL d   1      -0.504  -0.399   1.223  0.00  0.00    -0.004 A 
ATOM      4  C2  UNL d   1       0.425  -0.961   0.374  0.00  0.00    -0.047 A 
ATOM      5  C3  UNL d   1       0.456  -0.173  -0.801  0.00  0.00    -0.047 A 
ATOM      6  C4  UNL d   1      -0.457   0.847  -0.636  0.00  0.00    -0.004 A 
ENDROOT
TORSDOF 0
ENDMDL
