MODEL 1
REMARK minimizedAffinity -2.75319839
REMARK minimizedRMSD -1
REMARK  0 active torsions:
REMARK  status: ('A' for Active; 'I' for Inactive)
ROOT
ATOM      1  C   UNL d   1       0.464  -2.318  -2.614  0.00  0.00     0.172 C 
ATOM      2  N   UNL d   1       0.247  -1.596  -1.382  0.00  0.00    -0.070 N 
ATOM      3  C1  UNL d   1       1.217  -0.985  -0.634  0.00  0.00    -0.004 A 
ATOM      4  C2  UNL d   1       0.607  -0.409   0.460  0.00  0.00    -0.047 A 
ATOM      5  C3  UNL d   1      -0.778  -0.686   0.366  0.00  0.00    -0.047 A 
ATOM      6  C4  UNL d   1      -0.973  -1.422  -0.784  0.00  0.00    -0.004 A 
ENDROOT
TORSDOF 0
ENDMDL
