MODEL 1
REMARK minimizedAffinity -3.91014862
REMARK minimizedRMSD -1
REMARK  0 active torsions:
REMARK  status: ('A' for Active; 'I' for Inactive)
ROOT
ATOM      1  C   UNL d   1       1.367  -1.023   0.698  0.00  0.00     0.023 A 
ATOM      2  C1  UNL d   1       1.763  -0.010  -0.175  0.00  0.00     0.003 A 
ATOM      3  C2  UNL d   1       0.806   0.699  -0.904  0.00  0.00     0.048 A 
ATOM      4  C3  UNL d   1      -0.546   0.391  -0.754  0.00  0.00     0.023 A 
ATOM      5  C4  UNL d   1      -0.947  -0.622   0.119  0.00  0.00     0.048 A 
ATOM      6  C5  UNL d   1       0.014  -1.328   0.845  0.00  0.00     0.003 A 
ATOM      7  I   UNL d   1      -1.972   1.445  -1.838  0.00  0.00    -0.146 I 
ENDROOT
TORSDOF 0
ENDMDL
