MODEL 1
REMARK minimizedAffinity -3.14433408
REMARK minimizedRMSD -1
REMARK  0 active torsions:
REMARK  status: ('A' for Active; 'I' for Inactive)
ROOT
ATOM      1  C   UNL d   1       2.023  -1.291   0.946  0.00  0.00     0.023 A 
ATOM      2  C1  UNL d   1       2.282  -0.088   0.288  0.00  0.00     0.003 A 
ATOM      3  C2  UNL d   1       1.259   0.567  -0.400  0.00  0.00     0.048 A 
ATOM      4  C3  UNL d   1      -0.021   0.015  -0.425  0.00  0.00     0.023 A 
ATOM      5  C4  UNL d   1      -0.285  -1.188   0.232  0.00  0.00     0.048 A 
ATOM      6  C5  UNL d   1       0.741  -1.840   0.918  0.00  0.00     0.003 A 
ATOM      7  I   UNL d   1      -1.546   0.989  -1.449  0.00  0.00    -0.146 I 
ENDROOT
TORSDOF 0
ENDMDL
