MODEL 1
REMARK minimizedAffinity 3.2921555
REMARK minimizedRMSD -1
REMARK  0 active torsions:
REMARK  status: ('A' for Active; 'I' for Inactive)
ROOT
ATOM      1  C   UNL d   1       0.064  -0.017   0.662  0.00  0.00     0.023 A 
ATOM      2  C1  UNL d   1       0.885   0.550  -0.313  0.00  0.00     0.003 A 
ATOM      3  C2  UNL d   1       0.320   1.216  -1.402  0.00  0.00     0.048 A 
ATOM      4  C3  UNL d   1      -1.067   1.312  -1.510  0.00  0.00     0.023 A 
ATOM      5  C4  UNL d   1      -1.893   0.748  -0.537  0.00  0.00     0.048 A 
ATOM      6  C5  UNL d   1      -1.323   0.082   0.551  0.00  0.00     0.003 A 
ATOM      7  I   UNL d   1      -1.910   2.303  -3.131  0.00  0.00    -0.146 I 
ENDROOT
TORSDOF 0
ENDMDL
