MODEL 1
REMARK minimizedAffinity -2.51260352
REMARK minimizedRMSD -1
REMARK  0 active torsions:
REMARK  status: ('A' for Active; 'I' for Inactive)
ROOT
ATOM      1  C   UNL d   1       2.061  -2.018   0.841  0.00  0.00     0.023 A 
ATOM      2  C1  UNL d   1       2.501  -1.069  -0.081  0.00  0.00     0.003 A 
ATOM      3  C2  UNL d   1       1.595  -0.170  -0.648  0.00  0.00     0.048 A 
ATOM      4  C3  UNL d   1       0.249  -0.226  -0.287  0.00  0.00     0.023 A 
ATOM      5  C4  UNL d   1      -0.196  -1.173   0.636  0.00  0.00     0.048 A 
ATOM      6  C5  UNL d   1       0.714  -2.070   1.199  0.00  0.00     0.003 A 
ATOM      7  I   UNL d   1      -1.102   1.110  -1.128  0.00  0.00    -0.146 I 
ENDROOT
TORSDOF 0
ENDMDL
