MODEL 1
REMARK minimizedAffinity -2.55947208
REMARK minimizedRMSD -1
REMARK  0 active torsions:
REMARK  status: ('A' for Active; 'I' for Inactive)
ROOT
ATOM      1  C   UNL d   1      -2.189   2.235  -3.102  0.00  0.00     0.023 A 
ATOM      2  C1  UNL d   1      -2.280   0.858  -3.307  0.00  0.00     0.003 A 
ATOM      3  C2  UNL d   1      -1.682  -0.024  -2.405  0.00  0.00     0.048 A 
ATOM      4  C3  UNL d   1      -0.996   0.477  -1.299  0.00  0.00     0.023 A 
ATOM      5  C4  UNL d   1      -0.904   1.854  -1.089  0.00  0.00     0.048 A 
ATOM      6  C5  UNL d   1      -1.502   2.732  -1.995  0.00  0.00     0.003 A 
ATOM      7  I   UNL d   1      -0.106  -0.834   0.045  0.00  0.00    -0.146 I 
ENDROOT
TORSDOF 0
ENDMDL
