MODEL 1
REMARK minimizedAffinity -1.45655298
REMARK minimizedRMSD -1
REMARK  0 active torsions:
REMARK  status: ('A' for Active; 'I' for Inactive)
ROOT
ATOM      1  C   UNL d   1       1.343  -1.017   0.888  0.00  0.00     0.023 A 
ATOM      2  C1  UNL d   1       0.056  -1.537   0.758  0.00  0.00     0.003 A 
ATOM      3  C2  UNL d   1      -0.908  -0.842   0.024  0.00  0.00     0.048 A 
ATOM      4  C3  UNL d   1      -0.577   0.371  -0.579  0.00  0.00     0.023 A 
ATOM      5  C4  UNL d   1       0.710   0.895  -0.452  0.00  0.00     0.048 A 
ATOM      6  C5  UNL d   1       1.670   0.197   0.283  0.00  0.00     0.003 A 
ATOM      7  I   UNL d   1      -2.010   1.406  -1.672  0.00  0.00    -0.146 I 
ENDROOT
TORSDOF 0
ENDMDL
