MODEL 1
REMARK minimizedAffinity -1.78828597
REMARK minimizedRMSD -1
REMARK  0 active torsions:
REMARK  status: ('A' for Active; 'I' for Inactive)
ROOT
ATOM      1  C   UNL d   1       0.527  -2.723   1.515  0.00  0.00     0.023 A 
ATOM      2  C1  UNL d   1       1.491  -2.184   0.663  0.00  0.00     0.003 A 
ATOM      3  C2  UNL d   1       1.197  -1.051  -0.098  0.00  0.00     0.048 A 
ATOM      4  C3  UNL d   1      -0.063  -0.461  -0.002  0.00  0.00     0.023 A 
ATOM      5  C4  UNL d   1      -1.031  -0.996   0.850  0.00  0.00     0.048 A 
ATOM      6  C5  UNL d   1      -0.732  -2.130   1.609  0.00  0.00     0.003 A 
ATOM      7  I   UNL d   1      -0.504   1.226  -1.134  0.00  0.00    -0.146 I 
ENDROOT
TORSDOF 0
ENDMDL
