MODEL 1
REMARK minimizedAffinity -4.5713644
REMARK minimizedRMSD -1
REMARK  0 active torsions:
REMARK  status: ('A' for Active; 'I' for Inactive)
ROOT
ATOM      1  C   UNL d   1       1.454  -2.164   1.216  0.00  0.00     0.023 A 
ATOM      2  C1  UNL d   1       0.064  -2.157   1.334  0.00  0.00     0.003 A 
ATOM      3  C2  UNL d   1      -0.689  -1.186   0.671  0.00  0.00     0.048 A 
ATOM      4  C3  UNL d   1      -0.046  -0.226  -0.110  0.00  0.00     0.023 A 
ATOM      5  C4  UNL d   1       1.344  -0.230  -0.232  0.00  0.00     0.048 A 
ATOM      6  C5  UNL d   1       2.093  -1.202   0.434  0.00  0.00     0.003 A 
ATOM      7  I   UNL d   1      -1.165   1.220  -1.098  0.00  0.00    -0.146 I 
ENDROOT
TORSDOF 0
ENDMDL
