MODEL 1
REMARK minimizedAffinity -4.32749939
REMARK minimizedRMSD -1
REMARK  0 active torsions:
REMARK  status: ('A' for Active; 'I' for Inactive)
ROOT
ATOM      1  C   UNL d   1       1.822  -2.251   0.505  0.00  0.00     0.023 A 
ATOM      2  C1  UNL d   1       2.347  -0.978   0.283  0.00  0.00     0.003 A 
ATOM      3  C2  UNL d   1       1.504   0.069  -0.098  0.00  0.00     0.048 A 
ATOM      4  C3  UNL d   1       0.139  -0.165  -0.255  0.00  0.00     0.023 A 
ATOM      5  C4  UNL d   1      -0.391  -1.437  -0.033  0.00  0.00     0.048 A 
ATOM      6  C5  UNL d   1       0.455  -2.481   0.347  0.00  0.00     0.003 A 
ATOM      7  I   UNL d   1      -1.117   1.391  -0.822  0.00  0.00    -0.146 I 
ENDROOT
TORSDOF 0
ENDMDL
