MODEL 1
REMARK minimizedAffinity -3.72786546
REMARK minimizedRMSD -1
REMARK  0 active torsions:
REMARK  status: ('A' for Active; 'I' for Inactive)
ROOT
ATOM      1  C   UNL d   1       1.876  -2.569   1.181  0.00  0.00     0.023 A 
ATOM      2  C1  UNL d   1       0.489  -2.553   1.331  0.00  0.00     0.003 A 
ATOM      3  C2  UNL d   1      -0.254  -1.470   0.857  0.00  0.00     0.048 A 
ATOM      4  C3  UNL d   1       0.396  -0.406   0.232  0.00  0.00     0.023 A 
ATOM      5  C4  UNL d   1       1.784  -0.418   0.079  0.00  0.00     0.048 A 
ATOM      6  C5  UNL d   1       2.523  -1.502   0.556  0.00  0.00     0.003 A 
ATOM      7  I   UNL d   1      -0.707   1.207  -0.475  0.00  0.00    -0.146 I 
ENDROOT
TORSDOF 0
ENDMDL
