MODEL 1
REMARK minimizedAffinity -2.8471787
REMARK minimizedRMSD -1
REMARK  0 active torsions:
REMARK  status: ('A' for Active; 'I' for Inactive)
ROOT
ATOM      1  C   UNL d   1       1.927  -2.496   1.498  0.00  0.00     0.023 A 
ATOM      2  C1  UNL d   1       2.589  -1.341   1.083  0.00  0.00     0.003 A 
ATOM      3  C2  UNL d   1       1.886  -0.328   0.428  0.00  0.00     0.048 A 
ATOM      4  C3  UNL d   1       0.519  -0.476   0.192  0.00  0.00     0.023 A 
ATOM      5  C4  UNL d   1      -0.148  -1.630   0.606  0.00  0.00     0.048 A 
ATOM      6  C5  UNL d   1       0.560  -2.640   1.260  0.00  0.00     0.003 A 
ATOM      7  I   UNL d   1      -0.530   1.031  -0.782  0.00  0.00    -0.146 I 
ENDROOT
TORSDOF 0
ENDMDL
