MODEL 1
REMARK minimizedAffinity -3.54042554
REMARK minimizedRMSD -1
REMARK  0 active torsions:
REMARK  status: ('A' for Active; 'I' for Inactive)
ROOT
ATOM      1  C   UNL d   1       1.834  -2.576   1.496  0.00  0.00     0.023 A 
ATOM      2  C1  UNL d   1       2.490  -1.618   0.722  0.00  0.00     0.003 A 
ATOM      3  C2  UNL d   1       1.782  -0.528   0.211  0.00  0.00     0.048 A 
ATOM      4  C3  UNL d   1       0.420  -0.401   0.478  0.00  0.00     0.023 A 
ATOM      5  C4  UNL d   1      -0.240  -1.356   1.253  0.00  0.00     0.048 A 
ATOM      6  C5  UNL d   1       0.471  -2.445   1.761  0.00  0.00     0.003 A 
ATOM      7  I   UNL d   1      -0.635   1.221  -0.282  0.00  0.00    -0.146 I 
ENDROOT
TORSDOF 0
ENDMDL
