MODEL 1
REMARK minimizedAffinity -2.1507206
REMARK minimizedRMSD -1
REMARK  0 active torsions:
REMARK  status: ('A' for Active; 'I' for Inactive)
ROOT
ATOM      1  C   UNL d   1       0.677  -1.413   1.111  0.00  0.00     0.023 A 
ATOM      2  C1  UNL d   1       1.540  -0.974   0.105  0.00  0.00     0.003 A 
ATOM      3  C2  UNL d   1       1.124   0.012  -0.792  0.00  0.00     0.048 A 
ATOM      4  C3  UNL d   1      -0.155   0.556  -0.677  0.00  0.00     0.023 A 
ATOM      5  C4  UNL d   1      -1.021   0.121   0.327  0.00  0.00     0.048 A 
ATOM      6  C5  UNL d   1      -0.601  -0.866   1.221  0.00  0.00     0.003 A 
ATOM      7  I   UNL d   1      -0.776   2.024  -2.011  0.00  0.00    -0.146 I 
ENDROOT
TORSDOF 0
ENDMDL
