MODEL 1
REMARK minimizedAffinity -1.49939597
REMARK minimizedRMSD -1
REMARK  0 active torsions:
REMARK  status: ('A' for Active; 'I' for Inactive)
ROOT
ATOM      1  C   UNL d   1       1.486  -2.363   0.869  0.00  0.00     0.023 A 
ATOM      2  C1  UNL d   1       0.093  -2.422   0.820  0.00  0.00     0.003 A 
ATOM      3  C2  UNL d   1      -0.634  -1.346   0.305  0.00  0.00     0.048 A 
ATOM      4  C3  UNL d   1       0.038  -0.216  -0.159  0.00  0.00     0.023 A 
ATOM      5  C4  UNL d   1       1.431  -0.154  -0.112  0.00  0.00     0.048 A 
ATOM      6  C5  UNL d   1       2.154  -1.231   0.404  0.00  0.00     0.003 A 
ATOM      7  I   UNL d   1      -1.042   1.386  -0.925  0.00  0.00    -0.146 I 
ENDROOT
TORSDOF 0
ENDMDL
