MODEL 1
REMARK minimizedAffinity -4.9695282
REMARK minimizedRMSD -1
REMARK  0 active torsions:
REMARK  status: ('A' for Active; 'I' for Inactive)
ROOT
ATOM      1  C1  BNZ d   1      -0.599  -0.369  -2.024  0.00  0.00     0.000 A 
ATOM      2  C2  BNZ d   1      -1.865  -0.762  -1.680  0.00  0.00     0.000 A 
ATOM      3  C3  BNZ d   1      -2.136  -1.224  -0.422  0.00  0.00     0.000 A 
ATOM      4  C4  BNZ d   1      -1.135  -1.330   0.476  0.00  0.00     0.000 A 
ATOM      5  C5  BNZ d   1       0.148  -0.946   0.141  0.00  0.00     0.000 A 
ATOM      6  C6  BNZ d   1       0.410  -0.445  -1.114  0.00  0.00     0.000 A 
ENDROOT
TORSDOF 0
ENDMDL
