MODEL 1
REMARK minimizedAffinity -2.85487866
REMARK minimizedRMSD -1
REMARK  0 active torsions:
REMARK  status: ('A' for Active; 'I' for Inactive)
ROOT
ATOM      1  C1  BNZ d   1      -1.006  -0.951   1.127  0.00  0.00     0.000 A 
ATOM      2  C2  BNZ d   1       0.227  -0.368   1.004  0.00  0.00     0.000 A 
ATOM      3  C3  BNZ d   1       0.621   0.194  -0.178  0.00  0.00     0.000 A 
ATOM      4  C4  BNZ d   1      -0.201   0.137  -1.246  0.00  0.00     0.000 A 
ATOM      5  C5  BNZ d   1      -1.444  -0.455  -1.140  0.00  0.00     0.000 A 
ATOM      6  C6  BNZ d   1      -1.853  -0.985   0.062  0.00  0.00     0.000 A 
ENDROOT
TORSDOF 0
ENDMDL
