MODEL 1
REMARK minimizedAffinity -3.63328934
REMARK minimizedRMSD -1
REMARK  0 active torsions:
REMARK  status: ('A' for Active; 'I' for Inactive)
ROOT
ATOM      1  C1  BNZ d   1      -1.471  -1.168   0.309  0.00  0.00     0.000 A 
ATOM      2  C2  BNZ d   1      -0.805  -0.015  -0.011  0.00  0.00     0.000 A 
ATOM      3  C3  BNZ d   1      -1.162   0.718  -1.108  0.00  0.00     0.000 A 
ATOM      4  C4  BNZ d   1      -2.157   0.278  -1.905  0.00  0.00     0.000 A 
ATOM      5  C5  BNZ d   1      -2.832  -0.888  -1.601  0.00  0.00     0.000 A 
ATOM      6  C6  BNZ d   1      -2.495  -1.603  -0.475  0.00  0.00     0.000 A 
ENDROOT
TORSDOF 0
ENDMDL
