MODEL 1
REMARK minimizedAffinity -4.54960299
REMARK minimizedRMSD -1
REMARK  0 active torsions:
REMARK  status: ('A' for Active; 'I' for Inactive)
ROOT
ATOM      1  C1  BNZ d   1      -0.428  -0.392   0.115  0.00  0.00     0.000 A 
ATOM      2  C2  BNZ d   1      -0.152  -0.097  -1.194  0.00  0.00     0.000 A 
ATOM      3  C3  BNZ d   1      -0.985  -0.512  -2.195  0.00  0.00     0.000 A 
ATOM      4  C4  BNZ d   1      -2.069  -1.255  -1.891  0.00  0.00     0.000 A 
ATOM      5  C5  BNZ d   1      -2.355  -1.568  -0.578  0.00  0.00     0.000 A 
ATOM      6  C6  BNZ d   1      -1.536  -1.115   0.431  0.00  0.00     0.000 A 
ENDROOT
TORSDOF 0
ENDMDL
