MODEL 1
REMARK minimizedAffinity -4.81260586
REMARK minimizedRMSD -1
REMARK  0 active torsions:
REMARK  status: ('A' for Active; 'I' for Inactive)
ROOT
ATOM      1  C1  BNZ d   1      -0.315   0.667  -0.405  0.00  0.00     0.000 A 
ATOM      2  C2  BNZ d   1      -1.061   0.580   0.740  0.00  0.00     0.000 A 
ATOM      3  C3  BNZ d   1      -2.253  -0.090   0.750  0.00  0.00     0.000 A 
ATOM      4  C4  BNZ d   1      -2.715  -0.638  -0.393  0.00  0.00     0.000 A 
ATOM      5  C5  BNZ d   1      -1.978  -0.551  -1.557  0.00  0.00     0.000 A 
ATOM      6  C6  BNZ d   1      -0.761   0.091  -1.554  0.00  0.00     0.000 A 
ENDROOT
TORSDOF 0
ENDMDL
