MODEL 1
REMARK minimizedAffinity -3.76977968
REMARK minimizedRMSD -1
REMARK  0 active torsions:
REMARK  status: ('A' for Active; 'I' for Inactive)
ROOT
ATOM      1  C1  BNZ d   1      -1.513  -0.683  -1.614  0.00  0.00     0.000 A 
ATOM      2  C2  BNZ d   1      -1.001  -0.568  -0.349  0.00  0.00     0.000 A 
ATOM      3  C3  BNZ d   1      -1.322  -1.476   0.621  0.00  0.00     0.000 A 
ATOM      4  C4  BNZ d   1      -2.185  -2.473   0.337  0.00  0.00     0.000 A 
ATOM      5  C5  BNZ d   1      -2.717  -2.597  -0.931  0.00  0.00     0.000 A 
ATOM      6  C6  BNZ d   1      -2.361  -1.704  -1.916  0.00  0.00     0.000 A 
ENDROOT
TORSDOF 0
ENDMDL
