MODEL 1
REMARK minimizedAffinity -4.36739349
REMARK minimizedRMSD -1
REMARK  0 active torsions:
REMARK  status: ('A' for Active; 'I' for Inactive)
ROOT
ATOM      1  C1  BNZ d   1      -2.818  -0.281   0.128  0.00  0.00     0.000 A 
ATOM      2  C2  BNZ d   1      -3.319  -1.531   0.377  0.00  0.00     0.000 A 
ATOM      3  C3  BNZ d   1      -2.526  -2.510   0.907  0.00  0.00     0.000 A 
ATOM      4  C4  BNZ d   1      -1.225  -2.250   1.150  0.00  0.00     0.000 A 
ATOM      5  C5  BNZ d   1      -0.703  -0.997   0.896  0.00  0.00     0.000 A 
ATOM      6  C6  BNZ d   1      -1.514  -0.003   0.399  0.00  0.00     0.000 A 
ENDROOT
TORSDOF 0
ENDMDL
