MODEL 1
REMARK minimizedAffinity -4.36978483
REMARK minimizedRMSD -1
REMARK  0 active torsions:
REMARK  status: ('A' for Active; 'I' for Inactive)
ROOT
ATOM      1  C1  BNZ d   1       2.003   3.388   0.549  0.00  0.00     0.000 A 
ATOM      2  C2  BNZ d   1       0.784   3.094  -0.001  0.00  0.00     0.000 A 
ATOM      3  C3  BNZ d   1       0.261   1.835   0.089  0.00  0.00     0.000 A 
ATOM      4  C4  BNZ d   1       0.973   0.862   0.694  0.00  0.00     0.000 A 
ATOM      5  C5  BNZ d   1       2.208   1.141   1.245  0.00  0.00     0.000 A 
ATOM      6  C6  BNZ d   1       2.714   2.419   1.187  0.00  0.00     0.000 A 
ENDROOT
TORSDOF 0
ENDMDL
