MODEL 1
REMARK minimizedAffinity -4.07908678
REMARK minimizedRMSD -1
REMARK  0 active torsions:
REMARK  status: ('A' for Active; 'I' for Inactive)
ROOT
ATOM      1  C1  BNZ d   1      -1.260  -1.028   0.538  0.00  0.00     0.000 A 
ATOM      2  C2  BNZ d   1      -2.355  -1.797   0.248  0.00  0.00     0.000 A 
ATOM      3  C3  BNZ d   1      -3.038  -1.629  -0.923  0.00  0.00     0.000 A 
ATOM      4  C4  BNZ d   1      -2.650  -0.666  -1.784  0.00  0.00     0.000 A 
ATOM      5  C5  BNZ d   1      -1.554   0.124  -1.502  0.00  0.00     0.000 A 
ATOM      6  C6  BNZ d   1      -0.845  -0.075  -0.339  0.00  0.00     0.000 A 
ENDROOT
TORSDOF 0
ENDMDL
