MODEL 1
REMARK minimizedAffinity -4.4770813
REMARK minimizedRMSD -1
REMARK  0 active torsions:
REMARK  status: ('A' for Active; 'I' for Inactive)
ROOT
ATOM      1  C1  BNZ d   1      -2.066  -0.677  -1.377  0.00  0.00     0.000 A 
ATOM      2  C2  BNZ d   1      -0.793  -0.266  -1.086  0.00  0.00     0.000 A 
ATOM      3  C3  BNZ d   1      -0.462   0.143   0.176  0.00  0.00     0.000 A 
ATOM      4  C4  BNZ d   1      -1.411   0.178   1.133  0.00  0.00     0.000 A 
ATOM      5  C5  BNZ d   1      -2.702  -0.225   0.852  0.00  0.00     0.000 A 
ATOM      6  C6  BNZ d   1      -3.023  -0.673  -0.409  0.00  0.00     0.000 A 
ENDROOT
TORSDOF 0
ENDMDL
