MODEL 1
REMARK minimizedAffinity -3.25851011
REMARK minimizedRMSD -1
REMARK  0 active torsions:
REMARK  status: ('A' for Active; 'I' for Inactive)
ROOT
ATOM      1  C1  BNZ d   1      -1.175  -0.407   0.935  0.00  0.00     0.000 A 
ATOM      2  C2  BNZ d   1       0.018   0.055   0.447  0.00  0.00     0.000 A 
ATOM      3  C3  BNZ d   1       0.261   0.082  -0.898  0.00  0.00     0.000 A 
ATOM      4  C4  BNZ d   1      -0.673  -0.388  -1.750  0.00  0.00     0.000 A 
ATOM      5  C5  BNZ d   1      -1.878  -0.865  -1.272  0.00  0.00     0.000 A 
ATOM      6  C6  BNZ d   1      -2.134  -0.855   0.080  0.00  0.00     0.000 A 
ENDROOT
TORSDOF 0
ENDMDL
