MODEL 1
REMARK minimizedAffinity -4.12449694
REMARK minimizedRMSD -1
REMARK  0 active torsions:
REMARK  status: ('A' for Active; 'I' for Inactive)
ROOT
ATOM      1  C1  BNZ d   1       2.429   1.194   0.779  0.00  0.00     0.000 A 
ATOM      2  C2  BNZ d   1       2.631   1.352  -0.566  0.00  0.00     0.000 A 
ATOM      3  C3  BNZ d   1       3.423   2.360  -1.041  0.00  0.00     0.000 A 
ATOM      4  C4  BNZ d   1       3.977   3.232  -0.175  0.00  0.00     0.000 A 
ATOM      5  C5  BNZ d   1       3.775   3.092   1.184  0.00  0.00     0.000 A 
ATOM      6  C6  BNZ d   1       3.010   2.052   1.661  0.00  0.00     0.000 A 
ENDROOT
TORSDOF 0
ENDMDL
