MODEL 1
REMARK minimizedAffinity -5.21168184
REMARK minimizedRMSD -1
REMARK  0 active torsions:
REMARK  status: ('A' for Active; 'I' for Inactive)
ROOT
ATOM      1  C1  BNZ d   1      -1.764  -0.534  -1.688  0.00  0.00     0.000 A 
ATOM      2  C2  BNZ d   1      -2.794  -0.456  -0.789  0.00  0.00     0.000 A 
ATOM      3  C3  BNZ d   1      -2.553  -0.195   0.531  0.00  0.00     0.000 A 
ATOM      4  C4  BNZ d   1      -1.282  -0.053   0.958  0.00  0.00     0.000 A 
ATOM      5  C5  BNZ d   1      -0.232  -0.138   0.065  0.00  0.00     0.000 A 
ATOM      6  C6  BNZ d   1      -0.481  -0.362  -1.269  0.00  0.00     0.000 A 
ENDROOT
TORSDOF 0
ENDMDL
