MODEL 1
REMARK minimizedAffinity 1.56903481
REMARK minimizedRMSD -1
REMARK  0 active torsions:
REMARK  status: ('A' for Active; 'I' for Inactive)
ROOT
ATOM      1  C1  DEN d   1      -5.107  -0.720  -5.951  0.00  0.00     0.130 A 
ATOM      2  C2  DEN d   1      -3.751  -0.180  -5.894  0.00  0.00    -0.031 A 
ATOM      3  C3  DEN d   1      -2.808  -1.316  -5.886  0.00  0.00     0.027 A 
ATOM      4  C4  DEN d   1      -3.311  -3.845  -5.958  0.00  0.00     0.027 A 
ATOM      5  C5  DEN d   1      -4.313  -4.789  -6.000  0.00  0.00    -0.003 A 
ATOM      6  C6  DEN d   1      -5.640  -4.447  -5.994  0.00  0.00     0.001 A 
ATOM      7  C7  DEN d   1      -6.000  -3.125  -5.990  0.00  0.00     0.017 A 
ATOM      8  C8  DEN d   1      -4.995  -2.167  -5.941  0.00  0.00    -0.094 A 
ATOM      9  C9  DEN d   1      -3.660  -2.533  -5.960  0.00  0.00    -0.072 A 
ENDROOT
TORSDOF 0
ENDMDL
