MODEL 1
REMARK minimizedAffinity -2.41527534
REMARK minimizedRMSD -1
REMARK  0 active torsions:
REMARK  status: ('A' for Active; 'I' for Inactive)
ROOT
ATOM      1  C1  DEN d   1      -1.178   4.020  -5.968  0.00  0.00     0.130 A 
ATOM      2  C2  DEN d   1      -1.872   5.305  -5.990  0.00  0.00    -0.031 A 
ATOM      3  C3  DEN d   1      -3.325   5.040  -5.999  0.00  0.00     0.027 A 
ATOM      4  C4  DEN d   1      -4.560   2.776  -5.977  0.00  0.00     0.027 A 
ATOM      5  C5  DEN d   1      -4.397   1.408  -5.969  0.00  0.00    -0.003 A 
ATOM      6  C6  DEN d   1      -3.161   0.820  -5.995  0.00  0.00     0.001 A 
ATOM      7  C7  DEN d   1      -2.036   1.602  -5.984  0.00  0.00     0.017 A 
ATOM      8  C8  DEN d   1      -2.193   2.982  -5.999  0.00  0.00    -0.094 A 
ATOM      9  C9  DEN d   1      -3.451   3.558  -5.960  0.00  0.00    -0.072 A 
ENDROOT
TORSDOF 0
ENDMDL
