MODEL 1
REMARK minimizedAffinity -0.509970963
REMARK minimizedRMSD -1
REMARK  0 active torsions:
REMARK  status: ('A' for Active; 'I' for Inactive)
ROOT
ATOM      1  C1  DEN d   1      -2.196   3.728  -5.971  0.00  0.00     0.130 A 
ATOM      2  C2  DEN d   1      -3.312   4.670  -5.993  0.00  0.00    -0.031 A 
ATOM      3  C3  DEN d   1      -4.566   3.890  -6.000  0.00  0.00     0.027 A 
ATOM      4  C4  DEN d   1      -4.887   1.331  -5.974  0.00  0.00     0.027 A 
ATOM      5  C5  DEN d   1      -4.234   0.118  -5.966  0.00  0.00    -0.003 A 
ATOM      6  C6  DEN d   1      -2.868   0.024  -5.994  0.00  0.00     0.001 A 
ATOM      7  C7  DEN d   1      -2.108   1.164  -5.984  0.00  0.00     0.017 A 
ATOM      8  C8  DEN d   1      -2.759   2.391  -6.000  0.00  0.00    -0.094 A 
ATOM      9  C9  DEN d   1      -4.141   2.465  -5.960  0.00  0.00    -0.072 A 
ENDROOT
TORSDOF 0
ENDMDL
