MODEL 1
REMARK minimizedAffinity 2.40176606
REMARK minimizedRMSD -1
REMARK  0 active torsions:
REMARK  status: ('A' for Active; 'I' for Inactive)
ROOT
ATOM      1  C1  DEN d   1       1.320  -1.218  -0.626  0.00  0.00     0.130 A 
ATOM      2  C2  DEN d   1       1.629   0.142  -0.194  0.00  0.00    -0.031 A 
ATOM      3  C3  DEN d   1       1.377   1.051  -1.331  0.00  0.00     0.027 A 
ATOM      4  C4  DEN d   1       0.539   0.486  -3.704  0.00  0.00     0.027 A 
ATOM      5  C5  DEN d   1       0.153  -0.534  -4.545  0.00  0.00    -0.003 A 
ATOM      6  C6  DEN d   1       0.162  -1.846  -4.153  0.00  0.00     0.001 A 
ATOM      7  C7  DEN d   1       0.521  -2.169  -2.871  0.00  0.00     0.017 A 
ATOM      8  C8  DEN d   1       0.919  -1.147  -2.019  0.00  0.00    -0.094 A 
ATOM      9  C9  DEN d   1       0.892   0.175  -2.431  0.00  0.00    -0.072 A 
ENDROOT
TORSDOF 0
ENDMDL
