MODEL 1
REMARK minimizedAffinity 6.67057133
REMARK minimizedRMSD -1
REMARK  0 active torsions:
REMARK  status: ('A' for Active; 'I' for Inactive)
ROOT
ATOM      1  C1  DEN d   1       0.979   0.622  -3.460  0.00  0.00     0.130 A 
ATOM      2  C2  DEN d   1       0.461  -0.712  -3.749  0.00  0.00    -0.031 A 
ATOM      3  C3  DEN d   1       0.280  -1.419  -2.466  0.00  0.00     0.027 A 
ATOM      4  C4  DEN d   1       0.744  -0.581  -0.071  0.00  0.00     0.027 A 
ATOM      5  C5  DEN d   1       1.202   0.481   0.677  0.00  0.00    -0.003 A 
ATOM      6  C6  DEN d   1       1.646   1.643   0.102  0.00  0.00     0.001 A 
ATOM      7  C7  DEN d   1       1.599   1.787  -1.260  0.00  0.00     0.017 A 
ATOM      8  C8  DEN d   1       1.146   0.718  -2.021  0.00  0.00    -0.094 A 
ATOM      9  C9  DEN d   1       0.690  -0.443  -1.420  0.00  0.00    -0.072 A 
ENDROOT
TORSDOF 0
ENDMDL
