MODEL 1
REMARK minimizedAffinity 11.8139706
REMARK minimizedRMSD -1
REMARK  0 active torsions:
REMARK  status: ('A' for Active; 'I' for Inactive)
ROOT
ATOM      1  C1  DEN d   1      -3.131  -1.420  -4.506  0.00  0.00     0.130 A 
ATOM      2  C2  DEN d   1      -4.183  -2.080  -5.274  0.00  0.00    -0.031 A 
ATOM      3  C3  DEN d   1      -4.943  -1.039  -5.994  0.00  0.00     0.027 A 
ATOM      4  C4  DEN d   1      -4.593   1.516  -5.999  0.00  0.00     0.027 A 
ATOM      5  C5  DEN d   1      -3.833   2.546  -5.490  0.00  0.00    -0.003 A 
ATOM      6  C6  DEN d   1      -2.816   2.330  -4.598  0.00  0.00     0.001 A 
ATOM      7  C7  DEN d   1      -2.501   1.051  -4.222  0.00  0.00     0.017 A 
ATOM      8  C8  DEN d   1      -3.268   0.008  -4.726  0.00  0.00    -0.094 A 
ATOM      9  C9  DEN d   1      -4.284   0.245  -5.636  0.00  0.00    -0.072 A 
ENDROOT
TORSDOF 0
ENDMDL
