MODEL 1
REMARK minimizedAffinity 7.466084
REMARK minimizedRMSD -1
REMARK  0 active torsions:
REMARK  status: ('A' for Active; 'I' for Inactive)
ROOT
ATOM      1  C1  DEN d   1      -4.573  -5.555  -5.865  0.00  0.00     0.130 A 
ATOM      2  C2  DEN d   1      -3.178  -5.986  -5.883  0.00  0.00    -0.031 A 
ATOM      3  C3  DEN d   1      -2.328  -4.779  -5.921  0.00  0.00     0.027 A 
ATOM      4  C4  DEN d   1      -3.033  -2.298  -5.949  0.00  0.00     0.027 A 
ATOM      5  C5  DEN d   1      -4.107  -1.436  -5.956  0.00  0.00    -0.003 A 
ATOM      6  C6  DEN d   1      -5.402  -1.884  -5.967  0.00  0.00     0.001 A 
ATOM      7  C7  DEN d   1      -5.655  -3.230  -5.926  0.00  0.00     0.017 A 
ATOM      8  C8  DEN d   1      -4.577  -4.105  -5.926  0.00  0.00    -0.094 A 
ATOM      9  C9  DEN d   1      -3.276  -3.632  -5.903  0.00  0.00    -0.072 A 
ENDROOT
TORSDOF 0
ENDMDL
