MODEL 1
REMARK minimizedAffinity 0.653064549
REMARK minimizedRMSD -1
REMARK  0 active torsions:
REMARK  status: ('A' for Active; 'I' for Inactive)
ROOT
ATOM      1  C1  DEN d   1      -3.440  -1.370  -5.999  0.00  0.00     0.130 A 
ATOM      2  C2  DEN d   1      -4.609  -0.495  -5.999  0.00  0.00    -0.031 A 
ATOM      3  C3  DEN d   1      -5.816  -1.344  -5.965  0.00  0.00     0.027 A 
ATOM      4  C4  DEN d   1      -5.989  -3.917  -5.907  0.00  0.00     0.027 A 
ATOM      5  C5  DEN d   1      -5.268  -5.091  -5.905  0.00  0.00    -0.003 A 
ATOM      6  C6  DEN d   1      -3.900  -5.107  -5.968  0.00  0.00     0.001 A 
ATOM      7  C7  DEN d   1      -3.207  -3.926  -5.990  0.00  0.00     0.017 A 
ATOM      8  C8  DEN d   1      -3.927  -2.738  -6.000  0.00  0.00    -0.094 A 
ATOM      9  C9  DEN d   1      -5.310  -2.742  -5.923  0.00  0.00    -0.072 A 
ENDROOT
TORSDOF 0
ENDMDL
