MODEL 1
REMARK minimizedAffinity -2.38415551
REMARK minimizedRMSD -1
REMARK  0 active torsions:
REMARK  status: ('A' for Active; 'I' for Inactive)
ROOT
ATOM      1  C1  DEN d   1      -2.623   0.481  -5.976  0.00  0.00     0.130 A 
ATOM      2  C2  DEN d   1      -3.708  -0.496  -5.965  0.00  0.00    -0.031 A 
ATOM      3  C3  DEN d   1      -4.987   0.242  -5.966  0.00  0.00     0.027 A 
ATOM      4  C4  DEN d   1      -5.390   2.789  -5.989  0.00  0.00     0.027 A 
ATOM      5  C5  DEN d   1      -4.777   4.023  -5.990  0.00  0.00    -0.003 A 
ATOM      6  C6  DEN d   1      -3.414   4.161  -5.952  0.00  0.00     0.001 A 
ATOM      7  C7  DEN d   1      -2.619   3.046  -5.957  0.00  0.00     0.017 A 
ATOM      8  C8  DEN d   1      -3.229   1.799  -5.949  0.00  0.00    -0.094 A 
ATOM      9  C9  DEN d   1      -4.608   1.680  -6.000  0.00  0.00    -0.072 A 
ENDROOT
TORSDOF 0
ENDMDL
