MODEL 1
REMARK minimizedAffinity 4.93093586
REMARK minimizedRMSD -1
REMARK  0 active torsions:
REMARK  status: ('A' for Active; 'I' for Inactive)
ROOT
ATOM      1  C1  DEN d   1      -2.553   2.246  -5.917  0.00  0.00     0.130 A 
ATOM      2  C2  DEN d   1      -3.590   3.273  -5.946  0.00  0.00    -0.031 A 
ATOM      3  C3  DEN d   1      -4.902   2.597  -5.985  0.00  0.00     0.027 A 
ATOM      4  C4  DEN d   1      -5.426   0.072  -5.999  0.00  0.00     0.027 A 
ATOM      5  C5  DEN d   1      -4.872  -1.190  -5.996  0.00  0.00    -0.003 A 
ATOM      6  C6  DEN d   1      -3.518  -1.393  -6.000  0.00  0.00     0.001 A 
ATOM      7  C7  DEN d   1      -2.670  -0.317  -5.962  0.00  0.00     0.017 A 
ATOM      8  C8  DEN d   1      -3.221   0.958  -5.973  0.00  0.00    -0.094 A 
ATOM      9  C9  DEN d   1      -4.593   1.142  -5.957  0.00  0.00    -0.072 A 
ENDROOT
TORSDOF 0
ENDMDL
