MODEL 1
REMARK minimizedAffinity -2.33271217
REMARK minimizedRMSD -1
REMARK  0 active torsions:
REMARK  status: ('A' for Active; 'I' for Inactive)
ROOT
ATOM      1  C1  DEN d   1      -3.767   5.391  -5.940  0.00  0.00     0.130 A 
ATOM      2  C2  DEN d   1      -5.194   5.703  -5.970  0.00  0.00    -0.031 A 
ATOM      3  C3  DEN d   1      -5.939   4.428  -5.999  0.00  0.00     0.027 A 
ATOM      4  C4  DEN d   1      -5.027   2.015  -5.997  0.00  0.00     0.027 A 
ATOM      5  C5  DEN d   1      -3.883   1.247  -5.989  0.00  0.00    -0.003 A 
ATOM      6  C6  DEN d   1      -2.631   1.802  -5.999  0.00  0.00     0.001 A 
ATOM      7  C7  DEN d   1      -2.492   3.165  -5.971  0.00  0.00     0.017 A 
ATOM      8  C8  DEN d   1      -3.640   3.946  -5.986  0.00  0.00    -0.094 A 
ATOM      9  C9  DEN d   1      -4.898   3.366  -5.964  0.00  0.00    -0.072 A 
ENDROOT
TORSDOF 0
ENDMDL
