MODEL 1
REMARK minimizedAffinity 5.26618004
REMARK minimizedRMSD -1
REMARK  0 active torsions:
REMARK  status: ('A' for Active; 'I' for Inactive)
ROOT
ATOM      1  C1  DEN d   1      -5.441   3.044  -6.000  0.00  0.00     0.130 A 
ATOM      2  C2  DEN d   1      -5.126   4.470  -5.968  0.00  0.00    -0.031 A 
ATOM      3  C3  DEN d   1      -3.656   4.612  -5.953  0.00  0.00     0.027 A 
ATOM      4  C4  DEN d   1      -1.847   2.774  -5.981  0.00  0.00     0.027 A 
ATOM      5  C5  DEN d   1      -1.629   1.414  -5.997  0.00  0.00    -0.003 A 
ATOM      6  C6  DEN d   1      -2.657   0.509  -5.980  0.00  0.00     0.001 A 
ATOM      7  C7  DEN d   1      -3.952   0.954  -5.993  0.00  0.00     0.017 A 
ATOM      8  C8  DEN d   1      -4.181   2.323  -5.970  0.00  0.00    -0.094 A 
ATOM      9  C9  DEN d   1      -3.128   3.222  -5.999  0.00  0.00    -0.072 A 
ENDROOT
TORSDOF 0
ENDMDL
