MODEL 1
REMARK minimizedAffinity -1.80037689
REMARK minimizedRMSD -1
REMARK  0 active torsions:
REMARK  status: ('A' for Active; 'I' for Inactive)
ROOT
ATOM      1  C1  DEN d   1      -5.666  -0.268  -5.966  0.00  0.00     0.130 A 
ATOM      2  C2  DEN d   1      -4.901  -1.511  -5.989  0.00  0.00    -0.031 A 
ATOM      3  C3  DEN d   1      -3.466  -1.164  -6.000  0.00  0.00     0.027 A 
ATOM      4  C4  DEN d   1      -2.360   1.166  -5.979  0.00  0.00     0.027 A 
ATOM      5  C5  DEN d   1      -2.599   2.522  -5.972  0.00  0.00    -0.003 A 
ATOM      6  C6  DEN d   1      -3.867   3.040  -5.996  0.00  0.00     0.001 A 
ATOM      7  C7  DEN d   1      -4.946   2.195  -5.983  0.00  0.00     0.017 A 
ATOM      8  C8  DEN d   1      -4.712   0.826  -5.998  0.00  0.00    -0.094 A 
ATOM      9  C9  DEN d   1      -3.423   0.322  -5.961  0.00  0.00    -0.072 A 
ENDROOT
TORSDOF 0
ENDMDL
