MODEL 1
REMARK minimizedAffinity -1.56692231
REMARK minimizedRMSD -1
REMARK  0 active torsions:
REMARK  status: ('A' for Active; 'I' for Inactive)
ROOT
ATOM      1  C1  DEN d   1      -5.194   0.165  -5.946  0.00  0.00     0.130 A 
ATOM      2  C2  DEN d   1      -4.113  -0.816  -5.974  0.00  0.00    -0.031 A 
ATOM      3  C3  DEN d   1      -2.832  -0.082  -6.000  0.00  0.00     0.027 A 
ATOM      4  C4  DEN d   1      -2.419   2.464  -5.994  0.00  0.00     0.027 A 
ATOM      5  C5  DEN d   1      -3.028   3.699  -5.986  0.00  0.00    -0.003 A 
ATOM      6  C6  DEN d   1      -4.390   3.843  -5.998  0.00  0.00     0.001 A 
ATOM      7  C7  DEN d   1      -5.190   2.730  -5.974  0.00  0.00     0.017 A 
ATOM      8  C8  DEN d   1      -4.583   1.481  -5.989  0.00  0.00    -0.094 A 
ATOM      9  C9  DEN d   1      -3.205   1.357  -5.964  0.00  0.00    -0.072 A 
ENDROOT
TORSDOF 0
ENDMDL
