MODEL 1
REMARK minimizedAffinity 3.92612004
REMARK minimizedRMSD -1
REMARK  0 active torsions:
REMARK  status: ('A' for Active; 'I' for Inactive)
ROOT
ATOM      1  C1  DEN d   1      -3.633  -1.726  -5.996  0.00  0.00     0.130 A 
ATOM      2  C2  DEN d   1      -4.956  -2.344  -5.967  0.00  0.00    -0.031 A 
ATOM      3  C3  DEN d   1      -5.964  -1.264  -5.952  0.00  0.00     0.027 A 
ATOM      4  C4  DEN d   1      -5.606   1.290  -5.977  0.00  0.00     0.027 A 
ATOM      5  C5  DEN d   1      -4.659   2.290  -5.989  0.00  0.00    -0.003 A 
ATOM      6  C6  DEN d   1      -3.316   2.025  -5.971  0.00  0.00     0.001 A 
ATOM      7  C7  DEN d   1      -2.880   0.726  -5.984  0.00  0.00     0.017 A 
ATOM      8  C8  DEN d   1      -3.828  -0.288  -5.964  0.00  0.00    -0.094 A 
ATOM      9  C9  DEN d   1      -5.182   0.001  -5.995  0.00  0.00    -0.072 A 
ENDROOT
TORSDOF 0
ENDMDL
