MODEL 1
REMARK minimizedAffinity 2.29984641
REMARK minimizedRMSD -1
REMARK  0 active torsions:
REMARK  status: ('A' for Active; 'I' for Inactive)
ROOT
ATOM      1  C1  DEN d   1      -5.686   2.044  -5.985  0.00  0.00     0.130 A 
ATOM      2  C2  DEN d   1      -5.806   3.499  -5.966  0.00  0.00    -0.031 A 
ATOM      3  C3  DEN d   1      -4.444   4.069  -5.959  0.00  0.00     0.027 A 
ATOM      4  C4  DEN d   1      -2.173   2.847  -5.981  0.00  0.00     0.027 A 
ATOM      5  C5  DEN d   1      -1.563   1.612  -5.986  0.00  0.00    -0.003 A 
ATOM      6  C6  DEN d   1      -2.278   0.444  -5.957  0.00  0.00     0.001 A 
ATOM      7  C7  DEN d   1      -3.647   0.486  -5.967  0.00  0.00     0.017 A 
ATOM      8  C8  DEN d   1      -4.269   1.728  -5.954  0.00  0.00    -0.094 A 
ATOM      9  C9  DEN d   1      -3.529   2.897  -5.996  0.00  0.00    -0.072 A 
ENDROOT
TORSDOF 0
ENDMDL
