MODEL 1
REMARK minimizedAffinity 6.01737118
REMARK minimizedRMSD -1
REMARK  0 active torsions:
REMARK  status: ('A' for Active; 'I' for Inactive)
ROOT
ATOM      1  C4' PXY d   1      -1.532   3.700   0.207  0.00  0.00     0.077 C 
ATOM      2  C1' PXY d   1       3.000   0.373   1.551  0.00  0.00     0.077 C 
ATOM      3  C1  PXY d   1       1.814   1.244   1.186  0.00  0.00    -0.082 A 
ATOM      4  C2  PXY d   1       1.331   2.097   2.074  0.00  0.00     0.003 A 
ATOM      5  C3  PXY d   1       0.240   2.870   1.772  0.00  0.00     0.003 A 
ATOM      6  C4  PXY d   1      -0.330   2.807   0.529  0.00  0.00    -0.082 A 
ATOM      7  C5  PXY d   1       0.163   1.947  -0.387  0.00  0.00     0.003 A 
ATOM      8  C6  PXY d   1       1.246   1.142  -0.046  0.00  0.00     0.003 A 
ENDROOT
TORSDOF 0
ENDMDL
