MODEL 1
REMARK minimizedAffinity 3.01725245
REMARK minimizedRMSD -1
REMARK  0 active torsions:
REMARK  status: ('A' for Active; 'I' for Inactive)
ROOT
ATOM      1  C4' PXY d   1      -2.133   0.023  -1.665  0.00  0.00     0.077 C 
ATOM      2  C1' PXY d   1       2.342   1.449   1.705  0.00  0.00     0.077 C 
ATOM      3  C1  PXY d   1       1.162   1.086   0.826  0.00  0.00    -0.082 A 
ATOM      4  C2  PXY d   1       0.983  -0.172   0.458  0.00  0.00     0.003 A 
ATOM      5  C3  PXY d   1      -0.061  -0.513  -0.363  0.00  0.00     0.003 A 
ATOM      6  C4  PXY d   1      -0.961   0.435  -0.769  0.00  0.00    -0.082 A 
ATOM      7  C5  PXY d   1      -0.791   1.719  -0.390  0.00  0.00     0.003 A 
ATOM      8  C6  PXY d   1       0.298   2.052   0.410  0.00  0.00     0.003 A 
ENDROOT
TORSDOF 0
ENDMDL
