MODEL 1
REMARK minimizedAffinity 3.49069738
REMARK minimizedRMSD -1
REMARK  0 active torsions:
REMARK  status: ('A' for Active; 'I' for Inactive)
ROOT
ATOM      1  C4' PXY d   1      -3.780   0.707  -2.173  0.00  0.00     0.077 C 
ATOM      2  C1' PXY d   1      -5.364   5.325  -5.267  0.00  0.00     0.077 C 
ATOM      3  C1  PXY d   1      -4.954   4.119  -4.445  0.00  0.00    -0.082 A 
ATOM      4  C2  PXY d   1      -3.906   3.401  -4.814  0.00  0.00     0.003 A 
ATOM      5  C3  PXY d   1      -3.541   2.289  -4.101  0.00  0.00     0.003 A 
ATOM      6  C4  PXY d   1      -4.224   1.938  -2.967  0.00  0.00    -0.082 A 
ATOM      7  C5  PXY d   1      -5.288   2.671  -2.578  0.00  0.00     0.003 A 
ATOM      8  C6  PXY d   1      -5.668   3.773  -3.339  0.00  0.00     0.003 A 
ENDROOT
TORSDOF 0
ENDMDL
