MODEL 1
REMARK minimizedAffinity 0.619847894
REMARK minimizedRMSD -1
REMARK  0 active torsions:
REMARK  status: ('A' for Active; 'I' for Inactive)
ROOT
ATOM      1  C4' PXY d   1      -0.555   1.982   0.027  0.00  0.00     0.077 C 
ATOM      2  C1' PXY d   1      -6.000   0.057   0.267  0.00  0.00     0.077 C 
ATOM      3  C1  PXY d   1      -4.575   0.571   0.212  0.00  0.00    -0.082 A 
ATOM      4  C2  PXY d   1      -3.819   0.294  -0.838  0.00  0.00     0.003 A 
ATOM      5  C3  PXY d   1      -2.518   0.724  -0.889  0.00  0.00     0.003 A 
ATOM      6  C4  PXY d   1      -2.002   1.491   0.121  0.00  0.00    -0.082 A 
ATOM      7  C5  PXY d   1      -2.771   1.788   1.190  0.00  0.00     0.003 A 
ATOM      8  C6  PXY d   1      -4.076   1.307   1.242  0.00  0.00     0.003 A 
ENDROOT
TORSDOF 0
ENDMDL
