MODEL 1
REMARK minimizedAffinity 6.3856225
REMARK minimizedRMSD -1
REMARK  0 active torsions:
REMARK  status: ('A' for Active; 'I' for Inactive)
ROOT
ATOM      1  C4' PXY d   1      -1.310  -3.356  -1.449  0.00  0.00     0.077 C 
ATOM      2  C1' PXY d   1       3.609  -1.017   0.487  0.00  0.00     0.077 C 
ATOM      3  C1  PXY d   1       2.314  -1.619  -0.024  0.00  0.00    -0.082 A 
ATOM      4  C2  PXY d   1       1.910  -2.790   0.439  0.00  0.00     0.003 A 
ATOM      5  C3  PXY d   1       0.758  -3.363  -0.036  0.00  0.00     0.003 A 
ATOM      6  C4  PXY d   1      -0.015  -2.706  -0.955  0.00  0.00    -0.082 A 
ATOM      7  C5  PXY d   1       0.386  -1.506  -1.425  0.00  0.00     0.003 A 
ATOM      8  C6  PXY d   1       1.579  -0.960  -0.961  0.00  0.00     0.003 A 
ENDROOT
TORSDOF 0
ENDMDL
