MODEL 1
REMARK minimizedAffinity 1.5051403
REMARK minimizedRMSD -1
REMARK  0 active torsions:
REMARK  status: ('A' for Active; 'I' for Inactive)
ROOT
ATOM      1  C4' PXY d   1      -0.440   1.510   0.471  0.00  0.00     0.077 C 
ATOM      2  C1' PXY d   1      -5.981  -0.020  -0.135  0.00  0.00     0.077 C 
ATOM      3  C1  PXY d   1      -4.531   0.389   0.034  0.00  0.00    -0.082 A 
ATOM      4  C2  PXY d   1      -3.705   0.308  -0.996  0.00  0.00     0.003 A 
ATOM      5  C3  PXY d   1      -2.383   0.643  -0.853  0.00  0.00     0.003 A 
ATOM      6  C4  PXY d   1      -1.914   1.117   0.344  0.00  0.00    -0.082 A 
ATOM      7  C5  PXY d   1      -2.754   1.212   1.396  0.00  0.00     0.003 A 
ATOM      8  C6  PXY d   1      -4.082   0.828   1.241  0.00  0.00     0.003 A 
ENDROOT
TORSDOF 0
ENDMDL
