MODEL 1
REMARK minimizedAffinity 8.38099575
REMARK minimizedRMSD -1
REMARK  0 active torsions:
REMARK  status: ('A' for Active; 'I' for Inactive)
ROOT
ATOM      1  C4' PXY d   1       2.067   2.559  -0.440  0.00  0.00     0.077 C 
ATOM      2  C1' PXY d   1       3.337  -2.541   1.968  0.00  0.00     0.077 C 
ATOM      3  C1  PXY d   1       3.010  -1.207   1.326  0.00  0.00    -0.082 A 
ATOM      4  C2  PXY d   1       2.836  -0.139   2.087  0.00  0.00     0.003 A 
ATOM      5  C3  PXY d   1       2.508   1.068   1.525  0.00  0.00     0.003 A 
ATOM      6  C4  PXY d   1       2.409   1.194   0.165  0.00  0.00    -0.082 A 
ATOM      7  C5  PXY d   1       2.594   0.111  -0.619  0.00  0.00     0.003 A 
ATOM      8  C6  PXY d   1       2.886  -1.113  -0.026  0.00  0.00     0.003 A 
ENDROOT
TORSDOF 0
ENDMDL
