MODEL 1
REMARK minimizedAffinity 3.72742987
REMARK minimizedRMSD -1
REMARK  0 active torsions:
REMARK  status: ('A' for Active; 'I' for Inactive)
ROOT
ATOM      1  C4' PXY d   1       4.673  -1.129   1.579  0.00  0.00     0.077 C 
ATOM      2  C1' PXY d   1       0.253   1.451  -1.108  0.00  0.00     0.077 C 
ATOM      3  C1  PXY d   1       1.407   0.763  -0.407  0.00  0.00    -0.082 A 
ATOM      4  C2  PXY d   1       2.078   1.407   0.535  0.00  0.00     0.003 A 
ATOM      5  C3  PXY d   1       3.144   0.811   1.158  0.00  0.00     0.003 A 
ATOM      6  C4  PXY d   1       3.495  -0.477   0.850  0.00  0.00    -0.082 A 
ATOM      7  C5  PXY d   1       2.809  -1.144  -0.102  0.00  0.00     0.003 A 
ATOM      8  C6  PXY d   1       1.756  -0.506  -0.751  0.00  0.00     0.003 A 
ENDROOT
TORSDOF 0
ENDMDL
