MODEL 1
REMARK minimizedAffinity 6.85003996
REMARK minimizedRMSD -1
REMARK  0 active torsions:
REMARK  status: ('A' for Active; 'I' for Inactive)
ROOT
ATOM      1  C4' PXY d   1      -3.578   4.018  -3.784  0.00  0.00     0.077 C 
ATOM      2  C1' PXY d   1      -5.654  -1.196  -5.169  0.00  0.00     0.077 C 
ATOM      3  C1  PXY d   1      -5.117   0.172  -4.795  0.00  0.00    -0.082 A 
ATOM      4  C2  PXY d   1      -4.604   0.952  -5.733  0.00  0.00     0.003 A 
ATOM      5  C3  PXY d   1      -4.085   2.178  -5.407  0.00  0.00     0.003 A 
ATOM      6  C4  PXY d   1      -4.140   2.633  -4.117  0.00  0.00    -0.082 A 
ATOM      7  C5  PXY d   1      -4.671   1.848  -3.156  0.00  0.00     0.003 A 
ATOM      8  C6  PXY d   1      -5.156   0.589  -3.501  0.00  0.00     0.003 A 
ENDROOT
TORSDOF 0
ENDMDL
