MODEL 1
REMARK minimizedAffinity 1.80165768
REMARK minimizedRMSD -1
REMARK  0 active torsions:
REMARK  status: ('A' for Active; 'I' for Inactive)
ROOT
ATOM      1  C4' PXY d   1      -5.509   0.527   0.416  0.00  0.00     0.077 C 
ATOM      2  C1' PXY d   1      -4.665   0.610  -5.302  0.00  0.00     0.077 C 
ATOM      3  C1  PXY d   1      -4.885   0.575  -3.802  0.00  0.00    -0.082 A 
ATOM      4  C2  PXY d   1      -5.553   1.555  -3.216  0.00  0.00     0.003 A 
ATOM      5  C3  PXY d   1      -5.734   1.556  -1.857  0.00  0.00     0.003 A 
ATOM      6  C4  PXY d   1      -5.271   0.516  -1.096  0.00  0.00    -0.082 A 
ATOM      7  C5  PXY d   1      -4.597  -0.493  -1.688  0.00  0.00     0.003 A 
ATOM      8  C6  PXY d   1      -4.389  -0.454  -3.064  0.00  0.00     0.003 A 
ENDROOT
TORSDOF 0
ENDMDL
