MODEL 1
REMARK minimizedAffinity 4.0139513
REMARK minimizedRMSD -1
REMARK  0 active torsions:
REMARK  status: ('A' for Active; 'I' for Inactive)
ROOT
ATOM      1  C4' PXY d   1      -4.026   3.601  -3.790  0.00  0.00     0.077 C 
ATOM      2  C1' PXY d   1      -5.999  -1.607  -5.340  0.00  0.00     0.077 C 
ATOM      3  C1  PXY d   1      -5.493  -0.239  -4.927  0.00  0.00    -0.082 A 
ATOM      4  C2  PXY d   1      -4.552   0.354  -5.644  0.00  0.00     0.003 A 
ATOM      5  C3  PXY d   1      -4.060   1.577  -5.266  0.00  0.00     0.003 A 
ATOM      6  C4  PXY d   1      -4.574   2.224  -4.175  0.00  0.00    -0.082 A 
ATOM      7  C5  PXY d   1      -5.542   1.630  -3.445  0.00  0.00     0.003 A 
ATOM      8  C6  PXY d   1      -5.999   0.370  -3.821  0.00  0.00     0.003 A 
ENDROOT
TORSDOF 0
ENDMDL
