MODEL 1
REMARK minimizedAffinity 2.77119589
REMARK minimizedRMSD -1
REMARK  0 active torsions:
REMARK  status: ('A' for Active; 'I' for Inactive)
ROOT
ATOM      1  C4' PXY d   1       2.830  -0.734   0.323  0.00  0.00     0.077 C 
ATOM      2  C1' PXY d   1      -1.234  -4.418  -1.499  0.00  0.00     0.077 C 
ATOM      3  C1  PXY d   1      -0.167  -3.448  -1.034  0.00  0.00    -0.082 A 
ATOM      4  C2  PXY d   1       0.468  -3.671   0.106  0.00  0.00     0.003 A 
ATOM      5  C3  PXY d   1       1.413  -2.787   0.558  0.00  0.00     0.003 A 
ATOM      6  C4  PXY d   1       1.751  -1.692  -0.191  0.00  0.00    -0.082 A 
ATOM      7  C5  PXY d   1       1.116  -1.463  -1.360  0.00  0.00     0.003 A 
ATOM      8  C6  PXY d   1       0.130  -2.350  -1.781  0.00  0.00     0.003 A 
ENDROOT
TORSDOF 0
ENDMDL
