MODEL 1
REMARK minimizedAffinity 16.7918053
REMARK minimizedRMSD -1
REMARK  0 active torsions:
REMARK  status: ('A' for Active; 'I' for Inactive)
ROOT
ATOM      1  C4' PXY d   1      -2.873   2.464   2.740  0.00  0.00     0.077 C 
ATOM      2  C1' PXY d   1       2.450   2.280   0.493  0.00  0.00     0.077 C 
ATOM      3  C1  PXY d   1       1.056   2.316   1.087  0.00  0.00    -0.082 A 
ATOM      4  C2  PXY d   1       0.144   3.123   0.568  0.00  0.00     0.003 A 
ATOM      5  C3  PXY d   1      -1.112   3.192   1.113  0.00  0.00     0.003 A 
ATOM      6  C4  PXY d   1      -1.455   2.387   2.166  0.00  0.00    -0.082 A 
ATOM      7  C5  PXY d   1      -0.535   1.553   2.694  0.00  0.00     0.003 A 
ATOM      8  C6  PXY d   1       0.747   1.529   2.153  0.00  0.00     0.003 A 
ENDROOT
TORSDOF 0
ENDMDL
