MODEL 1
REMARK minimizedAffinity 11.1207666
REMARK minimizedRMSD -1
REMARK  0 active torsions:
REMARK  status: ('A' for Active; 'I' for Inactive)
ROOT
ATOM      1  C   UNL d   1      -0.424   1.434   1.956  0.00  0.00    -0.002 A 
ATOM      2  C1  UNL d   1      -0.914   2.649   2.411  0.00  0.00     0.010 A 
ATOM      3  C2  UNL d   1      -1.024   3.740   1.545  0.00  0.00     0.041 A 
ATOM      4  C3  UNL d   1      -0.631   3.585   0.201  0.00  0.00    -0.075 A 
ATOM      5  S   UNL d   1      -0.678   4.781  -1.040  0.00  0.00     0.015 SA
ATOM      6  C4  UNL d   1      -0.050   3.706  -2.203  0.00  0.00     0.022 A 
ATOM      7  C5  UNL d   1       0.196   2.461  -1.675  0.00  0.00     0.026 A 
ATOM      8  C6  UNL d   1      -0.135   2.370  -0.281  0.00  0.00    -0.082 A 
ATOM      9  C7  UNL d   1      -0.035   1.284   0.622  0.00  0.00     0.045 A 
ENDROOT
TORSDOF 0
ENDMDL
