MODEL 1
REMARK minimizedAffinity 4.98210526
REMARK minimizedRMSD -1
REMARK  0 active torsions:
REMARK  status: ('A' for Active; 'I' for Inactive)
ROOT
ATOM      1  C   UNL d   1      -2.190   2.081  -3.521  0.00  0.00    -0.002 A 
ATOM      2  C1  UNL d   1      -2.724   1.148  -2.644  0.00  0.00     0.010 A 
ATOM      3  C2  UNL d   1      -2.291   1.090  -1.318  0.00  0.00     0.041 A 
ATOM      4  C3  UNL d   1      -1.303   1.996  -0.884  0.00  0.00    -0.075 A 
ATOM      5  S   UNL d   1      -0.620   2.111   0.695  0.00  0.00     0.015 SA
ATOM      6  C4  UNL d   1       0.396   3.402   0.242  0.00  0.00     0.022 A 
ATOM      7  C5  UNL d   1       0.232   3.749  -1.078  0.00  0.00     0.026 A 
ATOM      8  C6  UNL d   1      -0.751   2.945  -1.748  0.00  0.00    -0.082 A 
ATOM      9  C7  UNL d   1      -1.210   2.978  -3.087  0.00  0.00     0.045 A 
ENDROOT
TORSDOF 0
ENDMDL
