MODEL 1
REMARK minimizedAffinity -0.647647321
REMARK minimizedRMSD -1
REMARK  0 active torsions:
REMARK  status: ('A' for Active; 'I' for Inactive)
ROOT
ATOM      1  C   UNL d   1       0.543   4.038  -0.969  0.00  0.00    -0.002 A 
ATOM      2  C1  UNL d   1       0.174   3.307   0.151  0.00  0.00     0.010 A 
ATOM      3  C2  UNL d   1      -0.868   2.380   0.084  0.00  0.00     0.041 A 
ATOM      4  C3  UNL d   1      -1.538   2.196  -1.142  0.00  0.00    -0.075 A 
ATOM      5  S   UNL d   1      -2.842   1.115  -1.461  0.00  0.00     0.015 SA
ATOM      6  C4  UNL d   1      -2.940   1.597  -3.093  0.00  0.00     0.022 A 
ATOM      7  C5  UNL d   1      -2.008   2.558  -3.404  0.00  0.00     0.026 A 
ATOM      8  C6  UNL d   1      -1.184   2.919  -2.285  0.00  0.00    -0.082 A 
ATOM      9  C7  UNL d   1      -0.124   3.852  -2.183  0.00  0.00     0.045 A 
ENDROOT
TORSDOF 0
ENDMDL
