MODEL 1
REMARK minimizedAffinity 17.5451336
REMARK minimizedRMSD -1
REMARK  0 active torsions:
REMARK  status: ('A' for Active; 'I' for Inactive)
ROOT
ATOM      1  C   UNL d   1      -3.613   4.856   1.145  0.00  0.00    -0.002 A 
ATOM      2  C1  UNL d   1      -2.828   6.000   1.128  0.00  0.00     0.010 A 
ATOM      3  C2  UNL d   1      -1.478   5.929   0.779  0.00  0.00     0.041 A 
ATOM      4  C3  UNL d   1      -0.925   4.678   0.442  0.00  0.00    -0.075 A 
ATOM      5  S   UNL d   1       0.704   4.351  -0.018  0.00  0.00     0.015 SA
ATOM      6  C4  UNL d   1       0.396   2.685  -0.204  0.00  0.00     0.022 A 
ATOM      7  C5  UNL d   1      -0.913   2.369   0.075  0.00  0.00     0.026 A 
ATOM      8  C6  UNL d   1      -1.696   3.512   0.451  0.00  0.00    -0.082 A 
ATOM      9  C7  UNL d   1      -3.061   3.616   0.810  0.00  0.00     0.045 A 
ENDROOT
TORSDOF 0
ENDMDL
