MODEL 1
REMARK minimizedAffinity 6.95036364
REMARK minimizedRMSD -1
REMARK  0 active torsions:
REMARK  status: ('A' for Active; 'I' for Inactive)
ROOT
ATOM      1  C   UNL d   1       0.449   3.762  -0.004  0.00  0.00    -0.002 A 
ATOM      2  C1  UNL d   1      -0.086   2.623   0.581  0.00  0.00     0.010 A 
ATOM      3  C2  UNL d   1      -1.399   2.617   1.054  0.00  0.00     0.041 A 
ATOM      4  C3  UNL d   1      -2.175   3.787   0.927  0.00  0.00    -0.075 A 
ATOM      5  S   UNL d   1      -3.807   4.012   1.434  0.00  0.00     0.015 SA
ATOM      6  C4  UNL d   1      -3.833   5.626   0.886  0.00  0.00     0.022 A 
ATOM      7  C5  UNL d   1      -2.634   6.000   0.327  0.00  0.00     0.026 A 
ATOM      8  C6  UNL d   1      -1.659   4.946   0.341  0.00  0.00    -0.082 A 
ATOM      9  C7  UNL d   1      -0.323   4.920  -0.128  0.00  0.00     0.045 A 
ENDROOT
TORSDOF 0
ENDMDL
