MODEL 1
REMARK minimizedAffinity 8.21053696
REMARK minimizedRMSD -1
REMARK  0 active torsions:
REMARK  status: ('A' for Active; 'I' for Inactive)
ROOT
ATOM      1  C   UNL d   1      -2.112   2.210   1.619  0.00  0.00    -0.002 A 
ATOM      2  C1  UNL d   1      -0.765   2.321   1.304  0.00  0.00     0.010 A 
ATOM      3  C2  UNL d   1       0.136   1.321   1.674  0.00  0.00     0.041 A 
ATOM      4  C3  UNL d   1      -0.345   0.195   2.371  0.00  0.00    -0.075 A 
ATOM      5  S   UNL d   1       0.574  -1.155   2.924  0.00  0.00     0.015 SA
ATOM      6  C4  UNL d   1      -0.800  -1.912   3.591  0.00  0.00     0.022 A 
ATOM      7  C5  UNL d   1      -1.940  -1.166   3.405  0.00  0.00     0.026 A 
ATOM      8  C6  UNL d   1      -1.697   0.060   2.698  0.00  0.00    -0.082 A 
ATOM      9  C7  UNL d   1      -2.585   1.092   2.311  0.00  0.00     0.045 A 
ENDROOT
TORSDOF 0
ENDMDL
