MODEL 1
REMARK minimizedAffinity 6.45340681
REMARK minimizedRMSD -1
REMARK  0 active torsions:
REMARK  status: ('A' for Active; 'I' for Inactive)
ROOT
ATOM      1  C   UNL d   1      -1.998  -2.309   4.664  0.00  0.00    -0.002 A 
ATOM      2  C1  UNL d   1      -0.617  -2.203   4.574  0.00  0.00     0.010 A 
ATOM      3  C2  UNL d   1      -0.031  -1.177   3.830  0.00  0.00     0.041 A 
ATOM      4  C3  UNL d   1      -0.864  -0.249   3.174  0.00  0.00    -0.075 A 
ATOM      5  S   UNL d   1      -0.369   1.090   2.207  0.00  0.00     0.015 SA
ATOM      6  C4  UNL d   1      -1.979   1.553   1.892  0.00  0.00     0.022 A 
ATOM      7  C5  UNL d   1      -2.884   0.717   2.502  0.00  0.00     0.026 A 
ATOM      8  C6  UNL d   1      -2.257  -0.335   3.251  0.00  0.00    -0.082 A 
ATOM      9  C7  UNL d   1      -2.820  -1.387   4.012  0.00  0.00     0.045 A 
ENDROOT
TORSDOF 0
ENDMDL
