MODEL 1
REMARK minimizedAffinity 7.04747677
REMARK minimizedRMSD -1
REMARK  0 active torsions:
REMARK  status: ('A' for Active; 'I' for Inactive)
ROOT
ATOM      1  C   UNL d   1      -1.427  -3.600   3.883  0.00  0.00    -0.002 A 
ATOM      2  C1  UNL d   1      -0.368  -3.650   2.987  0.00  0.00     0.010 A 
ATOM      3  C2  UNL d   1       0.072  -2.492   2.343  0.00  0.00     0.041 A 
ATOM      4  C3  UNL d   1      -0.574  -1.271   2.619  0.00  0.00    -0.075 A 
ATOM      5  S   UNL d   1      -0.206   0.274   1.949  0.00  0.00     0.015 SA
ATOM      6  C4  UNL d   1      -1.444   1.037   2.837  0.00  0.00     0.022 A 
ATOM      7  C5  UNL d   1      -2.132   0.150   3.630  0.00  0.00     0.026 A 
ATOM      8  C6  UNL d   1      -1.642  -1.195   3.518  0.00  0.00    -0.082 A 
ATOM      9  C7  UNL d   1      -2.065  -2.387   4.154  0.00  0.00     0.045 A 
ENDROOT
TORSDOF 0
ENDMDL
