MODEL 1
REMARK minimizedAffinity 0.976854801
REMARK minimizedRMSD -1
REMARK  0 active torsions:
REMARK  status: ('A' for Active; 'I' for Inactive)
ROOT
ATOM      1  C   UNL d   1      -0.977   1.433   3.612  0.00  0.00    -0.002 A 
ATOM      2  C1  UNL d   1      -1.376   0.437   2.732  0.00  0.00     0.010 A 
ATOM      3  C2  UNL d   1      -1.227   0.604   1.354  0.00  0.00     0.041 A 
ATOM      4  C3  UNL d   1      -0.663   1.801   0.871  0.00  0.00    -0.075 A 
ATOM      5  S   UNL d   1      -0.382   2.227  -0.776  0.00  0.00     0.015 SA
ATOM      6  C4  UNL d   1       0.274   3.741  -0.351  0.00  0.00     0.022 A 
ATOM      7  C5  UNL d   1       0.287   3.934   1.010  0.00  0.00     0.026 A 
ATOM      8  C6  UNL d   1      -0.253   2.819   1.737  0.00  0.00    -0.082 A 
ATOM      9  C7  UNL d   1      -0.418   2.619   3.129  0.00  0.00     0.045 A 
ENDROOT
TORSDOF 0
ENDMDL
