MODEL 1
REMARK minimizedAffinity -3.48244596
REMARK minimizedRMSD -1
REMARK  0 active torsions:
REMARK  status: ('A' for Active; 'I' for Inactive)
ROOT
ATOM      1  C   UNL d   1      -0.504   1.549   3.573  0.00  0.00    -0.002 A 
ATOM      2  C1  UNL d   1      -1.342   1.030   2.597  0.00  0.00     0.010 A 
ATOM      3  C2  UNL d   1      -1.384   1.598   1.322  0.00  0.00     0.041 A 
ATOM      4  C3  UNL d   1      -0.561   2.706   1.042  0.00  0.00    -0.075 A 
ATOM      5  S   UNL d   1      -0.444   3.564  -0.449  0.00  0.00     0.015 SA
ATOM      6  C4  UNL d   1       0.722   4.639   0.175  0.00  0.00     0.022 A 
ATOM      7  C5  UNL d   1       1.026   4.365   1.487  0.00  0.00     0.026 A 
ATOM      8  C6  UNL d   1       0.293   3.246   2.008  0.00  0.00    -0.082 A 
ATOM      9  C7  UNL d   1       0.312   2.648   3.291  0.00  0.00     0.045 A 
ENDROOT
TORSDOF 0
ENDMDL
