MODEL 1
REMARK minimizedAffinity 13.1468458
REMARK minimizedRMSD -1
REMARK  0 active torsions:
REMARK  status: ('A' for Active; 'I' for Inactive)
ROOT
ATOM      1  C4' PXY d   1      -5.945   5.176   3.540  0.00  0.00     0.077 C 
ATOM      2  C1' PXY d   1      -6.000   3.085  -1.849  0.00  0.00     0.077 C 
ATOM      3  C1  PXY d   1      -5.980   3.645  -0.440  0.00  0.00    -0.082 A 
ATOM      4  C2  PXY d   1      -5.955   2.817   0.592  0.00  0.00     0.003 A 
ATOM      5  C3  PXY d   1      -5.970   3.305   1.873  0.00  0.00     0.003 A 
ATOM      6  C4  PXY d   1      -5.956   4.656   2.100  0.00  0.00    -0.082 A 
ATOM      7  C5  PXY d   1      -5.970   5.507   1.052  0.00  0.00     0.003 A 
ATOM      8  C6  PXY d   1      -5.997   4.990  -0.240  0.00  0.00     0.003 A 
ENDROOT
TORSDOF 0
ENDMDL
