MODEL 1
REMARK minimizedAffinity 7.16022539
REMARK minimizedRMSD -1
REMARK  0 active torsions:
REMARK  status: ('A' for Active; 'I' for Inactive)
ROOT
ATOM      1  C4' PXY d   1       1.065  -1.817   5.836  0.00  0.00     0.077 C 
ATOM      2  C1' PXY d   1       1.901  -0.734   0.220  0.00  0.00     0.077 C 
ATOM      3  C1  PXY d   1       1.682  -1.005   1.695  0.00  0.00    -0.082 A 
ATOM      4  C2  PXY d   1       2.001  -2.187   2.197  0.00  0.00     0.003 A 
ATOM      5  C3  PXY d   1       1.780  -2.460   3.523  0.00  0.00     0.003 A 
ATOM      6  C4  PXY d   1       1.277  -1.496   4.354  0.00  0.00    -0.082 A 
ATOM      7  C5  PXY d   1       0.959  -0.284   3.852  0.00  0.00     0.003 A 
ATOM      8  C6  PXY d   1       1.153  -0.040   2.495  0.00  0.00     0.003 A 
ENDROOT
TORSDOF 0
ENDMDL
