MODEL 1
REMARK minimizedAffinity 13.3113489
REMARK minimizedRMSD -1
REMARK  0 active torsions:
REMARK  status: ('A' for Active; 'I' for Inactive)
ROOT
ATOM      1  C4' PXY d   1      -4.822  -0.516  -4.176  0.00  0.00     0.077 C 
ATOM      2  C1' PXY d   1      -5.198  -5.997  -5.973  0.00  0.00     0.077 C 
ATOM      3  C1  PXY d   1      -5.105  -4.556  -5.512  0.00  0.00    -0.082 A 
ATOM      4  C2  PXY d   1      -4.161  -4.202  -4.656  0.00  0.00     0.003 A 
ATOM      5  C3  PXY d   1      -4.082  -2.909  -4.205  0.00  0.00     0.003 A 
ATOM      6  C4  PXY d   1      -4.947  -1.958  -4.676  0.00  0.00    -0.082 A 
ATOM      7  C5  PXY d   1      -5.907  -2.309  -5.557  0.00  0.00     0.003 A 
ATOM      8  C6  PXY d   1      -5.995  -3.635  -5.971  0.00  0.00     0.003 A 
ENDROOT
TORSDOF 0
ENDMDL
