MODEL 1
REMARK minimizedAffinity 11.56814
REMARK minimizedRMSD -1
REMARK  0 active torsions:
REMARK  status: ('A' for Active; 'I' for Inactive)
ROOT
ATOM      1  C4' PXY d   1       0.710  -1.854   3.769  0.00  0.00     0.077 C 
ATOM      2  C1' PXY d   1       4.313   0.054  -0.330  0.00  0.00     0.077 C 
ATOM      3  C1  PXY d   1       3.365  -0.434   0.748  0.00  0.00    -0.082 A 
ATOM      4  C2  PXY d   1       3.573  -1.609   1.320  0.00  0.00     0.003 A 
ATOM      5  C3  PXY d   1       2.708  -2.079   2.273  0.00  0.00     0.003 A 
ATOM      6  C4  PXY d   1       1.647  -1.317   2.683  0.00  0.00    -0.082 A 
ATOM      7  C5  PXY d   1       1.433  -0.113   2.112  0.00  0.00     0.003 A 
ATOM      8  C6  PXY d   1       2.300   0.329   1.117  0.00  0.00     0.003 A 
ENDROOT
TORSDOF 0
ENDMDL
