MODEL 1
REMARK minimizedAffinity 7.99553013
REMARK minimizedRMSD -1
REMARK  0 active torsions:
REMARK  status: ('A' for Active; 'I' for Inactive)
ROOT
ATOM      1  C4' PXY d   1       5.499  -2.769   1.781  0.00  0.00     0.077 C 
ATOM      2  C1' PXY d   1       0.195  -0.503   1.405  0.00  0.00     0.077 C 
ATOM      3  C1  PXY d   1       1.589  -1.091   1.493  0.00  0.00    -0.082 A 
ATOM      4  C2  PXY d   1       1.785  -2.213   2.166  0.00  0.00     0.003 A 
ATOM      5  C3  PXY d   1       3.044  -2.742   2.282  0.00  0.00     0.003 A 
ATOM      6  C4  PXY d   1       4.107  -2.144   1.658  0.00  0.00    -0.082 A 
ATOM      7  C5  PXY d   1       3.914  -1.005   0.961  0.00  0.00     0.003 A 
ATOM      8  C6  PXY d   1       2.634  -0.462   0.889  0.00  0.00     0.003 A 
ENDROOT
TORSDOF 0
ENDMDL
