MODEL 1
REMARK minimizedAffinity 5.48352242
REMARK minimizedRMSD -1
REMARK  0 active torsions:
REMARK  status: ('A' for Active; 'I' for Inactive)
ROOT
ATOM      1  C4' PXY d   1       3.008  -0.199   0.546  0.00  0.00     0.077 C 
ATOM      2  C1' PXY d   1      -0.051  -2.990   4.579  0.00  0.00     0.077 C 
ATOM      3  C1  PXY d   1       0.760  -2.268   3.521  0.00  0.00    -0.082 A 
ATOM      4  C2  PXY d   1       0.679  -0.951   3.421  0.00  0.00     0.003 A 
ATOM      5  C3  PXY d   1       1.381  -0.285   2.449  0.00  0.00     0.003 A 
ATOM      6  C4  PXY d   1       2.215  -0.969   1.606  0.00  0.00    -0.082 A 
ATOM      7  C5  PXY d   1       2.311  -2.311   1.709  0.00  0.00     0.003 A 
ATOM      8  C6  PXY d   1       1.559  -2.973   2.675  0.00  0.00     0.003 A 
ENDROOT
TORSDOF 0
ENDMDL
