MODEL 1
REMARK minimizedAffinity -2.53383422
REMARK minimizedRMSD -1
REMARK  0 active torsions:
REMARK  status: ('A' for Active; 'I' for Inactive)
ROOT
ATOM      1  C4' PXY d   1       4.157   4.856  -0.524  0.00  0.00     0.077 C 
ATOM      2  C1' PXY d   1       5.977   4.507  -6.000  0.00  0.00     0.077 C 
ATOM      3  C1  PXY d   1       5.510   4.605  -4.561  0.00  0.00    -0.082 A 
ATOM      4  C2  PXY d   1       4.622   3.739  -4.101  0.00  0.00     0.003 A 
ATOM      5  C3  PXY d   1       4.165   3.833  -2.811  0.00  0.00     0.003 A 
ATOM      6  C4  PXY d   1       4.663   4.789  -1.968  0.00  0.00    -0.082 A 
ATOM      7  C5  PXY d   1       5.578   5.669  -2.426  0.00  0.00     0.003 A 
ATOM      8  C6  PXY d   1       5.998   5.583  -3.750  0.00  0.00     0.003 A 
ENDROOT
TORSDOF 0
ENDMDL
