MODEL 1
REMARK minimizedAffinity 2.9156611
REMARK minimizedRMSD -1
REMARK  0 active torsions:
REMARK  status: ('A' for Active; 'I' for Inactive)
ROOT
ATOM      1  C4' PXY d   1       3.753   0.380   0.017  0.00  0.00     0.077 C 
ATOM      2  C1' PXY d   1       0.843  -1.778   4.521  0.00  0.00     0.077 C 
ATOM      3  C1  PXY d   1       1.598  -1.202   3.339  0.00  0.00    -0.082 A 
ATOM      4  C2  PXY d   1       2.308  -2.004   2.563  0.00  0.00     0.003 A 
ATOM      5  C3  PXY d   1       3.022  -1.495   1.509  0.00  0.00     0.003 A 
ATOM      6  C4  PXY d   1       2.967  -0.159   1.215  0.00  0.00    -0.082 A 
ATOM      7  C5  PXY d   1       2.236   0.665   1.997  0.00  0.00     0.003 A 
ATOM      8  C6  PXY d   1       1.551   0.134   3.086  0.00  0.00     0.003 A 
ENDROOT
TORSDOF 0
ENDMDL
