MODEL 1
REMARK minimizedAffinity 1.69791353
REMARK minimizedRMSD -1
REMARK  1 active torsions:
REMARK  status: ('A' for Active; 'I' for Inactive)
REMARK    1  A    between atoms: C3_4  and  O_7 
ROOT
ATOM      1  C   UNL d   1       5.065   5.997  -0.816  0.00  0.00    -0.033 A 
ATOM      2  C1  UNL d   1       6.000   4.967  -0.940  0.00  0.00     0.039 A 
ATOM      3  C2  UNL d   1       5.991   3.902  -0.037  0.00  0.00    -0.080 A 
ATOM      4  C3  UNL d   1       5.043   3.878   0.982  0.00  0.00     0.150 A 
ATOM      5  C4  UNL d   1       4.107   4.898   1.109  0.00  0.00    -0.007 A 
ATOM      6  C5  UNL d   1       4.118   5.962   0.208  0.00  0.00     0.039 A 
ENDROOT
BRANCH   4   7
ATOM      7  O   UNL d   1       4.999   2.861   1.890  0.00  0.00    -0.526 OA
ATOM      8  H5  UNL d   1       5.723   2.243   1.696  0.00  0.00     0.418 HD
ENDBRANCH   4   7
TORSDOF 1
ENDMDL
