MODEL 1
REMARK minimizedAffinity 6.88162184
REMARK minimizedRMSD -1
REMARK  1 active torsions:
REMARK  status: ('A' for Active; 'I' for Inactive)
REMARK    1  A    between atoms: C3_4  and  O_7 
ROOT
ATOM      1  C   UNL d   1       4.922  -5.999  -0.143  0.00  0.00    -0.033 A 
ATOM      2  C1  UNL d   1       5.998  -5.129   0.038  0.00  0.00     0.039 A 
ATOM      3  C2  UNL d   1       5.911  -3.806  -0.400  0.00  0.00    -0.080 A 
ATOM      4  C3  UNL d   1       4.742  -3.367  -1.017  0.00  0.00     0.150 A 
ATOM      5  C4  UNL d   1       3.664  -4.228  -1.197  0.00  0.00    -0.007 A 
ATOM      6  C5  UNL d   1       3.754  -5.548  -0.759  0.00  0.00     0.039 A 
ENDROOT
BRANCH   4   7
ATOM      7  O   UNL d   1       4.611  -2.086  -1.465  0.00  0.00    -0.526 OA
ATOM      8  H5  UNL d   1       5.445  -1.615  -1.299  0.00  0.00     0.418 HD
ENDBRANCH   4   7
TORSDOF 1
ENDMDL
