MODEL 1
REMARK minimizedAffinity 13.1629515
REMARK minimizedRMSD -1
REMARK  1 active torsions:
REMARK  status: ('A' for Active; 'I' for Inactive)
REMARK    1  A    between atoms: C3_4  and  O_7 
ROOT
ATOM      1  C   UNL d   1      -2.535  -1.434   1.470  0.00  0.00    -0.033 A 
ATOM      2  C1  UNL d   1      -3.702  -0.715   1.737  0.00  0.00     0.039 A 
ATOM      3  C2  UNL d   1      -3.697   0.291   2.704  0.00  0.00    -0.080 A 
ATOM      4  C3  UNL d   1      -2.522   0.569   3.396  0.00  0.00     0.150 A 
ATOM      5  C4  UNL d   1      -1.355  -0.141   3.132  0.00  0.00    -0.007 A 
ATOM      6  C5  UNL d   1      -1.361  -1.146   2.166  0.00  0.00     0.039 A 
ENDROOT
BRANCH   4   7
ATOM      7  O   UNL d   1      -2.470   1.539   4.353  0.00  0.00    -0.526 OA
ATOM      8  H5  UNL d   1      -3.357   1.926   4.447  0.00  0.00     0.418 HD
ENDBRANCH   4   7
TORSDOF 1
ENDMDL
