MODEL 1
REMARK minimizedAffinity 15.0935936
REMARK minimizedRMSD -1
REMARK  1 active torsions:
REMARK  status: ('A' for Active; 'I' for Inactive)
REMARK    1  A    between atoms: C3_4  and  O_7 
ROOT
ATOM      1  C   UNL d   1      -1.396  -4.917  -4.037  0.00  0.00    -0.033 A 
ATOM      2  C1  UNL d   1      -0.567  -4.541  -2.979  0.00  0.00     0.039 A 
ATOM      3  C2  UNL d   1       0.783  -4.897  -2.987  0.00  0.00    -0.080 A 
ATOM      4  C3  UNL d   1       1.291  -5.626  -4.059  0.00  0.00     0.150 A 
ATOM      5  C4  UNL d   1       0.472  -6.000  -5.118  0.00  0.00    -0.007 A 
ATOM      6  C5  UNL d   1      -0.876  -5.645  -5.108  0.00  0.00     0.039 A 
ENDROOT
BRANCH   4   7
ATOM      7  O   UNL d   1       2.601  -6.000  -4.109  0.00  0.00    -0.526 OA
ATOM      8  H5  UNL d   1       3.039  -5.697  -3.296  0.00  0.00     0.418 HD
ENDBRANCH   4   7
TORSDOF 1
ENDMDL
