MODEL 1
REMARK minimizedAffinity 7.0314784
REMARK minimizedRMSD -1
REMARK  1 active torsions:
REMARK  status: ('A' for Active; 'I' for Inactive)
REMARK    1  A    between atoms: C3_4  and  O_7 
ROOT
ATOM      1  C   UNL d   1      -4.274  -1.053   1.353  0.00  0.00    -0.033 A 
ATOM      2  C1  UNL d   1      -2.924  -1.324   1.579  0.00  0.00     0.039 A 
ATOM      3  C2  UNL d   1      -2.202  -0.563   2.502  0.00  0.00    -0.080 A 
ATOM      4  C3  UNL d   1      -2.842   0.463   3.191  0.00  0.00     0.150 A 
ATOM      5  C4  UNL d   1      -4.189   0.736   2.974  0.00  0.00    -0.007 A 
ATOM      6  C5  UNL d   1      -4.907  -0.024   2.052  0.00  0.00     0.039 A 
ENDROOT
BRANCH   4   7
ATOM      7  O   UNL d   1      -2.178   1.235   4.097  0.00  0.00    -0.526 OA
ATOM      8  H5  UNL d   1      -1.249   0.950   4.122  0.00  0.00     0.418 HD
ENDBRANCH   4   7
TORSDOF 1
ENDMDL
