MODEL 1
REMARK minimizedAffinity 10.3336287
REMARK minimizedRMSD -1
REMARK  1 active torsions:
REMARK  status: ('A' for Active; 'I' for Inactive)
REMARK    1  A    between atoms: C3_4  and  O_7 
ROOT
ATOM      1  C   UNL d   1       4.824  -5.998   0.101  0.00  0.00    -0.033 A 
ATOM      2  C1  UNL d   1       3.629  -5.436  -0.353  0.00  0.00     0.039 A 
ATOM      3  C2  UNL d   1       3.607  -4.121  -0.821  0.00  0.00    -0.080 A 
ATOM      4  C3  UNL d   1       4.786  -3.380  -0.831  0.00  0.00     0.150 A 
ATOM      5  C4  UNL d   1       5.980  -3.934  -0.384  0.00  0.00    -0.007 A 
ATOM      6  C5  UNL d   1       6.000  -5.248   0.084  0.00  0.00     0.039 A 
ENDROOT
BRANCH   4   7
ATOM      7  O   UNL d   1       4.813  -2.091  -1.274  0.00  0.00    -0.526 OA
ATOM      8  H5  UNL d   1       3.910  -1.832  -1.525  0.00  0.00     0.418 HD
ENDBRANCH   4   7
TORSDOF 1
ENDMDL
