MODEL 1
REMARK minimizedAffinity 7.42666483
REMARK minimizedRMSD -1
REMARK  1 active torsions:
REMARK  status: ('A' for Active; 'I' for Inactive)
REMARK    1  A    between atoms: C3_4  and  O_7 
ROOT
ATOM      1  C   UNL d   1       0.206  -1.972   2.932  0.00  0.00    -0.033 A 
ATOM      2  C1  UNL d   1       0.395  -1.248   4.111  0.00  0.00     0.039 A 
ATOM      3  C2  UNL d   1      -0.306  -0.059   4.322  0.00  0.00    -0.080 A 
ATOM      4  C3  UNL d   1      -1.191   0.394   3.348  0.00  0.00     0.150 A 
ATOM      5  C4  UNL d   1      -1.387  -0.324   2.173  0.00  0.00    -0.007 A 
ATOM      6  C5  UNL d   1      -0.686  -1.511   1.964  0.00  0.00     0.039 A 
ENDROOT
BRANCH   4   7
ATOM      7  O   UNL d   1      -1.894   1.552   3.506  0.00  0.00    -0.526 OA
ATOM      8  H5  UNL d   1      -1.636   1.955   4.352  0.00  0.00     0.418 HD
ENDBRANCH   4   7
TORSDOF 1
ENDMDL
