MODEL 1
REMARK minimizedAffinity 6.6707468
REMARK minimizedRMSD -1
REMARK  1 active torsions:
REMARK  status: ('A' for Active; 'I' for Inactive)
REMARK    1  A    between atoms: C3_4  and  O_7 
ROOT
ATOM      1  C   UNL d   1      -2.454  -1.328   1.505  0.00  0.00    -0.033 A 
ATOM      2  C1  UNL d   1      -1.268  -0.980   2.154  0.00  0.00     0.039 A 
ATOM      3  C2  UNL d   1      -1.284  -0.036   3.183  0.00  0.00    -0.080 A 
ATOM      4  C3  UNL d   1      -2.491   0.551   3.552  0.00  0.00     0.150 A 
ATOM      5  C4  UNL d   1      -3.677   0.207   2.912  0.00  0.00    -0.007 A 
ATOM      6  C5  UNL d   1      -3.659  -0.735   1.884  0.00  0.00     0.039 A 
ENDROOT
BRANCH   4   7
ATOM      7  O   UNL d   1      -2.556   1.482   4.547  0.00  0.00    -0.526 OA
ATOM      8  H5  UNL d   1      -1.657   1.641   4.878  0.00  0.00     0.418 HD
ENDBRANCH   4   7
TORSDOF 1
ENDMDL
