MODEL 1
REMARK minimizedAffinity 3.26717758
REMARK minimizedRMSD -1
REMARK  1 active torsions:
REMARK  status: ('A' for Active; 'I' for Inactive)
REMARK    1  A    between atoms: C3_4  and  O_7 
ROOT
ATOM      1  C   UNL d   1      -3.213  -0.969   1.491  0.00  0.00    -0.033 A 
ATOM      2  C1  UNL d   1      -4.298  -0.189   1.895  0.00  0.00     0.039 A 
ATOM      3  C2  UNL d   1      -4.135   0.770   2.897  0.00  0.00    -0.080 A 
ATOM      4  C3  UNL d   1      -2.884   0.940   3.484  0.00  0.00     0.150 A 
ATOM      5  C4  UNL d   1      -1.799   0.168   3.083  0.00  0.00    -0.007 A 
ATOM      6  C5  UNL d   1      -1.963  -0.789   2.084  0.00  0.00     0.039 A 
ENDROOT
BRANCH   4   7
ATOM      7  O   UNL d   1      -2.678   1.860   4.469  0.00  0.00    -0.526 OA
ATOM      8  H5  UNL d   1      -3.524   2.298   4.663  0.00  0.00     0.418 HD
ENDBRANCH   4   7
TORSDOF 1
ENDMDL
