MODEL 1
REMARK minimizedAffinity 12.2913456
REMARK minimizedRMSD -1
REMARK  1 active torsions:
REMARK  status: ('A' for Active; 'I' for Inactive)
REMARK    1  A    between atoms: C3_4  and  O_7 
ROOT
ATOM      1  C   UNL d   1      -1.622  -2.255   1.170  0.00  0.00    -0.033 A 
ATOM      2  C1  UNL d   1      -2.790  -2.207   1.934  0.00  0.00     0.039 A 
ATOM      3  C2  UNL d   1      -2.917  -1.272   2.962  0.00  0.00    -0.080 A 
ATOM      4  C3  UNL d   1      -1.870  -0.390   3.216  0.00  0.00     0.150 A 
ATOM      5  C4  UNL d   1      -0.705  -0.429   2.457  0.00  0.00    -0.007 A 
ATOM      6  C5  UNL d   1      -0.580  -1.365   1.431  0.00  0.00     0.039 A 
ENDROOT
BRANCH   4   7
ATOM      7  O   UNL d   1      -1.946   0.538   4.212  0.00  0.00    -0.526 OA
ATOM      8  H5  UNL d   1      -2.796   0.429   4.670  0.00  0.00     0.418 HD
ENDBRANCH   4   7
TORSDOF 1
ENDMDL
