MODEL 1
REMARK minimizedAffinity 4.96392822
REMARK minimizedRMSD -1
REMARK  1 active torsions:
REMARK  status: ('A' for Active; 'I' for Inactive)
REMARK    1  A    between atoms: C3_4  and  O_7 
ROOT
ATOM      1  C   UNL d   1      -5.216   4.447   5.975  0.00  0.00    -0.033 A 
ATOM      2  C1  UNL d   1      -4.767   3.125   5.996  0.00  0.00     0.039 A 
ATOM      3  C2  UNL d   1      -4.934   2.312   4.874  0.00  0.00    -0.080 A 
ATOM      4  C3  UNL d   1      -5.550   2.831   3.738  0.00  0.00     0.150 A 
ATOM      5  C4  UNL d   1      -5.996   4.148   3.709  0.00  0.00    -0.007 A 
ATOM      6  C5  UNL d   1      -5.829   4.959   4.831  0.00  0.00     0.039 A 
ENDROOT
BRANCH   4   7
ATOM      7  O   UNL d   1      -5.739   2.074   2.621  0.00  0.00    -0.526 OA
ATOM      8  H5  UNL d   1      -5.407   1.178   2.796  0.00  0.00     0.418 HD
ENDBRANCH   4   7
TORSDOF 1
ENDMDL
