MODEL 1
REMARK minimizedAffinity 5.79393101
REMARK minimizedRMSD -1
REMARK  1 active torsions:
REMARK  status: ('A' for Active; 'I' for Inactive)
REMARK    1  A    between atoms: C3_4  and  O_7 
ROOT
ATOM      1  C   UNL d   1       5.802   3.691   1.159  0.00  0.00    -0.033 A 
ATOM      2  C1  UNL d   1       5.578   2.905   0.026  0.00  0.00     0.039 A 
ATOM      3  C2  UNL d   1       4.380   2.201  -0.112  0.00  0.00    -0.080 A 
ATOM      4  C3  UNL d   1       3.415   2.292   0.887  0.00  0.00     0.150 A 
ATOM      5  C4  UNL d   1       3.630   3.076   2.016  0.00  0.00    -0.007 A 
ATOM      6  C5  UNL d   1       4.827   3.777   2.153  0.00  0.00     0.039 A 
ENDROOT
BRANCH   4   7
ATOM      7  O   UNL d   1       2.232   1.620   0.799  0.00  0.00    -0.526 OA
ATOM      8  H5  UNL d   1       2.236   1.098  -0.021  0.00  0.00     0.418 HD
ENDBRANCH   4   7
TORSDOF 1
ENDMDL
