MODEL 1
REMARK minimizedAffinity 5.78031969
REMARK minimizedRMSD -1
REMARK  1 active torsions:
REMARK  status: ('A' for Active; 'I' for Inactive)
REMARK    1  A    between atoms: C3_4  and  O_7 
ROOT
ATOM      1  C   UNL d   1       1.468   2.369  -1.356  0.00  0.00    -0.033 A 
ATOM      2  C1  UNL d   1       0.647   1.563  -2.148  0.00  0.00     0.039 A 
ATOM      3  C2  UNL d   1      -0.199   2.143  -3.095  0.00  0.00    -0.080 A 
ATOM      4  C3  UNL d   1      -0.214   3.528  -3.241  0.00  0.00     0.150 A 
ATOM      5  C4  UNL d   1       0.603   4.336  -2.458  0.00  0.00    -0.007 A 
ATOM      6  C5  UNL d   1       1.447   3.755  -1.512  0.00  0.00     0.039 A 
ENDROOT
BRANCH   4   7
ATOM      7  O   UNL d   1      -1.027   4.139  -4.148  0.00  0.00    -0.526 OA
ATOM      8  H5  UNL d   1      -1.555   3.458  -4.597  0.00  0.00     0.418 HD
ENDBRANCH   4   7
TORSDOF 1
ENDMDL
