MODEL 1
REMARK minimizedAffinity 6.53765965
REMARK minimizedRMSD -1
REMARK  1 active torsions:
REMARK  status: ('A' for Active; 'I' for Inactive)
REMARK    1  A    between atoms: C3_4  and  O_7 
ROOT
ATOM      1  C   UNL d   1      -5.829   0.473  -0.130  0.00  0.00    -0.033 A 
ATOM      2  C1  UNL d   1      -5.938   1.662  -0.853  0.00  0.00     0.039 A 
ATOM      3  C2  UNL d   1      -5.997   1.630  -2.248  0.00  0.00    -0.080 A 
ATOM      4  C3  UNL d   1      -5.947   0.405  -2.906  0.00  0.00     0.150 A 
ATOM      5  C4  UNL d   1      -5.843  -0.784  -2.192  0.00  0.00    -0.007 A 
ATOM      6  C5  UNL d   1      -5.783  -0.751  -0.799  0.00  0.00     0.039 A 
ENDROOT
BRANCH   4   7
ATOM      7  O   UNL d   1      -5.997   0.324  -4.266  0.00  0.00    -0.526 OA
ATOM      8  H5  UNL d   1      -6.039   1.225  -4.627  0.00  0.00     0.418 HD
ENDBRANCH   4   7
TORSDOF 1
ENDMDL
