MODEL 1
REMARK minimizedAffinity 7.48066092
REMARK minimizedRMSD -1
REMARK  1 active torsions:
REMARK  status: ('A' for Active; 'I' for Inactive)
REMARK    1  A    between atoms: C3_4  and  O_7 
ROOT
ATOM      1  C   UNL d   1      -0.693   5.108  -4.868  0.00  0.00    -0.033 A 
ATOM      2  C1  UNL d   1      -1.307   5.744  -3.788  0.00  0.00     0.039 A 
ATOM      3  C2  UNL d   1      -2.680   5.997  -3.812  0.00  0.00    -0.080 A 
ATOM      4  C3  UNL d   1      -3.426   5.608  -4.921  0.00  0.00     0.150 A 
ATOM      5  C4  UNL d   1      -2.822   4.971  -5.999  0.00  0.00    -0.007 A 
ATOM      6  C5  UNL d   1      -1.451   4.720  -5.974  0.00  0.00     0.039 A 
ENDROOT
BRANCH   4   7
ATOM      7  O   UNL d   1      -4.768   5.838  -4.993  0.00  0.00    -0.526 OA
ATOM      8  H5  UNL d   1      -5.043   6.311  -4.189  0.00  0.00     0.418 HD
ENDBRANCH   4   7
TORSDOF 1
ENDMDL
