MODEL 1
REMARK minimizedAffinity -2.5229311
REMARK minimizedRMSD -1
REMARK  1 active torsions:
REMARK  status: ('A' for Active; 'I' for Inactive)
REMARK    1  A    between atoms: N_2  and  C1_3 
ROOT
ATOM      1  C1  UNL d   1      -1.138   0.394  -0.318  0.00  0.00     0.143 A 
ATOM      2  C2  UNL d   1      -1.002  -0.905   0.183  0.00  0.00    -0.057 A 
ATOM      3  C3  UNL d   1       0.189  -1.331   0.784  0.00  0.00     0.033 A 
ATOM      4  C4  UNL d   1       1.278  -0.470   0.869  0.00  0.00    -0.042 A 
ATOM      5  C5  UNL d   1       1.174   0.818   0.356  0.00  0.00     0.033 A 
ATOM      6  C6  UNL d   1      -0.020   1.239  -0.238  0.00  0.00    -0.057 A 
ENDROOT
BRANCH   1   7
ATOM      7  N   UNL d   1      -2.261   0.845  -1.015  0.00  0.00    -0.732 N 
ATOM      8  C   UNL d   1      -2.673   0.202  -2.244  0.00  0.00     0.284 C 
ATOM      9  H3  UNL d   1      -3.030   1.090  -0.396  0.00  0.00     0.395 HD
ENDBRANCH   1   7
TORSDOF 1
ENDMDL
