MODEL 1
REMARK minimizedAffinity 1.86181331
REMARK minimizedRMSD -1
REMARK  1 active torsions:
REMARK  status: ('A' for Active; 'I' for Inactive)
REMARK    1  A    between atoms: N_2  and  C1_3 
ROOT
ATOM      1  C1  UNL d   1       0.251   2.976   0.604  0.00  0.00     0.143 A 
ATOM      2  C2  UNL d   1       1.367   3.120  -0.227  0.00  0.00    -0.057 A 
ATOM      3  C3  UNL d   1       1.959   2.013  -0.846  0.00  0.00     0.033 A 
ATOM      4  C4  UNL d   1       1.461   0.734  -0.621  0.00  0.00    -0.042 A 
ATOM      5  C5  UNL d   1       0.368   0.564   0.221  0.00  0.00     0.033 A 
ATOM      6  C6  UNL d   1      -0.222   1.674   0.832  0.00  0.00    -0.057 A 
ENDROOT
BRANCH   1   7
ATOM      7  N   UNL d   1      -0.321   4.026   1.327  0.00  0.00    -0.732 N 
ATOM      8  C   UNL d   1      -0.340   5.368   0.787  0.00  0.00     0.284 C 
ATOM      9  H3  UNL d   1      -1.184   3.752   1.792  0.00  0.00     0.395 HD
ENDBRANCH   1   7
TORSDOF 1
ENDMDL
