MODEL 1
REMARK minimizedAffinity -4.46601105
REMARK minimizedRMSD -1
REMARK  1 active torsions:
REMARK  status: ('A' for Active; 'I' for Inactive)
REMARK    1  A    between atoms: N_2  and  C1_3 
ROOT
ATOM      1  C1  UNL d   1       1.644  -0.267   0.760  0.00  0.00     0.143 A 
ATOM      2  C2  UNL d   1       2.676  -0.546   1.662  0.00  0.00    -0.057 A 
ATOM      3  C3  UNL d   1       2.625  -1.667   2.500  0.00  0.00     0.033 A 
ATOM      4  C4  UNL d   1       1.524  -2.516   2.470  0.00  0.00    -0.042 A 
ATOM      5  C5  UNL d   1       0.475  -2.245   1.599  0.00  0.00     0.033 A 
ATOM      6  C6  UNL d   1       0.534  -1.127   0.760  0.00  0.00    -0.057 A 
ENDROOT
BRANCH   1   7
ATOM      7  N   UNL d   1       1.590   0.885  -0.028  0.00  0.00    -0.732 N 
ATOM      8  C   UNL d   1       0.382   1.679  -0.091  0.00  0.00     0.284 C 
ATOM      9  H3  UNL d   1       2.445   1.433   0.026  0.00  0.00     0.395 HD
ENDBRANCH   1   7
TORSDOF 1
ENDMDL
