MODEL 1
REMARK minimizedAffinity -4.69088888
REMARK minimizedRMSD -1
REMARK  1 active torsions:
REMARK  status: ('A' for Active; 'I' for Inactive)
REMARK    1  A    between atoms: N_2  and  C1_3 
ROOT
ATOM      1  C1  UNL d   1       0.618   0.545  -0.702  0.00  0.00     0.143 A 
ATOM      2  C2  UNL d   1       0.894   0.043  -1.979  0.00  0.00    -0.057 A 
ATOM      3  C3  UNL d   1      -0.129  -0.431  -2.809  0.00  0.00     0.033 A 
ATOM      4  C4  UNL d   1      -1.447  -0.438  -2.364  0.00  0.00    -0.042 A 
ATOM      5  C5  UNL d   1      -1.741   0.033  -1.090  0.00  0.00     0.033 A 
ATOM      6  C6  UNL d   1      -0.716   0.511  -0.268  0.00  0.00    -0.057 A 
ENDROOT
BRANCH   1   7
ATOM      7  N   UNL d   1       1.602   0.938   0.208  0.00  0.00    -0.732 N 
ATOM      8  C   UNL d   1       2.366  -0.049   0.940  0.00  0.00     0.284 C 
ATOM      9  H3  UNL d   1       2.154   1.722  -0.132  0.00  0.00     0.395 HD
ENDBRANCH   1   7
TORSDOF 1
ENDMDL
