MODEL 1
REMARK minimizedAffinity -4.13718128
REMARK minimizedRMSD -1
REMARK  1 active torsions:
REMARK  status: ('A' for Active; 'I' for Inactive)
REMARK    1  A    between atoms: N_2  and  C1_3 
ROOT
ATOM      1  C1  UNL d   1       0.693   0.308   0.405  0.00  0.00     0.143 A 
ATOM      2  C2  UNL d   1       0.618  -1.087   0.335  0.00  0.00    -0.057 A 
ATOM      3  C3  UNL d   1       1.575  -1.898   0.956  0.00  0.00     0.033 A 
ATOM      4  C4  UNL d   1       2.644  -1.326   1.637  0.00  0.00    -0.042 A 
ATOM      5  C5  UNL d   1       2.753   0.059   1.699  0.00  0.00     0.033 A 
ATOM      6  C6  UNL d   1       1.790   0.864   1.082  0.00  0.00    -0.057 A 
ENDROOT
BRANCH   1   7
ATOM      7  N   UNL d   1      -0.172   1.169  -0.274  0.00  0.00    -0.732 N 
ATOM      8  C   UNL d   1      -0.904   0.713  -1.436  0.00  0.00     0.284 C 
ATOM      9  H3  UNL d   1      -0.716   1.752   0.358  0.00  0.00     0.395 HD
ENDBRANCH   1   7
TORSDOF 1
ENDMDL
