MODEL 1
REMARK minimizedAffinity -4.2263422
REMARK minimizedRMSD -1
REMARK  1 active torsions:
REMARK  status: ('A' for Active; 'I' for Inactive)
REMARK    1  A    between atoms: N_2  and  C1_3 
ROOT
ATOM      1  C1  UNL d   1      -0.588   0.175  -0.860  0.00  0.00     0.143 A 
ATOM      2  C2  UNL d   1      -1.925   0.102  -0.453  0.00  0.00    -0.057 A 
ATOM      3  C3  UNL d   1      -2.963  -0.001  -1.387  0.00  0.00     0.033 A 
ATOM      4  C4  UNL d   1      -2.683  -0.003  -2.750  0.00  0.00    -0.042 A 
ATOM      5  C5  UNL d   1      -1.364   0.093  -3.177  0.00  0.00     0.033 A 
ATOM      6  C6  UNL d   1      -0.331   0.189  -2.239  0.00  0.00    -0.057 A 
ENDROOT
BRANCH   1   7
ATOM      7  N   UNL d   1       0.481   0.377   0.016  0.00  0.00    -0.732 N 
ATOM      8  C   UNL d   1       1.165  -0.747   0.617  0.00  0.00     0.284 C 
ATOM      9  H3  UNL d   1       1.100   1.124  -0.292  0.00  0.00     0.395 HD
ENDBRANCH   1   7
TORSDOF 1
ENDMDL
