MODEL 1
REMARK minimizedAffinity -4.75947142
REMARK minimizedRMSD -1
REMARK  1 active torsions:
REMARK  status: ('A' for Active; 'I' for Inactive)
REMARK    1  A    between atoms: N_2  and  C1_3 
ROOT
ATOM      1  C1  UNL d   1       0.247   0.221  -0.076  0.00  0.00     0.143 A 
ATOM      2  C2  UNL d   1       0.853  -1.039  -0.137  0.00  0.00    -0.057 A 
ATOM      3  C3  UNL d   1       2.176  -1.230   0.280  0.00  0.00     0.033 A 
ATOM      4  C4  UNL d   1       2.929  -0.154   0.738  0.00  0.00    -0.042 A 
ATOM      5  C5  UNL d   1       2.356   1.112   0.784  0.00  0.00     0.033 A 
ATOM      6  C6  UNL d   1       1.032   1.295   0.373  0.00  0.00    -0.057 A 
ENDROOT
BRANCH   1   7
ATOM      7  N   UNL d   1      -1.032   0.493  -0.567  0.00  0.00    -0.732 N 
ATOM      8  C   UNL d   1      -1.544  -0.212  -1.722  0.00  0.00     0.284 C 
ATOM      9  H3  UNL d   1      -1.714   0.624   0.177  0.00  0.00     0.395 HD
ENDBRANCH   1   7
TORSDOF 1
ENDMDL
