MODEL 1
REMARK minimizedAffinity 5.0638032
REMARK minimizedRMSD -1
REMARK  1 active torsions:
REMARK  status: ('A' for Active; 'I' for Inactive)
REMARK    1  A    between atoms: C1_2  and  C2_3 
ROOT
ATOM      1  C2  UNL d   1       1.935   0.189  -0.621  0.00  0.00    -0.076 A 
ATOM      2  C3  UNL d   1       2.672   0.586  -1.750  0.00  0.00     0.004 A 
ATOM      3  C4  UNL d   1       3.963   1.096  -1.622  0.00  0.00    -0.003 A 
ATOM      4  C5  UNL d   1       4.538   1.218  -0.362  0.00  0.00     0.000 A 
ATOM      5  C6  UNL d   1       3.828   0.813   0.768  0.00  0.00     0.000 A 
ATOM      6  C7  UNL d   1       2.532   0.281   0.655  0.00  0.00    -0.073 A 
ATOM      7  C8  UNL d   1       1.810  -0.134   1.907  0.00  0.00     0.078 C 
ENDROOT
BRANCH   1   8
ATOM      8  C1  UNL d   1       0.530  -0.331  -0.819  0.00  0.00     0.053 C 
ATOM      9  C   UNL d   1      -0.443   0.761  -1.234  0.00  0.00     0.018 C 
ENDBRANCH   1   8
TORSDOF 1
ENDMDL
