MODEL 1
REMARK minimizedAffinity 7.72245789
REMARK minimizedRMSD -1
REMARK  1 active torsions:
REMARK  status: ('A' for Active; 'I' for Inactive)
REMARK    1  A    between atoms: C1_2  and  C2_3 
ROOT
ATOM      1  C2  UNL d   1       1.607   0.608  -0.066  0.00  0.00    -0.076 A 
ATOM      2  C3  UNL d   1       1.432   0.880   1.302  0.00  0.00     0.004 A 
ATOM      3  C4  UNL d   1       2.512   1.244   2.105  0.00  0.00    -0.003 A 
ATOM      4  C5  UNL d   1       3.784   1.343   1.552  0.00  0.00     0.000 A 
ATOM      5  C6  UNL d   1       3.973   1.095   0.193  0.00  0.00     0.000 A 
ATOM      6  C7  UNL d   1       2.892   0.742  -0.633  0.00  0.00    -0.073 A 
ATOM      7  C8  UNL d   1       3.154   0.479  -2.091  0.00  0.00     0.078 C 
ENDROOT
BRANCH   1   8
ATOM      8  C1  UNL d   1       0.404   0.191  -0.881  0.00  0.00     0.053 C 
ATOM      9  C   UNL d   1      -0.501   1.364  -1.226  0.00  0.00     0.018 C 
ENDBRANCH   1   8
TORSDOF 1
ENDMDL
