MODEL 1
REMARK minimizedAffinity 4.90972519
REMARK minimizedRMSD -1
REMARK  1 active torsions:
REMARK  status: ('A' for Active; 'I' for Inactive)
REMARK    1  A    between atoms: C1_2  and  C2_3 
ROOT
ATOM      1  C2  UNL d   1       3.163   0.700  -1.208  0.00  0.00    -0.076 A 
ATOM      2  C3  UNL d   1       4.175   0.918  -0.257  0.00  0.00     0.004 A 
ATOM      3  C4  UNL d   1       3.918   0.789   1.107  0.00  0.00    -0.003 A 
ATOM      4  C5  UNL d   1       2.645   0.438   1.542  0.00  0.00     0.000 A 
ATOM      5  C6  UNL d   1       1.634   0.200   0.612  0.00  0.00     0.000 A 
ATOM      6  C7  UNL d   1       1.880   0.310  -0.768  0.00  0.00    -0.073 A 
ATOM      7  C8  UNL d   1       0.751   0.048  -1.726  0.00  0.00     0.078 C 
ENDROOT
BRANCH   1   8
ATOM      8  C1  UNL d   1       3.494   0.881  -2.672  0.00  0.00     0.053 C 
ATOM      9  C   UNL d   1       4.708   1.771  -2.889  0.00  0.00     0.018 C 
ENDBRANCH   1   8
TORSDOF 1
ENDMDL
