MODEL 1
REMARK minimizedAffinity 4.94070005
REMARK minimizedRMSD -1
REMARK  1 active torsions:
REMARK  status: ('A' for Active; 'I' for Inactive)
REMARK    1  A    between atoms: C1_2  and  C2_3 
ROOT
ATOM      1  C2  UNL d   1       0.533   1.499  -0.175  0.00  0.00    -0.076 A 
ATOM      2  C3  UNL d   1       1.111   2.418   0.719  0.00  0.00     0.004 A 
ATOM      3  C4  UNL d   1       0.373   3.486   1.227  0.00  0.00    -0.003 A 
ATOM      4  C5  UNL d   1      -0.955   3.652   0.849  0.00  0.00     0.000 A 
ATOM      5  C6  UNL d   1      -1.549   2.741  -0.022  0.00  0.00     0.000 A 
ATOM      6  C7  UNL d   1      -0.824   1.649  -0.531  0.00  0.00    -0.073 A 
ATOM      7  C8  UNL d   1      -1.514   0.700  -1.472  0.00  0.00     0.078 C 
ENDROOT
BRANCH   1   8
ATOM      8  C1  UNL d   1       1.390   0.376  -0.714  0.00  0.00     0.053 C 
ATOM      9  C   UNL d   1       2.791   0.377  -0.121  0.00  0.00     0.018 C 
ENDBRANCH   1   8
TORSDOF 1
ENDMDL
