MODEL 1
REMARK minimizedAffinity 7.21415901
REMARK minimizedRMSD -1
REMARK  1 active torsions:
REMARK  status: ('A' for Active; 'I' for Inactive)
REMARK    1  A    between atoms: C1_2  and  C2_3 
ROOT
ATOM      1  C2  UNL d   1       1.333   1.472   0.233  0.00  0.00    -0.076 A 
ATOM      2  C3  UNL d   1       1.264   0.258  -0.473  0.00  0.00     0.004 A 
ATOM      3  C4  UNL d   1       0.334   0.073  -1.494  0.00  0.00    -0.003 A 
ATOM      4  C5  UNL d   1      -0.542   1.100  -1.827  0.00  0.00     0.000 A 
ATOM      5  C6  UNL d   1      -0.477   2.317  -1.150  0.00  0.00     0.000 A 
ATOM      6  C7  UNL d   1       0.466   2.526  -0.129  0.00  0.00    -0.073 A 
ATOM      7  C8  UNL d   1       0.488   3.856   0.572  0.00  0.00     0.078 C 
ENDROOT
BRANCH   1   8
ATOM      8  C1  UNL d   1       2.344   1.606   1.349  0.00  0.00     0.053 C 
ATOM      9  C   UNL d   1       3.768   1.743   0.832  0.00  0.00     0.018 C 
ENDBRANCH   1   8
TORSDOF 1
ENDMDL
