MODEL 1
REMARK minimizedAffinity -1.56636882
REMARK minimizedRMSD -1
REMARK  1 active torsions:
REMARK  status: ('A' for Active; 'I' for Inactive)
REMARK    1  A    between atoms: C1_2  and  C2_3 
ROOT
ATOM      1  C2  UNL d   1       3.693   0.367  -1.670  0.00  0.00    -0.076 A 
ATOM      2  C3  UNL d   1       3.311  -0.274  -2.861  0.00  0.00     0.004 A 
ATOM      3  C4  UNL d   1       4.196  -0.383  -3.933  0.00  0.00    -0.003 A 
ATOM      4  C5  UNL d   1       5.477   0.147  -3.830  0.00  0.00     0.000 A 
ATOM      5  C6  UNL d   1       5.879   0.771  -2.650  0.00  0.00     0.000 A 
ATOM      6  C7  UNL d   1       5.005   0.875  -1.554  0.00  0.00    -0.073 A 
ATOM      7  C8  UNL d   1       5.489   1.564  -0.307  0.00  0.00     0.078 C 
ENDROOT
BRANCH   1   8
ATOM      8  C1  UNL d   1       2.682   0.479  -0.551  0.00  0.00     0.053 C 
ATOM      9  C   UNL d   1       1.251   0.532  -1.062  0.00  0.00     0.018 C 
ENDBRANCH   1   8
TORSDOF 1
ENDMDL
