MODEL 1
REMARK minimizedAffinity 16.7183609
REMARK minimizedRMSD -1
REMARK  1 active torsions:
REMARK  status: ('A' for Active; 'I' for Inactive)
REMARK    1  A    between atoms: C1_2  and  C2_3 
ROOT
ATOM      1  C2  UNL d   1      -1.728  -3.996   2.674  0.00  0.00    -0.076 A 
ATOM      2  C3  UNL d   1      -1.511  -3.421   1.410  0.00  0.00     0.004 A 
ATOM      3  C4  UNL d   1      -0.838  -4.120   0.409  0.00  0.00    -0.003 A 
ATOM      4  C5  UNL d   1      -0.373  -5.407   0.656  0.00  0.00     0.000 A 
ATOM      5  C6  UNL d   1      -0.595  -6.000   1.899  0.00  0.00     0.000 A 
ATOM      6  C7  UNL d   1      -1.286  -5.314   2.913  0.00  0.00    -0.073 A 
ATOM      7  C8  UNL d   1      -1.492  -6.000   4.236  0.00  0.00     0.078 C 
ENDROOT
BRANCH   1   8
ATOM      8  C1  UNL d   1      -2.440  -3.179   3.729  0.00  0.00     0.053 C 
ATOM      9  C   UNL d   1      -1.492  -2.279   4.507  0.00  0.00     0.018 C 
ENDBRANCH   1   8
TORSDOF 1
ENDMDL
