MODEL 1
REMARK minimizedAffinity 5.20794487
REMARK minimizedRMSD -1
REMARK  1 active torsions:
REMARK  status: ('A' for Active; 'I' for Inactive)
REMARK    1  A    between atoms: C1_2  and  C2_3 
ROOT
ATOM      1  C2  UNL d   1      -1.492  -3.307   1.001  0.00  0.00    -0.076 A 
ATOM      2  C3  UNL d   1      -0.973  -4.132  -0.012  0.00  0.00     0.004 A 
ATOM      3  C4  UNL d   1      -0.554  -5.432   0.266  0.00  0.00    -0.003 A 
ATOM      4  C5  UNL d   1      -0.648  -5.929   1.561  0.00  0.00     0.000 A 
ATOM      5  C6  UNL d   1      -1.177  -5.131   2.575  0.00  0.00     0.000 A 
ATOM      6  C7  UNL d   1      -1.619  -3.823   2.309  0.00  0.00    -0.073 A 
ATOM      7  C8  UNL d   1      -2.175  -3.004   3.441  0.00  0.00     0.078 C 
ENDROOT
BRANCH   1   8
ATOM      8  C1  UNL d   1      -1.905  -1.897   0.646  0.00  0.00     0.053 C 
ATOM      9  C   UNL d   1      -1.858  -1.636  -0.852  0.00  0.00     0.018 C 
ENDBRANCH   1   8
TORSDOF 1
ENDMDL
