MODEL 1
REMARK minimizedAffinity 13.0735388
REMARK minimizedRMSD -1
REMARK  1 active torsions:
REMARK  status: ('A' for Active; 'I' for Inactive)
REMARK    1  A    between atoms: C1_2  and  C2_3 
ROOT
ATOM      1  C2  UNL d   1      -1.137  -3.431   1.028  0.00  0.00    -0.076 A 
ATOM      2  C3  UNL d   1      -0.804  -2.988  -0.264  0.00  0.00     0.004 A 
ATOM      3  C4  UNL d   1      -1.369  -1.830  -0.794  0.00  0.00    -0.003 A 
ATOM      4  C5  UNL d   1      -2.276  -1.094  -0.040  0.00  0.00     0.000 A 
ATOM      5  C6  UNL d   1      -2.604  -1.508   1.251  0.00  0.00     0.000 A 
ATOM      6  C7  UNL d   1      -2.031  -2.665   1.806  0.00  0.00    -0.073 A 
ATOM      7  C8  UNL d   1      -2.426  -3.069   3.200  0.00  0.00     0.078 C 
ENDROOT
BRANCH   1   8
ATOM      8  C1  UNL d   1      -0.513  -4.709   1.539  0.00  0.00     0.053 C 
ATOM      9  C   UNL d   1      -0.677  -5.867   0.567  0.00  0.00     0.018 C 
ENDBRANCH   1   8
TORSDOF 1
ENDMDL
