MODEL 1
REMARK minimizedAffinity 12.2475901
REMARK minimizedRMSD -1
REMARK  1 active torsions:
REMARK  status: ('A' for Active; 'I' for Inactive)
REMARK    1  A    between atoms: C1_2  and  C2_3 
ROOT
ATOM      1  C2  UNL d   1      -2.794   3.089  -5.530  0.00  0.00    -0.076 A 
ATOM      2  C3  UNL d   1      -1.976   4.134  -5.993  0.00  0.00     0.004 A 
ATOM      3  C4  UNL d   1      -0.640   4.225  -5.607  0.00  0.00    -0.003 A 
ATOM      4  C5  UNL d   1      -0.100   3.273  -4.750  0.00  0.00     0.000 A 
ATOM      5  C6  UNL d   1      -0.891   2.219  -4.294  0.00  0.00     0.000 A 
ATOM      6  C7  UNL d   1      -2.236   2.103  -4.687  0.00  0.00    -0.073 A 
ATOM      7  C8  UNL d   1      -3.045   0.950  -4.161  0.00  0.00     0.078 C 
ENDROOT
BRANCH   1   8
ATOM      8  C1  UNL d   1      -4.242   3.056  -5.961  0.00  0.00     0.053 C 
ATOM      9  C   UNL d   1      -4.874   4.439  -5.987  0.00  0.00     0.018 C 
ENDBRANCH   1   8
TORSDOF 1
ENDMDL
