MODEL 1
REMARK minimizedAffinity 8.30509758
REMARK minimizedRMSD -1
REMARK  1 active torsions:
REMARK  status: ('A' for Active; 'I' for Inactive)
REMARK    1  A    between atoms: C1_2  and  C2_3 
ROOT
ATOM      1  C2  UNL d   1      -1.962  -2.059  -0.727  0.00  0.00    -0.076 A 
ATOM      2  C3  UNL d   1      -0.896  -2.452  -1.555  0.00  0.00     0.004 A 
ATOM      3  C4  UNL d   1      -0.895  -2.148  -2.916  0.00  0.00    -0.003 A 
ATOM      4  C5  UNL d   1      -1.960  -1.446  -3.470  0.00  0.00     0.000 A 
ATOM      5  C6  UNL d   1      -3.017  -1.033  -2.660  0.00  0.00     0.000 A 
ATOM      6  C7  UNL d   1      -3.026  -1.318  -1.284  0.00  0.00    -0.073 A 
ATOM      7  C8  UNL d   1      -4.195  -0.854  -0.458  0.00  0.00     0.078 C 
ENDROOT
BRANCH   1   8
ATOM      8  C1  UNL d   1      -1.922  -2.441   0.735  0.00  0.00     0.053 C 
ATOM      9  C   UNL d   1      -1.085  -3.685   0.990  0.00  0.00     0.018 C 
ENDBRANCH   1   8
TORSDOF 1
ENDMDL
