MODEL 1
REMARK minimizedAffinity 14.0140371
REMARK minimizedRMSD -1
REMARK  1 active torsions:
REMARK  status: ('A' for Active; 'I' for Inactive)
REMARK    1  A    between atoms: C1_2  and  C2_3 
ROOT
ATOM      1  C2  UNL d   1      -0.531  -3.969  -2.011  0.00  0.00    -0.076 A 
ATOM      2  C3  UNL d   1      -0.710  -3.797  -3.395  0.00  0.00     0.004 A 
ATOM      3  C4  UNL d   1      -0.860  -2.526  -3.946  0.00  0.00    -0.003 A 
ATOM      4  C5  UNL d   1      -0.832  -1.406  -3.122  0.00  0.00     0.000 A 
ATOM      5  C6  UNL d   1      -0.638  -1.557  -1.750  0.00  0.00     0.000 A 
ATOM      6  C7  UNL d   1      -0.469  -2.830  -1.180  0.00  0.00    -0.073 A 
ATOM      7  C8  UNL d   1      -0.268  -2.935   0.307  0.00  0.00     0.078 C 
ENDROOT
BRANCH   1   8
ATOM      8  C1  UNL d   1      -0.400  -5.374  -1.467  0.00  0.00     0.053 C 
ATOM      9  C   UNL d   1      -1.748  -6.000  -1.141  0.00  0.00     0.018 C 
ENDBRANCH   1   8
TORSDOF 1
ENDMDL
