MODEL 1
REMARK minimizedAffinity 16.3806877
REMARK minimizedRMSD -1
REMARK  1 active torsions:
REMARK  status: ('A' for Active; 'I' for Inactive)
REMARK    1  A    between atoms: C1_2  and  C2_3 
ROOT
ATOM      1  C2  UNL d   1      -2.101  -2.084   4.863  0.00  0.00    -0.076 A 
ATOM      2  C3  UNL d   1      -2.597  -0.800   5.150  0.00  0.00     0.004 A 
ATOM      3  C4  UNL d   1      -3.861  -0.629   5.713  0.00  0.00    -0.003 A 
ATOM      4  C5  UNL d   1      -4.649  -1.738   5.999  0.00  0.00     0.000 A 
ATOM      5  C6  UNL d   1      -4.165  -3.020   5.737  0.00  0.00     0.000 A 
ATOM      6  C7  UNL d   1      -2.887  -3.211   5.185  0.00  0.00    -0.073 A 
ATOM      7  C8  UNL d   1      -2.418  -4.615   4.918  0.00  0.00     0.078 C 
ENDROOT
BRANCH   1   8
ATOM      8  C1  UNL d   1      -0.735  -2.206   4.228  0.00  0.00     0.053 C 
ATOM      9  C   UNL d   1       0.383  -1.768   5.161  0.00  0.00     0.018 C 
ENDBRANCH   1   8
TORSDOF 1
ENDMDL
