MODEL 1
REMARK minimizedAffinity 11.1361895
REMARK minimizedRMSD -1
REMARK  1 active torsions:
REMARK  status: ('A' for Active; 'I' for Inactive)
REMARK    1  A    between atoms: C1_2  and  C2_3 
ROOT
ATOM      1  C2  UNL d   1      -0.958  -2.778  -1.589  0.00  0.00    -0.076 A 
ATOM      2  C3  UNL d   1      -0.709  -4.140  -1.830  0.00  0.00     0.004 A 
ATOM      3  C4  UNL d   1      -0.614  -5.049  -0.777  0.00  0.00    -0.003 A 
ATOM      4  C5  UNL d   1      -0.767  -4.610   0.534  0.00  0.00     0.000 A 
ATOM      5  C6  UNL d   1      -1.032  -3.265   0.790  0.00  0.00     0.000 A 
ATOM      6  C7  UNL d   1      -1.147  -2.339  -0.261  0.00  0.00    -0.073 A 
ATOM      7  C8  UNL d   1      -1.428  -0.899   0.073  0.00  0.00     0.078 C 
ENDROOT
BRANCH   1   8
ATOM      8  C1  UNL d   1      -1.024  -1.834  -2.769  0.00  0.00     0.053 C 
ATOM      9  C   UNL d   1      -1.739  -2.445  -3.964  0.00  0.00     0.018 C 
ENDBRANCH   1   8
TORSDOF 1
ENDMDL
