MODEL 1
REMARK minimizedAffinity 16.9757977
REMARK minimizedRMSD -1
REMARK  1 active torsions:
REMARK  status: ('A' for Active; 'I' for Inactive)
REMARK    1  A    between atoms: C1_2  and  C2_3 
ROOT
ATOM      1  C2  UNL d   1      -0.399  -1.454   5.599  0.00  0.00    -0.076 A 
ATOM      2  C3  UNL d   1      -0.434  -2.802   5.999  0.00  0.00     0.004 A 
ATOM      3  C4  UNL d   1      -1.544  -3.601   5.732  0.00  0.00    -0.003 A 
ATOM      4  C5  UNL d   1      -2.638  -3.066   5.060  0.00  0.00     0.000 A 
ATOM      5  C6  UNL d   1      -2.613  -1.737   4.640  0.00  0.00     0.000 A 
ATOM      6  C7  UNL d   1      -1.495  -0.922   4.887  0.00  0.00    -0.073 A 
ATOM      7  C8  UNL d   1      -1.525   0.507   4.417  0.00  0.00     0.078 C 
ENDROOT
BRANCH   1   8
ATOM      8  C1  UNL d   1       0.820  -0.629   5.940  0.00  0.00     0.053 C 
ATOM      9  C   UNL d   1       2.091  -1.463   6.000  0.00  0.00     0.018 C 
ENDBRANCH   1   8
TORSDOF 1
ENDMDL
