MODEL 1
REMARK minimizedAffinity 22.0851746
REMARK minimizedRMSD -1
REMARK  1 active torsions:
REMARK  status: ('A' for Active; 'I' for Inactive)
REMARK    1  A    between atoms: C1_2  and  C2_3 
ROOT
ATOM      1  C2  UNL d   1      -5.934   3.847   3.448  0.00  0.00    -0.076 A 
ATOM      2  C3  UNL d   1      -5.914   3.222   2.188  0.00  0.00     0.004 A 
ATOM      3  C4  UNL d   1      -5.881   3.973   1.015  0.00  0.00    -0.003 A 
ATOM      4  C5  UNL d   1      -5.867   5.362   1.082  0.00  0.00     0.000 A 
ATOM      5  C6  UNL d   1      -5.869   5.999   2.323  0.00  0.00     0.000 A 
ATOM      6  C7  UNL d   1      -5.886   5.256   3.515  0.00  0.00    -0.073 A 
ATOM      7  C8  UNL d   1      -5.893   5.994   4.826  0.00  0.00     0.078 C 
ENDROOT
BRANCH   1   8
ATOM      8  C1  UNL d   1      -5.998   2.980   4.685  0.00  0.00     0.053 C 
ATOM      9  C   UNL d   1      -4.619   2.568   5.179  0.00  0.00     0.018 C 
ENDBRANCH   1   8
TORSDOF 1
ENDMDL
