MODEL 1
REMARK minimizedAffinity 12.1551533
REMARK minimizedRMSD -1
REMARK  1 active torsions:
REMARK  status: ('A' for Active; 'I' for Inactive)
REMARK    1  A    between atoms: C1_2  and  C2_3 
ROOT
ATOM      1  C2  UNL d   1       3.952   2.526   0.742  0.00  0.00    -0.076 A 
ATOM      2  C3  UNL d   1       3.362   2.266   1.991  0.00  0.00     0.004 A 
ATOM      3  C4  UNL d   1       4.077   1.627   3.003  0.00  0.00    -0.003 A 
ATOM      4  C5  UNL d   1       5.393   1.238   2.781  0.00  0.00     0.000 A 
ATOM      5  C6  UNL d   1       6.000   1.504   1.554  0.00  0.00     0.000 A 
ATOM      6  C7  UNL d   1       5.298   2.162   0.529  0.00  0.00    -0.073 A 
ATOM      7  C8  UNL d   1       6.000   2.418  -0.777  0.00  0.00     0.078 C 
ENDROOT
BRANCH   1   8
ATOM      8  C1  UNL d   1       3.119   3.199  -0.326  0.00  0.00     0.053 C 
ATOM      9  C   UNL d   1       2.613   2.219  -1.374  0.00  0.00     0.018 C 
ENDBRANCH   1   8
TORSDOF 1
ENDMDL
