MODEL 1
REMARK minimizedAffinity 7.45278358
REMARK minimizedRMSD -1
REMARK  0 active torsions:
REMARK  status: ('A' for Active; 'I' for Inactive)
ROOT
ATOM      1  O1  BZF d   1       0.130  -0.876  -0.690  0.00  0.00    -0.204 OA
ATOM      2  C2  BZF d   1       1.436  -0.946  -1.137  0.00  0.00     0.174 A 
ATOM      3  C3  BZF d   1       2.295  -1.007  -0.099  0.00  0.00    -0.012 A 
ATOM      4  C3A BZF d   1       1.470  -1.064   1.068  0.00  0.00    -0.107 A 
ATOM      5  C4  BZF d   1       1.739  -1.152   2.404  0.00  0.00     0.055 A 
ATOM      6  C5  BZF d   1       0.709  -1.114   3.290  0.00  0.00    -0.016 A 
ATOM      7  C6  BZF d   1      -0.601  -0.984   2.875  0.00  0.00     0.022 A 
ATOM      8  C7  BZF d   1      -0.917  -0.898   1.560  0.00  0.00     0.029 A 
ATOM      9  C7A BZF d   1       0.119  -0.970   0.661  0.00  0.00     0.058 A 
ENDROOT
TORSDOF 0
ENDMDL
