MODEL 1
REMARK minimizedAffinity 8.72925282
REMARK minimizedRMSD -1
REMARK  0 active torsions:
REMARK  status: ('A' for Active; 'I' for Inactive)
ROOT
ATOM      1  O1  BZF d   1       2.133   1.045  -2.417  0.00  0.00    -0.204 OA
ATOM      2  C2  BZF d   1       2.820   2.162  -1.981  0.00  0.00     0.174 A 
ATOM      3  C3  BZF d   1       3.042   2.097  -0.652  0.00  0.00    -0.012 A 
ATOM      4  C3A BZF d   1       2.539   0.821  -0.248  0.00  0.00    -0.107 A 
ATOM      5  C4  BZF d   1       2.486   0.169   0.951  0.00  0.00     0.055 A 
ATOM      6  C5  BZF d   1       1.863  -1.037   1.021  0.00  0.00    -0.016 A 
ATOM      7  C6  BZF d   1       1.278  -1.617  -0.085  0.00  0.00     0.022 A 
ATOM      8  C7  BZF d   1       1.309  -1.011  -1.297  0.00  0.00     0.029 A 
ATOM      9  C7A BZF d   1       1.967   0.192  -1.378  0.00  0.00     0.058 A 
ENDROOT
TORSDOF 0
ENDMDL
