MODEL 1
REMARK minimizedAffinity 6.7265811
REMARK minimizedRMSD -1
REMARK  0 active torsions:
REMARK  status: ('A' for Active; 'I' for Inactive)
ROOT
ATOM      1  O1  BZF d   1      -1.439   1.202   3.848  0.00  0.00    -0.204 OA
ATOM      2  C2  BZF d   1      -2.742   1.238   3.392  0.00  0.00     0.174 A 
ATOM      3  C3  BZF d   1      -2.920   0.366   2.379  0.00  0.00    -0.012 A 
ATOM      4  C3A BZF d   1      -1.671  -0.320   2.251  0.00  0.00    -0.107 A 
ATOM      5  C4  BZF d   1      -1.227  -1.316   1.428  0.00  0.00     0.055 A 
ATOM      6  C5  BZF d   1       0.070  -1.712   1.510  0.00  0.00    -0.016 A 
ATOM      7  C6  BZF d   1       0.951  -1.131   2.399  0.00  0.00     0.022 A 
ATOM      8  C7  BZF d   1       0.556  -0.143   3.238  0.00  0.00     0.029 A 
ATOM      9  C7A BZF d   1      -0.763   0.236   3.180  0.00  0.00     0.058 A 
ENDROOT
TORSDOF 0
ENDMDL
