MODEL 1
REMARK minimizedAffinity 4.40547609
REMARK minimizedRMSD -1
REMARK  0 active torsions:
REMARK  status: ('A' for Active; 'I' for Inactive)
ROOT
ATOM      1  O1  BZF d   1       0.458  -1.252  -0.302  0.00  0.00    -0.204 OA
ATOM      2  C2  BZF d   1       1.737  -1.317  -0.820  0.00  0.00     0.174 A 
ATOM      3  C3  BZF d   1       2.656  -1.156   0.155  0.00  0.00    -0.012 A 
ATOM      4  C3A BZF d   1       1.905  -1.071   1.370  0.00  0.00    -0.107 A 
ATOM      5  C4  BZF d   1       2.256  -0.924   2.681  0.00  0.00     0.055 A 
ATOM      6  C5  BZF d   1       1.277  -0.803   3.617  0.00  0.00    -0.016 A 
ATOM      7  C6  BZF d   1      -0.059  -0.821   3.276  0.00  0.00     0.022 A 
ATOM      8  C7  BZF d   1      -0.456  -0.970   1.988  0.00  0.00     0.029 A 
ATOM      9  C7A BZF d   1       0.530  -1.125   1.045  0.00  0.00     0.058 A 
ENDROOT
TORSDOF 0
ENDMDL
