MODEL 1
REMARK minimizedAffinity 2.35074306
REMARK minimizedRMSD -1
REMARK  0 active torsions:
REMARK  status: ('A' for Active; 'I' for Inactive)
ROOT
ATOM      1  O1  BZF d   1       0.135  -0.743   2.029  0.00  0.00    -0.204 OA
ATOM      2  C2  BZF d   1       0.576  -1.254   3.234  0.00  0.00     0.174 A 
ATOM      3  C3  BZF d   1       1.714  -1.957   3.067  0.00  0.00    -0.012 A 
ATOM      4  C3A BZF d   1       2.053  -1.803   1.686  0.00  0.00    -0.107 A 
ATOM      5  C4  BZF d   1       3.087  -2.254   0.917  0.00  0.00     0.055 A 
ATOM      6  C5  BZF d   1       3.085  -1.987  -0.416  0.00  0.00    -0.016 A 
ATOM      7  C6  BZF d   1       2.064  -1.276  -1.012  0.00  0.00     0.022 A 
ATOM      8  C7  BZF d   1       1.020  -0.803  -0.289  0.00  0.00     0.029 A 
ATOM      9  C7A BZF d   1       1.036  -1.044   1.063  0.00  0.00     0.058 A 
ENDROOT
TORSDOF 0
ENDMDL
