MODEL 1
REMARK minimizedAffinity 7.89540529
REMARK minimizedRMSD -1
REMARK  0 active torsions:
REMARK  status: ('A' for Active; 'I' for Inactive)
ROOT
ATOM      1  O1  BZF d   1       1.778  -2.028   0.470  0.00  0.00    -0.204 OA
ATOM      2  C2  BZF d   1       2.905  -2.425   1.162  0.00  0.00     0.174 A 
ATOM      3  C3  BZF d   1       2.832  -2.045   2.454  0.00  0.00    -0.012 A 
ATOM      4  C3A BZF d   1       1.539  -1.449   2.598  0.00  0.00    -0.107 A 
ATOM      5  C4  BZF d   1       0.874  -0.893   3.654  0.00  0.00     0.055 A 
ATOM      6  C5  BZF d   1      -0.347  -0.334   3.444  0.00  0.00    -0.016 A 
ATOM      7  C6  BZF d   1      -0.929  -0.307   2.194  0.00  0.00     0.022 A 
ATOM      8  C7  BZF d   1      -0.309  -0.850   1.117  0.00  0.00     0.029 A 
ATOM      9  C7A BZF d   1       0.910  -1.445   1.332  0.00  0.00     0.058 A 
ENDROOT
TORSDOF 0
ENDMDL
