MODEL 1
REMARK minimizedAffinity 6.74843645
REMARK minimizedRMSD -1
REMARK  0 active torsions:
REMARK  status: ('A' for Active; 'I' for Inactive)
ROOT
ATOM      1  O1  BZF d   1      -1.767   0.115   2.200  0.00  0.00    -0.204 OA
ATOM      2  C2  BZF d   1      -1.985   1.009   3.230  0.00  0.00     0.174 A 
ATOM      3  C3  BZF d   1      -1.000   0.930   4.148  0.00  0.00    -0.012 A 
ATOM      4  C3A BZF d   1      -0.063  -0.011   3.615  0.00  0.00    -0.107 A 
ATOM      5  C4  BZF d   1       1.132  -0.500   4.059  0.00  0.00     0.055 A 
ATOM      6  C5  BZF d   1       1.761  -1.463   3.336  0.00  0.00    -0.016 A 
ATOM      7  C6  BZF d   1       1.221  -1.964   2.169  0.00  0.00     0.022 A 
ATOM      8  C7  BZF d   1       0.040  -1.507   1.686  0.00  0.00     0.029 A 
ATOM      9  C7A BZF d   1      -0.581  -0.510   2.397  0.00  0.00     0.058 A 
ENDROOT
TORSDOF 0
ENDMDL
