MODEL 1
REMARK minimizedAffinity 12.2266741
REMARK minimizedRMSD -1
REMARK  0 active torsions:
REMARK  status: ('A' for Active; 'I' for Inactive)
ROOT
ATOM      1  O1  BZF d   1      -2.042   4.190   4.214  0.00  0.00    -0.204 OA
ATOM      2  C2  BZF d   1      -0.731   4.599   4.056  0.00  0.00     0.174 A 
ATOM      3  C3  BZF d   1       0.086   3.537   3.906  0.00  0.00    -0.012 A 
ATOM      4  C3A BZF d   1      -0.778   2.397   3.882  0.00  0.00    -0.107 A 
ATOM      5  C4  BZF d   1      -0.560   1.056   3.742  0.00  0.00     0.055 A 
ATOM      6  C5  BZF d   1      -1.613   0.202   3.835  0.00  0.00    -0.016 A 
ATOM      7  C6  BZF d   1      -2.894   0.653   4.074  0.00  0.00     0.022 A 
ATOM      8  C7  BZF d   1      -3.161   1.975   4.215  0.00  0.00     0.029 A 
ATOM      9  C7A BZF d   1      -2.104   2.843   4.087  0.00  0.00     0.058 A 
ENDROOT
TORSDOF 0
ENDMDL
