MODEL 1
REMARK minimizedAffinity 1.16709304
REMARK minimizedRMSD -1
REMARK  0 active torsions:
REMARK  status: ('A' for Active; 'I' for Inactive)
ROOT
ATOM      1  O1  BZF d   1       1.133  -1.435   2.874  0.00  0.00    -0.204 OA
ATOM      2  C2  BZF d   1      -0.054  -0.745   3.032  0.00  0.00     0.174 A 
ATOM      3  C3  BZF d   1      -0.523  -0.320   1.841  0.00  0.00    -0.012 A 
ATOM      4  C3A BZF d   1       0.382  -0.853   0.869  0.00  0.00    -0.107 A 
ATOM      5  C4  BZF d   1       0.439  -0.790  -0.494  0.00  0.00     0.055 A 
ATOM      6  C5  BZF d   1       1.493  -1.357  -1.138  0.00  0.00    -0.016 A 
ATOM      7  C6  BZF d   1       2.509  -1.989  -0.451  0.00  0.00     0.022 A 
ATOM      8  C7  BZF d   1       2.494  -2.081   0.901  0.00  0.00     0.029 A 
ATOM      9  C7A BZF d   1       1.413  -1.538   1.552  0.00  0.00     0.058 A 
ENDROOT
TORSDOF 0
ENDMDL
