MODEL 1
REMARK minimizedAffinity 6.50831223
REMARK minimizedRMSD -1
REMARK  0 active torsions:
REMARK  status: ('A' for Active; 'I' for Inactive)
ROOT
ATOM      1  O1  BZF d   1      -1.071  -0.543   0.058  0.00  0.00    -0.204 OA
ATOM      2  C2  BZF d   1      -0.459  -0.531  -1.181  0.00  0.00     0.174 A 
ATOM      3  C3  BZF d   1       0.876  -0.678  -1.056  0.00  0.00    -0.012 A 
ATOM      4  C3A BZF d   1       1.103  -0.881   0.342  0.00  0.00    -0.107 A 
ATOM      5  C4  BZF d   1       2.225  -1.102   1.089  0.00  0.00     0.055 A 
ATOM      6  C5  BZF d   1       2.113  -1.185   2.441  0.00  0.00    -0.016 A 
ATOM      7  C6  BZF d   1       0.898  -1.046   3.078  0.00  0.00     0.022 A 
ATOM      8  C7  BZF d   1      -0.243  -0.831   2.380  0.00  0.00     0.029 A 
ATOM      9  C7A BZF d   1      -0.138  -0.780   1.011  0.00  0.00     0.058 A 
ENDROOT
TORSDOF 0
ENDMDL
