MODEL 1
REMARK minimizedAffinity 1.92219388
REMARK minimizedRMSD -1
REMARK  0 active torsions:
REMARK  status: ('A' for Active; 'I' for Inactive)
ROOT
ATOM      1  O1  BZF d   1       2.054  -1.745  -0.038  0.00  0.00    -0.204 OA
ATOM      2  C2  BZF d   1       3.025  -2.421   0.675  0.00  0.00     0.174 A 
ATOM      3  C3  BZF d   1       2.801  -2.321   2.002  0.00  0.00    -0.012 A 
ATOM      4  C3A BZF d   1       1.564  -1.611   2.122  0.00  0.00    -0.107 A 
ATOM      5  C4  BZF d   1       0.808  -1.216   3.188  0.00  0.00     0.055 A 
ATOM      6  C5  BZF d   1      -0.310  -0.476   2.967  0.00  0.00    -0.016 A 
ATOM      7  C6  BZF d   1      -0.698  -0.109   1.695  0.00  0.00     0.022 A 
ATOM      8  C7  BZF d   1       0.017  -0.481   0.606  0.00  0.00     0.029 A 
ATOM      9  C7A BZF d   1       1.129  -1.257   0.823  0.00  0.00     0.058 A 
ENDROOT
TORSDOF 0
ENDMDL
