MODEL 1
REMARK minimizedAffinity 3.14347386
REMARK minimizedRMSD -1
REMARK  0 active torsions:
REMARK  status: ('A' for Active; 'I' for Inactive)
ROOT
ATOM      1  O1  BZF d   1       0.371  -0.316   1.251  0.00  0.00    -0.204 OA
ATOM      2  C2  BZF d   1       0.033  -0.512   2.577  0.00  0.00     0.174 A 
ATOM      3  C3  BZF d   1       0.814  -1.459   3.134  0.00  0.00    -0.012 A 
ATOM      4  C3A BZF d   1       1.756  -1.817   2.118  0.00  0.00    -0.107 A 
ATOM      5  C4  BZF d   1       2.800  -2.696   2.074  0.00  0.00     0.055 A 
ATOM      6  C5  BZF d   1       3.476  -2.860   0.906  0.00  0.00    -0.016 A 
ATOM      7  C6  BZF d   1       3.131  -2.167  -0.236  0.00  0.00     0.022 A 
ATOM      8  C7  BZF d   1       2.105  -1.281  -0.239  0.00  0.00     0.029 A 
ATOM      9  C7A BZF d   1       1.442  -1.088   0.948  0.00  0.00     0.058 A 
ENDROOT
TORSDOF 0
ENDMDL
