MODEL 1
REMARK minimizedAffinity 14.6605473
REMARK minimizedRMSD -1
REMARK  1 active torsions:
REMARK  status: ('A' for Active; 'I' for Inactive)
REMARK    1  A    between atoms: C1_2  and  C2_3 
ROOT
ATOM      1  C2  UNL d   1      -2.975  -3.878  -4.388  0.00  0.00    -0.073 A 
ATOM      2  C3  UNL d   1      -1.692  -3.379  -4.636  0.00  0.00    -0.002 A 
ATOM      3  C4  UNL d   1      -0.655  -3.619  -3.734  0.00  0.00     0.004 A 
ATOM      4  C5  UNL d   1      -0.889  -4.366  -2.579  0.00  0.00    -0.004 A 
ATOM      5  C6  UNL d   1      -2.162  -4.883  -2.319  0.00  0.00    -0.075 A 
ATOM      6  C7  UNL d   1      -2.430  -5.686  -1.080  0.00  0.00     0.076 C 
ATOM      7  C8  UNL d   1      -3.198  -4.635  -3.229  0.00  0.00     0.001 A 
ENDROOT
BRANCH   1   8
ATOM      8  C1  UNL d   1      -4.097  -3.627  -5.363  0.00  0.00     0.053 C 
ATOM      9  C   UNL d   1      -4.000  -2.250  -5.999  0.00  0.00     0.018 C 
ENDBRANCH   1   8
TORSDOF 1
ENDMDL
