MODEL 1
REMARK minimizedAffinity 7.6427412
REMARK minimizedRMSD -1
REMARK  1 active torsions:
REMARK  status: ('A' for Active; 'I' for Inactive)
REMARK    1  A    between atoms: C1_2  and  C2_3 
ROOT
ATOM      1  C2  UNL d   1      -2.676  -4.153  -3.728  0.00  0.00    -0.073 A 
ATOM      2  C3  UNL d   1      -3.099  -4.846  -4.868  0.00  0.00    -0.002 A 
ATOM      3  C4  UNL d   1      -3.535  -4.148  -5.995  0.00  0.00     0.004 A 
ATOM      4  C5  UNL d   1      -3.547  -2.753  -5.997  0.00  0.00    -0.004 A 
ATOM      5  C6  UNL d   1      -3.117  -2.043  -4.871  0.00  0.00    -0.075 A 
ATOM      6  C7  UNL d   1      -3.125  -0.543  -4.856  0.00  0.00     0.076 C 
ATOM      7  C8  UNL d   1      -2.683  -2.751  -3.742  0.00  0.00     0.001 A 
ENDROOT
BRANCH   1   8
ATOM      8  C1  UNL d   1      -2.198  -4.902  -2.511  0.00  0.00     0.053 C 
ATOM      9  C   UNL d   1      -3.189  -4.812  -1.361  0.00  0.00     0.018 C 
ENDBRANCH   1   8
TORSDOF 1
ENDMDL
