MODEL 1
REMARK minimizedAffinity 8.86023045
REMARK minimizedRMSD -1
REMARK  1 active torsions:
REMARK  status: ('A' for Active; 'I' for Inactive)
REMARK    1  A    between atoms: C1_2  and  C2_3 
ROOT
ATOM      1  C2  UNL d   1       2.338  -3.633  -1.301  0.00  0.00    -0.073 A 
ATOM      2  C3  UNL d   1       1.549  -4.333  -2.221  0.00  0.00    -0.002 A 
ATOM      3  C4  UNL d   1       0.784  -3.643  -3.162  0.00  0.00     0.004 A 
ATOM      4  C5  UNL d   1       0.805  -2.248  -3.197  0.00  0.00    -0.004 A 
ATOM      5  C6  UNL d   1       1.597  -1.532  -2.294  0.00  0.00    -0.075 A 
ATOM      6  C7  UNL d   1       1.629  -0.032  -2.318  0.00  0.00     0.076 C 
ATOM      7  C8  UNL d   1       2.360  -2.232  -1.350  0.00  0.00     0.001 A 
ENDROOT
BRANCH   1   8
ATOM      8  C1  UNL d   1       3.171  -4.374  -0.287  0.00  0.00     0.053 C 
ATOM      9  C   UNL d   1       3.615  -5.735  -0.799  0.00  0.00     0.018 C 
ENDBRANCH   1   8
TORSDOF 1
ENDMDL
