MODEL 1
REMARK minimizedAffinity 11.3783188
REMARK minimizedRMSD -1
REMARK  1 active torsions:
REMARK  status: ('A' for Active; 'I' for Inactive)
REMARK    1  A    between atoms: C1_2  and  C2_3 
ROOT
ATOM      1  C2  UNL d   1       1.888   2.783  -1.866  0.00  0.00    -0.073 A 
ATOM      2  C3  UNL d   1       1.404   2.155  -3.019  0.00  0.00    -0.002 A 
ATOM      3  C4  UNL d   1       1.439   0.764  -3.132  0.00  0.00     0.004 A 
ATOM      4  C5  UNL d   1       1.950  -0.012  -2.092  0.00  0.00    -0.004 A 
ATOM      5  C6  UNL d   1       2.427   0.596  -0.927  0.00  0.00    -0.075 A 
ATOM      6  C7  UNL d   1       2.983  -0.224   0.200  0.00  0.00     0.076 C 
ATOM      7  C8  UNL d   1       2.392   1.993  -0.822  0.00  0.00     0.001 A 
ENDROOT
BRANCH   1   8
ATOM      8  C1  UNL d   1       1.847   4.283  -1.737  0.00  0.00     0.053 C 
ATOM      9  C   UNL d   1       1.048   4.730  -0.523  0.00  0.00     0.018 C 
ENDBRANCH   1   8
TORSDOF 1
ENDMDL
