MODEL 1
REMARK minimizedAffinity 16.6586857
REMARK minimizedRMSD -1
REMARK  1 active torsions:
REMARK  status: ('A' for Active; 'I' for Inactive)
REMARK    1  A    between atoms: C1_2  and  C2_3 
ROOT
ATOM      1  C2  UNL d   1       0.073   3.423   1.802  0.00  0.00    -0.073 A 
ATOM      2  C3  UNL d   1       1.184   2.590   1.975  0.00  0.00    -0.002 A 
ATOM      3  C4  UNL d   1       1.012   1.240   2.284  0.00  0.00     0.004 A 
ATOM      4  C5  UNL d   1      -0.270   0.708   2.416  0.00  0.00    -0.004 A 
ATOM      5  C6  UNL d   1      -1.394   1.521   2.235  0.00  0.00    -0.075 A 
ATOM      6  C7  UNL d   1      -2.780   0.965   2.375  0.00  0.00     0.076 C 
ATOM      7  C8  UNL d   1      -1.212   2.877   1.928  0.00  0.00     0.001 A 
ENDROOT
BRANCH   1   8
ATOM      8  C1  UNL d   1       0.254   4.879   1.462  0.00  0.00     0.053 C 
ATOM      9  C   UNL d   1       1.115   5.073   0.224  0.00  0.00     0.018 C 
ENDBRANCH   1   8
TORSDOF 1
ENDMDL
