MODEL 1
REMARK minimizedAffinity 7.61540651
REMARK minimizedRMSD -1
REMARK  1 active torsions:
REMARK  status: ('A' for Active; 'I' for Inactive)
REMARK    1  A    between atoms: C1_2  and  C2_3 
ROOT
ATOM      1  C2  UNL d   1       0.918   4.283  -2.235  0.00  0.00    -0.073 A 
ATOM      2  C3  UNL d   1       1.991   3.394  -2.101  0.00  0.00    -0.002 A 
ATOM      3  C4  UNL d   1       2.086   2.275  -2.930  0.00  0.00     0.004 A 
ATOM      4  C5  UNL d   1       1.117   2.038  -3.904  0.00  0.00    -0.004 A 
ATOM      5  C6  UNL d   1       0.044   2.922  -4.061  0.00  0.00    -0.075 A 
ATOM      6  C7  UNL d   1      -1.009   2.680  -5.103  0.00  0.00     0.076 C 
ATOM      7  C8  UNL d   1      -0.047   4.041  -3.223  0.00  0.00     0.001 A 
ENDROOT
BRANCH   1   8
ATOM      8  C1  UNL d   1       0.814   5.495  -1.346  0.00  0.00     0.053 C 
ATOM      9  C   UNL d   1       0.658   5.117   0.118  0.00  0.00     0.018 C 
ENDBRANCH   1   8
TORSDOF 1
ENDMDL
