MODEL 1
REMARK minimizedAffinity 10.6415873
REMARK minimizedRMSD -1
REMARK  1 active torsions:
REMARK  status: ('A' for Active; 'I' for Inactive)
REMARK    1  A    between atoms: C1_2  and  C2_3 
ROOT
ATOM      1  C2  UNL d   1       2.016  -0.561  -0.722  0.00  0.00    -0.073 A 
ATOM      2  C3  UNL d   1       1.397  -0.624  -1.976  0.00  0.00    -0.002 A 
ATOM      3  C4  UNL d   1       1.335  -1.832  -2.671  0.00  0.00     0.004 A 
ATOM      4  C5  UNL d   1       1.882  -2.989  -2.118  0.00  0.00    -0.004 A 
ATOM      5  C6  UNL d   1       2.494  -2.949  -0.861  0.00  0.00    -0.075 A 
ATOM      6  C7  UNL d   1       3.090  -4.185  -0.253  0.00  0.00     0.076 C 
ATOM      7  C8  UNL d   1       2.555  -1.732  -0.170  0.00  0.00     0.001 A 
ENDROOT
BRANCH   1   8
ATOM      8  C1  UNL d   1       2.080   0.740   0.035  0.00  0.00     0.053 C 
ATOM      9  C   UNL d   1       3.324   1.542  -0.314  0.00  0.00     0.018 C 
ENDBRANCH   1   8
TORSDOF 1
ENDMDL
