MODEL 1
REMARK minimizedAffinity 7.81928825
REMARK minimizedRMSD -1
REMARK  1 active torsions:
REMARK  status: ('A' for Active; 'I' for Inactive)
REMARK    1  A    between atoms: C1_2  and  C2_3 
ROOT
ATOM      1  C2  UNL d   1       2.641   3.826  -0.293  0.00  0.00    -0.073 A 
ATOM      2  C3  UNL d   1       3.813   3.951  -1.047  0.00  0.00    -0.002 A 
ATOM      3  C4  UNL d   1       4.946   3.207  -0.718  0.00  0.00     0.004 A 
ATOM      4  C5  UNL d   1       4.918   2.326   0.363  0.00  0.00    -0.004 A 
ATOM      5  C6  UNL d   1       3.752   2.177   1.122  0.00  0.00    -0.075 A 
ATOM      6  C7  UNL d   1       3.706   1.235   2.289  0.00  0.00     0.076 C 
ATOM      7  C8  UNL d   1       2.619   2.930   0.786  0.00  0.00     0.001 A 
ENDROOT
BRANCH   1   8
ATOM      8  C1  UNL d   1       1.413   4.623  -0.649  0.00  0.00     0.053 C 
ATOM      9  C   UNL d   1       0.774   5.263   0.574  0.00  0.00     0.018 C 
ENDBRANCH   1   8
TORSDOF 1
ENDMDL
