MODEL 1
REMARK minimizedAffinity 4.89301014
REMARK minimizedRMSD -1
REMARK  1 active torsions:
REMARK  status: ('A' for Active; 'I' for Inactive)
REMARK    1  A    between atoms: C1_2  and  C2_3 
ROOT
ATOM      1  C2  UNL d   1       1.700  -4.428  -2.581  0.00  0.00    -0.073 A 
ATOM      2  C3  UNL d   1       2.765  -5.033  -1.904  0.00  0.00    -0.002 A 
ATOM      3  C4  UNL d   1       3.505  -4.311  -0.967  0.00  0.00     0.004 A 
ATOM      4  C5  UNL d   1       3.184  -2.981  -0.692  0.00  0.00    -0.004 A 
ATOM      5  C6  UNL d   1       2.116  -2.363  -1.350  0.00  0.00    -0.075 A 
ATOM      6  C7  UNL d   1       1.759  -0.934  -1.067  0.00  0.00     0.076 C 
ATOM      7  C8  UNL d   1       1.379  -3.094  -2.292  0.00  0.00     0.001 A 
ENDROOT
BRANCH   1   8
ATOM      8  C1  UNL d   1       0.894  -5.206  -3.590  0.00  0.00     0.053 C 
ATOM      9  C   UNL d   1      -0.600  -5.101  -3.328  0.00  0.00     0.018 C 
ENDBRANCH   1   8
TORSDOF 1
ENDMDL
