MODEL 1
REMARK minimizedAffinity 5.89784908
REMARK minimizedRMSD -1
REMARK  0 active torsions:
REMARK  status: ('A' for Active; 'I' for Inactive)
ROOT
ATOM      1  C   UNL d   1      -4.692   1.893   0.368  0.00  0.00    -0.002 A 
ATOM      2  C1  UNL d   1      -4.150   0.947   1.226  0.00  0.00     0.010 A 
ATOM      3  C2  UNL d   1      -2.831   1.062   1.669  0.00  0.00     0.041 A 
ATOM      4  C3  UNL d   1      -2.059   2.156   1.233  0.00  0.00    -0.075 A 
ATOM      5  S   UNL d   1      -0.421   2.503   1.646  0.00  0.00     0.015 SA
ATOM      6  C4  UNL d   1      -0.402   3.916   0.694  0.00  0.00     0.022 A 
ATOM      7  C5  UNL d   1      -1.607   4.133   0.068  0.00  0.00     0.026 A 
ATOM      8  C6  UNL d   1      -2.582   3.123   0.369  0.00  0.00    -0.082 A 
ATOM      9  C7  UNL d   1      -3.922   2.977  -0.063  0.00  0.00     0.045 A 
ENDROOT
TORSDOF 0
ENDMDL
