MODEL 1
REMARK minimizedAffinity -0.284941971
REMARK minimizedRMSD -1
REMARK  0 active torsions:
REMARK  status: ('A' for Active; 'I' for Inactive)
ROOT
ATOM      1  C   UNL d   1       5.881  -0.921  -3.231  0.00  0.00    -0.002 A 
ATOM      2  C1  UNL d   1       5.995  -1.172  -4.591  0.00  0.00     0.010 A 
ATOM      3  C2  UNL d   1       5.869  -0.135  -5.518  0.00  0.00     0.041 A 
ATOM      4  C3  UNL d   1       5.627   1.171  -5.050  0.00  0.00    -0.075 A 
ATOM      5  S   UNL d   1       5.439   2.597  -6.000  0.00  0.00     0.015 SA
ATOM      6  C4  UNL d   1       5.204   3.574  -4.623  0.00  0.00     0.022 A 
ATOM      7  C5  UNL d   1       5.264   2.846  -3.458  0.00  0.00     0.026 A 
ATOM      8  C6  UNL d   1       5.510   1.449  -3.685  0.00  0.00    -0.082 A 
ATOM      9  C7  UNL d   1       5.641   0.376  -2.771  0.00  0.00     0.045 A 
ENDROOT
TORSDOF 0
ENDMDL
