MODEL 1
REMARK minimizedAffinity 14.4143105
REMARK minimizedRMSD -1
REMARK  0 active torsions:
REMARK  status: ('A' for Active; 'I' for Inactive)
ROOT
ATOM      1  C   UNL d   1      -0.570  -0.858   1.737  0.00  0.00    -0.002 A 
ATOM      2  C1  UNL d   1      -1.517  -1.794   2.128  0.00  0.00     0.010 A 
ATOM      3  C2  UNL d   1      -1.889  -2.830   1.268  0.00  0.00     0.041 A 
ATOM      4  C3  UNL d   1      -1.285  -2.911  -0.002  0.00  0.00    -0.075 A 
ATOM      5  S   UNL d   1      -1.583  -4.093  -1.221  0.00  0.00     0.015 SA
ATOM      6  C4  UNL d   1      -0.460  -3.384  -2.289  0.00  0.00     0.022 A 
ATOM      7  C5  UNL d   1       0.137  -2.271  -1.745  0.00  0.00     0.026 A 
ATOM      8  C6  UNL d   1      -0.329  -1.980  -0.418  0.00  0.00    -0.082 A 
ATOM      9  C7  UNL d   1       0.026  -0.941   0.476  0.00  0.00     0.045 A 
ENDROOT
TORSDOF 0
ENDMDL
