MODEL 1
REMARK minimizedAffinity 12.1778202
REMARK minimizedRMSD -1
REMARK  0 active torsions:
REMARK  status: ('A' for Active; 'I' for Inactive)
ROOT
ATOM      1  C   UNL d   1      -0.708  -1.058   1.099  0.00  0.00    -0.002 A 
ATOM      2  C1  UNL d   1      -1.525  -1.986   1.730  0.00  0.00     0.010 A 
ATOM      3  C2  UNL d   1      -1.918  -3.151   1.069  0.00  0.00     0.041 A 
ATOM      4  C3  UNL d   1      -1.470  -3.372  -0.248  0.00  0.00    -0.075 A 
ATOM      5  S   UNL d   1      -1.823  -4.728  -1.252  0.00  0.00     0.015 SA
ATOM      6  C4  UNL d   1      -0.897  -4.109  -2.542  0.00  0.00     0.022 A 
ATOM      7  C5  UNL d   1      -0.325  -2.897  -2.231  0.00  0.00     0.026 A 
ATOM      8  C6  UNL d   1      -0.646  -2.453  -0.904  0.00  0.00    -0.082 A 
ATOM      9  C7  UNL d   1      -0.266  -1.281  -0.208  0.00  0.00     0.045 A 
ENDROOT
TORSDOF 0
ENDMDL
