MODEL 1
REMARK minimizedAffinity 7.95151663
REMARK minimizedRMSD -1
REMARK  0 active torsions:
REMARK  status: ('A' for Active; 'I' for Inactive)
ROOT
ATOM      1  C   UNL d   1      -0.863  -0.742   1.479  0.00  0.00    -0.002 A 
ATOM      2  C1  UNL d   1      -1.801  -1.690   1.863  0.00  0.00     0.010 A 
ATOM      3  C2  UNL d   1      -2.115  -2.759   1.021  0.00  0.00     0.041 A 
ATOM      4  C3  UNL d   1      -1.465  -2.860  -0.225  0.00  0.00    -0.075 A 
ATOM      5  S   UNL d   1      -1.690  -4.083  -1.419  0.00  0.00     0.015 SA
ATOM      6  C4  UNL d   1      -0.546  -3.376  -2.466  0.00  0.00     0.022 A 
ATOM      7  C5  UNL d   1       0.003  -2.233  -1.934  0.00  0.00     0.026 A 
ATOM      8  C6  UNL d   1      -0.516  -1.918  -0.633  0.00  0.00    -0.082 A 
ATOM      9  C7  UNL d   1      -0.220  -0.845   0.243  0.00  0.00     0.045 A 
ENDROOT
TORSDOF 0
ENDMDL
