MODEL 1
REMARK minimizedAffinity 8.18600941
REMARK minimizedRMSD -1
REMARK  0 active torsions:
REMARK  status: ('A' for Active; 'I' for Inactive)
ROOT
ATOM      1  C   UNL d   1      -1.803   3.017   1.195  0.00  0.00    -0.002 A 
ATOM      2  C1  UNL d   1      -1.785   2.210   2.324  0.00  0.00     0.010 A 
ATOM      3  C2  UNL d   1      -0.576   1.739   2.841  0.00  0.00     0.041 A 
ATOM      4  C3  UNL d   1       0.625   2.096   2.199  0.00  0.00    -0.075 A 
ATOM      5  S   UNL d   1       2.224   1.637   2.654  0.00  0.00     0.015 SA
ATOM      6  C4  UNL d   1       2.920   2.502   1.360  0.00  0.00     0.022 A 
ATOM      7  C5  UNL d   1       1.971   3.131   0.590  0.00  0.00     0.026 A 
ATOM      8  C6  UNL d   1       0.633   2.908   1.061  0.00  0.00    -0.082 A 
ATOM      9  C7  UNL d   1      -0.609   3.369   0.561  0.00  0.00     0.045 A 
ENDROOT
TORSDOF 0
ENDMDL
