MODEL 1
REMARK minimizedAffinity 16.8068581
REMARK minimizedRMSD -1
REMARK  0 active torsions:
REMARK  status: ('A' for Active; 'I' for Inactive)
ROOT
ATOM      1  C   UNL d   1      -0.546  -2.700  -1.597  0.00  0.00    -0.002 A 
ATOM      2  C1  UNL d   1      -1.058  -3.989  -1.627  0.00  0.00     0.010 A 
ATOM      3  C2  UNL d   1      -1.645  -4.547  -0.490  0.00  0.00     0.041 A 
ATOM      4  C3  UNL d   1      -1.712  -3.778   0.689  0.00  0.00    -0.075 A 
ATOM      5  S   UNL d   1      -2.388  -4.253   2.203  0.00  0.00     0.015 SA
ATOM      6  C4  UNL d   1      -2.014  -2.755   2.924  0.00  0.00     0.022 A 
ATOM      7  C5  UNL d   1      -1.388  -1.902   2.046  0.00  0.00     0.026 A 
ATOM      8  C6  UNL d   1      -1.205  -2.477   0.744  0.00  0.00    -0.082 A 
ATOM      9  C7  UNL d   1      -0.614  -1.940  -0.426  0.00  0.00     0.045 A 
ENDROOT
TORSDOF 0
ENDMDL
