MODEL 1
REMARK minimizedAffinity 14.9292564
REMARK minimizedRMSD -1
REMARK  0 active torsions:
REMARK  status: ('A' for Active; 'I' for Inactive)
ROOT
ATOM      1  C   UNL d   1      -0.141  -2.154  -1.357  0.00  0.00    -0.002 A 
ATOM      2  C1  UNL d   1      -0.914  -3.257  -1.691  0.00  0.00     0.010 A 
ATOM      3  C2  UNL d   1      -1.765  -3.839  -0.750  0.00  0.00     0.041 A 
ATOM      4  C3  UNL d   1      -1.828  -3.289   0.545  0.00  0.00    -0.075 A 
ATOM      5  S   UNL d   1      -2.798  -3.835   1.861  0.00  0.00     0.015 SA
ATOM      6  C4  UNL d   1      -2.210  -2.617   2.898  0.00  0.00     0.022 A 
ATOM      7  C5  UNL d   1      -1.294  -1.805   2.272  0.00  0.00     0.026 A 
ATOM      8  C6  UNL d   1      -1.059  -2.178   0.905  0.00  0.00    -0.082 A 
ATOM      9  C7  UNL d   1      -0.205  -1.611  -0.071  0.00  0.00     0.045 A 
ENDROOT
TORSDOF 0
ENDMDL
