MODEL 1
REMARK minimizedAffinity 11.0170879
REMARK minimizedRMSD -1
REMARK  0 active torsions:
REMARK  status: ('A' for Active; 'I' for Inactive)
ROOT
ATOM      1  C   UNL d   1      -3.645   5.997  -5.989  0.00  0.00    -0.002 A 
ATOM      2  C1  UNL d   1      -4.495   4.900  -6.000  0.00  0.00     0.010 A 
ATOM      3  C2  UNL d   1      -4.200   3.765  -5.243  0.00  0.00     0.041 A 
ATOM      4  C3  UNL d   1      -3.025   3.751  -4.465  0.00  0.00    -0.075 A 
ATOM      5  S   UNL d   1      -2.461   2.470  -3.458  0.00  0.00     0.015 SA
ATOM      6  C4  UNL d   1      -1.078   3.349  -2.989  0.00  0.00     0.022 A 
ATOM      7  C5  UNL d   1      -1.032   4.591  -3.577  0.00  0.00     0.026 A 
ATOM      8  C6  UNL d   1      -2.154   4.843  -4.437  0.00  0.00    -0.082 A 
ATOM      9  C7  UNL d   1      -2.481   5.979  -5.216  0.00  0.00     0.045 A 
ENDROOT
TORSDOF 0
ENDMDL
