MODEL 1
REMARK minimizedAffinity 13.6990576
REMARK minimizedRMSD -1
REMARK  0 active torsions:
REMARK  status: ('A' for Active; 'I' for Inactive)
ROOT
ATOM      1  C   UNL d   1       0.454   0.964  -0.512  0.00  0.00    -0.002 A 
ATOM      2  C1  UNL d   1       0.414   0.337   0.725  0.00  0.00     0.010 A 
ATOM      3  C2  UNL d   1       0.029  -1.001   0.831  0.00  0.00     0.041 A 
ATOM      4  C3  UNL d   1      -0.317  -1.706  -0.339  0.00  0.00    -0.075 A 
ATOM      5  S   UNL d   1      -0.818  -3.351  -0.453  0.00  0.00     0.015 SA
ATOM      6  C4  UNL d   1      -0.989  -3.261  -2.146  0.00  0.00     0.022 A 
ATOM      7  C5  UNL d   1      -0.676  -2.013  -2.630  0.00  0.00     0.026 A 
ATOM      8  C6  UNL d   1      -0.283  -1.096  -1.597  0.00  0.00    -0.082 A 
ATOM      9  C7  UNL d   1       0.111   0.262  -1.671  0.00  0.00     0.045 A 
ENDROOT
TORSDOF 0
ENDMDL
