MODEL 1
REMARK minimizedAffinity 3.19425416
REMARK minimizedRMSD -1
REMARK  0 active torsions:
REMARK  status: ('A' for Active; 'I' for Inactive)
ROOT
ATOM      1  C   UNL d   1       3.907   5.349  -5.918  0.00  0.00    -0.002 A 
ATOM      2  C1  UNL d   1       5.292   5.345  -5.997  0.00  0.00     0.010 A 
ATOM      3  C2  UNL d   1       6.000   4.141  -5.995  0.00  0.00     0.041 A 
ATOM      4  C3  UNL d   1       5.284   2.930  -5.914  0.00  0.00    -0.075 A 
ATOM      5  S   UNL d   1       5.939   1.336  -5.897  0.00  0.00     0.015 SA
ATOM      6  C4  UNL d   1       4.395   0.622  -5.787  0.00  0.00     0.022 A 
ATOM      7  C5  UNL d   1       3.393   1.563  -5.762  0.00  0.00     0.026 A 
ATOM      8  C6  UNL d   1       3.889   2.909  -5.836  0.00  0.00    -0.082 A 
ATOM      9  C7  UNL d   1       3.201   4.146  -5.838  0.00  0.00     0.045 A 
ENDROOT
TORSDOF 0
ENDMDL
