MODEL 1
REMARK minimizedAffinity 11.8914385
REMARK minimizedRMSD -1
REMARK  0 active torsions:
REMARK  status: ('A' for Active; 'I' for Inactive)
ROOT
ATOM      1  C   UNL d   1      -4.254   2.973  -0.049  0.00  0.00    -0.002 A 
ATOM      2  C1  UNL d   1      -3.168   3.812   0.157  0.00  0.00     0.010 A 
ATOM      3  C2  UNL d   1      -2.491   4.377  -0.925  0.00  0.00     0.041 A 
ATOM      4  C3  UNL d   1      -2.931   4.085  -2.232  0.00  0.00    -0.075 A 
ATOM      5  S   UNL d   1      -2.257   4.664  -3.709  0.00  0.00     0.015 SA
ATOM      6  C4  UNL d   1      -3.396   3.813  -4.649  0.00  0.00     0.022 A 
ATOM      7  C5  UNL d   1      -4.276   3.099  -3.871  0.00  0.00     0.026 A 
ATOM      8  C6  UNL d   1      -4.023   3.244  -2.465  0.00  0.00    -0.082 A 
ATOM      9  C7  UNL d   1      -4.687   2.685  -1.346  0.00  0.00     0.045 A 
ENDROOT
TORSDOF 0
ENDMDL
