MODEL 1
REMARK minimizedAffinity -1.60176599
REMARK minimizedRMSD -1
REMARK  1 active torsions:
REMARK  status: ('A' for Active; 'I' for Inactive)
REMARK    1  A    between atoms: N_2  and  C1_3 
ROOT
ATOM      1  C1  UNL d   1      -3.486  -0.941  -3.658  0.00  0.00     0.143 A 
ATOM      2  C2  UNL d   1      -4.852  -0.840  -3.943  0.00  0.00    -0.057 A 
ATOM      3  C3  UNL d   1      -5.306  -0.208  -5.108  0.00  0.00     0.033 A 
ATOM      4  C4  UNL d   1      -4.400   0.361  -5.996  0.00  0.00    -0.042 A 
ATOM      5  C5  UNL d   1      -3.039   0.294  -5.721  0.00  0.00     0.033 A 
ATOM      6  C6  UNL d   1      -2.591  -0.344  -4.560  0.00  0.00    -0.057 A 
ENDROOT
BRANCH   1   7
ATOM      7  N   UNL d   1      -2.977  -1.469  -2.470  0.00  0.00    -0.732 N 
ATOM      8  C   UNL d   1      -2.706  -0.610  -1.337  0.00  0.00     0.284 C 
ATOM      9  H3  UNL d   1      -3.407  -2.358  -2.224  0.00  0.00     0.395 HD
ENDBRANCH   1   7
TORSDOF 1
ENDMDL
