MODEL 1
REMARK minimizedAffinity 0.0639356598
REMARK minimizedRMSD -1
REMARK  1 active torsions:
REMARK  status: ('A' for Active; 'I' for Inactive)
REMARK    1  A    between atoms: N_2  and  C1_3 
ROOT
ATOM      1  C1  UNL d   1       4.964   3.470  -5.824  0.00  0.00     0.143 A 
ATOM      2  C2  UNL d   1       3.585   3.590  -5.621  0.00  0.00    -0.057 A 
ATOM      3  C3  UNL d   1       2.956   4.841  -5.634  0.00  0.00     0.033 A 
ATOM      4  C4  UNL d   1       3.702   6.000  -5.821  0.00  0.00    -0.042 A 
ATOM      5  C5  UNL d   1       5.077   5.906  -6.000  0.00  0.00     0.033 A 
ATOM      6  C6  UNL d   1       5.699   4.654  -5.993  0.00  0.00    -0.057 A 
ENDROOT
BRANCH   1   7
ATOM      7  N   UNL d   1       5.662   2.264  -5.725  0.00  0.00    -0.732 N 
ATOM      8  C   UNL d   1       5.171   1.195  -4.883  0.00  0.00     0.284 C 
ATOM      9  H3  UNL d   1       6.028   1.952  -6.622  0.00  0.00     0.395 HD
ENDBRANCH   1   7
TORSDOF 1
ENDMDL
