MODEL 1
REMARK minimizedAffinity 5.7963748
REMARK minimizedRMSD -1
REMARK  1 active torsions:
REMARK  status: ('A' for Active; 'I' for Inactive)
REMARK    1  A    between atoms: N_2  and  C1_3 
ROOT
ATOM      1  C1  UNL d   1       4.904   3.215  -5.241  0.00  0.00     0.143 A 
ATOM      2  C2  UNL d   1       3.752   3.945  -4.932  0.00  0.00    -0.057 A 
ATOM      3  C3  UNL d   1       3.678   5.322  -5.175  0.00  0.00     0.033 A 
ATOM      4  C4  UNL d   1       4.770   6.000  -5.707  0.00  0.00    -0.042 A 
ATOM      5  C5  UNL d   1       5.935   5.298  -5.999  0.00  0.00     0.033 A 
ATOM      6  C6  UNL d   1       6.000   3.922  -5.760  0.00  0.00    -0.057 A 
ENDROOT
BRANCH   1   7
ATOM      7  N   UNL d   1       5.074   1.863  -4.932  0.00  0.00    -0.732 N 
ATOM      8  C   UNL d   1       5.978   1.456  -3.877  0.00  0.00     0.284 C 
ATOM      9  H3  UNL d   1       4.198   1.347  -4.950  0.00  0.00     0.395 HD
ENDBRANCH   1   7
TORSDOF 1
ENDMDL
