MODEL 1
REMARK minimizedAffinity 7.98317575
REMARK minimizedRMSD -1
REMARK  1 active torsions:
REMARK  status: ('A' for Active; 'I' for Inactive)
REMARK    1  A    between atoms: N_2  and  C1_3 
ROOT
ATOM      1  C1  UNL d   1       5.485  -5.307   3.492  0.00  0.00     0.143 A 
ATOM      2  C2  UNL d   1       5.096  -5.966   4.663  0.00  0.00    -0.057 A 
ATOM      3  C3  UNL d   1       5.096  -5.309   5.900  0.00  0.00     0.033 A 
ATOM      4  C4  UNL d   1       5.514  -3.986   5.992  0.00  0.00    -0.042 A 
ATOM      5  C5  UNL d   1       5.929  -3.319   4.845  0.00  0.00     0.033 A 
ATOM      6  C6  UNL d   1       5.921  -3.978   3.611  0.00  0.00    -0.057 A 
ENDROOT
BRANCH   1   7
ATOM      7  N   UNL d   1       5.601  -5.933   2.249  0.00  0.00    -0.732 N 
ATOM      8  C   UNL d   1       5.530  -5.163   1.026  0.00  0.00     0.284 C 
ATOM      9  H3  UNL d   1       6.317  -6.657   2.244  0.00  0.00     0.395 HD
ENDBRANCH   1   7
TORSDOF 1
ENDMDL
