MODEL 1
REMARK minimizedAffinity 10.3217192
REMARK minimizedRMSD -1
REMARK  1 active torsions:
REMARK  status: ('A' for Active; 'I' for Inactive)
REMARK    1  A    between atoms: N_2  and  C1_3 
ROOT
ATOM      1  C1  UNL d   1       4.745  -4.618   1.992  0.00  0.00     0.143 A 
ATOM      2  C2  UNL d   1       5.389  -5.099   0.847  0.00  0.00    -0.057 A 
ATOM      3  C3  UNL d   1       4.861  -4.877  -0.431  0.00  0.00     0.033 A 
ATOM      4  C4  UNL d   1       3.660  -4.192  -0.584  0.00  0.00    -0.042 A 
ATOM      5  C5  UNL d   1       2.990  -3.727   0.542  0.00  0.00     0.033 A 
ATOM      6  C6  UNL d   1       3.525  -3.946   1.815  0.00  0.00    -0.057 A 
ENDROOT
BRANCH   1   7
ATOM      7  N   UNL d   1       5.168  -4.892   3.295  0.00  0.00    -0.732 N 
ATOM      8  C   UNL d   1       5.693  -3.837   4.136  0.00  0.00     0.284 C 
ATOM      9  H3  UNL d   1       4.547  -5.538   3.777  0.00  0.00     0.395 HD
ENDBRANCH   1   7
TORSDOF 1
ENDMDL
