MODEL 1
REMARK minimizedAffinity 7.20746517
REMARK minimizedRMSD -1
REMARK  1 active torsions:
REMARK  status: ('A' for Active; 'I' for Inactive)
REMARK    1  A    between atoms: N_2  and  C1_3 
ROOT
ATOM      1  C1  UNL d   1      -3.884   2.219  -3.510  0.00  0.00     0.143 A 
ATOM      2  C2  UNL d   1      -4.132   3.481  -4.060  0.00  0.00    -0.057 A 
ATOM      3  C3  UNL d   1      -5.188   3.688  -4.956  0.00  0.00     0.033 A 
ATOM      4  C4  UNL d   1      -6.000   2.626  -5.341  0.00  0.00    -0.042 A 
ATOM      5  C5  UNL d   1      -5.756   1.357  -4.826  0.00  0.00     0.033 A 
ATOM      6  C6  UNL d   1      -4.704   1.158  -3.927  0.00  0.00    -0.057 A 
ENDROOT
BRANCH   1   7
ATOM      7  N   UNL d   1      -2.790   1.928  -2.691  0.00  0.00    -0.732 N 
ATOM      8  C   UNL d   1      -2.655   0.625  -2.076  0.00  0.00     0.284 C 
ATOM      9  H3  UNL d   1      -1.920   2.308  -3.056  0.00  0.00     0.395 HD
ENDBRANCH   1   7
TORSDOF 1
ENDMDL
