MODEL 1
REMARK minimizedAffinity 13.1085215
REMARK minimizedRMSD -1
REMARK  1 active torsions:
REMARK  status: ('A' for Active; 'I' for Inactive)
REMARK    1  A    between atoms: N_2  and  C1_3 
ROOT
ATOM      1  C1  UNL d   1       2.501   5.019  -5.699  0.00  0.00     0.143 A 
ATOM      2  C2  UNL d   1       3.457   6.000  -5.985  0.00  0.00    -0.057 A 
ATOM      3  C3  UNL d   1       4.826   5.748  -5.827  0.00  0.00     0.033 A 
ATOM      4  C4  UNL d   1       5.262   4.516  -5.350  0.00  0.00    -0.042 A 
ATOM      5  C5  UNL d   1       4.328   3.535  -5.035  0.00  0.00     0.033 A 
ATOM      6  C6  UNL d   1       2.964   3.790  -5.202  0.00  0.00    -0.057 A 
ENDROOT
BRANCH   1   7
ATOM      7  N   UNL d   1       1.123   5.241  -5.742  0.00  0.00    -0.732 N 
ATOM      8  C   UNL d   1       0.222   4.441  -4.939  0.00  0.00     0.284 C 
ATOM      9  H3  UNL d   1       0.889   6.231  -5.767  0.00  0.00     0.395 HD
ENDBRANCH   1   7
TORSDOF 1
ENDMDL
