MODEL 1
REMARK minimizedAffinity 1.3863728
REMARK minimizedRMSD -1
REMARK  1 active torsions:
REMARK  status: ('A' for Active; 'I' for Inactive)
REMARK    1  A    between atoms: N_2  and  C1_3 
ROOT
ATOM      1  C1  UNL d   1       4.931   3.574  -5.860  0.00  0.00     0.143 A 
ATOM      2  C2  UNL d   1       3.538   3.453  -5.823  0.00  0.00    -0.057 A 
ATOM      3  C3  UNL d   1       2.709   4.579  -5.900  0.00  0.00     0.033 A 
ATOM      4  C4  UNL d   1       3.262   5.853  -5.986  0.00  0.00    -0.042 A 
ATOM      5  C5  UNL d   1       4.645   5.998  -5.999  0.00  0.00     0.033 A 
ATOM      6  C6  UNL d   1       5.467   4.870  -5.929  0.00  0.00    -0.057 A 
ENDROOT
BRANCH   1   7
ATOM      7  N   UNL d   1       5.810   2.501  -5.689  0.00  0.00    -0.732 N 
ATOM      8  C   UNL d   1       5.762   1.694  -4.489  0.00  0.00     0.284 C 
ATOM      9  H3  UNL d   1       5.942   1.967  -6.544  0.00  0.00     0.395 HD
ENDBRANCH   1   7
TORSDOF 1
ENDMDL
