MODEL 1
REMARK minimizedAffinity 4.50690746
REMARK minimizedRMSD -1
REMARK  1 active torsions:
REMARK  status: ('A' for Active; 'I' for Inactive)
REMARK    1  A    between atoms: N_2  and  C1_3 
ROOT
ATOM      1  C1  UNL d   1       0.746  -0.950   2.416  0.00  0.00     0.143 A 
ATOM      2  C2  UNL d   1       1.610   0.086   2.787  0.00  0.00    -0.057 A 
ATOM      3  C3  UNL d   1       1.151   1.186   3.522  0.00  0.00     0.033 A 
ATOM      4  C4  UNL d   1      -0.191   1.284   3.875  0.00  0.00    -0.042 A 
ATOM      5  C5  UNL d   1      -1.072   0.278   3.495  0.00  0.00     0.033 A 
ATOM      6  C6  UNL d   1      -0.607  -0.821   2.767  0.00  0.00    -0.057 A 
ENDROOT
BRANCH   1   7
ATOM      7  N   UNL d   1       1.120  -2.021   1.601  0.00  0.00    -0.732 N 
ATOM      8  C   UNL d   1       1.846  -1.792   0.370  0.00  0.00     0.284 C 
ATOM      9  H3  UNL d   1       1.453  -2.819   2.137  0.00  0.00     0.395 HD
ENDBRANCH   1   7
TORSDOF 1
ENDMDL
