MODEL 1
REMARK minimizedAffinity 10.0460711
REMARK minimizedRMSD -1
REMARK  1 active torsions:
REMARK  status: ('A' for Active; 'I' for Inactive)
REMARK    1  A    between atoms: N_2  and  C1_3 
ROOT
ATOM      1  C1  UNL d   1       2.541   0.108   0.904  0.00  0.00     0.143 A 
ATOM      2  C2  UNL d   1       3.726   0.186   0.164  0.00  0.00    -0.057 A 
ATOM      3  C3  UNL d   1       4.570   1.299   0.262  0.00  0.00     0.033 A 
ATOM      4  C4  UNL d   1       4.228   2.369   1.082  0.00  0.00    -0.042 A 
ATOM      5  C5  UNL d   1       3.043   2.324   1.807  0.00  0.00     0.033 A 
ATOM      6  C6  UNL d   1       2.207   1.207   1.710  0.00  0.00    -0.057 A 
ENDROOT
BRANCH   1   7
ATOM      7  N   UNL d   1       1.611  -0.927   0.776  0.00  0.00    -0.732 N 
ATOM      8  C   UNL d   1       1.997  -2.198   0.202  0.00  0.00     0.284 C 
ATOM      9  H3  UNL d   1       1.003  -1.005   1.587  0.00  0.00     0.395 HD
ENDBRANCH   1   7
TORSDOF 1
ENDMDL
