MODEL 1
REMARK minimizedAffinity 13.0216894
REMARK minimizedRMSD -1
REMARK  2 active torsions:
REMARK  status: ('A' for Active; 'I' for Inactive)
REMARK    1  A    between atoms: C1_2  and  C2_3 
REMARK    2  A    between atoms: C2_3  and  C3_4 
ROOT
ATOM      1  C3  UNL d   1       2.426  -1.481   1.589  0.00  0.00    -0.075 A 
ATOM      2  C4  UNL d   1       1.821  -0.218   1.671  0.00  0.00     0.002 A 
ATOM      3  C5  UNL d   1       1.151   0.172   2.831  0.00  0.00     0.002 A 
ATOM      4  C6  UNL d   1       1.068  -0.698   3.917  0.00  0.00    -0.004 A 
ATOM      5  C7  UNL d   1       1.651  -1.961   3.840  0.00  0.00     0.002 A 
ATOM      6  C8  UNL d   1       2.326  -2.351   2.682  0.00  0.00     0.002 A 
ENDROOT
BRANCH   1   7
ATOM      7  C2  UNL d   1       3.178  -1.897   0.347  0.00  0.00     0.056 C 
BRANCH   7   8
ATOM      8  C1  UNL d   1       4.661  -1.512   0.357  0.00  0.00     0.007 C 
ATOM      9  C   UNL d   1       5.590  -2.696   0.127  0.00  0.00     0.009 C 
ENDBRANCH   7   8
ENDBRANCH   1   7
TORSDOF 2
ENDMDL
