MODEL 1
REMARK minimizedAffinity 3.36711597
REMARK minimizedRMSD -1
REMARK  2 active torsions:
REMARK  status: ('A' for Active; 'I' for Inactive)
REMARK    1  A    between atoms: C1_2  and  C2_3 
REMARK    2  A    between atoms: C2_3  and  C3_4 
ROOT
ATOM      1  C3  UNL d   1      -3.383   2.945  -3.097  0.00  0.00    -0.075 A 
ATOM      2  C4  UNL d   1      -3.290   3.490  -4.386  0.00  0.00     0.002 A 
ATOM      3  C5  UNL d   1      -3.996   4.648  -4.718  0.00  0.00     0.002 A 
ATOM      4  C6  UNL d   1      -4.808   5.267  -3.771  0.00  0.00    -0.004 A 
ATOM      5  C7  UNL d   1      -4.921   4.725  -2.493  0.00  0.00     0.002 A 
ATOM      6  C8  UNL d   1      -4.213   3.570  -2.156  0.00  0.00     0.002 A 
ENDROOT
BRANCH   1   7
ATOM      7  C2  UNL d   1      -2.599   1.710  -2.723  0.00  0.00     0.056 C 
BRANCH   7   8
ATOM      8  C1  UNL d   1      -3.376   0.401  -2.899  0.00  0.00     0.007 C 
ATOM      9  C   UNL d   1      -3.882   0.190  -4.320  0.00  0.00     0.009 C 
ENDBRANCH   7   8
ENDBRANCH   1   7
TORSDOF 2
ENDMDL
