MODEL 1
REMARK minimizedAffinity 8.25947857
REMARK minimizedRMSD -1
REMARK  2 active torsions:
REMARK  status: ('A' for Active; 'I' for Inactive)
REMARK    1  A    between atoms: C1_2  and  C2_3 
REMARK    2  A    between atoms: C2_3  and  C3_4 
ROOT
ATOM      1  C3  UNL d   1      -3.241   2.045  -2.770  0.00  0.00    -0.075 A 
ATOM      2  C4  UNL d   1      -3.141   2.395  -4.125  0.00  0.00     0.002 A 
ATOM      3  C5  UNL d   1      -3.668   3.601  -4.586  0.00  0.00     0.002 A 
ATOM      4  C6  UNL d   1      -4.311   4.466  -3.704  0.00  0.00    -0.004 A 
ATOM      5  C7  UNL d   1      -4.432   4.122  -2.360  0.00  0.00     0.002 A 
ATOM      6  C8  UNL d   1      -3.901   2.918  -1.894  0.00  0.00     0.002 A 
ENDROOT
BRANCH   1   7
ATOM      7  C2  UNL d   1      -2.646   0.755  -2.259  0.00  0.00     0.056 C 
BRANCH   7   8
ATOM      8  C1  UNL d   1      -2.095   0.845  -0.832  0.00  0.00     0.007 C 
ATOM      9  C   UNL d   1      -0.721   1.498  -0.759  0.00  0.00     0.009 C 
ENDBRANCH   7   8
ENDBRANCH   1   7
TORSDOF 2
ENDMDL
