MODEL 1
REMARK minimizedAffinity 12.9963512
REMARK minimizedRMSD -1
REMARK  2 active torsions:
REMARK  status: ('A' for Active; 'I' for Inactive)
REMARK    1  A    between atoms: C1_2  and  C2_3 
REMARK    2  A    between atoms: C2_3  and  C3_4 
ROOT
ATOM      1  C3  UNL d   1       1.517  -2.101   3.052  0.00  0.00    -0.075 A 
ATOM      2  C4  UNL d   1       0.929  -1.642   4.239  0.00  0.00     0.002 A 
ATOM      3  C5  UNL d   1       1.125  -2.327   5.438  0.00  0.00     0.002 A 
ATOM      4  C6  UNL d   1       1.902  -3.484   5.464  0.00  0.00    -0.004 A 
ATOM      5  C7  UNL d   1       2.478  -3.958   4.288  0.00  0.00     0.002 A 
ATOM      6  C8  UNL d   1       2.287  -3.271   3.087  0.00  0.00     0.002 A 
ENDROOT
BRANCH   1   7
ATOM      7  C2  UNL d   1       1.333  -1.347   1.757  0.00  0.00     0.056 C 
BRANCH   7   8
ATOM      8  C1  UNL d   1       2.633  -0.782   1.174  0.00  0.00     0.007 C 
ATOM      9  C   UNL d   1       3.251  -1.676   0.107  0.00  0.00     0.009 C 
ENDBRANCH   7   8
ENDBRANCH   1   7
TORSDOF 2
ENDMDL
