MODEL 1
REMARK minimizedAffinity 10.2296019
REMARK minimizedRMSD -1
REMARK  2 active torsions:
REMARK  status: ('A' for Active; 'I' for Inactive)
REMARK    1  A    between atoms: C1_2  and  C2_3 
REMARK    2  A    between atoms: C2_3  and  C3_4 
ROOT
ATOM      1  C3  UNL d   1       1.509  -1.251   3.083  0.00  0.00    -0.075 A 
ATOM      2  C4  UNL d   1       1.455  -0.174   3.980  0.00  0.00     0.002 A 
ATOM      3  C5  UNL d   1       2.072  -0.261   5.228  0.00  0.00     0.002 A 
ATOM      4  C6  UNL d   1       2.740  -1.425   5.599  0.00  0.00    -0.004 A 
ATOM      5  C7  UNL d   1       2.786  -2.507   4.723  0.00  0.00     0.002 A 
ATOM      6  C8  UNL d   1       2.173  -2.422   3.471  0.00  0.00     0.002 A 
ENDROOT
BRANCH   1   7
ATOM      7  C2  UNL d   1       0.869  -1.153   1.719  0.00  0.00     0.056 C 
BRANCH   7   8
ATOM      8  C1  UNL d   1       1.797  -0.601   0.632  0.00  0.00     0.007 C 
ATOM      9  C   UNL d   1       2.747  -1.647   0.065  0.00  0.00     0.009 C 
ENDBRANCH   7   8
ENDBRANCH   1   7
TORSDOF 2
ENDMDL
