MODEL 1
REMARK minimizedAffinity 1.80272627
REMARK minimizedRMSD -1
REMARK  2 active torsions:
REMARK  status: ('A' for Active; 'I' for Inactive)
REMARK    1  A    between atoms: C1_2  and  C2_3 
REMARK    2  A    between atoms: C2_3  and  C3_4 
ROOT
ATOM      1  C3  UNL d   1       2.100  -2.372   2.659  0.00  0.00    -0.075 A 
ATOM      2  C4  UNL d   1       1.473  -1.173   3.029  0.00  0.00     0.002 A 
ATOM      3  C5  UNL d   1       1.197  -0.902   4.369  0.00  0.00     0.002 A 
ATOM      4  C6  UNL d   1       1.535  -1.828   5.354  0.00  0.00    -0.004 A 
ATOM      5  C7  UNL d   1       2.143  -3.029   4.997  0.00  0.00     0.002 A 
ATOM      6  C8  UNL d   1       2.424  -3.301   3.657  0.00  0.00     0.002 A 
ENDROOT
BRANCH   1   7
ATOM      7  C2  UNL d   1       2.428  -2.658   1.213  0.00  0.00     0.056 C 
BRANCH   7   8
ATOM      8  C1  UNL d   1       3.111  -1.495   0.486  0.00  0.00     0.007 C 
ATOM      9  C   UNL d   1       3.983  -1.945  -0.679  0.00  0.00     0.009 C 
ENDBRANCH   7   8
ENDBRANCH   1   7
TORSDOF 2
ENDMDL
