MODEL 1
REMARK minimizedAffinity 8.65736771
REMARK minimizedRMSD -1
REMARK  2 active torsions:
REMARK  status: ('A' for Active; 'I' for Inactive)
REMARK    1  A    between atoms: C1_2  and  C2_3 
REMARK    2  A    between atoms: C2_3  and  C3_4 
ROOT
ATOM      1  C3  UNL d   1      -3.704   3.330  -2.875  0.00  0.00    -0.075 A 
ATOM      2  C4  UNL d   1      -4.817   2.976  -2.099  0.00  0.00     0.002 A 
ATOM      3  C5  UNL d   1      -5.959   3.778  -2.089  0.00  0.00     0.002 A 
ATOM      4  C6  UNL d   1      -5.999   4.947  -2.845  0.00  0.00    -0.004 A 
ATOM      5  C7  UNL d   1      -4.893   5.318  -3.607  0.00  0.00     0.002 A 
ATOM      6  C8  UNL d   1      -3.751   4.515  -3.622  0.00  0.00     0.002 A 
ENDROOT
BRANCH   1   7
ATOM      7  C2  UNL d   1      -2.477   2.451  -2.913  0.00  0.00     0.056 C 
BRANCH   7   8
ATOM      8  C1  UNL d   1      -2.578   1.200  -2.034  0.00  0.00     0.007 C 
ATOM      9  C   UNL d   1      -2.606  -0.095  -2.834  0.00  0.00     0.009 C 
ENDBRANCH   7   8
ENDBRANCH   1   7
TORSDOF 2
ENDMDL
