MODEL 1
REMARK minimizedAffinity -1.27149749
REMARK minimizedRMSD -1
REMARK  0 active torsions:
REMARK  status: ('A' for Active; 'I' for Inactive)
ROOT
ATOM      1  C   UNL d   1      -1.648  -5.993  -2.793  0.00  0.00     0.172 C 
ATOM      2  N   UNL d   1      -0.746  -5.986  -3.921  0.00  0.00    -0.070 N 
ATOM      3  C1  UNL d   1      -1.116  -5.998  -5.239  0.00  0.00    -0.004 A 
ATOM      4  C2  UNL d   1       0.033  -5.985  -6.000  0.00  0.00    -0.047 A 
ATOM      5  C3  UNL d   1       1.132  -5.966  -5.108  0.00  0.00    -0.047 A 
ATOM      6  C4  UNL d   1       0.621  -5.967  -3.827  0.00  0.00    -0.004 A 
ENDROOT
TORSDOF 0
ENDMDL
