MODEL 1
REMARK minimizedAffinity 1.22452223
REMARK minimizedRMSD -1
REMARK  0 active torsions:
REMARK  status: ('A' for Active; 'I' for Inactive)
ROOT
ATOM      1  C   UNL d   1       0.447  -2.806   1.284  0.00  0.00     0.172 C 
ATOM      2  N   UNL d   1       0.960  -1.518   0.883  0.00  0.00    -0.070 N 
ATOM      3  C1  UNL d   1       0.286  -0.585   0.141  0.00  0.00    -0.004 A 
ATOM      4  C2  UNL d   1       1.115   0.503  -0.025  0.00  0.00    -0.047 A 
ATOM      5  C3  UNL d   1       2.331   0.214   0.639  0.00  0.00    -0.047 A 
ATOM      6  C4  UNL d   1       2.207  -1.043   1.193  0.00  0.00    -0.004 A 
ENDROOT
TORSDOF 0
ENDMDL
