MODEL 1
REMARK minimizedAffinity -0.123223305
REMARK minimizedRMSD -1
REMARK  0 active torsions:
REMARK  status: ('A' for Active; 'I' for Inactive)
ROOT
ATOM      1  C   UNL d   1      -1.269  -5.973  -2.781  0.00  0.00     0.172 C 
ATOM      2  N   UNL d   1      -0.366  -5.981  -3.907  0.00  0.00    -0.070 N 
ATOM      3  C1  UNL d   1       1.002  -5.983  -3.834  0.00  0.00    -0.004 A 
ATOM      4  C2  UNL d   1       1.494  -5.993  -5.121  0.00  0.00    -0.047 A 
ATOM      5  C3  UNL d   1       0.384  -5.996  -5.999  0.00  0.00    -0.047 A 
ATOM      6  C4  UNL d   1      -0.755  -5.989  -5.221  0.00  0.00    -0.004 A 
ENDROOT
TORSDOF 0
ENDMDL
