MODEL 1
REMARK minimizedAffinity -1.18890095
REMARK minimizedRMSD -1
REMARK  0 active torsions:
REMARK  status: ('A' for Active; 'I' for Inactive)
ROOT
ATOM      1  C   UNL d   1      -1.034  -5.989  -2.380  0.00  0.00     0.172 C 
ATOM      2  N   UNL d   1      -0.815  -5.992  -3.807  0.00  0.00    -0.070 N 
ATOM      3  C1  UNL d   1      -1.794  -5.999  -4.765  0.00  0.00    -0.004 A 
ATOM      4  C2  UNL d   1      -1.178  -6.000  -5.998  0.00  0.00    -0.047 A 
ATOM      5  C3  UNL d   1       0.219  -5.994  -5.773  0.00  0.00    -0.047 A 
ATOM      6  C4  UNL d   1       0.416  -5.989  -4.409  0.00  0.00    -0.004 A 
ENDROOT
TORSDOF 0
ENDMDL
