MODEL 1
REMARK minimizedAffinity 1.03420305
REMARK minimizedRMSD -1
REMARK  0 active torsions:
REMARK  status: ('A' for Active; 'I' for Inactive)
ROOT
ATOM      1  C   UNL d   1       5.728   1.273  -1.990  0.00  0.00     0.172 C 
ATOM      2  N   UNL d   1       5.242   2.426  -1.270  0.00  0.00    -0.070 N 
ATOM      3  C1  UNL d   1       5.999   3.495  -0.872  0.00  0.00    -0.004 A 
ATOM      4  C2  UNL d   1       5.169   4.380  -0.218  0.00  0.00    -0.047 A 
ATOM      5  C3  UNL d   1       3.868   3.823  -0.223  0.00  0.00    -0.047 A 
ATOM      6  C4  UNL d   1       3.942   2.613  -0.881  0.00  0.00    -0.004 A 
ENDROOT
TORSDOF 0
ENDMDL
