MODEL 1
REMARK minimizedAffinity -2.11387801
REMARK minimizedRMSD -1
REMARK  0 active torsions:
REMARK  status: ('A' for Active; 'I' for Inactive)
ROOT
ATOM      1  C   UNL d   1      -0.759  -5.999  -2.407  0.00  0.00     0.172 C 
ATOM      2  N   UNL d   1      -0.535  -5.872  -3.828  0.00  0.00    -0.070 N 
ATOM      3  C1  UNL d   1      -1.497  -5.610  -4.767  0.00  0.00    -0.004 A 
ATOM      4  C2  UNL d   1      -0.882  -5.567  -6.000  0.00  0.00    -0.047 A 
ATOM      5  C3  UNL d   1       0.496  -5.814  -5.795  0.00  0.00    -0.047 A 
ATOM      6  C4  UNL d   1       0.683  -5.999  -4.441  0.00  0.00    -0.004 A 
ENDROOT
TORSDOF 0
ENDMDL
