MODEL 1
REMARK minimizedAffinity -0.744028807
REMARK minimizedRMSD -1
REMARK  0 active torsions:
REMARK  status: ('A' for Active; 'I' for Inactive)
ROOT
ATOM      1  C   UNL d   1       3.153  -5.904  -4.510  0.00  0.00     0.172 C 
ATOM      2  N   UNL d   1       1.732  -5.884  -4.763  0.00  0.00    -0.070 N 
ATOM      3  C1  UNL d   1       0.751  -6.000  -3.814  0.00  0.00    -0.004 A 
ATOM      4  C2  UNL d   1      -0.467  -5.932  -4.456  0.00  0.00    -0.047 A 
ATOM      5  C3  UNL d   1      -0.209  -5.771  -5.838  0.00  0.00    -0.047 A 
ATOM      6  C4  UNL d   1       1.160  -5.744  -6.000  0.00  0.00    -0.004 A 
ENDROOT
TORSDOF 0
ENDMDL
