MODEL 1
REMARK minimizedAffinity 1.20109105
REMARK minimizedRMSD -1
REMARK  0 active torsions:
REMARK  status: ('A' for Active; 'I' for Inactive)
ROOT
ATOM      1  C   UNL d   1       1.276  -2.041   4.226  0.00  0.00     0.172 C 
ATOM      2  N   UNL d   1       1.620  -1.294   3.039  0.00  0.00    -0.070 N 
ATOM      3  C1  UNL d   1       0.874  -1.227   1.893  0.00  0.00    -0.004 A 
ATOM      4  C2  UNL d   1       1.542  -0.417   1.001  0.00  0.00    -0.047 A 
ATOM      5  C3  UNL d   1       2.731   0.018   1.633  0.00  0.00    -0.047 A 
ATOM      6  C4  UNL d   1       2.755  -0.540   2.893  0.00  0.00    -0.004 A 
ENDROOT
TORSDOF 0
ENDMDL
