MODEL 1
REMARK minimizedAffinity -0.681637049
REMARK minimizedRMSD -1
REMARK  0 active torsions:
REMARK  status: ('A' for Active; 'I' for Inactive)
ROOT
ATOM      1  C   UNL d   1      -3.666  -6.000  -2.794  0.00  0.00     0.172 C 
ATOM      2  N   UNL d   1      -2.427  -5.990  -3.536  0.00  0.00    -0.070 N 
ATOM      3  C1  UNL d   1      -2.314  -5.998  -4.901  0.00  0.00    -0.004 A 
ATOM      4  C2  UNL d   1      -0.972  -5.984  -5.213  0.00  0.00    -0.047 A 
ATOM      5  C3  UNL d   1      -0.254  -5.967  -3.994  0.00  0.00    -0.047 A 
ATOM      6  C4  UNL d   1      -1.179  -5.971  -2.972  0.00  0.00    -0.004 A 
ENDROOT
TORSDOF 0
ENDMDL
