MODEL 1
REMARK minimizedAffinity -2.49536753
REMARK minimizedRMSD -1
REMARK  0 active torsions:
REMARK  status: ('A' for Active; 'I' for Inactive)
ROOT
ATOM      1  C   UNL d   1       0.350  -5.989  -4.873  0.00  0.00     0.172 C 
ATOM      2  N   UNL d   1      -0.965  -5.993  -4.277  0.00  0.00    -0.070 N 
ATOM      3  C1  UNL d   1      -1.232  -5.997  -2.934  0.00  0.00    -0.004 A 
ATOM      4  C2  UNL d   1      -2.601  -5.999  -2.776  0.00  0.00    -0.047 A 
ATOM      5  C3  UNL d   1      -3.177  -5.997  -4.069  0.00  0.00    -0.047 A 
ATOM      6  C4  UNL d   1      -2.141  -5.993  -4.979  0.00  0.00    -0.004 A 
ENDROOT
TORSDOF 0
ENDMDL
