MODEL 1
REMARK minimizedAffinity -2.88337731
REMARK minimizedRMSD -1
REMARK  0 active torsions:
REMARK  status: ('A' for Active; 'I' for Inactive)
ROOT
ATOM      1  C   UNL d   1      -0.760  -5.995  -5.991  0.00  0.00     0.172 C 
ATOM      2  N   UNL d   1      -1.278  -5.984  -4.643  0.00  0.00    -0.070 N 
ATOM      3  C1  UNL d   1      -0.526  -6.000  -3.499  0.00  0.00    -0.004 A 
ATOM      4  C2  UNL d   1      -1.390  -5.982  -2.426  0.00  0.00    -0.047 A 
ATOM      5  C3  UNL d   1      -2.707  -5.956  -2.943  0.00  0.00    -0.047 A 
ATOM      6  C4  UNL d   1      -2.609  -5.958  -4.318  0.00  0.00    -0.004 A 
ENDROOT
TORSDOF 0
ENDMDL
