MODEL 1
REMARK minimizedAffinity -1.64846921
REMARK minimizedRMSD -1
REMARK  0 active torsions:
REMARK  status: ('A' for Active; 'I' for Inactive)
ROOT
ATOM      1  C   UNL d   1       0.014  -5.924  -6.000  0.00  0.00     0.172 C 
ATOM      2  N   UNL d   1      -0.632  -5.850  -4.710  0.00  0.00    -0.070 N 
ATOM      3  C1  UNL d   1      -1.965  -5.621  -4.497  0.00  0.00    -0.004 A 
ATOM      4  C2  UNL d   1      -2.182  -5.626  -3.136  0.00  0.00    -0.047 A 
ATOM      5  C3  UNL d   1      -0.935  -5.865  -2.510  0.00  0.00    -0.047 A 
ATOM      6  C4  UNL d   1       0.007  -6.000  -3.508  0.00  0.00    -0.004 A 
ENDROOT
TORSDOF 0
ENDMDL
