MODEL 1
REMARK minimizedAffinity -2.26934457
REMARK minimizedRMSD -1
REMARK  0 active torsions:
REMARK  status: ('A' for Active; 'I' for Inactive)
ROOT
ATOM      1  C   UNL d   1       0.021  -5.959  -5.955  0.00  0.00     0.172 C 
ATOM      2  N   UNL d   1      -0.874  -5.972  -4.821  0.00  0.00    -0.070 N 
ATOM      3  C1  UNL d   1      -2.241  -5.967  -4.884  0.00  0.00    -0.004 A 
ATOM      4  C2  UNL d   1      -2.723  -5.984  -3.593  0.00  0.00    -0.047 A 
ATOM      5  C3  UNL d   1      -1.606  -6.000  -2.724  0.00  0.00    -0.047 A 
ATOM      6  C4  UNL d   1      -0.474  -5.992  -3.511  0.00  0.00    -0.004 A 
ENDROOT
TORSDOF 0
ENDMDL
