MODEL 1
REMARK minimizedAffinity -1.98341
REMARK minimizedRMSD -1
REMARK  0 active torsions:
REMARK  status: ('A' for Active; 'I' for Inactive)
ROOT
ATOM      1  C   UNL d   1      -2.615  -5.982  -5.462  0.00  0.00     0.172 C 
ATOM      2  N   UNL d   1      -1.225  -5.988  -5.070  0.00  0.00    -0.070 N 
ATOM      3  C1  UNL d   1      -0.155  -5.990  -5.923  0.00  0.00    -0.004 A 
ATOM      4  C2  UNL d   1       0.994  -5.995  -5.161  0.00  0.00    -0.047 A 
ATOM      5  C3  UNL d   1       0.599  -5.998  -3.802  0.00  0.00    -0.047 A 
ATOM      6  C4  UNL d   1      -0.779  -5.993  -3.774  0.00  0.00    -0.004 A 
ENDROOT
TORSDOF 0
ENDMDL
