MODEL 1
REMARK minimizedAffinity -2.1248908
REMARK minimizedRMSD -1
REMARK  0 active torsions:
REMARK  status: ('A' for Active; 'I' for Inactive)
ROOT
ATOM      1  C   UNL d   1       1.114  -5.886  -5.997  0.00  0.00     0.172 C 
ATOM      2  N   UNL d   1       0.042  -5.924  -5.030  0.00  0.00    -0.070 N 
ATOM      3  C1  UNL d   1       0.195  -5.941  -3.669  0.00  0.00    -0.004 A 
ATOM      4  C2  UNL d   1      -1.062  -5.976  -3.104  0.00  0.00    -0.047 A 
ATOM      5  C3  UNL d   1      -2.002  -5.982  -4.161  0.00  0.00    -0.047 A 
ATOM      6  C4  UNL d   1      -1.291  -5.949  -5.343  0.00  0.00    -0.004 A 
ENDROOT
TORSDOF 0
ENDMDL
