MODEL 1
REMARK minimizedAffinity 8.26232433
REMARK minimizedRMSD -1
REMARK  0 active torsions:
REMARK  status: ('A' for Active; 'I' for Inactive)
ROOT
ATOM      1  C   UNL d   1      -4.858   2.622  -1.855  0.00  0.00     0.023 A 
ATOM      2  C1  UNL d   1      -3.878   3.524  -2.270  0.00  0.00     0.003 A 
ATOM      3  C2  UNL d   1      -2.546   3.116  -2.363  0.00  0.00     0.048 A 
ATOM      4  C3  UNL d   1      -2.200   1.804  -2.040  0.00  0.00     0.023 A 
ATOM      5  C4  UNL d   1      -3.178   0.897  -1.626  0.00  0.00     0.048 A 
ATOM      6  C5  UNL d   1      -4.508   1.310  -1.533  0.00  0.00     0.003 A 
ATOM      7  I   UNL d   1      -0.218   1.194  -2.178  0.00  0.00    -0.146 I 
ENDROOT
TORSDOF 0
ENDMDL
