MODEL 1
REMARK minimizedAffinity 3.52720761
REMARK minimizedRMSD -1
REMARK  0 active torsions:
REMARK  status: ('A' for Active; 'I' for Inactive)
ROOT
ATOM      1  C   UNL d   1      -0.485   1.510  -2.777  0.00  0.00     0.023 A 
ATOM      2  C1  UNL d   1      -0.004   0.373  -2.129  0.00  0.00     0.003 A 
ATOM      3  C2  UNL d   1       0.298   0.419  -0.766  0.00  0.00     0.048 A 
ATOM      4  C3  UNL d   1       0.116   1.607  -0.058  0.00  0.00     0.023 A 
ATOM      5  C4  UNL d   1      -0.365   2.747  -0.702  0.00  0.00     0.048 A 
ATOM      6  C5  UNL d   1      -0.665   2.696  -2.065  0.00  0.00     0.003 A 
ATOM      7  I   UNL d   1       0.564   1.678   1.970  0.00  0.00    -0.146 I 
ENDROOT
TORSDOF 0
ENDMDL
