MODEL 1
REMARK minimizedAffinity 3.54023552
REMARK minimizedRMSD -1
REMARK  0 active torsions:
REMARK  status: ('A' for Active; 'I' for Inactive)
ROOT
ATOM      1  C   UNL d   1      -0.451   2.046   1.956  0.00  0.00     0.023 A 
ATOM      2  C1  UNL d   1       0.850   1.706   1.588  0.00  0.00     0.003 A 
ATOM      3  C2  UNL d   1       1.518   0.673   2.249  0.00  0.00     0.048 A 
ATOM      4  C3  UNL d   1       0.877  -0.017   3.277  0.00  0.00     0.023 A 
ATOM      5  C4  UNL d   1      -0.426   0.319   3.649  0.00  0.00     0.048 A 
ATOM      6  C5  UNL d   1      -1.089   1.353   2.986  0.00  0.00     0.003 A 
ATOM      7  I   UNL d   1       1.868  -1.555   4.263  0.00  0.00    -0.146 I 
ENDROOT
TORSDOF 0
ENDMDL
