MODEL 1
REMARK minimizedAffinity 6.31382704
REMARK minimizedRMSD -1
REMARK  0 active torsions:
REMARK  status: ('A' for Active; 'I' for Inactive)
ROOT
ATOM      1  C   UNL d   1      -4.504   3.940  -1.948  0.00  0.00     0.023 A 
ATOM      2  C1  UNL d   1      -3.419   4.501  -2.622  0.00  0.00     0.003 A 
ATOM      3  C2  UNL d   1      -2.282   3.732  -2.880  0.00  0.00     0.048 A 
ATOM      4  C3  UNL d   1      -2.238   2.402  -2.463  0.00  0.00     0.023 A 
ATOM      5  C4  UNL d   1      -3.322   1.836  -1.789  0.00  0.00     0.048 A 
ATOM      6  C5  UNL d   1      -4.456   2.609  -1.533  0.00  0.00     0.003 A 
ATOM      7  I   UNL d   1      -0.548   1.255  -2.847  0.00  0.00    -0.146 I 
ENDROOT
TORSDOF 0
ENDMDL
