MODEL 1
REMARK minimizedAffinity -3.44501185
REMARK minimizedRMSD -1
REMARK  0 active torsions:
REMARK  status: ('A' for Active; 'I' for Inactive)
ROOT
ATOM      1  C   UNL d   1      -4.672  -1.837   5.994  0.00  0.00     0.023 A 
ATOM      2  C1  UNL d   1      -5.618  -0.819   5.873  0.00  0.00     0.003 A 
ATOM      3  C2  UNL d   1      -6.000  -0.365   4.609  0.00  0.00     0.048 A 
ATOM      4  C3  UNL d   1      -5.432  -0.935   3.470  0.00  0.00     0.023 A 
ATOM      5  C4  UNL d   1      -4.486  -1.954   3.586  0.00  0.00     0.048 A 
ATOM      6  C5  UNL d   1      -4.107  -2.404   4.852  0.00  0.00     0.003 A 
ATOM      7  I   UNL d   1      -5.999  -0.261   1.587  0.00  0.00    -0.146 I 
ENDROOT
TORSDOF 0
ENDMDL
