MODEL 1
REMARK minimizedAffinity 5.33306265
REMARK minimizedRMSD -1
REMARK  0 active torsions:
REMARK  status: ('A' for Active; 'I' for Inactive)
ROOT
ATOM      1  C   UNL d   1      -2.180  -0.937  -3.107  0.00  0.00     0.023 A 
ATOM      2  C1  UNL d   1      -0.804  -0.709  -3.070  0.00  0.00     0.003 A 
ATOM      3  C2  UNL d   1      -0.274   0.223  -2.175  0.00  0.00     0.048 A 
ATOM      4  C3  UNL d   1      -1.124   0.922  -1.320  0.00  0.00     0.023 A 
ATOM      5  C4  UNL d   1      -2.501   0.697  -1.353  0.00  0.00     0.048 A 
ATOM      6  C5  UNL d   1      -3.027  -0.235  -2.250  0.00  0.00     0.003 A 
ATOM      7  I   UNL d   1      -0.337   2.309   0.013  0.00  0.00    -0.146 I 
ENDROOT
TORSDOF 0
ENDMDL
