MODEL 1
REMARK minimizedAffinity 2.56632829
REMARK minimizedRMSD -1
REMARK  0 active torsions:
REMARK  status: ('A' for Active; 'I' for Inactive)
ROOT
ATOM      1  C   UNL d   1       5.543  -5.727  -2.226  0.00  0.00     0.023 A 
ATOM      2  C1  UNL d   1       4.578  -5.159  -3.058  0.00  0.00     0.003 A 
ATOM      3  C2  UNL d   1       3.936  -3.978  -2.679  0.00  0.00     0.048 A 
ATOM      4  C3  UNL d   1       4.265  -3.370  -1.468  0.00  0.00     0.023 A 
ATOM      5  C4  UNL d   1       5.231  -3.934  -0.633  0.00  0.00     0.048 A 
ATOM      6  C5  UNL d   1       5.869  -5.115  -1.016  0.00  0.00     0.003 A 
ATOM      7  I   UNL d   1       3.310  -1.613  -0.902  0.00  0.00    -0.146 I 
ENDROOT
TORSDOF 0
ENDMDL
