MODEL 1
REMARK minimizedAffinity 7.58605576
REMARK minimizedRMSD -1
REMARK  0 active torsions:
REMARK  status: ('A' for Active; 'I' for Inactive)
ROOT
ATOM      1  C   UNL d   1       1.262  -0.098   2.533  0.00  0.00     0.023 A 
ATOM      2  C1  UNL d   1       1.506  -1.077   1.570  0.00  0.00     0.003 A 
ATOM      3  C2  UNL d   1       0.892  -0.994   0.318  0.00  0.00     0.048 A 
ATOM      4  C3  UNL d   1       0.038   0.071   0.036  0.00  0.00     0.023 A 
ATOM      5  C4  UNL d   1      -0.208   1.054   0.996  0.00  0.00     0.048 A 
ATOM      6  C5  UNL d   1       0.407   0.966   2.247  0.00  0.00     0.003 A 
ATOM      7  I   UNL d   1      -0.876   0.196  -1.826  0.00  0.00    -0.146 I 
ENDROOT
TORSDOF 0
ENDMDL
