MODEL 1
REMARK minimizedAffinity 9.56310463
REMARK minimizedRMSD -1
REMARK  0 active torsions:
REMARK  status: ('A' for Active; 'I' for Inactive)
ROOT
ATOM      1  C   UNL d   1       1.004   0.318  -1.160  0.00  0.00     0.023 A 
ATOM      2  C1  UNL d   1       1.935  -0.303  -0.326  0.00  0.00     0.003 A 
ATOM      3  C2  UNL d   1       1.773  -0.257   1.060  0.00  0.00     0.048 A 
ATOM      4  C3  UNL d   1       0.677   0.411   1.606  0.00  0.00     0.023 A 
ATOM      5  C4  UNL d   1      -0.257   1.033   0.776  0.00  0.00     0.048 A 
ATOM      6  C5  UNL d   1      -0.091   0.985  -0.609  0.00  0.00     0.003 A 
ATOM      7  I   UNL d   1       0.434   0.481   3.669  0.00  0.00    -0.146 I 
ENDROOT
TORSDOF 0
ENDMDL
