MODEL 1
REMARK minimizedAffinity -2.82615519
REMARK minimizedRMSD -1
REMARK  0 active torsions:
REMARK  status: ('A' for Active; 'I' for Inactive)
ROOT
ATOM      1  C4' PXY d   1      -0.018  -2.462  -2.577  0.00  0.00     0.077 C 
ATOM      2  C1' PXY d   1      -0.111   1.964   1.140  0.00  0.00     0.077 C 
ATOM      3  C1  PXY d   1      -0.095   0.810   0.157  0.00  0.00    -0.082 A 
ATOM      4  C2  PXY d   1       0.200  -0.408   0.584  0.00  0.00     0.003 A 
ATOM      5  C3  PXY d   1       0.250  -1.458  -0.297  0.00  0.00     0.003 A 
ATOM      6  C4  PXY d   1      -0.056  -1.269  -1.618  0.00  0.00    -0.082 A 
ATOM      7  C5  PXY d   1      -0.367  -0.031  -2.059  0.00  0.00     0.003 A 
ATOM      8  C6  PXY d   1      -0.373   1.028  -1.156  0.00  0.00     0.003 A 
ENDROOT
TORSDOF 0
ENDMDL
