MODEL 1
REMARK minimizedAffinity 6.88226223
REMARK minimizedRMSD -1
REMARK  0 active torsions:
REMARK  status: ('A' for Active; 'I' for Inactive)
ROOT
ATOM      1  C4' PXY d   1       0.736   0.216   0.039  0.00  0.00     0.077 C 
ATOM      2  C1' PXY d   1       5.416  -1.065   3.181  0.00  0.00     0.077 C 
ATOM      3  C1  PXY d   1       4.196  -0.726   2.347  0.00  0.00    -0.082 A 
ATOM      4  C2  PXY d   1       3.077  -0.353   2.946  0.00  0.00     0.003 A 
ATOM      5  C3  PXY d   1       1.955  -0.074   2.209  0.00  0.00     0.003 A 
ATOM      6  C4  PXY d   1       1.995  -0.126   0.841  0.00  0.00    -0.082 A 
ATOM      7  C5  PXY d   1       3.136  -0.495   0.222  0.00  0.00     0.003 A 
ATOM      8  C6  PXY d   1       4.252  -0.814   0.990  0.00  0.00     0.003 A 
ENDROOT
TORSDOF 0
ENDMDL
