MODEL 1
REMARK minimizedAffinity -2.14236093
REMARK minimizedRMSD -1
REMARK  0 active torsions:
REMARK  status: ('A' for Active; 'I' for Inactive)
ROOT
ATOM      1  C4' PXY d   1       0.609  -1.356  -0.748  0.00  0.00     0.077 C 
ATOM      2  C1' PXY d   1      -1.607   3.401   1.676  0.00  0.00     0.077 C 
ATOM      3  C1  PXY d   1      -1.017   2.153   1.050  0.00  0.00    -0.082 A 
ATOM      4  C2  PXY d   1      -1.227   1.903  -0.232  0.00  0.00     0.003 A 
ATOM      5  C3  PXY d   1      -0.727   0.763  -0.807  0.00  0.00     0.003 A 
ATOM      6  C4  PXY d   1       0.040  -0.104  -0.075  0.00  0.00    -0.082 A 
ATOM      7  C5  PXY d   1       0.267   0.150   1.231  0.00  0.00     0.003 A 
ATOM      8  C6  PXY d   1      -0.283   1.292   1.806  0.00  0.00     0.003 A 
ENDROOT
TORSDOF 0
ENDMDL
