MODEL 1
REMARK minimizedAffinity -0.342911601
REMARK minimizedRMSD -1
REMARK  0 active torsions:
REMARK  status: ('A' for Active; 'I' for Inactive)
ROOT
ATOM      1  C4' PXY d   1       2.961  -1.077   0.481  0.00  0.00     0.077 C 
ATOM      2  C1' PXY d   1      -1.442   2.494   1.613  0.00  0.00     0.077 C 
ATOM      3  C1  PXY d   1      -0.295   1.551   1.308  0.00  0.00    -0.082 A 
ATOM      4  C2  PXY d   1       0.658   1.368   2.207  0.00  0.00     0.003 A 
ATOM      5  C3  PXY d   1       1.720   0.544   1.934  0.00  0.00     0.003 A 
ATOM      6  C4  PXY d   1       1.778  -0.142   0.750  0.00  0.00    -0.082 A 
ATOM      7  C5  PXY d   1       0.804   0.032  -0.168  0.00  0.00     0.003 A 
ATOM      8  C6  PXY d   1      -0.243   0.905   0.112  0.00  0.00     0.003 A 
ENDROOT
TORSDOF 0
ENDMDL
