MODEL 1
REMARK minimizedAffinity -4.10900545
REMARK minimizedRMSD -1
REMARK  0 active torsions:
REMARK  status: ('A' for Active; 'I' for Inactive)
ROOT
ATOM      1  C4' PXY d   1       1.507  -0.039   2.953  0.00  0.00     0.077 C 
ATOM      2  C1' PXY d   1      -1.461   2.136  -1.505  0.00  0.00     0.077 C 
ATOM      3  C1  PXY d   1      -0.680   1.578  -0.332  0.00  0.00    -0.082 A 
ATOM      4  C2  PXY d   1      -0.173   0.358  -0.405  0.00  0.00     0.003 A 
ATOM      5  C3  PXY d   1       0.509  -0.175   0.659  0.00  0.00     0.003 A 
ATOM      6  C4  PXY d   1       0.719   0.569   1.789  0.00  0.00    -0.082 A 
ATOM      7  C5  PXY d   1       0.214   1.819   1.867  0.00  0.00     0.003 A 
ATOM      8  C6  PXY d   1      -0.510   2.325   0.792  0.00  0.00     0.003 A 
ENDROOT
TORSDOF 0
ENDMDL
