MODEL 1
REMARK minimizedAffinity -1.97067344
REMARK minimizedRMSD -1
REMARK  0 active torsions:
REMARK  status: ('A' for Active; 'I' for Inactive)
ROOT
ATOM      1  C4' PXY d   1       0.257  -1.230  -1.418  0.00  0.00     0.077 C 
ATOM      2  C1' PXY d   1      -0.933   3.440   1.774  0.00  0.00     0.077 C 
ATOM      3  C1  PXY d   1      -0.627   2.221   0.927  0.00  0.00    -0.082 A 
ATOM      4  C2  PXY d   1      -0.360   1.066   1.515  0.00  0.00     0.003 A 
ATOM      5  C3  PXY d   1      -0.051  -0.039   0.765  0.00  0.00     0.003 A 
ATOM      6  C4  PXY d   1      -0.066   0.025  -0.603  0.00  0.00    -0.082 A 
ATOM      7  C5  PXY d   1      -0.348   1.197  -1.210  0.00  0.00     0.003 A 
ATOM      8  C6  PXY d   1      -0.620   2.317  -0.430  0.00  0.00     0.003 A 
ENDROOT
TORSDOF 0
ENDMDL
