MODEL 1
REMARK minimizedAffinity -2.08099055
REMARK minimizedRMSD -1
REMARK  0 active torsions:
REMARK  status: ('A' for Active; 'I' for Inactive)
ROOT
ATOM      1  C4' PXY d   1       1.983  -1.063   0.307  0.00  0.00     0.077 C 
ATOM      2  C1' PXY d   1      -2.094   2.809   1.650  0.00  0.00     0.077 C 
ATOM      3  C1  PXY d   1      -1.018   1.797   1.308  0.00  0.00    -0.082 A 
ATOM      4  C2  PXY d   1      -0.884   1.382   0.059  0.00  0.00     0.003 A 
ATOM      5  C3  PXY d   1       0.063   0.443  -0.261  0.00  0.00     0.003 A 
ATOM      6  C4  PXY d   1       0.917  -0.035   0.696  0.00  0.00    -0.082 A 
ATOM      7  C5  PXY d   1       0.793   0.392   1.971  0.00  0.00     0.003 A 
ATOM      8  C6  PXY d   1      -0.201   1.314   2.284  0.00  0.00     0.003 A 
ENDROOT
TORSDOF 0
ENDMDL
