MODEL 1
REMARK minimizedAffinity -2.32577896
REMARK minimizedRMSD -1
REMARK  0 active torsions:
REMARK  status: ('A' for Active; 'I' for Inactive)
ROOT
ATOM      1  C4' PXY d   1       0.575  -0.692   2.144  0.00  0.00     0.077 C 
ATOM      2  C1' PXY d   1      -1.743   2.902  -1.746  0.00  0.00     0.077 C 
ATOM      3  C1  PXY d   1      -1.137   1.949  -0.734  0.00  0.00    -0.082 A 
ATOM      4  C2  PXY d   1      -1.157   2.261   0.552  0.00  0.00     0.003 A 
ATOM      5  C3  PXY d   1      -0.585   1.426   1.477  0.00  0.00     0.003 A 
ATOM      6  C4  PXY d   1      -0.034   0.235   1.088  0.00  0.00    -0.082 A 
ATOM      7  C5  PXY d   1      -0.019  -0.095  -0.221  0.00  0.00     0.003 A 
ATOM      8  C6  PXY d   1      -0.568   0.785  -1.149  0.00  0.00     0.003 A 
ENDROOT
TORSDOF 0
ENDMDL
