MODEL 1
REMARK minimizedAffinity -5.29968786
REMARK minimizedRMSD -1
REMARK  0 active torsions:
REMARK  status: ('A' for Active; 'I' for Inactive)
ROOT
ATOM      1  C4' PXY d   1      -1.779   2.297   1.709  0.00  0.00     0.077 C 
ATOM      2  C1' PXY d   1       3.144  -0.671   1.099  0.00  0.00     0.077 C 
ATOM      3  C1  PXY d   1       1.854   0.112   1.247  0.00  0.00    -0.082 A 
ATOM      4  C2  PXY d   1       1.417   0.430   2.454  0.00  0.00     0.003 A 
ATOM      5  C3  PXY d   1       0.236   1.110   2.608  0.00  0.00     0.003 A 
ATOM      6  C4  PXY d   1      -0.478   1.515   1.512  0.00  0.00    -0.082 A 
ATOM      7  C5  PXY d   1      -0.032   1.204   0.276  0.00  0.00     0.003 A 
ATOM      8  C6  PXY d   1       1.147   0.478   0.143  0.00  0.00     0.003 A 
ENDROOT
TORSDOF 0
ENDMDL
