MODEL 1
REMARK minimizedAffinity -0.845361352
REMARK minimizedRMSD -1
REMARK  0 active torsions:
REMARK  status: ('A' for Active; 'I' for Inactive)
ROOT
ATOM      1  C4' PXY d   1      -0.006   0.784  -2.895  0.00  0.00     0.077 C 
ATOM      2  C1' PXY d   1      -0.233   1.830   2.785  0.00  0.00     0.077 C 
ATOM      3  C1  PXY d   1      -0.183   1.564   1.294  0.00  0.00    -0.082 A 
ATOM      4  C2  PXY d   1       0.310   0.420   0.849  0.00  0.00     0.003 A 
ATOM      5  C3  PXY d   1       0.392   0.176  -0.498  0.00  0.00     0.003 A 
ATOM      6  C4  PXY d   1      -0.085   1.091  -1.397  0.00  0.00    -0.082 A 
ATOM      7  C5  PXY d   1      -0.599   2.257  -0.951  0.00  0.00     0.003 A 
ATOM      8  C6  PXY d   1      -0.636   2.502   0.418  0.00  0.00     0.003 A 
ENDROOT
TORSDOF 0
ENDMDL
