MODEL 1
REMARK minimizedAffinity -3.68157601
REMARK minimizedRMSD -1
REMARK  0 active torsions:
REMARK  status: ('A' for Active; 'I' for Inactive)
ROOT
ATOM      1  C2' OXE d   1      -2.941   2.442  -2.421  0.00  0.00     0.078 C 
ATOM      2  C1' OXE d   1      -2.819   2.521   0.382  0.00  0.00     0.078 C 
ATOM      3  C1  OXE d   1      -1.693   1.837  -0.352  0.00  0.00    -0.078 A 
ATOM      4  C2  OXE d   1      -1.784   1.762  -1.721  0.00  0.00    -0.078 A 
ATOM      5  C3  OXE d   1      -0.747   1.189  -2.451  0.00  0.00     0.003 A 
ATOM      6  C4  OXE d   1       0.315   0.554  -1.795  0.00  0.00    -0.002 A 
ATOM      7  C5  OXE d   1       0.407   0.584  -0.399  0.00  0.00    -0.002 A 
ATOM      8  C6  OXE d   1      -0.565   1.257   0.334  0.00  0.00     0.003 A 
ENDROOT
TORSDOF 0
ENDMDL
