MODEL 1
REMARK minimizedAffinity -2.03003836
REMARK minimizedRMSD -1
REMARK  0 active torsions:
REMARK  status: ('A' for Active; 'I' for Inactive)
ROOT
ATOM      1  C2' OXE d   1       0.866   1.523   2.355  0.00  0.00     0.078 C 
ATOM      2  C1' OXE d   1       1.305   0.321  -0.144  0.00  0.00     0.078 C 
ATOM      3  C1  OXE d   1      -0.083   0.829   0.159  0.00  0.00    -0.078 A 
ATOM      4  C2  OXE d   1      -0.300   1.373   1.402  0.00  0.00    -0.078 A 
ATOM      5  C3  OXE d   1      -1.548   1.906   1.713  0.00  0.00     0.003 A 
ATOM      6  C4  OXE d   1      -2.623   1.755   0.830  0.00  0.00    -0.002 A 
ATOM      7  C5  OXE d   1      -2.434   1.168  -0.426  0.00  0.00    -0.002 A 
ATOM      8  C6  OXE d   1      -1.163   0.739  -0.793  0.00  0.00     0.003 A 
ENDROOT
TORSDOF 0
ENDMDL
