MODEL 1
REMARK minimizedAffinity -1.43035579
REMARK minimizedRMSD -1
REMARK  0 active torsions:
REMARK  status: ('A' for Active; 'I' for Inactive)
ROOT
ATOM      1  C2' OXE d   1       1.755  -0.660   2.619  0.00  0.00     0.078 C 
ATOM      2  C1' OXE d   1       0.064   1.571   2.409  0.00  0.00     0.078 C 
ATOM      3  C1  OXE d   1       0.300   0.749   1.167  0.00  0.00    -0.078 A 
ATOM      4  C2  OXE d   1       1.166  -0.314   1.268  0.00  0.00    -0.078 A 
ATOM      5  C3  OXE d   1       1.377  -1.138   0.166  0.00  0.00     0.003 A 
ATOM      6  C4  OXE d   1       0.836  -0.805  -1.082  0.00  0.00    -0.002 A 
ATOM      7  C5  OXE d   1      -0.016   0.296  -1.215  0.00  0.00    -0.002 A 
ATOM      8  C6  OXE d   1      -0.328   1.057  -0.094  0.00  0.00     0.003 A 
ENDROOT
TORSDOF 0
ENDMDL
