MODEL 1
REMARK minimizedAffinity 10.7731905
REMARK minimizedRMSD -1
REMARK  0 active torsions:
REMARK  status: ('A' for Active; 'I' for Inactive)
ROOT
ATOM      1  C2' OXE d   1       1.163  -1.408  -0.542  0.00  0.00     0.078 C 
ATOM      2  C1' OXE d   1      -0.717   0.655  -0.842  0.00  0.00     0.078 C 
ATOM      3  C1  OXE d   1      -0.122   0.439   0.527  0.00  0.00    -0.078 A 
ATOM      4  C2  OXE d   1       0.762  -0.603   0.675  0.00  0.00    -0.078 A 
ATOM      5  C3  OXE d   1       1.381  -0.812   1.904  0.00  0.00     0.003 A 
ATOM      6  C4  OXE d   1       0.997  -0.069   3.027  0.00  0.00    -0.002 A 
ATOM      7  C5  OXE d   1       0.069   0.971   2.907  0.00  0.00    -0.002 A 
ATOM      8  C6  OXE d   1      -0.467   1.265   1.658  0.00  0.00     0.003 A 
ENDROOT
TORSDOF 0
ENDMDL
