MODEL 1
REMARK minimizedAffinity 8.21259689
REMARK minimizedRMSD -1
REMARK  0 active torsions:
REMARK  status: ('A' for Active; 'I' for Inactive)
ROOT
ATOM      1  C2' OXE d   1      -4.290   3.013  -2.645  0.00  0.00     0.078 C 
ATOM      2  C1' OXE d   1      -4.066   5.810  -2.551  0.00  0.00     0.078 C 
ATOM      3  C1  OXE d   1      -4.763   5.199  -3.742  0.00  0.00    -0.078 A 
ATOM      4  C2  OXE d   1      -4.827   3.828  -3.802  0.00  0.00    -0.078 A 
ATOM      5  C3  OXE d   1      -5.506   3.215  -4.851  0.00  0.00     0.003 A 
ATOM      6  C4  OXE d   1      -5.991   3.976  -5.922  0.00  0.00    -0.002 A 
ATOM      7  C5  OXE d   1      -5.901   5.371  -5.900  0.00  0.00    -0.002 A 
ATOM      8  C6  OXE d   1      -5.329   6.000  -4.799  0.00  0.00     0.003 A 
ENDROOT
TORSDOF 0
ENDMDL
