MODEL 1
REMARK minimizedAffinity 4.70364857
REMARK minimizedRMSD -1
REMARK  0 active torsions:
REMARK  status: ('A' for Active; 'I' for Inactive)
ROOT
ATOM      1  C2' OXE d   1      -0.907   1.695   2.112  0.00  0.00     0.078 C 
ATOM      2  C1' OXE d   1      -0.622   1.892  -0.674  0.00  0.00     0.078 C 
ATOM      3  C1  OXE d   1       0.097   0.767   0.029  0.00  0.00    -0.078 A 
ATOM      4  C2  OXE d   1      -0.011   0.706   1.398  0.00  0.00    -0.078 A 
ATOM      5  C3  OXE d   1       0.587  -0.343   2.090  0.00  0.00     0.003 A 
ATOM      6  C4  OXE d   1       1.422  -1.247   1.424  0.00  0.00    -0.002 A 
ATOM      7  C5  OXE d   1       1.578  -1.179   0.035  0.00  0.00    -0.002 A 
ATOM      8  C6  OXE d   1       0.889  -0.206  -0.681  0.00  0.00     0.003 A 
ENDROOT
TORSDOF 0
ENDMDL
