MODEL 1
REMARK minimizedAffinity 4.30622768
REMARK minimizedRMSD -1
REMARK  0 active torsions:
REMARK  status: ('A' for Active; 'I' for Inactive)
ROOT
ATOM      1  C2' OXE d   1       1.792  -0.691  -1.480  0.00  0.00     0.078 C 
ATOM      2  C1' OXE d   1      -0.470   0.960  -1.282  0.00  0.00     0.078 C 
ATOM      3  C1  OXE d   1       0.106   0.400  -0.006  0.00  0.00    -0.078 A 
ATOM      4  C2  OXE d   1       1.185  -0.444  -0.116  0.00  0.00    -0.078 A 
ATOM      5  C3  OXE d   1       1.788  -0.945   1.034  0.00  0.00     0.003 A 
ATOM      6  C4  OXE d   1       1.214  -0.721   2.291  0.00  0.00    -0.002 A 
ATOM      7  C5  OXE d   1       0.092   0.104   2.422  0.00  0.00    -0.002 A 
ATOM      8  C6  OXE d   1      -0.447   0.705   1.290  0.00  0.00     0.003 A 
ENDROOT
TORSDOF 0
ENDMDL
