MODEL 1
REMARK minimizedAffinity 9.44211578
REMARK minimizedRMSD -1
REMARK  0 active torsions:
REMARK  status: ('A' for Active; 'I' for Inactive)
ROOT
ATOM      1  C2' OXE d   1      -2.212   2.568  -2.188  0.00  0.00     0.078 C 
ATOM      2  C1' OXE d   1       0.093   1.094  -1.557  0.00  0.00     0.078 C 
ATOM      3  C1  OXE d   1      -1.235   0.381  -1.502  0.00  0.00    -0.078 A 
ATOM      4  C2  OXE d   1      -2.362   1.122  -1.766  0.00  0.00    -0.078 A 
ATOM      5  C3  OXE d   1      -3.607   0.500  -1.783  0.00  0.00     0.003 A 
ATOM      6  C4  OXE d   1      -3.738  -0.835  -1.382  0.00  0.00    -0.002 A 
ATOM      7  C5  OXE d   1      -2.607  -1.597  -1.070  0.00  0.00    -0.002 A 
ATOM      8  C6  OXE d   1      -1.347  -1.017  -1.166  0.00  0.00     0.003 A 
ENDROOT
TORSDOF 0
ENDMDL
