MODEL 1
REMARK minimizedAffinity 13.3865595
REMARK minimizedRMSD -1
REMARK  0 active torsions:
REMARK  status: ('A' for Active; 'I' for Inactive)
ROOT
ATOM      1  C2' OXE d   1      -0.293   1.620  -1.713  0.00  0.00     0.078 C 
ATOM      2  C1' OXE d   1      -1.771   2.650   0.439  0.00  0.00     0.078 C 
ATOM      3  C1  OXE d   1      -2.209   1.332  -0.148  0.00  0.00    -0.078 A 
ATOM      4  C2  OXE d   1      -1.509   0.858  -1.231  0.00  0.00    -0.078 A 
ATOM      5  C3  OXE d   1      -1.837  -0.380  -1.777  0.00  0.00     0.003 A 
ATOM      6  C4  OXE d   1      -2.969  -1.073  -1.332  0.00  0.00    -0.002 A 
ATOM      7  C5  OXE d   1      -3.720  -0.589  -0.256  0.00  0.00    -0.002 A 
ATOM      8  C6  OXE d   1      -3.330   0.588   0.373  0.00  0.00     0.003 A 
ENDROOT
TORSDOF 0
ENDMDL
