MODEL 1
REMARK minimizedAffinity 7.37787485
REMARK minimizedRMSD -1
REMARK  0 active torsions:
REMARK  status: ('A' for Active; 'I' for Inactive)
ROOT
ATOM      1  C2' OXE d   1       1.915  -4.104  -4.385  0.00  0.00     0.078 C 
ATOM      2  C1' OXE d   1       2.389  -5.638  -2.082  0.00  0.00     0.078 C 
ATOM      3  C1  OXE d   1       2.281  -4.143  -1.921  0.00  0.00    -0.078 A 
ATOM      4  C2  OXE d   1       2.095  -3.396  -3.059  0.00  0.00    -0.078 A 
ATOM      5  C3  OXE d   1       1.934  -2.017  -2.960  0.00  0.00     0.003 A 
ATOM      6  C4  OXE d   1       2.113  -1.369  -1.732  0.00  0.00    -0.002 A 
ATOM      7  C5  OXE d   1       2.342  -2.107  -0.566  0.00  0.00    -0.002 A 
ATOM      8  C6  OXE d   1       2.386  -3.495  -0.637  0.00  0.00     0.003 A 
ENDROOT
TORSDOF 0
ENDMDL
