MODEL 1
REMARK minimizedAffinity 1.85403132
REMARK minimizedRMSD -1
REMARK  0 active torsions:
REMARK  status: ('A' for Active; 'I' for Inactive)
ROOT
ATOM      1  C2' OXE d   1      -0.102   1.089  -2.175  0.00  0.00     0.078 C 
ATOM      2  C1' OXE d   1      -1.500  -1.345  -2.205  0.00  0.00     0.078 C 
ATOM      3  C1  OXE d   1      -0.036  -1.379  -1.846  0.00  0.00    -0.078 A 
ATOM      4  C2  OXE d   1       0.651  -0.189  -1.879  0.00  0.00    -0.078 A 
ATOM      5  C3  OXE d   1       1.991  -0.157  -1.504  0.00  0.00     0.003 A 
ATOM      6  C4  OXE d   1       2.683  -1.345  -1.242  0.00  0.00    -0.002 A 
ATOM      7  C5  OXE d   1       2.012  -2.572  -1.241  0.00  0.00    -0.002 A 
ATOM      8  C6  OXE d   1       0.646  -2.602  -1.499  0.00  0.00     0.003 A 
ENDROOT
TORSDOF 0
ENDMDL
