MODEL 1
REMARK minimizedAffinity -3.61833
REMARK minimizedRMSD -1
REMARK  0 active torsions:
REMARK  status: ('A' for Active; 'I' for Inactive)
ROOT
ATOM      1  C   UNL d   1       1.022  -0.287   2.760  0.00  0.00     0.078 C 
ATOM      2  C1  UNL d   1       0.315  -0.165   1.443  0.00  0.00    -0.077 A 
ATOM      3  C2  UNL d   1      -1.082  -0.107   1.377  0.00  0.00    -0.001 A 
ATOM      4  C3  UNL d   1      -1.727  -0.003   0.144  0.00  0.00     0.003 A 
ATOM      5  C4  UNL d   1      -0.983   0.043  -1.033  0.00  0.00    -0.005 A 
ATOM      6  C5  UNL d   1       0.408  -0.016  -0.978  0.00  0.00     0.003 A 
ATOM      7  C6  UNL d   1       1.055  -0.120   0.254  0.00  0.00    -0.001 A 
ENDROOT
TORSDOF 0
ENDMDL
