MODEL 1
REMARK minimizedAffinity -4.60505533
REMARK minimizedRMSD -1
REMARK  0 active torsions:
REMARK  status: ('A' for Active; 'I' for Inactive)
ROOT
ATOM      1  C   UNL d   1       1.597  -1.069   3.443  0.00  0.00     0.078 C 
ATOM      2  C1  UNL d   1       1.102  -0.624   2.100  0.00  0.00    -0.077 A 
ATOM      3  C2  UNL d   1      -0.221  -0.199   1.923  0.00  0.00    -0.001 A 
ATOM      4  C3  UNL d   1      -0.671   0.203   0.665  0.00  0.00     0.003 A 
ATOM      5  C4  UNL d   1       0.194   0.182  -0.427  0.00  0.00    -0.005 A 
ATOM      6  C5  UNL d   1       1.511  -0.242  -0.262  0.00  0.00     0.003 A 
ATOM      7  C6  UNL d   1       1.963  -0.644   0.996  0.00  0.00    -0.001 A 
ENDROOT
TORSDOF 0
ENDMDL
