MODEL 1
REMARK minimizedAffinity -2.67638469
REMARK minimizedRMSD -1
REMARK  0 active torsions:
REMARK  status: ('A' for Active; 'I' for Inactive)
ROOT
ATOM      1  C   UNL d   1       1.730  -1.119   2.693  0.00  0.00     0.078 C 
ATOM      2  C1  UNL d   1       0.926  -0.677   1.507  0.00  0.00    -0.077 A 
ATOM      3  C2  UNL d   1       1.549  -0.145   0.371  0.00  0.00    -0.001 A 
ATOM      4  C3  UNL d   1       0.787   0.272  -0.721  0.00  0.00     0.003 A 
ATOM      5  C4  UNL d   1      -0.601   0.163  -0.689  0.00  0.00    -0.005 A 
ATOM      6  C5  UNL d   1      -1.230  -0.362   0.438  0.00  0.00     0.003 A 
ATOM      7  C6  UNL d   1      -0.470  -0.780   1.532  0.00  0.00    -0.001 A 
ENDROOT
TORSDOF 0
ENDMDL
