MODEL 1
REMARK minimizedAffinity -4.91904688
REMARK minimizedRMSD -1
REMARK  0 active torsions:
REMARK  status: ('A' for Active; 'I' for Inactive)
ROOT
ATOM      1  C   UNL d   1      -0.560   0.418  -0.585  0.00  0.00     0.078 C 
ATOM      2  C1  UNL d   1       0.227   0.011   0.625  0.00  0.00    -0.077 A 
ATOM      3  C2  UNL d   1       1.626   0.055   0.623  0.00  0.00    -0.001 A 
ATOM      4  C3  UNL d   1       2.346  -0.336   1.753  0.00  0.00     0.003 A 
ATOM      5  C4  UNL d   1       1.675  -0.773   2.894  0.00  0.00    -0.005 A 
ATOM      6  C5  UNL d   1       0.283  -0.822   2.904  0.00  0.00     0.003 A 
ATOM      7  C6  UNL d   1      -0.439  -0.432   1.775  0.00  0.00    -0.001 A 
ENDROOT
TORSDOF 0
ENDMDL
