MODEL 1
REMARK minimizedAffinity -4.4113102
REMARK minimizedRMSD -1
REMARK  0 active torsions:
REMARK  status: ('A' for Active; 'I' for Inactive)
ROOT
ATOM      1  C   UNL d   1       0.414  -0.448   2.814  0.00  0.00     0.078 C 
ATOM      2  C1  UNL d   1       0.371  -0.608   1.324  0.00  0.00    -0.077 A 
ATOM      3  C2  UNL d   1       1.475  -1.105   0.619  0.00  0.00    -0.001 A 
ATOM      4  C3  UNL d   1       1.424  -1.239  -0.769  0.00  0.00     0.003 A 
ATOM      5  C4  UNL d   1       0.273  -0.876  -1.465  0.00  0.00    -0.005 A 
ATOM      6  C5  UNL d   1      -0.830  -0.379  -0.774  0.00  0.00     0.003 A 
ATOM      7  C6  UNL d   1      -0.781  -0.244   0.615  0.00  0.00    -0.001 A 
ENDROOT
TORSDOF 0
ENDMDL
