MODEL 1
REMARK minimizedAffinity 3.88651443
REMARK minimizedRMSD -1
REMARK  1 active torsions:
REMARK  status: ('A' for Active; 'I' for Inactive)
REMARK    1  A    between atoms: N_2  and  C1_3 
ROOT
ATOM      1  C1  UNL d   1       0.806   2.019  -0.830  0.00  0.00     0.143 A 
ATOM      2  C2  UNL d   1       1.021   0.948  -1.704  0.00  0.00    -0.057 A 
ATOM      3  C3  UNL d   1       1.593  -0.249  -1.257  0.00  0.00     0.033 A 
ATOM      4  C4  UNL d   1       1.989  -0.386   0.069  0.00  0.00    -0.042 A 
ATOM      5  C5  UNL d   1       1.807   0.674   0.950  0.00  0.00     0.033 A 
ATOM      6  C6  UNL d   1       1.229   1.865   0.500  0.00  0.00    -0.057 A 
ENDROOT
BRANCH   1   7
ATOM      7  N   UNL d   1       0.332   3.270  -1.234  0.00  0.00    -0.732 N 
ATOM      8  C   UNL d   1       1.066   4.475  -0.913  0.00  0.00     0.284 C 
ATOM      9  H3  UNL d   1      -0.050   3.254  -2.177  0.00  0.00     0.395 HD
ENDBRANCH   1   7
TORSDOF 1
ENDMDL
