MODEL 1
REMARK minimizedAffinity 1.94586992
REMARK minimizedRMSD -1
REMARK  1 active torsions:
REMARK  status: ('A' for Active; 'I' for Inactive)
REMARK    1  A    between atoms: N_2  and  C1_3 
ROOT
ATOM      1  C1  UNL d   1      -3.884   2.903   0.975  0.00  0.00     0.143 A 
ATOM      2  C2  UNL d   1      -4.535   1.798   1.535  0.00  0.00    -0.057 A 
ATOM      3  C3  UNL d   1      -4.277   1.393   2.850  0.00  0.00     0.033 A 
ATOM      4  C4  UNL d   1      -3.338   2.070   3.621  0.00  0.00    -0.042 A 
ATOM      5  C5  UNL d   1      -2.661   3.155   3.077  0.00  0.00     0.033 A 
ATOM      6  C6  UNL d   1      -2.928   3.560   1.766  0.00  0.00    -0.057 A 
ENDROOT
BRANCH   1   7
ATOM      7  N   UNL d   1      -4.025   3.295  -0.358  0.00  0.00    -0.732 N 
ATOM      8  C   UNL d   1      -3.097   2.829  -1.366  0.00  0.00     0.284 C 
ATOM      9  H3  UNL d   1      -4.997   3.304  -0.660  0.00  0.00     0.395 HD
ENDBRANCH   1   7
TORSDOF 1
ENDMDL
