MODEL 1
REMARK minimizedAffinity -4.11305761
REMARK minimizedRMSD -1
REMARK  1 active torsions:
REMARK  status: ('A' for Active; 'I' for Inactive)
REMARK    1  A    between atoms: N_2  and  C1_3 
ROOT
ATOM      1  C1  UNL d   1       0.795   2.658  -1.555  0.00  0.00     0.143 A 
ATOM      2  C2  UNL d   1       0.470   2.992  -0.236  0.00  0.00    -0.057 A 
ATOM      3  C3  UNL d   1       0.832   2.163   0.833  0.00  0.00     0.033 A 
ATOM      4  C4  UNL d   1       1.502   0.967   0.597  0.00  0.00    -0.042 A 
ATOM      5  C5  UNL d   1       1.813   0.603  -0.708  0.00  0.00     0.033 A 
ATOM      6  C6  UNL d   1       1.455   1.439  -1.770  0.00  0.00    -0.057 A 
ENDROOT
BRANCH   1   7
ATOM      7  N   UNL d   1       0.377   3.392  -2.668  0.00  0.00    -0.732 N 
ATOM      8  C   UNL d   1      -0.890   4.091  -2.656  0.00  0.00     0.284 C 
ATOM      9  H3  UNL d   1       1.137   3.916  -3.096  0.00  0.00     0.395 HD
ENDBRANCH   1   7
TORSDOF 1
ENDMDL
