MODEL 1
REMARK minimizedAffinity -2.44566512
REMARK minimizedRMSD -1
REMARK  1 active torsions:
REMARK  status: ('A' for Active; 'I' for Inactive)
REMARK    1  A    between atoms: N_2  and  C1_3 
ROOT
ATOM      1  C1  UNL d   1       1.089  -0.024  -0.895  0.00  0.00     0.143 A 
ATOM      2  C2  UNL d   1       1.115   0.320   0.460  0.00  0.00    -0.057 A 
ATOM      3  C3  UNL d   1       1.173   1.658   0.870  0.00  0.00     0.033 A 
ATOM      4  C4  UNL d   1       1.236   2.678  -0.074  0.00  0.00    -0.042 A 
ATOM      5  C5  UNL d   1       1.236   2.358  -1.427  0.00  0.00     0.033 A 
ATOM      6  C6  UNL d   1       1.171   1.021  -1.829  0.00  0.00    -0.057 A 
ENDROOT
BRANCH   1   7
ATOM      7  N   UNL d   1       1.131  -1.338  -1.366  0.00  0.00    -0.732 N 
ATOM      8  C   UNL d   1      -0.051  -1.960  -1.922  0.00  0.00     0.284 C 
ATOM      9  H3  UNL d   1       1.987  -1.541  -1.877  0.00  0.00     0.395 HD
ENDBRANCH   1   7
TORSDOF 1
ENDMDL
