MODEL 1
REMARK minimizedAffinity 0.297678292
REMARK minimizedRMSD -1
REMARK  1 active torsions:
REMARK  status: ('A' for Active; 'I' for Inactive)
REMARK    1  A    between atoms: N_2  and  C1_3 
ROOT
ATOM      1  C1  UNL d   1       1.071   0.273  -1.070  0.00  0.00     0.143 A 
ATOM      2  C2  UNL d   1       0.719   1.437  -1.762  0.00  0.00    -0.057 A 
ATOM      3  C3  UNL d   1       0.789   2.694  -1.150  0.00  0.00     0.033 A 
ATOM      4  C4  UNL d   1       1.186   2.807   0.178  0.00  0.00    -0.042 A 
ATOM      5  C5  UNL d   1       1.517   1.661   0.893  0.00  0.00     0.033 A 
ATOM      6  C6  UNL d   1       1.451   0.409   0.274  0.00  0.00    -0.057 A 
ENDROOT
BRANCH   1   7
ATOM      7  N   UNL d   1       0.929  -1.015  -1.592  0.00  0.00    -0.732 N 
ATOM      8  C   UNL d   1       0.996  -2.173  -0.726  0.00  0.00     0.284 C 
ATOM      9  H3  UNL d   1       0.201  -1.068  -2.302  0.00  0.00     0.395 HD
ENDBRANCH   1   7
TORSDOF 1
ENDMDL
