MODEL 1
REMARK minimizedAffinity 3.12382245
REMARK minimizedRMSD -1
REMARK  1 active torsions:
REMARK  status: ('A' for Active; 'I' for Inactive)
REMARK    1  A    between atoms: N_2  and  C1_3 
ROOT
ATOM      1  C1  UNL d   1       1.164  -0.770   0.308  0.00  0.00     0.143 A 
ATOM      2  C2  UNL d   1       0.916  -0.582  -1.056  0.00  0.00    -0.057 A 
ATOM      3  C3  UNL d   1       0.757   0.701  -1.594  0.00  0.00     0.033 A 
ATOM      4  C4  UNL d   1       0.814   1.820  -0.770  0.00  0.00    -0.042 A 
ATOM      5  C5  UNL d   1       1.034   1.655   0.593  0.00  0.00     0.033 A 
ATOM      6  C6  UNL d   1       1.199   0.372   1.123  0.00  0.00    -0.057 A 
ENDROOT
BRANCH   1   7
ATOM      7  N   UNL d   1       1.234  -2.024   0.920  0.00  0.00    -0.732 N 
ATOM      8  C   UNL d   1       1.902  -3.128   0.265  0.00  0.00     0.284 C 
ATOM      9  H3  UNL d   1       1.418  -1.959   1.919  0.00  0.00     0.395 HD
ENDBRANCH   1   7
TORSDOF 1
ENDMDL
