MODEL 1
REMARK minimizedAffinity -2.81731105
REMARK minimizedRMSD -1
REMARK  1 active torsions:
REMARK  status: ('A' for Active; 'I' for Inactive)
REMARK    1  A    between atoms: N_2  and  C1_3 
ROOT
ATOM      1  C1  UNL d   1       1.196   2.695  -1.186  0.00  0.00     0.143 A 
ATOM      2  C2  UNL d   1       0.832   2.561   0.159  0.00  0.00    -0.057 A 
ATOM      3  C3  UNL d   1       0.730   1.301   0.761  0.00  0.00     0.033 A 
ATOM      4  C4  UNL d   1       0.961   0.147   0.019  0.00  0.00    -0.042 A 
ATOM      5  C5  UNL d   1       1.299   0.255  -1.325  0.00  0.00     0.033 A 
ATOM      6  C6  UNL d   1       1.406   1.517  -1.920  0.00  0.00    -0.057 A 
ENDROOT
BRANCH   1   7
ATOM      7  N   UNL d   1       1.219   3.914  -1.867  0.00  0.00    -0.732 N 
ATOM      8  C   UNL d   1       1.567   5.137  -1.178  0.00  0.00     0.284 C 
ATOM      9  H3  UNL d   1       1.624   3.831  -2.797  0.00  0.00     0.395 HD
ENDBRANCH   1   7
TORSDOF 1
ENDMDL
