MODEL 1
REMARK minimizedAffinity 3.49321818
REMARK minimizedRMSD -1
REMARK  1 active torsions:
REMARK  status: ('A' for Active; 'I' for Inactive)
REMARK    1  A    between atoms: N_2  and  C1_3 
ROOT
ATOM      1  C1  UNL d   1       0.855   0.602  -0.627  0.00  0.00     0.143 A 
ATOM      2  C2  UNL d   1       0.258   1.760  -0.117  0.00  0.00    -0.057 A 
ATOM      3  C3  UNL d   1       0.267   2.959  -0.840  0.00  0.00     0.033 A 
ATOM      4  C4  UNL d   1       0.899   3.028  -2.077  0.00  0.00    -0.042 A 
ATOM      5  C5  UNL d   1       1.520   1.896  -2.592  0.00  0.00     0.033 A 
ATOM      6  C6  UNL d   1       1.503   0.700  -1.869  0.00  0.00    -0.057 A 
ENDROOT
BRANCH   1   7
ATOM      7  N   UNL d   1       0.966  -0.594   0.086  0.00  0.00    -0.732 N 
ATOM      8  C   UNL d   1       1.925  -0.725   1.162  0.00  0.00     0.284 C 
ATOM      9  H3  UNL d   1       0.060  -1.015   0.283  0.00  0.00     0.395 HD
ENDBRANCH   1   7
TORSDOF 1
ENDMDL
