MODEL 1
REMARK minimizedAffinity -2.11472178
REMARK minimizedRMSD -1
REMARK  1 active torsions:
REMARK  status: ('A' for Active; 'I' for Inactive)
REMARK    1  A    between atoms: N_2  and  C1_3 
ROOT
ATOM      1  C1  UNL d   1       0.953   1.271   0.887  0.00  0.00     0.143 A 
ATOM      2  C2  UNL d   1       0.980   2.451   0.136  0.00  0.00    -0.057 A 
ATOM      3  C3  UNL d   1       0.874   2.426  -1.260  0.00  0.00     0.033 A 
ATOM      4  C4  UNL d   1       0.768   1.214  -1.934  0.00  0.00    -0.042 A 
ATOM      5  C5  UNL d   1       0.765   0.027  -1.210  0.00  0.00     0.033 A 
ATOM      6  C6  UNL d   1       0.864   0.059   0.184  0.00  0.00    -0.057 A 
ENDROOT
BRANCH   1   7
ATOM      7  N   UNL d   1       1.153   1.223   2.269  0.00  0.00    -0.732 N 
ATOM      8  C   UNL d   1       2.274   1.908   2.875  0.00  0.00     0.284 C 
ATOM      9  H3  UNL d   1       0.283   1.306   2.790  0.00  0.00     0.395 HD
ENDBRANCH   1   7
TORSDOF 1
ENDMDL
