MODEL 1
REMARK minimizedAffinity 1.05187249
REMARK minimizedRMSD -1
REMARK  1 active torsions:
REMARK  status: ('A' for Active; 'I' for Inactive)
REMARK    1  A    between atoms: N_2  and  C1_3 
ROOT
ATOM      1  C1  UNL d   1      -0.246  -3.831   1.113  0.00  0.00     0.143 A 
ATOM      2  C2  UNL d   1      -1.125  -3.889   0.026  0.00  0.00    -0.057 A 
ATOM      3  C3  UNL d   1      -0.763  -3.384  -1.229  0.00  0.00     0.033 A 
ATOM      4  C4  UNL d   1       0.478  -2.783  -1.411  0.00  0.00    -0.042 A 
ATOM      5  C5  UNL d   1       1.358  -2.691  -0.339  0.00  0.00     0.033 A 
ATOM      6  C6  UNL d   1       0.993  -3.204   0.910  0.00  0.00    -0.057 A 
ENDROOT
BRANCH   1   7
ATOM      7  N   UNL d   1      -0.585  -4.226   2.409  0.00  0.00    -0.732 N 
ATOM      8  C   UNL d   1      -1.939  -4.623   2.729  0.00  0.00     0.284 C 
ATOM      9  H3  UNL d   1       0.131  -4.810   2.837  0.00  0.00     0.395 HD
ENDBRANCH   1   7
TORSDOF 1
ENDMDL
