MODEL 1
REMARK minimizedAffinity 3.20661116
REMARK minimizedRMSD -1
REMARK  1 active torsions:
REMARK  status: ('A' for Active; 'I' for Inactive)
REMARK    1  A    between atoms: N_2  and  C1_3 
ROOT
ATOM      1  C1  UNL d   1       1.172   2.097  -1.100  0.00  0.00     0.143 A 
ATOM      2  C2  UNL d   1       1.252   2.197   0.293  0.00  0.00    -0.057 A 
ATOM      3  C3  UNL d   1       1.191   1.061   1.108  0.00  0.00     0.033 A 
ATOM      4  C4  UNL d   1       1.018  -0.199   0.543  0.00  0.00    -0.042 A 
ATOM      5  C5  UNL d   1       0.911  -0.320  -0.837  0.00  0.00     0.033 A 
ATOM      6  C6  UNL d   1       0.980   0.818  -1.646  0.00  0.00    -0.057 A 
ENDROOT
BRANCH   1   7
ATOM      7  N   UNL d   1       1.127   3.198  -1.958  0.00  0.00    -0.732 N 
ATOM      8  C   UNL d   1       1.495   4.516  -1.486  0.00  0.00     0.284 C 
ATOM      9  H3  UNL d   1       1.473   2.979  -2.890  0.00  0.00     0.395 HD
ENDBRANCH   1   7
TORSDOF 1
ENDMDL
