MODEL 1
REMARK minimizedAffinity -3.86550879
REMARK minimizedRMSD -1
REMARK  1 active torsions:
REMARK  status: ('A' for Active; 'I' for Inactive)
REMARK    1  A    between atoms: N_2  and  C1_3 
ROOT
ATOM      1  C1  UNL d   1       1.283   2.596  -0.816  0.00  0.00     0.143 A 
ATOM      2  C2  UNL d   1       1.148   2.426   0.566  0.00  0.00    -0.057 A 
ATOM      3  C3  UNL d   1       0.760   1.196   1.112  0.00  0.00     0.033 A 
ATOM      4  C4  UNL d   1       0.471   0.119   0.280  0.00  0.00    -0.042 A 
ATOM      5  C5  UNL d   1       0.575   0.273  -1.098  0.00  0.00     0.033 A 
ATOM      6  C6  UNL d   1       0.969   1.502  -1.637  0.00  0.00    -0.057 A 
ENDROOT
BRANCH   1   7
ATOM      7  N   UNL d   1       1.569   3.821  -1.424  0.00  0.00    -0.732 N 
ATOM      8  C   UNL d   1       1.658   5.032  -0.637  0.00  0.00     0.284 C 
ATOM      9  H3  UNL d   1       2.283   3.739  -2.145  0.00  0.00     0.395 HD
ENDBRANCH   1   7
TORSDOF 1
ENDMDL
