MODEL 1
REMARK minimizedAffinity 1.83016908
REMARK minimizedRMSD -1
REMARK  1 active torsions:
REMARK  status: ('A' for Active; 'I' for Inactive)
REMARK    1  A    between atoms: N_2  and  C1_3 
ROOT
ATOM      1  C1  UNL d   1       1.810   1.090   1.265  0.00  0.00     0.143 A 
ATOM      2  C2  UNL d   1       1.164   2.080   0.516  0.00  0.00    -0.057 A 
ATOM      3  C3  UNL d   1       0.570   1.786  -0.717  0.00  0.00     0.033 A 
ATOM      4  C4  UNL d   1       0.637   0.498  -1.239  0.00  0.00    -0.042 A 
ATOM      5  C5  UNL d   1       1.295  -0.496  -0.523  0.00  0.00     0.033 A 
ATOM      6  C6  UNL d   1       1.881  -0.197   0.711  0.00  0.00    -0.057 A 
ENDROOT
BRANCH   1   7
ATOM      7  N   UNL d   1       2.504   1.341   2.451  0.00  0.00    -0.732 N 
ATOM      8  C   UNL d   1       3.035   2.658   2.729  0.00  0.00     0.284 C 
ATOM      9  H3  UNL d   1       2.078   0.886   3.255  0.00  0.00     0.395 HD
ENDBRANCH   1   7
TORSDOF 1
ENDMDL
