MODEL 1
REMARK minimizedAffinity 7.43336391
REMARK minimizedRMSD -1
REMARK  1 active torsions:
REMARK  status: ('A' for Active; 'I' for Inactive)
REMARK    1  A    between atoms: N_2  and  C1_3 
ROOT
ATOM      1  C1  UNL d   1      -4.745   1.270   3.192  0.00  0.00     0.143 A 
ATOM      2  C2  UNL d   1      -3.992   1.483   4.352  0.00  0.00    -0.057 A 
ATOM      3  C3  UNL d   1      -2.835   2.271   4.332  0.00  0.00     0.033 A 
ATOM      4  C4  UNL d   1      -2.393   2.838   3.141  0.00  0.00    -0.042 A 
ATOM      5  C5  UNL d   1      -3.111   2.619   1.971  0.00  0.00     0.033 A 
ATOM      6  C6  UNL d   1      -4.270   1.836   1.999  0.00  0.00    -0.057 A 
ENDROOT
BRANCH   1   7
ATOM      7  N   UNL d   1      -5.849   0.417   3.128  0.00  0.00    -0.732 N 
ATOM      8  C   UNL d   1      -5.671  -1.020   3.115  0.00  0.00     0.284 C 
ATOM      9  H3  UNL d   1      -6.620   0.735   3.710  0.00  0.00     0.395 HD
ENDBRANCH   1   7
TORSDOF 1
ENDMDL
