MODEL 1
REMARK minimizedAffinity -0.113165028
REMARK minimizedRMSD -1
REMARK  0 active torsions:
REMARK  status: ('A' for Active; 'I' for Inactive)
ROOT
ATOM      1  C4' PXY d   1      -6.000   2.320  -4.112  0.00  0.00     0.077 C 
ATOM      2  C1' PXY d   1      -1.370   5.262  -5.934  0.00  0.00     0.077 C 
ATOM      3  C1  PXY d   1      -2.592   4.500  -5.460  0.00  0.00    -0.082 A 
ATOM      4  C2  PXY d   1      -2.462   3.572  -4.526  0.00  0.00     0.003 A 
ATOM      5  C3  PXY d   1      -3.552   2.852  -4.109  0.00  0.00     0.003 A 
ATOM      6  C4  PXY d   1      -4.795   3.120  -4.614  0.00  0.00    -0.082 A 
ATOM      7  C5  PXY d   1      -4.937   4.073  -5.560  0.00  0.00     0.003 A 
ATOM      8  C6  PXY d   1      -3.812   4.765  -6.000  0.00  0.00     0.003 A 
ENDROOT
TORSDOF 0
ENDMDL
