MODEL 1
REMARK minimizedAffinity 1.99446213
REMARK minimizedRMSD -1
REMARK  0 active torsions:
REMARK  status: ('A' for Active; 'I' for Inactive)
ROOT
ATOM      1  C4' PXY d   1       2.000   3.785   4.393  0.00  0.00     0.077 C 
ATOM      2  C1' PXY d   1       0.318   0.897  -0.323  0.00  0.00     0.077 C 
ATOM      3  C1  PXY d   1       0.764   1.664   0.906  0.00  0.00    -0.082 A 
ATOM      4  C2  PXY d   1       0.988   1.014   2.036  0.00  0.00     0.003 A 
ATOM      5  C3  PXY d   1       1.361   1.696   3.166  0.00  0.00     0.003 A 
ATOM      6  C4  PXY d   1       1.557   3.050   3.125  0.00  0.00    -0.082 A 
ATOM      7  C5  PXY d   1       1.340   3.719   1.973  0.00  0.00     0.003 A 
ATOM      8  C6  PXY d   1       0.923   3.014   0.848  0.00  0.00     0.003 A 
ENDROOT
TORSDOF 0
ENDMDL
