MODEL 1
REMARK minimizedAffinity 0.863252997
REMARK minimizedRMSD -1
REMARK  0 active torsions:
REMARK  status: ('A' for Active; 'I' for Inactive)
ROOT
ATOM      1  C4' PXY d   1      -6.000   1.499  -5.129  0.00  0.00     0.077 C 
ATOM      2  C1' PXY d   1      -1.605   5.252  -5.035  0.00  0.00     0.077 C 
ATOM      3  C1  PXY d   1      -2.750   4.259  -5.053  0.00  0.00    -0.082 A 
ATOM      4  C2  PXY d   1      -3.683   4.354  -5.986  0.00  0.00     0.003 A 
ATOM      5  C3  PXY d   1      -4.743   3.484  -5.998  0.00  0.00     0.003 A 
ATOM      6  C4  PXY d   1      -4.820   2.474  -5.078  0.00  0.00    -0.082 A 
ATOM      7  C5  PXY d   1      -3.866   2.364  -4.129  0.00  0.00     0.003 A 
ATOM      8  C6  PXY d   1      -2.821   3.282  -4.109  0.00  0.00     0.003 A 
ENDROOT
TORSDOF 0
ENDMDL
