MODEL 1
REMARK minimizedAffinity 0.501816869
REMARK minimizedRMSD -1
REMARK  0 active torsions:
REMARK  status: ('A' for Active; 'I' for Inactive)
ROOT
ATOM      1  C4' PXY d   1       0.393  -1.009   3.820  0.00  0.00     0.077 C 
ATOM      2  C1' PXY d   1       0.300   2.710  -0.604  0.00  0.00     0.077 C 
ATOM      3  C1  PXY d   1       0.326   1.744   0.565  0.00  0.00    -0.082 A 
ATOM      4  C2  PXY d   1       0.707   0.492   0.371  0.00  0.00     0.003 A 
ATOM      5  C3  PXY d   1       0.705  -0.402   1.410  0.00  0.00     0.003 A 
ATOM      6  C4  PXY d   1       0.361   0.003   2.672  0.00  0.00    -0.082 A 
ATOM      7  C5  PXY d   1      -0.019   1.281   2.880  0.00  0.00     0.003 A 
ATOM      8  C6  PXY d   1      -0.050   2.163   1.804  0.00  0.00     0.003 A 
ENDROOT
TORSDOF 0
ENDMDL
