MODEL 1
REMARK minimizedAffinity 0.670559227
REMARK minimizedRMSD -1
REMARK  0 active torsions:
REMARK  status: ('A' for Active; 'I' for Inactive)
ROOT
ATOM      1  C4' PXY d   1      -6.000   2.212  -4.029  0.00  0.00     0.077 C 
ATOM      2  C1' PXY d   1      -1.257   5.097  -5.641  0.00  0.00     0.077 C 
ATOM      3  C1  PXY d   1      -2.508   4.348  -5.225  0.00  0.00    -0.082 A 
ATOM      4  C2  PXY d   1      -2.496   3.616  -4.123  0.00  0.00     0.003 A 
ATOM      5  C3  PXY d   1      -3.609   2.908  -3.749  0.00  0.00     0.003 A 
ATOM      6  C4  PXY d   1      -4.762   2.992  -4.482  0.00  0.00    -0.082 A 
ATOM      7  C5  PXY d   1      -4.785   3.745  -5.602  0.00  0.00     0.003 A 
ATOM      8  C6  PXY d   1      -3.633   4.424  -5.987  0.00  0.00     0.003 A 
ENDROOT
TORSDOF 0
ENDMDL
