MODEL 1
REMARK minimizedAffinity -1.0990653
REMARK minimizedRMSD -1
REMARK  0 active torsions:
REMARK  status: ('A' for Active; 'I' for Inactive)
ROOT
ATOM      1  C4' PXY d   1      -1.202   5.750  -4.931  0.00  0.00     0.077 C 
ATOM      2  C1' PXY d   1      -6.000   2.526  -4.978  0.00  0.00     0.077 C 
ATOM      3  C1  PXY d   1      -4.742   3.371  -4.953  0.00  0.00    -0.082 A 
ATOM      4  C2  PXY d   1      -4.445   4.133  -5.993  0.00  0.00     0.003 A 
ATOM      5  C3  PXY d   1      -3.294   4.880  -6.000  0.00  0.00     0.003 A 
ATOM      6  C4  PXY d   1      -2.467   4.887  -4.909  0.00  0.00    -0.082 A 
ATOM      7  C5  PXY d   1      -2.769   4.121  -3.839  0.00  0.00     0.003 A 
ATOM      8  C6  PXY d   1      -3.920   3.339  -3.869  0.00  0.00     0.003 A 
ENDROOT
TORSDOF 0
ENDMDL
