MODEL 1
REMARK minimizedAffinity -0.118500635
REMARK minimizedRMSD -1
REMARK  0 active torsions:
REMARK  status: ('A' for Active; 'I' for Inactive)
ROOT
ATOM      1  C4' PXY d   1      -5.995   1.886  -5.133  0.00  0.00     0.077 C 
ATOM      2  C1' PXY d   1      -1.507   5.526  -5.269  0.00  0.00     0.077 C 
ATOM      3  C1  PXY d   1      -2.692   4.581  -5.237  0.00  0.00    -0.082 A 
ATOM      4  C2  PXY d   1      -2.648   3.503  -4.472  0.00  0.00     0.003 A 
ATOM      5  C3  PXY d   1      -3.698   2.621  -4.455  0.00  0.00     0.003 A 
ATOM      6  C4  PXY d   1      -4.826   2.873  -5.190  0.00  0.00    -0.082 A 
ATOM      7  C5  PXY d   1      -4.882   3.976  -5.965  0.00  0.00     0.003 A 
ATOM      8  C6  PXY d   1      -3.790   4.838  -6.000  0.00  0.00     0.003 A 
ENDROOT
TORSDOF 0
ENDMDL
