MODEL 1
REMARK minimizedAffinity 6.52334547
REMARK minimizedRMSD -1
REMARK  0 active torsions:
REMARK  status: ('A' for Active; 'I' for Inactive)
ROOT
ATOM      1  C4' PXY d   1      -5.380  -0.592  -3.691  0.00  0.00     0.077 C 
ATOM      2  C1' PXY d   1      -5.035   4.701  -5.989  0.00  0.00     0.077 C 
ATOM      3  C1  PXY d   1      -5.114   3.314  -5.381  0.00  0.00    -0.082 A 
ATOM      4  C2  PXY d   1      -5.892   2.400  -5.937  0.00  0.00     0.003 A 
ATOM      5  C3  PXY d   1      -6.000   1.151  -5.381  0.00  0.00     0.003 A 
ATOM      6  C4  PXY d   1      -5.262   0.818  -4.277  0.00  0.00    -0.082 A 
ATOM      7  C5  PXY d   1      -4.458   1.742  -3.710  0.00  0.00     0.003 A 
ATOM      8  C6  PXY d   1      -4.394   3.017  -4.265  0.00  0.00     0.003 A 
ENDROOT
TORSDOF 0
ENDMDL
