MODEL 1
REMARK minimizedAffinity 2.85582328
REMARK minimizedRMSD -1
REMARK  0 active torsions:
REMARK  status: ('A' for Active; 'I' for Inactive)
ROOT
ATOM      1  C4' PXY d   1      -4.720   4.423  -5.322  0.00  0.00     0.077 C 
ATOM      2  C1' PXY d   1      -6.000  -1.098  -4.181  0.00  0.00     0.077 C 
ATOM      3  C1  PXY d   1      -5.668   0.353  -4.469  0.00  0.00    -0.082 A 
ATOM      4  C2  PXY d   1      -5.631   0.780  -5.720  0.00  0.00     0.003 A 
ATOM      5  C3  PXY d   1      -5.301   2.082  -6.000  0.00  0.00     0.003 A 
ATOM      6  C4  PXY d   1      -5.060   2.968  -4.985  0.00  0.00    -0.082 A 
ATOM      7  C5  PXY d   1      -5.107   2.543  -3.705  0.00  0.00     0.003 A 
ATOM      8  C6  PXY d   1      -5.402   1.208  -3.444  0.00  0.00     0.003 A 
ENDROOT
TORSDOF 0
ENDMDL
