MODEL 1
REMARK minimizedAffinity 3.14329886
REMARK minimizedRMSD -1
REMARK  0 active torsions:
REMARK  status: ('A' for Active; 'I' for Inactive)
ROOT
ATOM      1  C4' PXY d   1      -6.000   2.253  -3.386  0.00  0.00     0.077 C 
ATOM      2  C1' PXY d   1      -1.498   4.776  -5.992  0.00  0.00     0.077 C 
ATOM      3  C1  PXY d   1      -2.687   4.120  -5.317  0.00  0.00    -0.082 A 
ATOM      4  C2  PXY d   1      -2.579   3.699  -4.067  0.00  0.00     0.003 A 
ATOM      5  C3  PXY d   1      -3.634   3.075  -3.452  0.00  0.00     0.003 A 
ATOM      6  C4  PXY d   1      -4.829   2.929  -4.105  0.00  0.00    -0.082 A 
ATOM      7  C5  PXY d   1      -4.950   3.366  -5.376  0.00  0.00     0.003 A 
ATOM      8  C6  PXY d   1      -3.854   3.960  -5.996  0.00  0.00     0.003 A 
ENDROOT
TORSDOF 0
ENDMDL
