MODEL 1
REMARK minimizedAffinity -1.01012707
REMARK minimizedRMSD -1
REMARK  0 active torsions:
REMARK  status: ('A' for Active; 'I' for Inactive)
ROOT
ATOM      1  C4' PXY d   1      -1.169   5.367  -5.243  0.00  0.00     0.077 C 
ATOM      2  C1' PXY d   1      -5.999   2.191  -5.269  0.00  0.00     0.077 C 
ATOM      3  C1  PXY d   1      -4.729   3.019  -5.250  0.00  0.00    -0.082 A 
ATOM      4  C2  PXY d   1      -4.657   4.121  -5.979  0.00  0.00     0.003 A 
ATOM      5  C3  PXY d   1      -3.505   4.865  -5.999  0.00  0.00     0.003 A 
ATOM      6  C4  PXY d   1      -2.435   4.505  -5.224  0.00  0.00    -0.082 A 
ATOM      7  C5  PXY d   1      -2.505   3.388  -4.469  0.00  0.00     0.003 A 
ATOM      8  C6  PXY d   1      -3.669   2.625  -4.495  0.00  0.00     0.003 A 
ENDROOT
TORSDOF 0
ENDMDL
