MODEL 1
REMARK minimizedAffinity 3.2881341
REMARK minimizedRMSD -1
REMARK  0 active torsions:
REMARK  status: ('A' for Active; 'I' for Inactive)
ROOT
ATOM      1  C4' PXY d   1       0.535  -1.111   3.866  0.00  0.00     0.077 C 
ATOM      2  C1' PXY d   1       0.278   2.949  -0.241  0.00  0.00     0.077 C 
ATOM      3  C1  PXY d   1       0.342   1.875   0.827  0.00  0.00    -0.082 A 
ATOM      4  C2  PXY d   1       0.197   2.209   2.099  0.00  0.00     0.003 A 
ATOM      5  C3  PXY d   1       0.284   1.255   3.081  0.00  0.00     0.003 A 
ATOM      6  C4  PXY d   1       0.468  -0.061   2.753  0.00  0.00    -0.082 A 
ATOM      7  C5  PXY d   1       0.606  -0.411   1.457  0.00  0.00     0.003 A 
ATOM      8  C6  PXY d   1       0.556   0.578   0.478  0.00  0.00     0.003 A 
ENDROOT
TORSDOF 0
ENDMDL
