MODEL 1
REMARK minimizedAffinity 3.10077167
REMARK minimizedRMSD -1
REMARK  0 active torsions:
REMARK  status: ('A' for Active; 'I' for Inactive)
ROOT
ATOM      1  C4' PXY d   1      -6.000   1.522  -5.550  0.00  0.00     0.077 C 
ATOM      2  C1' PXY d   1      -1.497   4.966  -4.420  0.00  0.00     0.077 C 
ATOM      3  C1  PXY d   1      -2.671   4.053  -4.713  0.00  0.00    -0.082 A 
ATOM      4  C2  PXY d   1      -3.595   4.433  -5.579  0.00  0.00     0.003 A 
ATOM      5  C3  PXY d   1      -4.680   3.633  -5.832  0.00  0.00     0.003 A 
ATOM      6  C4  PXY d   1      -4.793   2.408  -5.231  0.00  0.00    -0.082 A 
ATOM      7  C5  PXY d   1      -3.848   2.008  -4.353  0.00  0.00     0.003 A 
ATOM      8  C6  PXY d   1      -2.776   2.853  -4.080  0.00  0.00     0.003 A 
ENDROOT
TORSDOF 0
ENDMDL
