MODEL 1
REMARK minimizedAffinity -3.86104703
REMARK minimizedRMSD -1
REMARK  0 active torsions:
REMARK  status: ('A' for Active; 'I' for Inactive)
ROOT
ATOM      1  C4' PXY d   1      -1.123   6.000  -5.913  0.00  0.00     0.077 C 
ATOM      2  C1' PXY d   1      -5.018   2.294  -3.790  0.00  0.00     0.077 C 
ATOM      3  C1  PXY d   1      -3.992   3.267  -4.335  0.00  0.00    -0.082 A 
ATOM      4  C2  PXY d   1      -4.226   3.894  -5.477  0.00  0.00     0.003 A 
ATOM      5  C3  PXY d   1      -3.295   4.753  -6.000  0.00  0.00     0.003 A 
ATOM      6  C4  PXY d   1      -2.135   5.015  -5.321  0.00  0.00    -0.082 A 
ATOM      7  C5  PXY d   1      -1.894   4.389  -4.150  0.00  0.00     0.003 A 
ATOM      8  C6  PXY d   1      -2.833   3.488  -3.656  0.00  0.00     0.003 A 
ENDROOT
TORSDOF 0
ENDMDL
