MODEL 1
REMARK minimizedAffinity 4.02142906
REMARK minimizedRMSD -1
REMARK  0 active torsions:
REMARK  status: ('A' for Active; 'I' for Inactive)
ROOT
ATOM      1  C4' PXY d   1      -4.898   5.849  -6.000  0.00  0.00     0.077 C 
ATOM      2  C1' PXY d   1      -4.132   0.552  -3.814  0.00  0.00     0.077 C 
ATOM      3  C1  PXY d   1      -4.331   1.947  -4.375  0.00  0.00    -0.082 A 
ATOM      4  C2  PXY d   1      -5.069   2.116  -5.460  0.00  0.00     0.003 A 
ATOM      5  C3  PXY d   1      -5.233   3.366  -6.000  0.00  0.00     0.003 A 
ATOM      6  C4  PXY d   1      -4.679   4.460  -5.392  0.00  0.00    -0.082 A 
ATOM      7  C5  PXY d   1      -3.933   4.297  -4.279  0.00  0.00     0.003 A 
ATOM      8  C6  PXY d   1      -3.745   3.015  -3.771  0.00  0.00     0.003 A 
ENDROOT
TORSDOF 0
ENDMDL
