MODEL 1
REMARK minimizedAffinity 1.60393894
REMARK minimizedRMSD -1
REMARK  0 active torsions:
REMARK  status: ('A' for Active; 'I' for Inactive)
ROOT
ATOM      1  C4' PXY d   1      -6.000   0.275  -2.312  0.00  0.00     0.077 C 
ATOM      2  C1' PXY d   1      -4.826   4.569  -5.999  0.00  0.00     0.077 C 
ATOM      3  C1  PXY d   1      -5.142   3.438  -5.041  0.00  0.00    -0.082 A 
ATOM      4  C2  PXY d   1      -4.918   3.596  -3.747  0.00  0.00     0.003 A 
ATOM      5  C3  PXY d   1      -5.168   2.572  -2.870  0.00  0.00     0.003 A 
ATOM      6  C4  PXY d   1      -5.704   1.394  -3.315  0.00  0.00    -0.082 A 
ATOM      7  C5  PXY d   1      -5.946   1.229  -4.633  0.00  0.00     0.003 A 
ATOM      8  C6  PXY d   1      -5.646   2.266  -5.512  0.00  0.00     0.003 A 
ENDROOT
TORSDOF 0
ENDMDL
