MODEL 1
REMARK minimizedAffinity 6.61421061
REMARK minimizedRMSD -1
REMARK  0 active torsions:
REMARK  status: ('A' for Active; 'I' for Inactive)
ROOT
ATOM      1  C4' PXY d   1       1.191   5.626   0.146  0.00  0.00     0.077 C 
ATOM      2  C1' PXY d   1       0.399   0.304   2.258  0.00  0.00     0.077 C 
ATOM      3  C1  PXY d   1       0.604   1.704   1.716  0.00  0.00    -0.082 A 
ATOM      4  C2  PXY d   1       0.472   1.929   0.419  0.00  0.00     0.003 A 
ATOM      5  C3  PXY d   1       0.685   3.183  -0.093  0.00  0.00     0.003 A 
ATOM      6  C4  PXY d   1       0.984   4.229   0.739  0.00  0.00    -0.082 A 
ATOM      7  C5  PXY d   1       1.109   4.010   2.065  0.00  0.00     0.003 A 
ATOM      8  C6  PXY d   1       0.929   2.722   2.559  0.00  0.00     0.003 A 
ENDROOT
TORSDOF 0
ENDMDL
