MODEL 1
REMARK minimizedAffinity 5.60592318
REMARK minimizedRMSD -1
REMARK  0 active torsions:
REMARK  status: ('A' for Active; 'I' for Inactive)
ROOT
ATOM      1  C4' PXY d   1      -5.998   4.483  -6.000  0.00  0.00     0.077 C 
ATOM      2  C1' PXY d   1      -1.870   3.178  -2.170  0.00  0.00     0.077 C 
ATOM      3  C1  PXY d   1      -2.959   3.510  -3.170  0.00  0.00    -0.082 A 
ATOM      4  C2  PXY d   1      -2.668   4.235  -4.238  0.00  0.00     0.003 A 
ATOM      5  C3  PXY d   1      -3.648   4.571  -5.137  0.00  0.00     0.003 A 
ATOM      6  C4  PXY d   1      -4.928   4.116  -4.968  0.00  0.00    -0.082 A 
ATOM      7  C5  PXY d   1      -5.231   3.367  -3.886  0.00  0.00     0.003 A 
ATOM      8  C6  PXY d   1      -4.231   3.071  -2.965  0.00  0.00     0.003 A 
ENDROOT
TORSDOF 0
ENDMDL
