MODEL 1
REMARK minimizedAffinity 2.26186109
REMARK minimizedRMSD -1
REMARK  0 active torsions:
REMARK  status: ('A' for Active; 'I' for Inactive)
ROOT
ATOM      1  C4' PXY d   1       1.386  -1.377   3.412  0.00  0.00     0.077 C 
ATOM      2  C1' PXY d   1      -0.629   2.340  -0.530  0.00  0.00     0.077 C 
ATOM      3  C1  PXY d   1      -0.097   1.375   0.511  0.00  0.00    -0.082 A 
ATOM      4  C2  PXY d   1       0.233   0.144   0.154  0.00  0.00     0.003 A 
ATOM      5  C3  PXY d   1       0.686  -0.751   1.089  0.00  0.00     0.003 A 
ATOM      6  C4  PXY d   1       0.853  -0.366   2.393  0.00  0.00    -0.082 A 
ATOM      7  C5  PXY d   1       0.529   0.891   2.762  0.00  0.00     0.003 A 
ATOM      8  C6  PXY d   1       0.032   1.772   1.806  0.00  0.00     0.003 A 
ENDROOT
TORSDOF 0
ENDMDL
