MODEL 1
REMARK minimizedAffinity 8.79731178
REMARK minimizedRMSD -1
REMARK  0 active torsions:
REMARK  status: ('A' for Active; 'I' for Inactive)
ROOT
ATOM      1  N1  IND d   1      -3.903  -2.136   0.772  0.00  0.00    -0.196 N 
ATOM      2  C2  IND d   1      -5.027  -1.495   0.330  0.00  0.00     0.054 A 
ATOM      3  C3  IND d   1      -5.999  -2.391   0.049  0.00  0.00    -0.031 A 
ATOM      4  C4  IND d   1      -6.000  -4.949   0.338  0.00  0.00     0.051 A 
ATOM      5  C5  IND d   1      -5.188  -5.995   0.674  0.00  0.00    -0.031 A 
ATOM      6  C6  IND d   1      -3.880  -5.804   1.072  0.00  0.00     0.015 A 
ATOM      7  C7  IND d   1      -3.337  -4.553   1.158  0.00  0.00    -0.016 A 
ATOM      8  C8  IND d   1      -4.157  -3.489   0.810  0.00  0.00    -0.047 A 
ATOM      9  C9  IND d   1      -5.471  -3.680   0.365  0.00  0.00    -0.096 A 
ATOM     10  HN1 IND d   1      -3.162  -1.757   0.989  0.00  0.00     0.298 HD
ENDROOT
TORSDOF 0
ENDMDL
