MODEL 1
REMARK minimizedAffinity -3.32334352
REMARK minimizedRMSD -1
REMARK  0 active torsions:
REMARK  status: ('A' for Active; 'I' for Inactive)
ROOT
ATOM      1  N1  IND d   1      -6.000  -4.867   2.720  0.00  0.00    -0.196 N 
ATOM      2  C2  IND d   1      -5.238  -5.999   2.640  0.00  0.00     0.054 A 
ATOM      3  C3  IND d   1      -4.317  -5.877   1.658  0.00  0.00    -0.031 A 
ATOM      4  C4  IND d   1      -3.814  -3.870   0.127  0.00  0.00     0.051 A 
ATOM      5  C5  IND d   1      -4.268  -2.622  -0.198  0.00  0.00    -0.031 A 
ATOM      6  C6  IND d   1      -5.343  -2.047   0.448  0.00  0.00     0.015 A 
ATOM      7  C7  IND d   1      -5.999  -2.696   1.456  0.00  0.00    -0.016 A 
ATOM      8  C8  IND d   1      -5.545  -3.965   1.783  0.00  0.00    -0.047 A 
ATOM      9  C9  IND d   1      -4.482  -4.571   1.103  0.00  0.00    -0.096 A 
ATOM     10  HN1 IND d   1      -6.653  -4.740   3.264  0.00  0.00     0.298 HD
ENDROOT
TORSDOF 0
ENDMDL
