MODEL 1
REMARK minimizedAffinity 8.57382393
REMARK minimizedRMSD -1
REMARK  0 active torsions:
REMARK  status: ('A' for Active; 'I' for Inactive)
ROOT
ATOM      1  N1  IND d   1      -5.090  -5.478  -0.347  0.00  0.00    -0.196 N 
ATOM      2  C2  IND d   1      -3.884  -6.000   0.028  0.00  0.00     0.054 A 
ATOM      3  C3  IND d   1      -3.041  -5.012   0.405  0.00  0.00    -0.031 A 
ATOM      4  C4  IND d   1      -3.464  -2.479   0.581  0.00  0.00     0.051 A 
ATOM      5  C5  IND d   1      -4.403  -1.523   0.312  0.00  0.00    -0.031 A 
ATOM      6  C6  IND d   1      -5.644  -1.842  -0.198  0.00  0.00     0.015 A 
ATOM      7  C7  IND d   1      -5.999  -3.138  -0.448  0.00  0.00    -0.016 A 
ATOM      8  C8  IND d   1      -5.046  -4.111  -0.183  0.00  0.00    -0.047 A 
ATOM      9  C9  IND d   1      -3.770  -3.789   0.294  0.00  0.00    -0.096 A 
ATOM     10  HN1 IND d   1      -5.763  -5.928  -0.637  0.00  0.00     0.298 HD
ENDROOT
TORSDOF 0
ENDMDL
