MODEL 1
REMARK minimizedAffinity 10.5635424
REMARK minimizedRMSD -1
REMARK  0 active torsions:
REMARK  status: ('A' for Active; 'I' for Inactive)
ROOT
ATOM      1  N1  IND d   1      -4.231  -2.593  -0.592  0.00  0.00    -0.196 N 
ATOM      2  C2  IND d   1      -5.160  -1.678  -0.182  0.00  0.00     0.054 A 
ATOM      3  C3  IND d   1      -5.999  -2.232   0.721  0.00  0.00    -0.031 A 
ATOM      4  C4  IND d   1      -5.970  -4.593   1.747  0.00  0.00     0.051 A 
ATOM      5  C5  IND d   1      -5.331  -5.798   1.658  0.00  0.00    -0.031 A 
ATOM      6  C6  IND d   1      -4.270  -6.000   0.799  0.00  0.00     0.015 A 
ATOM      7  C7  IND d   1      -3.799  -4.996   0.002  0.00  0.00    -0.016 A 
ATOM      8  C8  IND d   1      -4.449  -3.773   0.084  0.00  0.00    -0.047 A 
ATOM      9  C9  IND d   1      -5.553  -3.574   0.923  0.00  0.00    -0.096 A 
ATOM     10  HN1 IND d   1      -3.613  -2.454  -1.175  0.00  0.00     0.298 HD
ENDROOT
TORSDOF 0
ENDMDL
