MODEL 1
REMARK minimizedAffinity 9.60082436
REMARK minimizedRMSD -1
REMARK  0 active torsions:
REMARK  status: ('A' for Active; 'I' for Inactive)
ROOT
ATOM      1  N1  IND d   1      -0.688   3.219   2.699  0.00  0.00    -0.196 N 
ATOM      2  C2  IND d   1      -1.986   3.339   2.288  0.00  0.00     0.054 A 
ATOM      3  C3  IND d   1      -2.561   2.119   2.186  0.00  0.00    -0.031 A 
ATOM      4  C4  IND d   1      -1.589  -0.199   2.742  0.00  0.00     0.051 A 
ATOM      5  C5  IND d   1      -0.431  -0.819   3.118  0.00  0.00    -0.031 A 
ATOM      6  C6  IND d   1       0.723  -0.111   3.381  0.00  0.00     0.015 A 
ATOM      7  C7  IND d   1       0.759   1.252   3.289  0.00  0.00    -0.016 A 
ATOM      8  C8  IND d   1      -0.413   1.885   2.901  0.00  0.00    -0.047 A 
ATOM      9  C9  IND d   1      -1.576   1.168   2.591  0.00  0.00    -0.096 A 
ATOM     10  HN1 IND d   1      -0.136   3.869   2.813  0.00  0.00     0.298 HD
ENDROOT
TORSDOF 0
ENDMDL
