MODEL 1
REMARK minimizedAffinity 15.6379042
REMARK minimizedRMSD -1
REMARK  0 active torsions:
REMARK  status: ('A' for Active; 'I' for Inactive)
ROOT
ATOM      1  N1  IND d   1       2.770   0.283  -3.049  0.00  0.00    -0.196 N 
ATOM      2  C2  IND d   1       1.881  -0.521  -3.709  0.00  0.00     0.054 A 
ATOM      3  C3  IND d   1       1.539   0.031  -4.895  0.00  0.00    -0.031 A 
ATOM      4  C4  IND d   1       2.392   2.194  -6.000  0.00  0.00     0.051 A 
ATOM      5  C5  IND d   1       3.184   3.283  -5.766  0.00  0.00    -0.031 A 
ATOM      6  C6  IND d   1       3.894   3.429  -4.592  0.00  0.00     0.015 A 
ATOM      7  C7  IND d   1       3.848   2.482  -3.609  0.00  0.00    -0.016 A 
ATOM      8  C8  IND d   1       3.040   1.378  -3.840  0.00  0.00    -0.047 A 
ATOM      9  C9  IND d   1       2.283   1.245  -5.011  0.00  0.00    -0.096 A 
ATOM     10  HN1 IND d   1       3.103   0.130  -2.272  0.00  0.00     0.298 HD
ENDROOT
TORSDOF 0
ENDMDL
