MODEL 1
REMARK minimizedAffinity 9.41240883
REMARK minimizedRMSD -1
REMARK  0 active torsions:
REMARK  status: ('A' for Active; 'I' for Inactive)
ROOT
ATOM      1  N1  IND d   1       0.051  -3.697  -5.253  0.00  0.00    -0.196 N 
ATOM      2  C2  IND d   1      -1.159  -3.693  -5.890  0.00  0.00     0.054 A 
ATOM      3  C3  IND d   1      -1.629  -2.431  -5.999  0.00  0.00    -0.031 A 
ATOM      4  C4  IND d   1      -0.534  -0.210  -5.294  0.00  0.00     0.051 A 
ATOM      5  C5  IND d   1       0.555   0.294  -4.639  0.00  0.00    -0.031 A 
ATOM      6  C6  IND d   1       1.553  -0.523  -4.148  0.00  0.00     0.015 A 
ATOM      7  C7  IND d   1       1.504  -1.880  -4.304  0.00  0.00    -0.016 A 
ATOM      8  C8  IND d   1       0.397  -2.395  -4.962  0.00  0.00    -0.047 A 
ATOM      9  C9  IND d   1      -0.640  -1.575  -5.425  0.00  0.00    -0.096 A 
ATOM     10  HN1 IND d   1       0.517  -4.394  -5.065  0.00  0.00     0.298 HD
ENDROOT
TORSDOF 0
ENDMDL
