MODEL 1
REMARK minimizedAffinity 10.735774
REMARK minimizedRMSD -1
REMARK  0 active torsions:
REMARK  status: ('A' for Active; 'I' for Inactive)
ROOT
ATOM      1  N1  IND d   1       1.574   4.119  -2.288  0.00  0.00    -0.196 N 
ATOM      2  C2  IND d   1       2.445   3.504  -1.433  0.00  0.00     0.054 A 
ATOM      3  C3  IND d   1       3.658   3.371  -2.013  0.00  0.00    -0.031 A 
ATOM      4  C4  IND d   1       4.467   4.181  -4.319  0.00  0.00     0.051 A 
ATOM      5  C5  IND d   1       4.022   4.763  -5.473  0.00  0.00    -0.031 A 
ATOM      6  C6  IND d   1       2.713   5.171  -5.626  0.00  0.00     0.015 A 
ATOM      7  C7  IND d   1       1.798   5.022  -4.623  0.00  0.00    -0.016 A 
ATOM      8  C8  IND d   1       2.244   4.425  -3.452  0.00  0.00    -0.047 A 
ATOM      9  C9  IND d   1       3.561   3.970  -3.306  0.00  0.00    -0.096 A 
ATOM     10  HN1 IND d   1       0.746   4.287  -2.126  0.00  0.00     0.298 HD
ENDROOT
TORSDOF 0
ENDMDL
