MODEL 1
REMARK minimizedAffinity 15.3786583
REMARK minimizedRMSD -1
REMARK  0 active torsions:
REMARK  status: ('A' for Active; 'I' for Inactive)
ROOT
ATOM      1  N1  IND d   1       5.486  -2.306   2.946  0.00  0.00    -0.196 N 
ATOM      2  C2  IND d   1       5.512  -1.229   3.788  0.00  0.00     0.054 A 
ATOM      3  C3  IND d   1       5.662  -1.637   5.068  0.00  0.00    -0.031 A 
ATOM      4  C4  IND d   1       5.988  -4.014   6.000  0.00  0.00     0.051 A 
ATOM      5  C5  IND d   1       6.000  -5.328   5.621  0.00  0.00    -0.031 A 
ATOM      6  C6  IND d   1       5.840  -5.708   4.304  0.00  0.00     0.015 A 
ATOM      7  C7  IND d   1       5.674  -4.785   3.311  0.00  0.00    -0.016 A 
ATOM      8  C8  IND d   1       5.654  -3.451   3.693  0.00  0.00    -0.047 A 
ATOM      9  C9  IND d   1       5.773  -3.061   5.033  0.00  0.00    -0.096 A 
ATOM     10  HN1 IND d   1       5.382  -2.273   2.093  0.00  0.00     0.298 HD
ENDROOT
TORSDOF 0
ENDMDL
