MODEL 1
REMARK minimizedAffinity 1.99387097
REMARK minimizedRMSD -1
REMARK  0 active torsions:
REMARK  status: ('A' for Active; 'I' for Inactive)
ROOT
ATOM      1  N1  IND d   1      -2.003  -3.598  -6.000  0.00  0.00    -0.196 N 
ATOM      2  C2  IND d   1      -1.510  -2.323  -5.995  0.00  0.00     0.054 A 
ATOM      3  C3  IND d   1      -2.522  -1.427  -5.999  0.00  0.00    -0.031 A 
ATOM      4  C4  IND d   1      -5.063  -1.829  -5.912  0.00  0.00     0.051 A 
ATOM      5  C5  IND d   1      -5.997  -2.826  -5.942  0.00  0.00    -0.031 A 
ATOM      6  C6  IND d   1      -5.641  -4.159  -5.990  0.00  0.00     0.015 A 
ATOM      7  C7  IND d   1      -4.331  -4.545  -6.000  0.00  0.00    -0.016 A 
ATOM      8  C8  IND d   1      -3.379  -3.536  -5.977  0.00  0.00    -0.047 A 
ATOM      9  C9  IND d   1      -3.735  -2.181  -5.971  0.00  0.00    -0.096 A 
ATOM     10  HN1 IND d   1      -1.533  -4.318  -6.015  0.00  0.00     0.298 HD
ENDROOT
TORSDOF 0
ENDMDL
