MODEL 1
REMARK minimizedAffinity 10.8877153
REMARK minimizedRMSD -1
REMARK  0 active torsions:
REMARK  status: ('A' for Active; 'I' for Inactive)
ROOT
ATOM      1  N1  IND d   1       3.383   5.998  -4.127  0.00  0.00    -0.196 N 
ATOM      2  C2  IND d   1       2.162   5.968  -4.741  0.00  0.00     0.054 A 
ATOM      3  C3  IND d   1       2.079   4.903  -5.571  0.00  0.00    -0.031 A 
ATOM      4  C4  IND d   1       3.788   3.026  -5.998  0.00  0.00     0.051 A 
ATOM      5  C5  IND d   1       5.063   2.641  -5.695  0.00  0.00    -0.031 A 
ATOM      6  C6  IND d   1       5.859   3.368  -4.834  0.00  0.00     0.015 A 
ATOM      7  C7  IND d   1       5.403   4.507  -4.233  0.00  0.00    -0.016 A 
ATOM      8  C8  IND d   1       4.110   4.905  -4.544  0.00  0.00    -0.047 A 
ATOM      9  C9  IND d   1       3.313   4.194  -5.450  0.00  0.00    -0.096 A 
ATOM     10  HN1 IND d   1       3.651   6.598  -3.573  0.00  0.00     0.298 HD
ENDROOT
TORSDOF 0
ENDMDL
