MODEL 1
REMARK minimizedAffinity 7.07387161
REMARK minimizedRMSD -1
REMARK  0 active torsions:
REMARK  status: ('A' for Active; 'I' for Inactive)
ROOT
ATOM      1  N1  IND d   1      -4.441   2.614   2.279  0.00  0.00    -0.196 N 
ATOM      2  C2  IND d   1      -3.794   3.726   2.742  0.00  0.00     0.054 A 
ATOM      3  C3  IND d   1      -2.456   3.535   2.721  0.00  0.00    -0.031 A 
ATOM      4  C4  IND d   1      -1.106   1.513   1.872  0.00  0.00     0.051 A 
ATOM      5  C5  IND d   1      -1.256   0.243   1.391  0.00  0.00    -0.031 A 
ATOM      6  C6  IND d   1      -2.501  -0.312   1.175  0.00  0.00     0.015 A 
ATOM      7  C7  IND d   1      -3.647   0.390   1.422  0.00  0.00    -0.016 A 
ATOM      8  C8  IND d   1      -3.498   1.678   1.917  0.00  0.00    -0.047 A 
ATOM      9  C9  IND d   1      -2.238   2.231   2.178  0.00  0.00    -0.096 A 
ATOM     10  HN1 IND d   1      -5.293   2.516   2.224  0.00  0.00     0.298 HD
ENDROOT
TORSDOF 0
ENDMDL
