MODEL 1
REMARK minimizedAffinity 12.7822533
REMARK minimizedRMSD -1
REMARK  0 active torsions:
REMARK  status: ('A' for Active; 'I' for Inactive)
ROOT
ATOM      1  N1  IND d   1      -4.641  -3.597  -5.992  0.00  0.00    -0.196 N 
ATOM      2  C2  IND d   1      -4.455  -4.951  -5.988  0.00  0.00     0.054 A 
ATOM      3  C3  IND d   1      -3.135  -5.244  -5.999  0.00  0.00    -0.031 A 
ATOM      4  C4  IND d   1      -1.107  -3.660  -5.922  0.00  0.00     0.051 A 
ATOM      5  C5  IND d   1      -0.774  -2.335  -5.953  0.00  0.00    -0.031 A 
ATOM      6  C6  IND d   1      -1.732  -1.343  -5.997  0.00  0.00     0.015 A 
ATOM      7  C7  IND d   1      -3.066  -1.640  -6.000  0.00  0.00    -0.016 A 
ATOM      8  C8  IND d   1      -3.408  -2.984  -5.976  0.00  0.00    -0.047 A 
ATOM      9  C9  IND d   1      -2.439  -3.997  -5.974  0.00  0.00    -0.096 A 
ATOM     10  HN1 IND d   1      -5.402  -3.196  -6.004  0.00  0.00     0.298 HD
ENDROOT
TORSDOF 0
ENDMDL
