MODEL 1
REMARK minimizedAffinity 7.6135745
REMARK minimizedRMSD -1
REMARK  0 active torsions:
REMARK  status: ('A' for Active; 'I' for Inactive)
ROOT
ATOM      1  N1  IND d   1      -4.927  -3.959  -5.229  0.00  0.00    -0.196 N 
ATOM      2  C2  IND d   1      -3.795  -4.051  -5.990  0.00  0.00     0.054 A 
ATOM      3  C3  IND d   1      -3.135  -2.871  -5.997  0.00  0.00    -0.031 A 
ATOM      4  C4  IND d   1      -3.679  -0.686  -4.749  0.00  0.00     0.051 A 
ATOM      5  C5  IND d   1      -4.630  -0.105  -3.959  0.00  0.00    -0.031 A 
ATOM      6  C6  IND d   1      -5.751  -0.793  -3.541  0.00  0.00     0.015 A 
ATOM      7  C7  IND d   1      -5.957  -2.098  -3.890  0.00  0.00    -0.016 A 
ATOM      8  C8  IND d   1      -4.996  -2.689  -4.698  0.00  0.00    -0.047 A 
ATOM      9  C9  IND d   1      -3.878  -1.983  -5.160  0.00  0.00    -0.096 A 
ATOM     10  HN1 IND d   1      -5.500  -4.587  -5.104  0.00  0.00     0.298 HD
ENDROOT
TORSDOF 0
ENDMDL
