MODEL 1
REMARK minimizedAffinity 12.6258287
REMARK minimizedRMSD -1
REMARK  0 active torsions:
REMARK  status: ('A' for Active; 'I' for Inactive)
ROOT
ATOM      1  N1  IND d   1       2.773   1.996  -5.973  0.00  0.00    -0.196 N 
ATOM      2  C2  IND d   1       3.559   0.878  -5.991  0.00  0.00     0.054 A 
ATOM      3  C3  IND d   1       4.866   1.221  -5.994  0.00  0.00    -0.031 A 
ATOM      4  C4  IND d   1       5.944   3.555  -5.868  0.00  0.00     0.051 A 
ATOM      5  C5  IND d   1       5.635   4.887  -5.872  0.00  0.00    -0.031 A 
ATOM      6  C6  IND d   1       4.329   5.331  -5.908  0.00  0.00     0.015 A 
ATOM      7  C7  IND d   1       3.279   4.457  -5.930  0.00  0.00    -0.016 A 
ATOM      8  C8  IND d   1       3.590   3.105  -5.933  0.00  0.00    -0.047 A 
ATOM      9  C9  IND d   1       4.914   2.648  -5.940  0.00  0.00    -0.096 A 
ATOM     10  HN1 IND d   1       1.913   2.006  -5.985  0.00  0.00     0.298 HD
ENDROOT
TORSDOF 0
ENDMDL
