MODEL 1
REMARK minimizedAffinity 9.29543495
REMARK minimizedRMSD -1
REMARK  0 active torsions:
REMARK  status: ('A' for Active; 'I' for Inactive)
ROOT
ATOM      1  N1  IND d   1       3.935  -0.661   3.141  0.00  0.00    -0.196 N 
ATOM      2  C2  IND d   1       5.015  -0.394   2.347  0.00  0.00     0.054 A 
ATOM      3  C3  IND d   1       4.780   0.698   1.585  0.00  0.00    -0.031 A 
ATOM      4  C4  IND d   1       2.733   2.259   1.550  0.00  0.00     0.051 A 
ATOM      5  C5  IND d   1       1.478   2.402   2.073  0.00  0.00    -0.031 A 
ATOM      6  C6  IND d   1       0.969   1.514   2.999  0.00  0.00     0.015 A 
ATOM      7  C7  IND d   1       1.703   0.453   3.448  0.00  0.00    -0.016 A 
ATOM      8  C8  IND d   1       2.975   0.301   2.914  0.00  0.00    -0.047 A 
ATOM      9  C9  IND d   1       3.481   1.174   1.942  0.00  0.00    -0.096 A 
ATOM     10  HN1 IND d   1       3.866  -1.319   3.690  0.00  0.00     0.298 HD
ENDROOT
TORSDOF 0
ENDMDL
