MODEL 1
REMARK minimizedAffinity 1.50646949
REMARK minimizedRMSD -1
REMARK  0 active torsions:
REMARK  status: ('A' for Active; 'I' for Inactive)
ROOT
ATOM      1  N1  IND d   1      -3.011   0.000   5.233  0.00  0.00    -0.196 N 
ATOM      2  C2  IND d   1      -3.920   0.674   6.000  0.00  0.00     0.054 A 
ATOM      3  C3  IND d   1      -3.703   2.006   5.925  0.00  0.00    -0.031 A 
ATOM      4  C4  IND d   1      -1.977   3.306   4.527  0.00  0.00     0.051 A 
ATOM      5  C5  IND d   1      -0.906   3.125   3.697  0.00  0.00    -0.031 A 
ATOM      6  C6  IND d   1      -0.475   1.867   3.327  0.00  0.00     0.015 A 
ATOM      7  C7  IND d   1      -1.109   0.739   3.767  0.00  0.00    -0.016 A 
ATOM      8  C8  IND d   1      -2.192   0.920   4.615  0.00  0.00    -0.047 A 
ATOM      9  C9  IND d   1      -2.608   2.192   5.028  0.00  0.00    -0.096 A 
ATOM     10  HN1 IND d   1      -2.958  -0.854   5.151  0.00  0.00     0.298 HD
ENDROOT
TORSDOF 0
ENDMDL
