MODEL 1
REMARK minimizedAffinity -5.51473045
REMARK minimizedRMSD -1
REMARK  0 active torsions:
REMARK  status: ('A' for Active; 'I' for Inactive)
ROOT
ATOM      1  C   UNL d   1       3.399  -0.984   0.763  0.00  0.00    -0.002 A 
ATOM      2  C1  UNL d   1       3.376   0.370   1.066  0.00  0.00     0.010 A 
ATOM      3  C2  UNL d   1       2.233   1.134   0.819  0.00  0.00     0.041 A 
ATOM      4  C3  UNL d   1       1.103   0.507   0.258  0.00  0.00    -0.075 A 
ATOM      5  S   UNL d   1      -0.407   1.242  -0.131  0.00  0.00     0.015 SA
ATOM      6  C4  UNL d   1      -1.057  -0.224  -0.708  0.00  0.00     0.022 A 
ATOM      7  C5  UNL d   1      -0.157  -1.259  -0.614  0.00  0.00     0.026 A 
ATOM      8  C6  UNL d   1       1.102  -0.855  -0.055  0.00  0.00    -0.082 A 
ATOM      9  C7  UNL d   1       2.276  -1.602   0.207  0.00  0.00     0.045 A 
ENDROOT
TORSDOF 0
ENDMDL
