MODEL 1
REMARK minimizedAffinity -2.31902814
REMARK minimizedRMSD -1
REMARK  0 active torsions:
REMARK  status: ('A' for Active; 'I' for Inactive)
ROOT
ATOM      1  C   UNL d   1      -0.731  -1.661  -0.468  0.00  0.00    -0.002 A 
ATOM      2  C1  UNL d   1       0.514  -2.013   0.035  0.00  0.00     0.010 A 
ATOM      3  C2  UNL d   1       1.446  -1.031   0.376  0.00  0.00     0.041 A 
ATOM      4  C3  UNL d   1       1.103   0.324   0.201  0.00  0.00    -0.075 A 
ATOM      5  S   UNL d   1       2.084   1.698   0.550  0.00  0.00     0.015 SA
ATOM      6  C4  UNL d   1       0.874   2.785   0.040  0.00  0.00     0.022 A 
ATOM      7  C5  UNL d   1      -0.257   2.132  -0.390  0.00  0.00     0.026 A 
ATOM      8  C6  UNL d   1      -0.145   0.703  -0.304  0.00  0.00    -0.082 A 
ATOM      9  C7  UNL d   1      -1.068  -0.316  -0.640  0.00  0.00     0.045 A 
ENDROOT
TORSDOF 0
ENDMDL
