MODEL 1
REMARK minimizedAffinity -1.43965364
REMARK minimizedRMSD -1
REMARK  0 active torsions:
REMARK  status: ('A' for Active; 'I' for Inactive)
ROOT
ATOM      1  C   UNL d   1       3.654   1.414  -0.323  0.00  0.00    -0.002 A 
ATOM      2  C1  UNL d   1       2.752   2.459  -0.176  0.00  0.00     0.010 A 
ATOM      3  C2  UNL d   1       1.377   2.220  -0.210  0.00  0.00     0.041 A 
ATOM      4  C3  UNL d   1       0.918   0.900  -0.394  0.00  0.00    -0.075 A 
ATOM      5  S   UNL d   1      -0.720   0.370  -0.468  0.00  0.00     0.015 SA
ATOM      6  C4  UNL d   1      -0.262  -1.256  -0.695  0.00  0.00     0.022 A 
ATOM      7  C5  UNL d   1       1.104  -1.408  -0.717  0.00  0.00     0.026 A 
ATOM      8  C6  UNL d   1       1.807  -0.168  -0.543  0.00  0.00    -0.082 A 
ATOM      9  C7  UNL d   1       3.195   0.106  -0.505  0.00  0.00     0.045 A 
ENDROOT
TORSDOF 0
ENDMDL
