MODEL 1
REMARK minimizedAffinity -2.51963806
REMARK minimizedRMSD -1
REMARK  0 active torsions:
REMARK  status: ('A' for Active; 'I' for Inactive)
ROOT
ATOM      1  C   UNL d   1       2.907   2.471  -0.250  0.00  0.00    -0.002 A 
ATOM      2  C1  UNL d   1       1.535   2.646  -0.363  0.00  0.00     0.010 A 
ATOM      3  C2  UNL d   1       0.687   1.545  -0.496  0.00  0.00     0.041 A 
ATOM      4  C3  UNL d   1       1.246   0.252  -0.512  0.00  0.00    -0.075 A 
ATOM      5  S   UNL d   1       0.402  -1.244  -0.664  0.00  0.00     0.015 SA
ATOM      6  C4  UNL d   1       1.843  -2.151  -0.582  0.00  0.00     0.022 A 
ATOM      7  C5  UNL d   1       2.950  -1.348  -0.442  0.00  0.00     0.026 A 
ATOM      8  C6  UNL d   1       2.624   0.050  -0.399  0.00  0.00    -0.082 A 
ATOM      9  C7  UNL d   1       3.458   1.186  -0.267  0.00  0.00     0.045 A 
ENDROOT
TORSDOF 0
ENDMDL
