MODEL 1
REMARK minimizedAffinity -4.90857649
REMARK minimizedRMSD -1
REMARK  0 active torsions:
REMARK  status: ('A' for Active; 'I' for Inactive)
ROOT
ATOM      1  C   UNL d   1       3.704   0.960   0.475  0.00  0.00    -0.002 A 
ATOM      2  C1  UNL d   1       3.740  -0.427   0.476  0.00  0.00     0.010 A 
ATOM      3  C2  UNL d   1       2.590  -1.168   0.193  0.00  0.00     0.041 A 
ATOM      4  C3  UNL d   1       1.393  -0.484  -0.095  0.00  0.00    -0.075 A 
ATOM      5  S   UNL d   1      -0.138  -1.182  -0.471  0.00  0.00     0.015 SA
ATOM      6  C4  UNL d   1      -0.876   0.345  -0.642  0.00  0.00     0.022 A 
ATOM      7  C5  UNL d   1       0.010   1.373  -0.421  0.00  0.00     0.026 A 
ATOM      8  C6  UNL d   1       1.332   0.913  -0.103  0.00  0.00    -0.082 A 
ATOM      9  C7  UNL d   1       2.515   1.635   0.189  0.00  0.00     0.045 A 
ENDROOT
TORSDOF 0
ENDMDL
