MODEL 1
REMARK minimizedAffinity -2.62141466
REMARK minimizedRMSD -1
REMARK  0 active torsions:
REMARK  status: ('A' for Active; 'I' for Inactive)
ROOT
ATOM      1  C   UNL d   1       4.165  -0.913   0.017  0.00  0.00    -0.002 A 
ATOM      2  C1  UNL d   1       4.022   0.457  -0.151  0.00  0.00     0.010 A 
ATOM      3  C2  UNL d   1       2.756   1.045  -0.141  0.00  0.00     0.041 A 
ATOM      4  C3  UNL d   1       1.625   0.226   0.044  0.00  0.00    -0.075 A 
ATOM      5  S   UNL d   1      -0.025   0.726   0.092  0.00  0.00     0.015 SA
ATOM      6  C4  UNL d   1      -0.578  -0.868   0.337  0.00  0.00     0.022 A 
ATOM      7  C5  UNL d   1       0.456  -1.772   0.383  0.00  0.00     0.026 A 
ATOM      8  C6  UNL d   1       1.743  -1.156   0.215  0.00  0.00    -0.082 A 
ATOM      9  C7  UNL d   1       3.040  -1.723   0.200  0.00  0.00     0.045 A 
ENDROOT
TORSDOF 0
ENDMDL
