MODEL 1
REMARK minimizedAffinity -5.78803349
REMARK minimizedRMSD -1
REMARK  2 active torsions:
REMARK  status: ('A' for Active; 'I' for Inactive)
REMARK    1  A    between atoms: C2'_3  and  C1'_4 
REMARK    2  A    between atoms: C1'_4  and  C1_5 
ROOT
ATOM      1  C1  I4B d   1       0.050   0.259   0.015  0.00  0.00    -0.075 A 
ATOM      2  C2  I4B d   1       1.283   0.717  -0.378  0.00  0.00     0.003 A 
ATOM      3  C3  I4B d   1       2.434  -0.087  -0.195  0.00  0.00     0.002 A 
ATOM      4  C4  I4B d   1       2.314  -1.313   0.426  0.00  0.00    -0.004 A 
ATOM      5  C5  I4B d   1       1.060  -1.786   0.802  0.00  0.00     0.002 A 
ATOM      6  C6  I4B d   1      -0.081  -1.001   0.584  0.00  0.00     0.003 A 
ENDROOT
BRANCH   1   7
ATOM      7  C1' I4B d   1      -1.140   1.148  -0.163  0.00  0.00     0.060 C 
BRANCH   7   8
ATOM      8  C2' I4B d   1      -1.489   1.171  -1.638  0.00  0.00    -0.013 C 
ATOM      9  C4' I4B d   1      -2.916   0.749  -1.867  0.00  0.00     0.013 C 
ATOM     10  C3' I4B d   1      -1.246   2.560  -2.149  0.00  0.00     0.013 C 
ENDBRANCH   7   8
ENDBRANCH   1   7
TORSDOF 2
ENDMDL
