MODEL 1
REMARK minimizedAffinity -3.58172083
REMARK minimizedRMSD -1
REMARK  2 active torsions:
REMARK  status: ('A' for Active; 'I' for Inactive)
REMARK    1  A    between atoms: C2'_3  and  C1'_4 
REMARK    2  A    between atoms: C1'_4  and  C1_5 
ROOT
ATOM      1  C1  I4B d   1      -0.197  -0.042   0.543  0.00  0.00    -0.075 A 
ATOM      2  C2  I4B d   1       1.024  -0.243  -0.051  0.00  0.00     0.003 A 
ATOM      3  C3  I4B d   1       1.838  -1.332   0.345  0.00  0.00     0.002 A 
ATOM      4  C4  I4B d   1       1.417  -2.160   1.365  0.00  0.00    -0.004 A 
ATOM      5  C5  I4B d   1       0.169  -1.968   1.951  0.00  0.00     0.002 A 
ATOM      6  C6  I4B d   1      -0.649  -0.910   1.529  0.00  0.00     0.003 A 
ENDROOT
BRANCH   1   7
ATOM      7  C1' I4B d   1      -1.017   1.138   0.125  0.00  0.00     0.060 C 
BRANCH   7   8
ATOM      8  C2' I4B d   1      -1.244   1.041  -1.370  0.00  0.00    -0.013 C 
ATOM      9  C4' I4B d   1      -2.633   0.549  -1.680  0.00  0.00     0.013 C 
ATOM     10  C3' I4B d   1      -1.005   2.398  -1.963  0.00  0.00     0.013 C 
ENDBRANCH   7   8
ENDBRANCH   1   7
TORSDOF 2
ENDMDL
