MODEL 1
REMARK minimizedAffinity -1.60925567
REMARK minimizedRMSD -1
REMARK  2 active torsions:
REMARK  status: ('A' for Active; 'I' for Inactive)
REMARK    1  A    between atoms: C2'_3  and  C1'_4 
REMARK    2  A    between atoms: C1'_4  and  C1_5 
ROOT
ATOM      1  C1  I4B d   1      -0.356   0.481  -0.409  0.00  0.00    -0.075 A 
ATOM      2  C2  I4B d   1       0.836  -0.194  -0.492  0.00  0.00     0.003 A 
ATOM      3  C3  I4B d   1       1.149  -1.208   0.445  0.00  0.00     0.002 A 
ATOM      4  C4  I4B d   1       0.269  -1.477   1.474  0.00  0.00    -0.004 A 
ATOM      5  C5  I4B d   1      -0.950  -0.808   1.544  0.00  0.00     0.002 A 
ATOM      6  C6  I4B d   1      -1.270   0.169   0.590  0.00  0.00     0.003 A 
ENDROOT
BRANCH   1   7
ATOM      7  C1' I4B d   1      -0.639   1.568  -1.396  0.00  0.00     0.060 C 
BRANCH   7   8
ATOM      8  C2' I4B d   1      -1.391   0.957  -2.561  0.00  0.00    -0.013 C 
ATOM      9  C4' I4B d   1      -2.879   0.994  -2.329  0.00  0.00     0.013 C 
ATOM     10  C3' I4B d   1      -1.017   1.712  -3.801  0.00  0.00     0.013 C 
ENDBRANCH   7   8
ENDBRANCH   1   7
TORSDOF 2
ENDMDL
