MODEL 1
REMARK minimizedAffinity -3.79190731
REMARK minimizedRMSD -1
REMARK  2 active torsions:
REMARK  status: ('A' for Active; 'I' for Inactive)
REMARK    1  A    between atoms: C2'_3  and  C1'_4 
REMARK    2  A    between atoms: C1'_4  and  C1_5 
ROOT
ATOM      1  C1  I4B d   1      -0.243   0.311  -0.074  0.00  0.00    -0.075 A 
ATOM      2  C2  I4B d   1       1.103   0.250  -0.336  0.00  0.00     0.003 A 
ATOM      3  C3  I4B d   1       1.860  -0.873   0.077  0.00  0.00     0.002 A 
ATOM      4  C4  I4B d   1       1.245  -1.883   0.788  0.00  0.00    -0.004 A 
ATOM      5  C5  I4B d   1      -0.124  -1.830   1.033  0.00  0.00     0.002 A 
ATOM      6  C6  I4B d   1      -0.876  -0.732   0.589  0.00  0.00     0.003 A 
ENDROOT
BRANCH   1   7
ATOM      7  C1' I4B d   1      -1.005   1.527  -0.496  0.00  0.00     0.060 C 
BRANCH   7   8
ATOM      8  C2' I4B d   1      -1.384   1.358  -1.953  0.00  0.00    -0.013 C 
ATOM      9  C4' I4B d   1      -2.817   0.919  -2.096  0.00  0.00     0.013 C 
ATOM     10  C3' I4B d   1      -1.147   2.666  -2.647  0.00  0.00     0.013 C 
ENDBRANCH   7   8
ENDBRANCH   1   7
TORSDOF 2
ENDMDL
