MODEL 1
REMARK minimizedAffinity -0.926375091
REMARK minimizedRMSD -1
REMARK  2 active torsions:
REMARK  status: ('A' for Active; 'I' for Inactive)
REMARK    1  A    between atoms: C2'_3  and  C1'_4 
REMARK    2  A    between atoms: C1'_4  and  C1_5 
ROOT
ATOM      1  C1  I4B d   1      -0.189   0.591  -0.063  0.00  0.00    -0.075 A 
ATOM      2  C2  I4B d   1       0.985   0.685  -0.769  0.00  0.00     0.003 A 
ATOM      3  C3  I4B d   1       2.036  -0.232  -0.529  0.00  0.00     0.002 A 
ATOM      4  C4  I4B d   1       1.892  -1.189   0.455  0.00  0.00    -0.004 A 
ATOM      5  C5  I4B d   1       0.694  -1.297   1.154  0.00  0.00     0.002 A 
ATOM      6  C6  I4B d   1      -0.358  -0.410   0.885  0.00  0.00     0.003 A 
ENDROOT
BRANCH   1   7
ATOM      7  C1' I4B d   1      -1.266   1.596  -0.319  0.00  0.00     0.060 C 
BRANCH   7   8
ATOM      8  C2' I4B d   1      -1.487   1.673  -1.816  0.00  0.00    -0.013 C 
ATOM      9  C4' I4B d   1      -2.913   1.345  -2.174  0.00  0.00     0.013 C 
ATOM     10  C3' I4B d   1      -1.120   3.055  -2.268  0.00  0.00     0.013 C 
ENDBRANCH   7   8
ENDBRANCH   1   7
TORSDOF 2
ENDMDL
