MODEL 1
REMARK minimizedAffinity -0.0297783278
REMARK minimizedRMSD -1
REMARK  2 active torsions:
REMARK  status: ('A' for Active; 'I' for Inactive)
REMARK    1  A    between atoms: C2'_3  and  C1'_4 
REMARK    2  A    between atoms: C1'_4  and  C1_5 
ROOT
ATOM      1  C1  I4B d   1      -0.058   0.089  -0.162  0.00  0.00    -0.075 A 
ATOM      2  C2  I4B d   1       1.309   0.006  -0.265  0.00  0.00     0.003 A 
ATOM      3  C3  I4B d   1       1.984  -1.172   0.137  0.00  0.00     0.002 A 
ATOM      4  C4  I4B d   1       1.264  -2.216   0.679  0.00  0.00    -0.004 A 
ATOM      5  C5  I4B d   1      -0.124  -2.140   0.761  0.00  0.00     0.002 A 
ATOM      6  C6  I4B d   1      -0.790  -0.985   0.327  0.00  0.00     0.003 A 
ENDROOT
BRANCH   1   7
ATOM      7  C1' I4B d   1      -0.735   1.360  -0.565  0.00  0.00     0.060 C 
BRANCH   7   8
ATOM      8  C2' I4B d   1      -0.741   1.427  -2.078  0.00  0.00    -0.013 C 
ATOM      9  C4' I4B d   1      -1.944   0.725  -2.651  0.00  0.00     0.013 C 
ATOM     10  C3' I4B d   1      -0.717   2.872  -2.478  0.00  0.00     0.013 C 
ENDBRANCH   7   8
ENDBRANCH   1   7
TORSDOF 2
ENDMDL
