MODEL 1
REMARK minimizedAffinity -3.64123535
REMARK minimizedRMSD -1
REMARK  2 active torsions:
REMARK  status: ('A' for Active; 'I' for Inactive)
REMARK    1  A    between atoms: C2'_3  and  C1'_4 
REMARK    2  A    between atoms: C1'_4  and  C1_5 
ROOT
ATOM      1  C1  I4B d   1      -0.158  -0.244   0.326  0.00  0.00    -0.075 A 
ATOM      2  C2  I4B d   1      -0.737  -1.404   0.777  0.00  0.00     0.003 A 
ATOM      3  C3  I4B d   1       0.047  -2.571   0.949  0.00  0.00     0.002 A 
ATOM      4  C4  I4B d   1       1.385  -2.547   0.613  0.00  0.00    -0.004 A 
ATOM      5  C5  I4B d   1       1.974  -1.364   0.177  0.00  0.00     0.002 A 
ATOM      6  C6  I4B d   1       1.201  -0.201   0.044  0.00  0.00     0.003 A 
ENDROOT
BRANCH   1   7
ATOM      7  C1' I4B d   1      -1.021   0.961   0.124  0.00  0.00     0.060 C 
BRANCH   7   8
ATOM      8  C2' I4B d   1      -1.353   1.055  -1.352  0.00  0.00    -0.013 C 
ATOM      9  C4' I4B d   1      -2.818   0.806  -1.598  0.00  0.00     0.013 C 
ATOM     10  C3' I4B d   1      -0.948   2.417  -1.831  0.00  0.00     0.013 C 
ENDBRANCH   7   8
ENDBRANCH   1   7
TORSDOF 2
ENDMDL
