MODEL 1
REMARK minimizedAffinity -4.05027056
REMARK minimizedRMSD -1
REMARK  2 active torsions:
REMARK  status: ('A' for Active; 'I' for Inactive)
REMARK    1  A    between atoms: C2'_3  and  C1'_4 
REMARK    2  A    between atoms: C1'_4  and  C1_5 
ROOT
ATOM      1  C1  I4B d   1      -0.003   0.155  -0.112  0.00  0.00    -0.075 A 
ATOM      2  C2  I4B d   1       1.274   0.197  -0.612  0.00  0.00     0.003 A 
ATOM      3  C3  I4B d   1       2.173  -0.867  -0.361  0.00  0.00     0.002 A 
ATOM      4  C4  I4B d   1       1.773  -1.923   0.432  0.00  0.00    -0.004 A 
ATOM      5  C5  I4B d   1       0.470  -1.975   0.919  0.00  0.00     0.002 A 
ATOM      6  C6  I4B d   1      -0.428  -0.936   0.636  0.00  0.00     0.003 A 
ENDROOT
BRANCH   1   7
ATOM      7  C1' I4B d   1      -0.917   1.311  -0.369  0.00  0.00     0.060 C 
BRANCH   7   8
ATOM      8  C2' I4B d   1      -1.166   1.386  -1.861  0.00  0.00    -0.013 C 
ATOM      9  C4' I4B d   1      -2.360   0.557  -2.257  0.00  0.00     0.013 C 
ATOM     10  C3' I4B d   1      -1.364   2.828  -2.226  0.00  0.00     0.013 C 
ENDBRANCH   7   8
ENDBRANCH   1   7
TORSDOF 2
ENDMDL
