MODEL 1
REMARK minimizedAffinity -5.17297506
REMARK minimizedRMSD -1
REMARK  2 active torsions:
REMARK  status: ('A' for Active; 'I' for Inactive)
REMARK    1  A    between atoms: C2'_3  and  C1'_4 
REMARK    2  A    between atoms: C1'_4  and  C1_5 
ROOT
ATOM      1  C1  I4B d   1      -0.179   0.332  -0.018  0.00  0.00    -0.075 A 
ATOM      2  C2  I4B d   1       1.125   0.577  -0.369  0.00  0.00     0.003 A 
ATOM      3  C3  I4B d   1       2.129  -0.384  -0.096  0.00  0.00     0.002 A 
ATOM      4  C4  I4B d   1       1.795  -1.545   0.570  0.00  0.00    -0.004 A 
ATOM      5  C5  I4B d   1       0.469  -1.802   0.905  0.00  0.00     0.002 A 
ATOM      6  C6  I4B d   1      -0.527  -0.864   0.598  0.00  0.00     0.003 A 
ENDROOT
BRANCH   1   7
ATOM      7  C1' I4B d   1      -1.209   1.382  -0.292  0.00  0.00     0.060 C 
BRANCH   7   8
ATOM      8  C2' I4B d   1      -1.564   1.316  -1.763  0.00  0.00    -0.013 C 
ATOM      9  C4' I4B d   1      -3.014   0.961  -1.959  0.00  0.00     0.013 C 
ATOM     10  C3' I4B d   1      -1.243   2.646  -2.377  0.00  0.00     0.013 C 
ENDBRANCH   7   8
ENDBRANCH   1   7
TORSDOF 2
ENDMDL
