MODEL 1
REMARK minimizedAffinity -4.17612028
REMARK minimizedRMSD -1
REMARK  2 active torsions:
REMARK  status: ('A' for Active; 'I' for Inactive)
REMARK    1  A    between atoms: C2'_3  and  C1'_4 
REMARK    2  A    between atoms: C1'_4  and  C1_5 
ROOT
ATOM      1  C1  I4B d   1      -0.548   0.255   0.019  0.00  0.00    -0.075 A 
ATOM      2  C2  I4B d   1      -1.245  -0.446   0.971  0.00  0.00     0.003 A 
ATOM      3  C3  I4B d   1      -0.692  -1.620   1.539  0.00  0.00     0.002 A 
ATOM      4  C4  I4B d   1       0.530  -2.080   1.092  0.00  0.00    -0.004 A 
ATOM      5  C5  I4B d   1       1.245  -1.355   0.143  0.00  0.00     0.002 A 
ATOM      6  C6  I4B d   1       0.709  -0.173  -0.388  0.00  0.00     0.003 A 
ENDROOT
BRANCH   1   7
ATOM      7  C1' I4B d   1      -1.176   1.472  -0.584  0.00  0.00     0.060 C 
BRANCH   7   8
ATOM      8  C2' I4B d   1      -1.459   1.177  -2.043  0.00  0.00    -0.013 C 
ATOM      9  C4' I4B d   1      -2.741   0.404  -2.205  0.00  0.00     0.013 C 
ATOM     10  C3' I4B d   1      -1.517   2.484  -2.776  0.00  0.00     0.013 C 
ENDBRANCH   7   8
ENDBRANCH   1   7
TORSDOF 2
ENDMDL
