MODEL 1
REMARK minimizedAffinity -3.70970821
REMARK minimizedRMSD -1
REMARK  2 active torsions:
REMARK  status: ('A' for Active; 'I' for Inactive)
REMARK    1  A    between atoms: C2'_3  and  C1'_4 
REMARK    2  A    between atoms: C1'_4  and  C1_5 
ROOT
ATOM      1  C1  I4B d   1       0.753  -0.719   0.508  0.00  0.00    -0.075 A 
ATOM      2  C2  I4B d   1       2.062  -1.090   0.687  0.00  0.00     0.003 A 
ATOM      3  C3  I4B d   1       2.379  -2.247   1.440  0.00  0.00     0.002 A 
ATOM      4  C4  I4B d   1       1.365  -2.969   2.035  0.00  0.00    -0.004 A 
ATOM      5  C5  I4B d   1       0.037  -2.604   1.835  0.00  0.00     0.002 A 
ATOM      6  C6  I4B d   1      -0.273  -1.479   1.056  0.00  0.00     0.003 A 
ENDROOT
BRANCH   1   7
ATOM      7  C1' I4B d   1       0.456   0.526  -0.265  0.00  0.00     0.060 C 
BRANCH   7   8
ATOM      8  C2' I4B d   1      -1.044   0.741  -0.246  0.00  0.00    -0.013 C 
ATOM      9  C4' I4B d   1      -1.498   1.298   1.078  0.00  0.00     0.013 C 
ATOM     10  C3' I4B d   1      -1.394   1.668  -1.372  0.00  0.00     0.013 C 
ENDBRANCH   7   8
ENDBRANCH   1   7
TORSDOF 2
ENDMDL
