MODEL 1
REMARK minimizedAffinity -4.43807554
REMARK minimizedRMSD -1
REMARK  2 active torsions:
REMARK  status: ('A' for Active; 'I' for Inactive)
REMARK    1  A    between atoms: C2'_3  and  C1'_4 
REMARK    2  A    between atoms: C1'_4  and  C1_5 
ROOT
ATOM      1  C1  I4B d   1      -0.307   0.148   0.093  0.00  0.00    -0.075 A 
ATOM      2  C2  I4B d   1       0.949   0.242  -0.453  0.00  0.00     0.003 A 
ATOM      3  C3  I4B d   1       1.898  -0.787  -0.239  0.00  0.00     0.002 A 
ATOM      4  C4  I4B d   1       1.568  -1.860   0.564  0.00  0.00    -0.004 A 
ATOM      5  C5  I4B d   1       0.287  -1.965   1.098  0.00  0.00     0.002 A 
ATOM      6  C6  I4B d   1      -0.661  -0.961   0.851  0.00  0.00     0.003 A 
ENDROOT
BRANCH   1   7
ATOM      7  C1' I4B d   1      -1.274   1.268  -0.126  0.00  0.00     0.060 C 
BRANCH   7   8
ATOM      8  C2' I4B d   1      -1.572   1.343  -1.610  0.00  0.00    -0.013 C 
ATOM      9  C4' I4B d   1      -2.978   0.890  -1.906  0.00  0.00     0.013 C 
ATOM     10  C3' I4B d   1      -1.354   2.758  -2.055  0.00  0.00     0.013 C 
ENDBRANCH   7   8
ENDBRANCH   1   7
TORSDOF 2
ENDMDL
