MODEL 1
REMARK minimizedAffinity -3.9804194
REMARK minimizedRMSD -1
REMARK  2 active torsions:
REMARK  status: ('A' for Active; 'I' for Inactive)
REMARK    1  A    between atoms: C2'_3  and  C1'_4 
REMARK    2  A    between atoms: C1'_4  and  C1_5 
ROOT
ATOM      1  C1  I4B d   1       0.593  -1.243   0.188  0.00  0.00    -0.075 A 
ATOM      2  C2  I4B d   1      -0.748  -0.996   0.341  0.00  0.00     0.003 A 
ATOM      3  C3  I4B d   1      -1.273   0.289   0.060  0.00  0.00     0.002 A 
ATOM      4  C4  I4B d   1      -0.418   1.304  -0.320  0.00  0.00    -0.004 A 
ATOM      5  C5  I4B d   1       0.938   1.045  -0.497  0.00  0.00     0.002 A 
ATOM      6  C6  I4B d   1       1.446  -0.239  -0.253  0.00  0.00     0.003 A 
ENDROOT
BRANCH   1   7
ATOM      7  C1' I4B d   1       1.119  -2.602   0.525  0.00  0.00     0.060 C 
BRANCH   7   8
ATOM      8  C2' I4B d   1       1.192  -2.713   2.034  0.00  0.00    -0.013 C 
ATOM      9  C4' I4B d   1       2.330  -1.896   2.586  0.00  0.00     0.013 C 
ATOM     10  C3' I4B d   1      -0.122  -2.260   2.596  0.00  0.00     0.013 C 
ENDBRANCH   7   8
ENDBRANCH   1   7
TORSDOF 2
ENDMDL
