MODEL 1
REMARK minimizedAffinity -4.42141724
REMARK minimizedRMSD -1
REMARK  1 active torsions:
REMARK  status: ('A' for Active; 'I' for Inactive)
REMARK    1  A    between atoms: C3_4  and  O_7 
ROOT
ATOM      1  C   UNL d   1      -0.515   0.453  -0.602  0.00  0.00    -0.033 A 
ATOM      2  C1  UNL d   1      -0.002   0.027   0.625  0.00  0.00     0.039 A 
ATOM      3  C2  UNL d   1       0.842   0.863   1.359  0.00  0.00    -0.080 A 
ATOM      4  C3  UNL d   1       1.164   2.120   0.856  0.00  0.00     0.150 A 
ATOM      5  C4  UNL d   1       0.654   2.553  -0.364  0.00  0.00    -0.007 A 
ATOM      6  C5  UNL d   1      -0.188   1.716  -1.095  0.00  0.00     0.039 A 
ENDROOT
BRANCH   4   7
ATOM      7  O   UNL d   1       1.988   2.969   1.534  0.00  0.00    -0.526 OA
ATOM      8  H5  UNL d   1       2.287   2.525   2.345  0.00  0.00     0.418 HD
ENDBRANCH   4   7
TORSDOF 1
ENDMDL
