MODEL 1
REMARK minimizedAffinity -4.00799131
REMARK minimizedRMSD -1
REMARK  1 active torsions:
REMARK  status: ('A' for Active; 'I' for Inactive)
REMARK    1  A    between atoms: C3_4  and  O_7 
ROOT
ATOM      1  C   UNL d   1      -0.729  -0.425   0.401  0.00  0.00    -0.033 A 
ATOM      2  C1  UNL d   1       0.362  -0.010  -0.364  0.00  0.00     0.039 A 
ATOM      3  C2  UNL d   1       1.017   1.185  -0.060  0.00  0.00    -0.080 A 
ATOM      4  C3  UNL d   1       0.570   1.955   1.011  0.00  0.00     0.150 A 
ATOM      5  C4  UNL d   1      -0.514   1.545   1.780  0.00  0.00    -0.007 A 
ATOM      6  C5  UNL d   1      -1.167   0.352   1.474  0.00  0.00     0.039 A 
ENDROOT
BRANCH   4   7
ATOM      7  O   UNL d   1       1.174   3.131   1.344  0.00  0.00    -0.526 OA
ATOM      8  H5  UNL d   1       1.889   3.300   0.708  0.00  0.00     0.418 HD
ENDBRANCH   4   7
TORSDOF 1
ENDMDL
