MODEL 1
REMARK minimizedAffinity -4.94777679
REMARK minimizedRMSD -1
REMARK  1 active torsions:
REMARK  status: ('A' for Active; 'I' for Inactive)
REMARK    1  A    between atoms: C3_4  and  O_7 
ROOT
ATOM      1  C   UNL d   1       0.267  -0.793  -0.095  0.00  0.00    -0.033 A 
ATOM      2  C1  UNL d   1       1.391  -0.050  -0.461  0.00  0.00     0.039 A 
ATOM      3  C2  UNL d   1       1.618   1.203   0.110  0.00  0.00    -0.080 A 
ATOM      4  C3  UNL d   1       0.715   1.702   1.045  0.00  0.00     0.150 A 
ATOM      5  C4  UNL d   1      -0.405   0.966   1.417  0.00  0.00    -0.007 A 
ATOM      6  C5  UNL d   1      -0.630  -0.286   0.846  0.00  0.00     0.039 A 
ENDROOT
BRANCH   4   7
ATOM      7  O   UNL d   1       0.892   2.923   1.626  0.00  0.00    -0.526 OA
ATOM      8  H5  UNL d   1       1.691   3.329   1.251  0.00  0.00     0.418 HD
ENDBRANCH   4   7
TORSDOF 1
ENDMDL
