MODEL 1
REMARK minimizedAffinity -2.73585486
REMARK minimizedRMSD -1
REMARK  1 active torsions:
REMARK  status: ('A' for Active; 'I' for Inactive)
REMARK    1  A    between atoms: C3_4  and  O_7 
ROOT
ATOM      1  C   UNL d   1       1.608   3.384  -4.804  0.00  0.00    -0.033 A 
ATOM      2  C1  UNL d   1       2.226   3.010  -3.609  0.00  0.00     0.039 A 
ATOM      3  C2  UNL d   1       3.564   2.612  -3.608  0.00  0.00    -0.080 A 
ATOM      4  C3  UNL d   1       4.272   2.593  -4.807  0.00  0.00     0.150 A 
ATOM      5  C4  UNL d   1       3.664   2.968  -6.000  0.00  0.00    -0.007 A 
ATOM      6  C5  UNL d   1       2.327   3.365  -5.999  0.00  0.00     0.039 A 
ENDROOT
BRANCH   4   7
ATOM      7  O   UNL d   1       5.579   2.208  -4.856  0.00  0.00    -0.526 OA
ATOM      8  H5  UNL d   1       5.858   1.949  -3.962  0.00  0.00     0.418 HD
ENDBRANCH   4   7
TORSDOF 1
ENDMDL
