MODEL 1
REMARK minimizedAffinity -3.55201244
REMARK minimizedRMSD -1
REMARK  1 active torsions:
REMARK  status: ('A' for Active; 'I' for Inactive)
REMARK    1  A    between atoms: C3_4  and  O_7 
ROOT
ATOM      1  C   UNL d   1       0.729   1.898   1.739  0.00  0.00    -0.033 A 
ATOM      2  C1  UNL d   1       1.067   2.302   0.446  0.00  0.00     0.039 A 
ATOM      3  C2  UNL d   1       0.596   1.586  -0.657  0.00  0.00    -0.080 A 
ATOM      4  C3  UNL d   1      -0.212   0.471  -0.453  0.00  0.00     0.150 A 
ATOM      5  C4  UNL d   1      -0.555   0.065   0.833  0.00  0.00    -0.007 A 
ATOM      6  C5  UNL d   1      -0.083   0.780   1.932  0.00  0.00     0.039 A 
ENDROOT
BRANCH   4   7
ATOM      7  O   UNL d   1      -0.691  -0.262  -1.497  0.00  0.00    -0.526 OA
ATOM      8  H5  UNL d   1      -0.349   0.119  -2.323  0.00  0.00     0.418 HD
ENDBRANCH   4   7
TORSDOF 1
ENDMDL
