MODEL 1
REMARK minimizedAffinity -5.59680605
REMARK minimizedRMSD -1
REMARK  1 active torsions:
REMARK  status: ('A' for Active; 'I' for Inactive)
REMARK    1  A    between atoms: C3_4  and  O_7 
ROOT
ATOM      1  C   UNL d   1       0.925  -0.638  -0.614  0.00  0.00    -0.033 A 
ATOM      2  C1  UNL d   1      -0.219  -0.308   0.115  0.00  0.00     0.039 A 
ATOM      3  C2  UNL d   1      -0.289   0.909   0.795  0.00  0.00    -0.080 A 
ATOM      4  C3  UNL d   1       0.791   1.787   0.737  0.00  0.00     0.150 A 
ATOM      5  C4  UNL d   1       1.932   1.466   0.010  0.00  0.00    -0.007 A 
ATOM      6  C5  UNL d   1       2.000   0.249  -0.667  0.00  0.00     0.039 A 
ENDROOT
BRANCH   4   7
ATOM      7  O   UNL d   1       0.771   2.985   1.388  0.00  0.00    -0.526 OA
ATOM      8  H5  UNL d   1      -0.069   3.058   1.872  0.00  0.00     0.418 HD
ENDBRANCH   4   7
TORSDOF 1
ENDMDL
