MODEL 1
REMARK minimizedAffinity -4.23919296
REMARK minimizedRMSD -1
REMARK  1 active torsions:
REMARK  status: ('A' for Active; 'I' for Inactive)
REMARK    1  A    between atoms: C3_4  and  O_7 
ROOT
ATOM      1  C   UNL d   1      -3.394   5.999  -3.056  0.00  0.00    -0.033 A 
ATOM      2  C1  UNL d   1      -4.400   5.203  -3.610  0.00  0.00     0.039 A 
ATOM      3  C2  UNL d   1      -4.084   4.255  -4.584  0.00  0.00    -0.080 A 
ATOM      4  C3  UNL d   1      -2.762   4.111  -4.995  0.00  0.00     0.150 A 
ATOM      5  C4  UNL d   1      -1.755   4.897  -4.445  0.00  0.00    -0.007 A 
ATOM      6  C5  UNL d   1      -2.072   5.845  -3.473  0.00  0.00     0.039 A 
ENDROOT
BRANCH   4   7
ATOM      7  O   UNL d   1      -2.406   3.202  -5.947  0.00  0.00    -0.526 OA
ATOM      8  H5  UNL d   1      -3.209   2.751  -6.257  0.00  0.00     0.418 HD
ENDBRANCH   4   7
TORSDOF 1
ENDMDL
