MODEL 1
REMARK minimizedAffinity -4.66112566
REMARK minimizedRMSD -1
REMARK  1 active torsions:
REMARK  status: ('A' for Active; 'I' for Inactive)
REMARK    1  A    between atoms: C3_4  and  O_7 
ROOT
ATOM      1  C   UNL d   1      -0.405  -0.673   0.462  0.00  0.00    -0.033 A 
ATOM      2  C1  UNL d   1       0.684  -0.154  -0.241  0.00  0.00     0.039 A 
ATOM      3  C2  UNL d   1       1.242   1.069   0.136  0.00  0.00    -0.080 A 
ATOM      4  C3  UNL d   1       0.703   1.761   1.217  0.00  0.00     0.150 A 
ATOM      5  C4  UNL d   1      -0.379   1.248   1.924  0.00  0.00    -0.007 A 
ATOM      6  C5  UNL d   1      -0.936   0.027   1.545  0.00  0.00     0.039 A 
ENDROOT
BRANCH   4   7
ATOM      7  O   UNL d   1       1.211   2.961   1.620  0.00  0.00    -0.526 OA
ATOM      8  H5  UNL d   1       1.937   3.204   1.021  0.00  0.00     0.418 HD
ENDBRANCH   4   7
TORSDOF 1
ENDMDL
