MODEL 1
REMARK minimizedAffinity -5.15266657
REMARK minimizedRMSD -1
REMARK  1 active torsions:
REMARK  status: ('A' for Active; 'I' for Inactive)
REMARK    1  A    between atoms: C3_4  and  O_7 
ROOT
ATOM      1  C   UNL d   1      -0.036  -0.378   0.600  0.00  0.00    -0.033 A 
ATOM      2  C1  UNL d   1      -0.511   0.365   1.682  0.00  0.00     0.039 A 
ATOM      3  C2  UNL d   1      -0.057   1.670   1.888  0.00  0.00    -0.080 A 
ATOM      4  C3  UNL d   1       0.869   2.218   1.005  0.00  0.00     0.150 A 
ATOM      5  C4  UNL d   1       1.344   1.485  -0.077  0.00  0.00    -0.007 A 
ATOM      6  C5  UNL d   1       0.891   0.182  -0.281  0.00  0.00     0.039 A 
ENDROOT
BRANCH   4   7
ATOM      7  O   UNL d   1       1.345   3.485   1.168  0.00  0.00    -0.526 OA
ATOM      8  H5  UNL d   1       0.951   3.861   1.973  0.00  0.00     0.418 HD
ENDBRANCH   4   7
TORSDOF 1
ENDMDL
