MODEL 1
REMARK minimizedAffinity -2.63144588
REMARK minimizedRMSD -1
REMARK  1 active torsions:
REMARK  status: ('A' for Active; 'I' for Inactive)
REMARK    1  A    between atoms: C3_4  and  O_7 
ROOT
ATOM      1  C   UNL d   1       0.420  -1.317  -0.275  0.00  0.00    -0.033 A 
ATOM      2  C1  UNL d   1      -0.632  -1.109   0.619  0.00  0.00     0.039 A 
ATOM      3  C2  UNL d   1      -0.630   0.009   1.455  0.00  0.00    -0.080 A 
ATOM      4  C3  UNL d   1       0.429   0.910   1.388  0.00  0.00     0.150 A 
ATOM      5  C4  UNL d   1       1.479   0.711   0.497  0.00  0.00    -0.007 A 
ATOM      6  C5  UNL d   1       1.475  -0.407  -0.337  0.00  0.00     0.039 A 
ENDROOT
BRANCH   4   7
ATOM      7  O   UNL d   1       0.478   2.013   2.187  0.00  0.00    -0.526 OA
ATOM      8  H5  UNL d   1      -0.298   2.005   2.771  0.00  0.00     0.418 HD
ENDBRANCH   4   7
TORSDOF 1
ENDMDL
