MODEL 1
REMARK minimizedAffinity -5.19596863
REMARK minimizedRMSD -1
REMARK  1 active torsions:
REMARK  status: ('A' for Active; 'I' for Inactive)
REMARK    1  A    between atoms: C3_4  and  O_7 
ROOT
ATOM      1  C   UNL d   1       0.821  -0.537  -0.087  0.00  0.00    -0.033 A 
ATOM      2  C1  UNL d   1      -0.199  -0.245   0.822  0.00  0.00     0.039 A 
ATOM      3  C2  UNL d   1      -0.162   0.940   1.559  0.00  0.00    -0.080 A 
ATOM      4  C3  UNL d   1       0.898   1.825   1.378  0.00  0.00     0.150 A 
ATOM      5  C4  UNL d   1       1.915   1.543   0.472  0.00  0.00    -0.007 A 
ATOM      6  C5  UNL d   1       1.877   0.358  -0.263  0.00  0.00     0.039 A 
ENDROOT
BRANCH   4   7
ATOM      7  O   UNL d   1       0.979   2.991   2.078  0.00  0.00    -0.526 OA
ATOM      8  H5  UNL d   1       0.223   3.039   2.687  0.00  0.00     0.418 HD
ENDBRANCH   4   7
TORSDOF 1
ENDMDL
