MODEL 1
REMARK minimizedAffinity -3.28111959
REMARK minimizedRMSD -1
REMARK  1 active torsions:
REMARK  status: ('A' for Active; 'I' for Inactive)
REMARK    1  A    between atoms: C3_4  and  O_7 
ROOT
ATOM      1  C   UNL d   1       0.282  -0.929  -0.414  0.00  0.00    -0.033 A 
ATOM      2  C1  UNL d   1      -0.687  -0.450   0.470  0.00  0.00     0.039 A 
ATOM      3  C2  UNL d   1      -0.465   0.733   1.178  0.00  0.00    -0.080 A 
ATOM      4  C3  UNL d   1       0.728   1.426   0.993  0.00  0.00     0.150 A 
ATOM      5  C4  UNL d   1       1.696   0.957   0.111  0.00  0.00    -0.007 A 
ATOM      6  C5  UNL d   1       1.473  -0.225  -0.594  0.00  0.00     0.039 A 
ENDROOT
BRANCH   4   7
ATOM      7  O   UNL d   1       0.992   2.582   1.666  0.00  0.00    -0.526 OA
ATOM      8  H5  UNL d   1       0.247   2.769   2.260  0.00  0.00     0.418 HD
ENDBRANCH   4   7
TORSDOF 1
ENDMDL
