MODEL 1
REMARK minimizedAffinity -3.57577991
REMARK minimizedRMSD -1
REMARK  1 active torsions:
REMARK  status: ('A' for Active; 'I' for Inactive)
REMARK    1  A    between atoms: C3_4  and  O_7 
ROOT
ATOM      1  C   UNL d   1      -1.725  -1.587  -2.339  0.00  0.00    -0.033 A 
ATOM      2  C1  UNL d   1      -2.776  -1.292  -3.208  0.00  0.00     0.039 A 
ATOM      3  C2  UNL d   1      -4.092  -1.582  -2.840  0.00  0.00    -0.080 A 
ATOM      4  C3  UNL d   1      -4.341  -2.166  -1.601  0.00  0.00     0.150 A 
ATOM      5  C4  UNL d   1      -3.299  -2.458  -0.728  0.00  0.00    -0.007 A 
ATOM      6  C5  UNL d   1      -1.986  -2.169  -1.098  0.00  0.00     0.039 A 
ENDROOT
BRANCH   4   7
ATOM      7  O   UNL d   1      -5.608  -2.472  -1.199  0.00  0.00    -0.526 OA
ATOM      8  H5  UNL d   1      -6.222  -2.240  -1.916  0.00  0.00     0.418 HD
ENDBRANCH   4   7
TORSDOF 1
ENDMDL
