MODEL 1
REMARK minimizedAffinity -5.21076059
REMARK minimizedRMSD -1
REMARK  1 active torsions:
REMARK  status: ('A' for Active; 'I' for Inactive)
REMARK    1  A    between atoms: C3_4  and  O_7 
ROOT
ATOM      1  C   UNL d   1      -0.038  -0.828   0.886  0.00  0.00    -0.033 A 
ATOM      2  C1  UNL d   1      -0.577  -0.079   1.934  0.00  0.00     0.039 A 
ATOM      3  C2  UNL d   1      -0.347   1.296   2.003  0.00  0.00    -0.080 A 
ATOM      4  C3  UNL d   1       0.422   1.910   1.017  0.00  0.00     0.150 A 
ATOM      5  C4  UNL d   1       0.958   1.171  -0.032  0.00  0.00    -0.007 A 
ATOM      6  C5  UNL d   1       0.728  -0.202  -0.098  0.00  0.00     0.039 A 
ENDROOT
BRANCH   4   7
ATOM      7  O   UNL d   1       0.677   3.249   1.044  0.00  0.00    -0.526 OA
ATOM      8  H5  UNL d   1       0.268   3.625   1.841  0.00  0.00     0.418 HD
ENDBRANCH   4   7
TORSDOF 1
ENDMDL
