MODEL 1
REMARK minimizedAffinity -3.21010804
REMARK minimizedRMSD -1
REMARK  1 active torsions:
REMARK  status: ('A' for Active; 'I' for Inactive)
REMARK    1  A    between atoms: C3_4  and  O_7 
ROOT
ATOM      1  C   UNL d   1      -2.832  -1.837  -2.476  0.00  0.00    -0.033 A 
ATOM      2  C1  UNL d   1      -2.640  -2.187  -1.138  0.00  0.00     0.039 A 
ATOM      3  C2  UNL d   1      -1.672  -1.531  -0.375  0.00  0.00    -0.080 A 
ATOM      4  C3  UNL d   1      -0.904  -0.528  -0.960  0.00  0.00     0.150 A 
ATOM      5  C4  UNL d   1      -1.093  -0.171  -2.292  0.00  0.00    -0.007 A 
ATOM      6  C5  UNL d   1      -2.059  -0.828  -3.052  0.00  0.00     0.039 A 
ENDROOT
BRANCH   4   7
ATOM      7  O   UNL d   1       0.056   0.137  -0.257  0.00  0.00    -0.526 OA
ATOM      8  H5  UNL d   1       0.094  -0.235   0.640  0.00  0.00     0.418 HD
ENDBRANCH   4   7
TORSDOF 1
ENDMDL
