MODEL 1
REMARK minimizedAffinity -4.05480337
REMARK minimizedRMSD -1
REMARK  1 active torsions:
REMARK  status: ('A' for Active; 'I' for Inactive)
REMARK    1  A    between atoms: C1_2  and  C2_3 
ROOT
ATOM      1  C2  UNL d   1       1.269   0.608   0.449  0.00  0.00    -0.073 A 
ATOM      2  C3  UNL d   1       2.050  -0.508   0.126  0.00  0.00    -0.002 A 
ATOM      3  C4  UNL d   1       3.197  -0.803   0.864  0.00  0.00     0.004 A 
ATOM      4  C5  UNL d   1       3.571   0.009   1.935  0.00  0.00    -0.004 A 
ATOM      5  C6  UNL d   1       2.798   1.121   2.281  0.00  0.00    -0.075 A 
ATOM      6  C7  UNL d   1       3.187   2.006   3.428  0.00  0.00     0.076 C 
ATOM      7  C8  UNL d   1       1.648   1.413   1.533  0.00  0.00     0.001 A 
ENDROOT
BRANCH   1   8
ATOM      8  C1  UNL d   1       0.026   0.927  -0.340  0.00  0.00     0.053 C 
ATOM      9  C   UNL d   1      -1.076  -0.093  -0.104  0.00  0.00     0.018 C 
ENDBRANCH   1   8
TORSDOF 1
ENDMDL
