MODEL 1
REMARK minimizedAffinity -5.60152388
REMARK minimizedRMSD -1
REMARK  1 active torsions:
REMARK  status: ('A' for Active; 'I' for Inactive)
REMARK    1  A    between atoms: C1_2  and  C2_3 
ROOT
ATOM      1  C2  UNL d   1       2.119  -0.126   0.612  0.00  0.00    -0.073 A 
ATOM      2  C3  UNL d   1       1.653   1.148   0.267  0.00  0.00    -0.002 A 
ATOM      3  C4  UNL d   1       0.290   1.439   0.325  0.00  0.00     0.004 A 
ATOM      4  C5  UNL d   1      -0.620   0.464   0.734  0.00  0.00    -0.004 A 
ATOM      5  C6  UNL d   1      -0.172  -0.811   1.095  0.00  0.00    -0.075 A 
ATOM      6  C7  UNL d   1      -1.137  -1.872   1.535  0.00  0.00     0.076 C 
ATOM      7  C8  UNL d   1       1.199  -1.097   1.032  0.00  0.00     0.001 A 
ENDROOT
BRANCH   1   8
ATOM      8  C1  UNL d   1       3.592  -0.443   0.558  0.00  0.00     0.053 C 
ATOM      9  C   UNL d   1       3.972  -1.553   1.525  0.00  0.00     0.018 C 
ENDBRANCH   1   8
TORSDOF 1
ENDMDL
