MODEL 1
REMARK minimizedAffinity -3.49650955
REMARK minimizedRMSD -1
REMARK  1 active torsions:
REMARK  status: ('A' for Active; 'I' for Inactive)
REMARK    1  A    between atoms: C1_2  and  C2_3 
ROOT
ATOM      1  C2  UNL d   1      -0.221   1.532   0.353  0.00  0.00    -0.073 A 
ATOM      2  C3  UNL d   1      -1.139   0.476   0.312  0.00  0.00    -0.002 A 
ATOM      3  C4  UNL d   1      -0.692  -0.846   0.310  0.00  0.00     0.004 A 
ATOM      4  C5  UNL d   1       0.674  -1.126   0.356  0.00  0.00    -0.004 A 
ATOM      5  C6  UNL d   1       1.606  -0.084   0.410  0.00  0.00    -0.075 A 
ATOM      6  C7  UNL d   1       3.078  -0.368   0.458  0.00  0.00     0.076 C 
ATOM      7  C8  UNL d   1       1.149   1.241   0.408  0.00  0.00     0.001 A 
ENDROOT
BRANCH   1   8
ATOM      8  C1  UNL d   1      -0.700   2.961   0.361  0.00  0.00     0.053 C 
ATOM      9  C   UNL d   1       0.428   3.941   0.078  0.00  0.00     0.018 C 
ENDBRANCH   1   8
TORSDOF 1
ENDMDL
