MODEL 1
REMARK minimizedAffinity -2.87549448
REMARK minimizedRMSD -1
REMARK  1 active torsions:
REMARK  status: ('A' for Active; 'I' for Inactive)
REMARK    1  A    between atoms: C1_2  and  C2_3 
ROOT
ATOM      1  C2  UNL d   1       0.050   0.058  -0.514  0.00  0.00    -0.073 A 
ATOM      2  C3  UNL d   1      -0.736   0.260   0.627  0.00  0.00    -0.002 A 
ATOM      3  C4  UNL d   1      -2.128   0.264   0.531  0.00  0.00     0.004 A 
ATOM      4  C5  UNL d   1      -2.748   0.059  -0.701  0.00  0.00    -0.004 A 
ATOM      5  C6  UNL d   1      -1.980  -0.156  -1.850  0.00  0.00    -0.075 A 
ATOM      6  C7  UNL d   1      -2.632  -0.376  -3.184  0.00  0.00     0.076 C 
ATOM      7  C8  UNL d   1      -0.582  -0.156  -1.747  0.00  0.00     0.001 A 
ENDROOT
BRANCH   1   8
ATOM      8  C1  UNL d   1       1.554   0.047  -0.415  0.00  0.00     0.053 C 
ATOM      9  C   UNL d   1       2.030   0.067   1.029  0.00  0.00     0.018 C 
ENDBRANCH   1   8
TORSDOF 1
ENDMDL
