MODEL 1
REMARK minimizedAffinity -5.2876091
REMARK minimizedRMSD -1
REMARK  0 active torsions:
REMARK  status: ('A' for Active; 'I' for Inactive)
ROOT
ATOM      1  C2' OXE d   1       0.285  -0.365   2.017  0.00  0.00     0.078 C 
ATOM      2  C1' OXE d   1       0.055  -0.559  -0.774  0.00  0.00     0.078 C 
ATOM      3  C1  OXE d   1      -0.334   0.746  -0.125  0.00  0.00    -0.078 A 
ATOM      4  C2  OXE d   1      -0.263   0.816   1.245  0.00  0.00    -0.078 A 
ATOM      5  C3  OXE d   1      -0.558   2.014   1.890  0.00  0.00     0.003 A 
ATOM      6  C4  OXE d   1      -1.073   3.099   1.170  0.00  0.00    -0.002 A 
ATOM      7  C5  OXE d   1      -1.191   3.034  -0.223  0.00  0.00    -0.002 A 
ATOM      8  C6  OXE d   1      -0.786   1.882  -0.888  0.00  0.00     0.003 A 
ENDROOT
TORSDOF 0
ENDMDL
