MODEL 1
REMARK minimizedAffinity -2.96337795
REMARK minimizedRMSD -1
REMARK  0 active torsions:
REMARK  status: ('A' for Active; 'I' for Inactive)
ROOT
ATOM      1  C2' OXE d   1       1.848  -0.335   1.696  0.00  0.00     0.078 C 
ATOM      2  C1' OXE d   1       0.726  -0.628  -0.860  0.00  0.00     0.078 C 
ATOM      3  C1  OXE d   1       0.125   0.407   0.057  0.00  0.00    -0.078 A 
ATOM      4  C2  OXE d   1       0.650   0.511   1.323  0.00  0.00    -0.078 A 
ATOM      5  C3  OXE d   1       0.169   1.488   2.191  0.00  0.00     0.003 A 
ATOM      6  C4  OXE d   1      -0.945   2.260   1.841  0.00  0.00    -0.002 A 
ATOM      7  C5  OXE d   1      -1.521   2.142   0.571  0.00  0.00    -0.002 A 
ATOM      8  C6  OXE d   1      -0.971   1.253  -0.346  0.00  0.00     0.003 A 
ENDROOT
TORSDOF 0
ENDMDL
