MODEL 1
REMARK minimizedAffinity -1.70610058
REMARK minimizedRMSD -1
REMARK  0 active torsions:
REMARK  status: ('A' for Active; 'I' for Inactive)
ROOT
ATOM      1  C2' OXE d   1       0.339  -1.221  -0.504  0.00  0.00     0.078 C 
ATOM      2  C1' OXE d   1       0.883  -0.857   2.226  0.00  0.00     0.078 C 
ATOM      3  C1  OXE d   1       0.004   0.160   1.542  0.00  0.00    -0.078 A 
ATOM      4  C2  OXE d   1      -0.219  -0.000   0.196  0.00  0.00    -0.078 A 
ATOM      5  C3  OXE d   1      -1.068   0.878  -0.472  0.00  0.00     0.003 A 
ATOM      6  C4  OXE d   1      -1.572   2.010   0.181  0.00  0.00    -0.002 A 
ATOM      7  C5  OXE d   1      -1.325   2.213   1.543  0.00  0.00    -0.002 A 
ATOM      8  C6  OXE d   1      -0.576   1.277   2.246  0.00  0.00     0.003 A 
ENDROOT
TORSDOF 0
ENDMDL
