MODEL 1
REMARK minimizedAffinity -6.21048117
REMARK minimizedRMSD -1
REMARK  0 active torsions:
REMARK  status: ('A' for Active; 'I' for Inactive)
ROOT
ATOM      1  C2' OXE d   1       0.689  -0.490   1.389  0.00  0.00     0.078 C 
ATOM      2  C1' OXE d   1       0.537  -0.693  -1.407  0.00  0.00     0.078 C 
ATOM      3  C1  OXE d   1       0.003   0.561  -0.763  0.00  0.00    -0.078 A 
ATOM      4  C2  OXE d   1       0.038   0.632   0.609  0.00  0.00    -0.078 A 
ATOM      5  C3  OXE d   1      -0.392   1.790   1.251  0.00  0.00     0.003 A 
ATOM      6  C4  OXE d   1      -1.001   2.819   0.523  0.00  0.00    -0.002 A 
ATOM      7  C5  OXE d   1      -1.084   2.750  -0.871  0.00  0.00    -0.002 A 
ATOM      8  C6  OXE d   1      -0.549   1.649  -1.532  0.00  0.00     0.003 A 
ENDROOT
TORSDOF 0
ENDMDL
