MODEL 1
REMARK minimizedAffinity -4.78970814
REMARK minimizedRMSD -1
REMARK  0 active torsions:
REMARK  status: ('A' for Active; 'I' for Inactive)
ROOT
ATOM      1  C2' OXE d   1       0.319  -0.582   1.758  0.00  0.00     0.078 C 
ATOM      2  C1' OXE d   1       0.032  -0.601  -1.034  0.00  0.00     0.078 C 
ATOM      3  C1  OXE d   1      -0.206   0.701  -0.311  0.00  0.00    -0.078 A 
ATOM      4  C2  OXE d   1      -0.109   0.690   1.060  0.00  0.00    -0.078 A 
ATOM      5  C3  OXE d   1      -0.265   1.876   1.771  0.00  0.00     0.003 A 
ATOM      6  C4  OXE d   1      -0.670   3.047   1.118  0.00  0.00    -0.002 A 
ATOM      7  C5  OXE d   1      -0.813   3.070  -0.273  0.00  0.00    -0.002 A 
ATOM      8  C6  OXE d   1      -0.544   1.919  -1.005  0.00  0.00     0.003 A 
ENDROOT
TORSDOF 0
ENDMDL
