MODEL 1
REMARK minimizedAffinity -5.8472333
REMARK minimizedRMSD -1
REMARK  0 active torsions:
REMARK  status: ('A' for Active; 'I' for Inactive)
ROOT
ATOM      1  C2' OXE d   1       0.928  -0.331   1.866  0.00  0.00     0.078 C 
ATOM      2  C1' OXE d   1       0.197  -0.468  -0.841  0.00  0.00     0.078 C 
ATOM      3  C1  OXE d   1      -0.219   0.754  -0.061  0.00  0.00    -0.078 A 
ATOM      4  C2  OXE d   1       0.103   0.791   1.275  0.00  0.00    -0.078 A 
ATOM      5  C3  OXE d   1      -0.209   1.919   2.028  0.00  0.00     0.003 A 
ATOM      6  C4  OXE d   1      -0.982   2.948   1.477  0.00  0.00    -0.002 A 
ATOM      7  C5  OXE d   1      -1.354   2.912   0.129  0.00  0.00    -0.002 A 
ATOM      8  C6  OXE d   1      -0.945   1.845  -0.663  0.00  0.00     0.003 A 
ENDROOT
TORSDOF 0
ENDMDL
