MODEL 1
REMARK minimizedAffinity -6.05856895
REMARK minimizedRMSD -1
REMARK  0 active torsions:
REMARK  status: ('A' for Active; 'I' for Inactive)
ROOT
ATOM      1  C2' OXE d   1       0.223  -0.390  -0.703  0.00  0.00     0.078 C 
ATOM      2  C1' OXE d   1       0.312  -0.286   2.101  0.00  0.00     0.078 C 
ATOM      3  C1  OXE d   1      -0.212   0.923   1.368  0.00  0.00    -0.078 A 
ATOM      4  C2  OXE d   1      -0.208   0.882  -0.005  0.00  0.00    -0.078 A 
ATOM      5  C3  OXE d   1      -0.732   1.949  -0.729  0.00  0.00     0.003 A 
ATOM      6  C4  OXE d   1      -1.120   3.126  -0.076  0.00  0.00    -0.002 A 
ATOM      7  C5  OXE d   1      -1.094   3.204   1.320  0.00  0.00    -0.002 A 
ATOM      8  C6  OXE d   1      -0.684   2.099   2.058  0.00  0.00     0.003 A 
ENDROOT
TORSDOF 0
ENDMDL
