MODEL 1
REMARK minimizedAffinity -3.25773644
REMARK minimizedRMSD -1
REMARK  0 active torsions:
REMARK  status: ('A' for Active; 'I' for Inactive)
ROOT
ATOM      1  O1  BZF d   1       0.742  -0.262   0.838  0.00  0.00    -0.204 OA
ATOM      2  C2  BZF d   1      -0.217  -0.361  -0.152  0.00  0.00     0.174 A 
ATOM      3  C3  BZF d   1      -0.563   0.861  -0.606  0.00  0.00    -0.012 A 
ATOM      4  C3A BZF d   1       0.296   1.775   0.082  0.00  0.00    -0.107 A 
ATOM      5  C4  BZF d   1       0.444   3.133   0.047  0.00  0.00     0.055 A 
ATOM      6  C5  BZF d   1       1.323   3.724   0.898  0.00  0.00    -0.016 A 
ATOM      7  C6  BZF d   1       2.066   2.990   1.799  0.00  0.00     0.022 A 
ATOM      8  C7  BZF d   1       1.957   1.641   1.868  0.00  0.00     0.029 A 
ATOM      9  C7A BZF d   1       1.094   1.037   0.987  0.00  0.00     0.058 A 
ENDROOT
TORSDOF 0
ENDMDL
