MODEL 1
REMARK minimizedAffinity -4.10364485
REMARK minimizedRMSD -1
REMARK  0 active torsions:
REMARK  status: ('A' for Active; 'I' for Inactive)
ROOT
ATOM      1  O1  BZF d   1      -0.221  -1.615  -2.181  0.00  0.00    -0.204 OA
ATOM      2  C2  BZF d   1       0.272  -0.372  -2.529  0.00  0.00     0.174 A 
ATOM      3  C3  BZF d   1       0.119   0.504  -1.515  0.00  0.00    -0.012 A 
ATOM      4  C3A BZF d   1      -0.426  -0.261  -0.435  0.00  0.00    -0.107 A 
ATOM      5  C4  BZF d   1      -0.783   0.046   0.846  0.00  0.00     0.055 A 
ATOM      6  C5  BZF d   1      -1.352  -0.914   1.621  0.00  0.00    -0.016 A 
ATOM      7  C6  BZF d   1      -1.583  -2.188   1.146  0.00  0.00     0.022 A 
ATOM      8  C7  BZF d   1      -1.240  -2.542  -0.117  0.00  0.00     0.029 A 
ATOM      9  C7A BZF d   1      -0.635  -1.583  -0.892  0.00  0.00     0.058 A 
ENDROOT
TORSDOF 0
ENDMDL
