MODEL 1
REMARK minimizedAffinity -1.63262856
REMARK minimizedRMSD -1
REMARK  0 active torsions:
REMARK  status: ('A' for Active; 'I' for Inactive)
ROOT
ATOM      1  O1  BZF d   1       0.683   0.160  -0.253  0.00  0.00    -0.204 OA
ATOM      2  C2  BZF d   1      -0.242   0.862   0.496  0.00  0.00     0.174 A 
ATOM      3  C3  BZF d   1      -1.155   0.027   1.033  0.00  0.00    -0.012 A 
ATOM      4  C3A BZF d   1      -0.723  -1.288   0.668  0.00  0.00    -0.107 A 
ATOM      5  C4  BZF d   1      -1.209  -2.539   0.919  0.00  0.00     0.055 A 
ATOM      6  C5  BZF d   1      -0.593  -3.612   0.357  0.00  0.00    -0.016 A 
ATOM      7  C6  BZF d   1       0.505  -3.470  -0.466  0.00  0.00     0.022 A 
ATOM      8  C7  BZF d   1       1.026  -2.249  -0.740  0.00  0.00     0.029 A 
ATOM      9  C7A BZF d   1       0.426  -1.166  -0.146  0.00  0.00     0.058 A 
ENDROOT
TORSDOF 0
ENDMDL
