MODEL 1
REMARK minimizedAffinity -0.883664727
REMARK minimizedRMSD -1
REMARK  0 active torsions:
REMARK  status: ('A' for Active; 'I' for Inactive)
ROOT
ATOM      1  O1  BZF d   1      -0.209  -2.339  -0.761  0.00  0.00    -0.204 OA
ATOM      2  C2  BZF d   1      -0.867  -3.035   0.235  0.00  0.00     0.174 A 
ATOM      3  C3  BZF d   1      -1.302  -2.196   1.197  0.00  0.00    -0.012 A 
ATOM      4  C3A BZF d   1      -0.972  -0.884   0.731  0.00  0.00    -0.107 A 
ATOM      5  C4  BZF d   1      -1.162   0.369   1.239  0.00  0.00     0.055 A 
ATOM      6  C5  BZF d   1      -0.655   1.437   0.570  0.00  0.00    -0.016 A 
ATOM      7  C6  BZF d   1       0.052   1.289  -0.606  0.00  0.00     0.022 A 
ATOM      8  C7  BZF d   1       0.262   0.066  -1.152  0.00  0.00     0.029 A 
ATOM      9  C7A BZF d   1      -0.278  -1.012  -0.495  0.00  0.00     0.058 A 
ENDROOT
TORSDOF 0
ENDMDL
