MODEL 1
REMARK minimizedAffinity -3.30868411
REMARK minimizedRMSD -1
REMARK  0 active torsions:
REMARK  status: ('A' for Active; 'I' for Inactive)
ROOT
ATOM      1  O1  BZF d   1      -0.617  -2.268   0.813  0.00  0.00    -0.204 OA
ATOM      2  C2  BZF d   1       0.298  -3.008   0.090  0.00  0.00     0.174 A 
ATOM      3  C3  BZF d   1       0.984  -2.219  -0.763  0.00  0.00    -0.012 A 
ATOM      4  C3A BZF d   1       0.530  -0.890  -0.493  0.00  0.00    -0.107 A 
ATOM      5  C4  BZF d   1       0.851   0.334  -1.007  0.00  0.00     0.055 A 
ATOM      6  C5  BZF d   1       0.171   1.430  -0.578  0.00  0.00    -0.016 A 
ATOM      7  C6  BZF d   1      -0.838   1.338   0.358  0.00  0.00     0.022 A 
ATOM      8  C7  BZF d   1      -1.188   0.146   0.901  0.00  0.00     0.029 A 
ATOM      9  C7A BZF d   1      -0.481  -0.959   0.493  0.00  0.00     0.058 A 
ENDROOT
TORSDOF 0
ENDMDL
