MODEL 1
REMARK minimizedAffinity -1.77970898
REMARK minimizedRMSD -1
REMARK  0 active torsions:
REMARK  status: ('A' for Active; 'I' for Inactive)
ROOT
ATOM      1  O1  BZF d   1       0.957   0.957  -1.037  0.00  0.00    -0.204 OA
ATOM      2  C2  BZF d   1       0.684   2.035  -0.218  0.00  0.00     0.174 A 
ATOM      3  C3  BZF d   1      -0.136   1.675   0.791  0.00  0.00    -0.012 A 
ATOM      4  C3A BZF d   1      -0.317   0.264   0.642  0.00  0.00    -0.107 A 
ATOM      5  C4  BZF d   1      -1.015  -0.673   1.350  0.00  0.00     0.055 A 
ATOM      6  C5  BZF d   1      -1.046  -1.954   0.899  0.00  0.00    -0.016 A 
ATOM      7  C6  BZF d   1      -0.396  -2.332  -0.258  0.00  0.00     0.022 A 
ATOM      8  C7  BZF d   1       0.313  -1.440  -0.991  0.00  0.00     0.029 A 
ATOM      9  C7A BZF d   1       0.373  -0.151  -0.520  0.00  0.00     0.058 A 
ENDROOT
TORSDOF 0
ENDMDL
