MODEL 1
REMARK minimizedAffinity 2.23791361
REMARK minimizedRMSD -1
REMARK  0 active torsions:
REMARK  status: ('A' for Active; 'I' for Inactive)
ROOT
ATOM      1  O1  BZF d   1      -0.046  -1.761  -2.267  0.00  0.00    -0.204 OA
ATOM      2  C2  BZF d   1       0.593  -0.544  -2.412  0.00  0.00     0.174 A 
ATOM      3  C3  BZF d   1       0.585   0.142  -1.251  0.00  0.00    -0.012 A 
ATOM      4  C3A BZF d   1      -0.020  -0.738  -0.298  0.00  0.00    -0.107 A 
ATOM      5  C4  BZF d   1      -0.295  -0.632   1.035  0.00  0.00     0.055 A 
ATOM      6  C5  BZF d   1      -0.959  -1.643   1.655  0.00  0.00    -0.016 A 
ATOM      7  C6  BZF d   1      -1.367  -2.770   0.972  0.00  0.00     0.022 A 
ATOM      8  C7  BZF d   1      -1.112  -2.923  -0.350  0.00  0.00     0.029 A 
ATOM      9  C7A BZF d   1      -0.412  -1.918  -0.972  0.00  0.00     0.058 A 
ENDROOT
TORSDOF 0
ENDMDL
