MODEL 1
REMARK minimizedAffinity -2.84584999
REMARK minimizedRMSD -1
REMARK  0 active torsions:
REMARK  status: ('A' for Active; 'I' for Inactive)
ROOT
ATOM      1  O1  BZF d   1       0.539   0.036  -2.255  0.00  0.00    -0.204 OA
ATOM      2  C2  BZF d   1       0.646   1.213  -1.540  0.00  0.00     0.174 A 
ATOM      3  C3  BZF d   1       0.186   1.052  -0.282  0.00  0.00    -0.012 A 
ATOM      4  C3A BZF d   1      -0.148  -0.336  -0.179  0.00  0.00    -0.107 A 
ATOM      5  C4  BZF d   1      -0.641  -1.110   0.832  0.00  0.00     0.055 A 
ATOM      6  C5  BZF d   1      -0.925  -2.416   0.586  0.00  0.00    -0.016 A 
ATOM      7  C6  BZF d   1      -0.734  -2.978  -0.659  0.00  0.00     0.022 A 
ATOM      8  C7  BZF d   1      -0.243  -2.251  -1.692  0.00  0.00     0.029 A 
ATOM      9  C7A BZF d   1       0.076  -0.939  -1.438  0.00  0.00     0.058 A 
ENDROOT
TORSDOF 0
ENDMDL
