MODEL 1
REMARK minimizedAffinity 0.564688504
REMARK minimizedRMSD -1
REMARK  0 active torsions:
REMARK  status: ('A' for Active; 'I' for Inactive)
ROOT
ATOM      1  O1  BZF d   1      -0.411  -2.203  -1.396  0.00  0.00    -0.204 OA
ATOM      2  C2  BZF d   1      -0.950  -2.970  -0.382  0.00  0.00     0.174 A 
ATOM      3  C3  BZF d   1      -1.137  -2.230   0.730  0.00  0.00    -0.012 A 
ATOM      4  C3A BZF d   1      -0.774  -0.896   0.360  0.00  0.00    -0.107 A 
ATOM      5  C4  BZF d   1      -0.760   0.294   1.030  0.00  0.00     0.055 A 
ATOM      6  C5  BZF d   1      -0.280   1.399   0.403  0.00  0.00    -0.016 A 
ATOM      7  C6  BZF d   1       0.199   1.351  -0.889  0.00  0.00     0.022 A 
ATOM      8  C7  BZF d   1       0.202   0.194  -1.596  0.00  0.00     0.029 A 
ATOM      9  C7A BZF d   1      -0.314  -0.918  -0.977  0.00  0.00     0.058 A 
ENDROOT
TORSDOF 0
ENDMDL
