MODEL 1
REMARK minimizedAffinity -3.45229077
REMARK minimizedRMSD -1
REMARK  0 active torsions:
REMARK  status: ('A' for Active; 'I' for Inactive)
ROOT
ATOM      1  O1  BZF d   1      -0.048   1.263  -0.832  0.00  0.00    -0.204 OA
ATOM      2  C2  BZF d   1      -0.335   0.093  -0.157  0.00  0.00     0.174 A 
ATOM      3  C3  BZF d   1       0.341   0.035   1.009  0.00  0.00    -0.012 A 
ATOM      4  C3A BZF d   1       1.027   1.286   1.108  0.00  0.00    -0.107 A 
ATOM      5  C4  BZF d   1       1.852   1.832   2.050  0.00  0.00     0.055 A 
ATOM      6  C5  BZF d   1       2.416   3.046   1.811  0.00  0.00    -0.016 A 
ATOM      7  C6  BZF d   1       2.181   3.737   0.640  0.00  0.00     0.022 A 
ATOM      8  C7  BZF d   1       1.366   3.238  -0.321  0.00  0.00     0.029 A 
ATOM      9  C7A BZF d   1       0.769   2.027  -0.068  0.00  0.00     0.058 A 
ENDROOT
TORSDOF 0
ENDMDL
