MODEL 1
REMARK minimizedAffinity -4.14781904
REMARK minimizedRMSD -1
REMARK  0 active torsions:
REMARK  status: ('A' for Active; 'I' for Inactive)
ROOT
ATOM      1  O1  BZF d   1       0.346  -1.297  -2.303  0.00  0.00    -0.204 OA
ATOM      2  C2  BZF d   1       0.110  -2.598  -2.702  0.00  0.00     0.174 A 
ATOM      3  C3  BZF d   1      -0.403  -3.324  -1.687  0.00  0.00    -0.012 A 
ATOM      4  C3A BZF d   1      -0.580  -2.396  -0.613  0.00  0.00    -0.107 A 
ATOM      5  C4  BZF d   1      -1.068  -2.512   0.658  0.00  0.00     0.055 A 
ATOM      6  C5  BZF d   1      -1.037  -1.430   1.479  0.00  0.00    -0.016 A 
ATOM      7  C6  BZF d   1      -0.521  -0.219   1.065  0.00  0.00     0.022 A 
ATOM      8  C7  BZF d   1      -0.030  -0.054  -0.187  0.00  0.00     0.029 A 
ATOM      9  C7A BZF d   1      -0.091  -1.137  -1.030  0.00  0.00     0.058 A 
ENDROOT
TORSDOF 0
ENDMDL
