MODEL 1
REMARK minimizedAffinity -2.53660941
REMARK minimizedRMSD -1
REMARK  0 active torsions:
REMARK  status: ('A' for Active; 'I' for Inactive)
ROOT
ATOM      1  O1  BZF d   1       0.145  -1.998  -1.210  0.00  0.00    -0.204 OA
ATOM      2  C2  BZF d   1      -0.328  -2.954  -0.332  0.00  0.00     0.174 A 
ATOM      3  C3  BZF d   1      -0.791  -2.380   0.797  0.00  0.00    -0.012 A 
ATOM      4  C3A BZF d   1      -0.679  -0.971   0.576  0.00  0.00    -0.107 A 
ATOM      5  C4  BZF d   1      -0.993   0.125   1.328  0.00  0.00     0.055 A 
ATOM      6  C5  BZF d   1      -0.690   1.361   0.851  0.00  0.00    -0.016 A 
ATOM      7  C6  BZF d   1      -0.071   1.538  -0.369  0.00  0.00     0.022 A 
ATOM      8  C7  BZF d   1       0.255   0.481  -1.152  0.00  0.00     0.029 A 
ATOM      9  C7A BZF d   1      -0.079  -0.768  -0.688  0.00  0.00     0.058 A 
ENDROOT
TORSDOF 0
ENDMDL
