MODEL 1
REMARK minimizedAffinity -2.03755021
REMARK minimizedRMSD -1
REMARK  0 active torsions:
REMARK  status: ('A' for Active; 'I' for Inactive)
ROOT
ATOM      1  O1  BZF d   1       1.543   0.436  -0.042  0.00  0.00    -0.204 OA
ATOM      2  C2  BZF d   1       0.248  -0.032   0.071  0.00  0.00     0.174 A 
ATOM      3  C3  BZF d   1      -0.560   0.918   0.585  0.00  0.00    -0.012 A 
ATOM      4  C3A BZF d   1       0.264   2.080   0.720  0.00  0.00    -0.107 A 
ATOM      5  C4  BZF d   1       0.029   3.351   1.161  0.00  0.00     0.055 A 
ATOM      6  C5  BZF d   1       1.066   4.227   1.235  0.00  0.00    -0.016 A 
ATOM      7  C6  BZF d   1       2.349   3.863   0.883  0.00  0.00     0.022 A 
ATOM      8  C7  BZF d   1       2.630   2.615   0.435  0.00  0.00     0.029 A 
ATOM      9  C7A BZF d   1       1.578   1.739   0.328  0.00  0.00     0.058 A 
ENDROOT
TORSDOF 0
ENDMDL
