MODEL 1
REMARK minimizedAffinity 0.992852747
REMARK minimizedRMSD -1
REMARK  0 active torsions:
REMARK  status: ('A' for Active; 'I' for Inactive)
ROOT
ATOM      1  O1  BZF d   1      -0.112  -2.161  -1.168  0.00  0.00    -0.204 OA
ATOM      2  C2  BZF d   1      -0.673  -3.043  -0.265  0.00  0.00     0.174 A 
ATOM      3  C3  BZF d   1      -0.992  -2.413   0.884  0.00  0.00    -0.012 A 
ATOM      4  C3A BZF d   1      -0.691  -1.034   0.653  0.00  0.00    -0.107 A 
ATOM      5  C4  BZF d   1      -0.807   0.093   1.416  0.00  0.00     0.055 A 
ATOM      6  C5  BZF d   1      -0.355   1.275   0.921  0.00  0.00    -0.016 A 
ATOM      7  C6  BZF d   1       0.222   1.366  -0.328  0.00  0.00     0.022 A 
ATOM      8  C7  BZF d   1       0.355   0.277  -1.124  0.00  0.00     0.029 A 
ATOM      9  C7A BZF d   1      -0.131  -0.913  -0.640  0.00  0.00     0.058 A 
ENDROOT
TORSDOF 0
ENDMDL
