MODEL 1
REMARK minimizedAffinity -0.26620847
REMARK minimizedRMSD -1
REMARK  0 active torsions:
REMARK  status: ('A' for Active; 'I' for Inactive)
ROOT
ATOM      1  O1  BZF d   1       0.413  -0.162  -1.333  0.00  0.00    -0.204 OA
ATOM      2  C2  BZF d   1       0.433   1.141  -0.873  0.00  0.00     0.174 A 
ATOM      3  C3  BZF d   1      -0.209   1.240   0.309  0.00  0.00    -0.012 A 
ATOM      4  C3A BZF d   1      -0.577  -0.099   0.652  0.00  0.00    -0.107 A 
ATOM      5  C4  BZF d   1      -1.225  -0.651   1.720  0.00  0.00     0.055 A 
ATOM      6  C5  BZF d   1      -1.491  -1.984   1.714  0.00  0.00    -0.016 A 
ATOM      7  C6  BZF d   1      -1.129  -2.792   0.657  0.00  0.00     0.022 A 
ATOM      8  C7  BZF d   1      -0.480  -2.291  -0.422  0.00  0.00     0.029 A 
ATOM      9  C7A BZF d   1      -0.180  -0.951  -0.405  0.00  0.00     0.058 A 
ENDROOT
TORSDOF 0
ENDMDL
