MODEL 1
REMARK minimizedAffinity -0.45974192
REMARK minimizedRMSD -1
REMARK  0 active torsions:
REMARK  status: ('A' for Active; 'I' for Inactive)
ROOT
ATOM      1  O1  BZF d   1       0.742  -0.062  -0.304  0.00  0.00    -0.204 OA
ATOM      2  C2  BZF d   1       0.528   1.294  -0.145  0.00  0.00     0.174 A 
ATOM      3  C3  BZF d   1      -0.667   1.524   0.436  0.00  0.00    -0.012 A 
ATOM      4  C3A BZF d   1      -1.195   0.229   0.738  0.00  0.00    -0.107 A 
ATOM      5  C4  BZF d   1      -2.346  -0.200   1.335  0.00  0.00     0.055 A 
ATOM      6  C5  BZF d   1      -2.593  -1.534   1.412  0.00  0.00    -0.016 A 
ATOM      7  C6  BZF d   1      -1.715  -2.465   0.897  0.00  0.00     0.022 A 
ATOM      8  C7  BZF d   1      -0.558  -2.088   0.300  0.00  0.00     0.029 A 
ATOM      9  C7A BZF d   1      -0.290  -0.742   0.251  0.00  0.00     0.058 A 
ENDROOT
TORSDOF 0
ENDMDL
