MODEL 1
REMARK minimizedAffinity -4.31319332
REMARK minimizedRMSD -1
REMARK  0 active torsions:
REMARK  status: ('A' for Active; 'I' for Inactive)
ROOT
ATOM      1  O1  BZF d   1      -0.844  -0.751   1.147  0.00  0.00    -0.204 OA
ATOM      2  C2  BZF d   1      -0.789  -2.128   1.058  0.00  0.00     0.174 A 
ATOM      3  C3  BZF d   1      -0.422  -2.514  -0.182  0.00  0.00    -0.012 A 
ATOM      4  C3A BZF d   1      -0.147  -1.300  -0.887  0.00  0.00    -0.107 A 
ATOM      5  C4  BZF d   1       0.276  -1.026  -2.157  0.00  0.00     0.055 A 
ATOM      6  C5  BZF d   1       0.376   0.269  -2.555  0.00  0.00    -0.016 A 
ATOM      7  C6  BZF d   1       0.058   1.314  -1.713  0.00  0.00     0.022 A 
ATOM      8  C7  BZF d   1      -0.360   1.093  -0.443  0.00  0.00     0.029 A 
ATOM      9  C7A BZF d   1      -0.431  -0.214  -0.027  0.00  0.00     0.058 A 
ENDROOT
TORSDOF 0
ENDMDL
