MODEL 1
REMARK minimizedAffinity -3.26770806
REMARK minimizedRMSD -1
REMARK  0 active torsions:
REMARK  status: ('A' for Active; 'I' for Inactive)
ROOT
ATOM      1  O1  BZF d   1       0.759   0.298  -3.045  0.00  0.00    -0.204 OA
ATOM      2  C2  BZF d   1       1.027  -0.914  -3.651  0.00  0.00     0.174 A 
ATOM      3  C3  BZF d   1       0.800  -1.935  -2.799  0.00  0.00    -0.012 A 
ATOM      4  C3A BZF d   1       0.275  -1.328  -1.615  0.00  0.00    -0.107 A 
ATOM      5  C4  BZF d   1      -0.157  -1.824  -0.418  0.00  0.00     0.055 A 
ATOM      6  C5  BZF d   1      -0.541  -0.957   0.556  0.00  0.00    -0.016 A 
ATOM      7  C6  BZF d   1      -0.500   0.409   0.369  0.00  0.00     0.022 A 
ATOM      8  C7  BZF d   1      -0.084   0.948  -0.803  0.00  0.00     0.029 A 
ATOM      9  C7A BZF d   1       0.273   0.074  -1.800  0.00  0.00     0.058 A 
ENDROOT
TORSDOF 0
ENDMDL
