MODEL 1
REMARK minimizedAffinity -5.27063656
REMARK minimizedRMSD -1
REMARK  0 active torsions:
REMARK  status: ('A' for Active; 'I' for Inactive)
ROOT
ATOM      1  O1  BZF d   1       0.038  -0.050  -1.268  0.00  0.00    -0.204 OA
ATOM      2  C2  BZF d   1       0.154   0.573  -0.041  0.00  0.00     0.174 A 
ATOM      3  C3  BZF d   1       0.028  -0.318   0.963  0.00  0.00    -0.012 A 
ATOM      4  C3A BZF d   1      -0.088  -1.592   0.322  0.00  0.00    -0.107 A 
ATOM      5  C4  BZF d   1      -0.224  -2.869   0.788  0.00  0.00     0.055 A 
ATOM      6  C5  BZF d   1      -0.384  -3.883  -0.102  0.00  0.00    -0.016 A 
ATOM      7  C6  BZF d   1      -0.419  -3.657  -1.462  0.00  0.00     0.022 A 
ATOM      8  C7  BZF d   1      -0.284  -2.408  -1.972  0.00  0.00     0.029 A 
ATOM      9  C7A BZF d   1      -0.088  -1.385  -1.077  0.00  0.00     0.058 A 
ENDROOT
TORSDOF 0
ENDMDL
