MODEL 1
REMARK minimizedAffinity 5.88557577
REMARK minimizedRMSD -1
REMARK  1 active torsions:
REMARK  status: ('A' for Active; 'I' for Inactive)
REMARK    1  A    between atoms: C1_2  and  C2_3 
ROOT
ATOM      1  C2  UNL d   1       0.157  -2.357   1.699  0.00  0.00    -0.073 A 
ATOM      2  C3  UNL d   1       0.912  -1.247   2.096  0.00  0.00    -0.002 A 
ATOM      3  C4  UNL d   1       2.297  -1.240   1.927  0.00  0.00     0.004 A 
ATOM      4  C5  UNL d   1       2.940  -2.337   1.354  0.00  0.00    -0.004 A 
ATOM      5  C6  UNL d   1       2.202  -3.450   0.940  0.00  0.00    -0.075 A 
ATOM      6  C7  UNL d   1       2.879  -4.639   0.324  0.00  0.00     0.076 C 
ATOM      7  C8  UNL d   1       0.812  -3.451   1.116  0.00  0.00     0.001 A 
ENDROOT
BRANCH   1   8
ATOM      8  C1  UNL d   1      -1.339  -2.367   1.874  0.00  0.00     0.053 C 
ATOM      9  C   UNL d   1      -1.771  -3.244   3.039  0.00  0.00     0.018 C 
ENDBRANCH   1   8
TORSDOF 1
ENDMDL
