MODEL 1
REMARK minimizedAffinity 8.70804024
REMARK minimizedRMSD -1
REMARK  1 active torsions:
REMARK  status: ('A' for Active; 'I' for Inactive)
REMARK    1  A    between atoms: C1_2  and  C2_3 
ROOT
ATOM      1  C2  UNL d   1      -2.732   1.988  -2.885  0.00  0.00    -0.073 A 
ATOM      2  C3  UNL d   1      -3.797   2.074  -1.981  0.00  0.00    -0.002 A 
ATOM      3  C4  UNL d   1      -4.114   0.990  -1.160  0.00  0.00     0.004 A 
ATOM      4  C5  UNL d   1      -3.366  -0.185  -1.230  0.00  0.00    -0.004 A 
ATOM      5  C6  UNL d   1      -2.291  -0.286  -2.118  0.00  0.00    -0.075 A 
ATOM      6  C7  UNL d   1      -1.478  -1.544  -2.206  0.00  0.00     0.076 C 
ATOM      7  C8  UNL d   1      -1.981   0.806  -2.941  0.00  0.00     0.001 A 
ENDROOT
BRANCH   1   8
ATOM      8  C1  UNL d   1      -2.383   3.157  -3.769  0.00  0.00     0.053 C 
ATOM      9  C   UNL d   1      -0.879   3.341  -3.903  0.00  0.00     0.018 C 
ENDBRANCH   1   8
TORSDOF 1
ENDMDL
