MODEL 1
REMARK minimizedAffinity 13.1837273
REMARK minimizedRMSD -1
REMARK  1 active torsions:
REMARK  status: ('A' for Active; 'I' for Inactive)
REMARK    1  A    between atoms: C1_2  and  C2_3 
ROOT
ATOM      1  C2  UNL d   1      -2.836   0.850   3.440  0.00  0.00    -0.073 A 
ATOM      2  C3  UNL d   1      -3.502   1.335   4.570  0.00  0.00    -0.002 A 
ATOM      3  C4  UNL d   1      -4.786   1.870   4.456  0.00  0.00     0.004 A 
ATOM      4  C5  UNL d   1      -5.418   1.919   3.214  0.00  0.00    -0.004 A 
ATOM      5  C6  UNL d   1      -4.773   1.429   2.074  0.00  0.00    -0.075 A 
ATOM      6  C7  UNL d   1      -5.439   1.476   0.730  0.00  0.00     0.076 C 
ATOM      7  C8  UNL d   1      -3.483   0.895   2.196  0.00  0.00     0.001 A 
ENDROOT
BRANCH   1   8
ATOM      8  C1  UNL d   1      -1.452   0.266   3.559  0.00  0.00     0.053 C 
ATOM      9  C   UNL d   1      -1.308  -1.025   2.768  0.00  0.00     0.018 C 
ENDBRANCH   1   8
TORSDOF 1
ENDMDL
