MODEL 1
REMARK minimizedAffinity -4.4303441
REMARK minimizedRMSD -1
REMARK  1 active torsions:
REMARK  status: ('A' for Active; 'I' for Inactive)
REMARK    1  A    between atoms: C1_2  and  C2_3 
ROOT
ATOM      1  C2  UNL d   1       0.536  -0.669  -1.040  0.00  0.00    -0.081 A 
ATOM      2  C3  UNL d   1       0.611  -0.968   0.326  0.00  0.00     0.006 A 
ATOM      3  C4  UNL d   1       0.214  -0.028   1.279  0.00  0.00     0.002 A 
ATOM      4  C5  UNL d   1      -0.272   1.223   0.883  0.00  0.00    -0.080 A 
ATOM      5  C6  UNL d   1      -0.730   2.230   1.896  0.00  0.00     0.076 C 
ATOM      6  C7  UNL d   1      -0.330   1.528  -0.481  0.00  0.00     0.002 A 
ATOM      7  C8  UNL d   1       0.068   0.589  -1.435  0.00  0.00     0.006 A 
ENDROOT
BRANCH   1   8
ATOM      8  C1  UNL d   1       0.903  -1.705  -2.072  0.00  0.00     0.054 C 
ATOM      9  C   UNL d   1      -0.038  -2.900  -2.016  0.00  0.00     0.018 C 
ENDBRANCH   1   8
TORSDOF 1
ENDMDL
