MODEL 1
REMARK minimizedAffinity -5.62314034
REMARK minimizedRMSD -1
REMARK  1 active torsions:
REMARK  status: ('A' for Active; 'I' for Inactive)
REMARK    1  A    between atoms: C1_2  and  C2_3 
ROOT
ATOM      1  C2  UNL d   1      -0.022  -0.565  -0.352  0.00  0.00    -0.081 A 
ATOM      2  C3  UNL d   1       0.472  -0.426   0.951  0.00  0.00     0.006 A 
ATOM      3  C4  UNL d   1       0.010   0.601   1.777  0.00  0.00     0.002 A 
ATOM      4  C5  UNL d   1      -0.958   1.500   1.318  0.00  0.00    -0.080 A 
ATOM      5  C6  UNL d   1      -1.485   2.589   2.206  0.00  0.00     0.076 C 
ATOM      6  C7  UNL d   1      -1.440   1.371   0.011  0.00  0.00     0.002 A 
ATOM      7  C8  UNL d   1      -0.977   0.345  -0.816  0.00  0.00     0.006 A 
ENDROOT
BRANCH   1   8
ATOM      8  C1  UNL d   1       0.427  -1.711  -1.223  0.00  0.00     0.054 C 
ATOM      9  C   UNL d   1      -0.756  -2.382  -1.907  0.00  0.00     0.018 C 
ENDBRANCH   1   8
TORSDOF 1
ENDMDL
