MODEL 1
REMARK minimizedAffinity -4.42602396
REMARK minimizedRMSD -1
REMARK  1 active torsions:
REMARK  status: ('A' for Active; 'I' for Inactive)
REMARK    1  A    between atoms: C1_2  and  C2_3 
ROOT
ATOM      1  C2  UNL d   1       0.257  -1.311  -0.394  0.00  0.00    -0.081 A 
ATOM      2  C3  UNL d   1       0.174  -1.368   1.003  0.00  0.00     0.006 A 
ATOM      3  C4  UNL d   1      -0.156  -0.228   1.739  0.00  0.00     0.002 A 
ATOM      4  C5  UNL d   1      -0.417   0.984   1.092  0.00  0.00    -0.080 A 
ATOM      5  C6  UNL d   1      -0.803   2.208   1.869  0.00  0.00     0.076 C 
ATOM      6  C7  UNL d   1      -0.317   1.045  -0.302  0.00  0.00     0.002 A 
ATOM      7  C8  UNL d   1       0.014  -0.094  -1.039  0.00  0.00     0.006 A 
ENDROOT
BRANCH   1   8
ATOM      8  C1  UNL d   1       0.550  -2.554  -1.196  0.00  0.00     0.054 C 
ATOM      9  C   UNL d   1      -0.708  -3.093  -1.860  0.00  0.00     0.018 C 
ENDBRANCH   1   8
TORSDOF 1
ENDMDL
