MODEL 1
REMARK minimizedAffinity -4.31419039
REMARK minimizedRMSD -1
REMARK  1 active torsions:
REMARK  status: ('A' for Active; 'I' for Inactive)
REMARK    1  A    between atoms: C1_2  and  C2_3 
ROOT
ATOM      1  C2  UNL d   1       1.426   1.825   0.831  0.00  0.00    -0.081 A 
ATOM      2  C3  UNL d   1       1.099   1.605   2.175  0.00  0.00     0.006 A 
ATOM      3  C4  UNL d   1       0.781   0.321   2.625  0.00  0.00     0.002 A 
ATOM      4  C5  UNL d   1       0.792  -0.764   1.741  0.00  0.00    -0.080 A 
ATOM      5  C6  UNL d   1       0.482  -2.152   2.218  0.00  0.00     0.076 C 
ATOM      6  C7  UNL d   1       1.101  -0.540   0.395  0.00  0.00     0.002 A 
ATOM      7  C8  UNL d   1       1.418   0.743  -0.055  0.00  0.00     0.006 A 
ENDROOT
BRANCH   1   8
ATOM      8  C1  UNL d   1       1.832   3.197   0.357  0.00  0.00     0.054 C 
ATOM      9  C   UNL d   1       2.221   4.094   1.523  0.00  0.00     0.018 C 
ENDBRANCH   1   8
TORSDOF 1
ENDMDL
