MODEL 1
REMARK minimizedAffinity 2.39060116
REMARK minimizedRMSD -1
REMARK  1 active torsions:
REMARK  status: ('A' for Active; 'I' for Inactive)
REMARK    1  A    between atoms: C1_2  and  C2_3 
ROOT
ATOM      1  C2  UNL d   1       0.113   0.266  -1.677  0.00  0.00    -0.081 A 
ATOM      2  C3  UNL d   1      -1.032  -0.506  -1.443  0.00  0.00     0.006 A 
ATOM      3  C4  UNL d   1      -1.136  -1.285  -0.288  0.00  0.00     0.002 A 
ATOM      4  C5  UNL d   1      -0.103  -1.299   0.655  0.00  0.00    -0.080 A 
ATOM      5  C6  UNL d   1      -0.216  -2.108   1.913  0.00  0.00     0.076 C 
ATOM      6  C7  UNL d   1       1.048  -0.541   0.413  0.00  0.00     0.002 A 
ATOM      7  C8  UNL d   1       1.153   0.238  -0.741  0.00  0.00     0.006 A 
ENDROOT
BRANCH   1   8
ATOM      8  C1  UNL d   1       0.201   1.158  -2.889  0.00  0.00     0.054 C 
ATOM      9  C   UNL d   1      -0.952   2.150  -2.931  0.00  0.00     0.018 C 
ENDBRANCH   1   8
TORSDOF 1
ENDMDL
