MODEL 1
REMARK minimizedAffinity -3.69820094
REMARK minimizedRMSD -1
REMARK  1 active torsions:
REMARK  status: ('A' for Active; 'I' for Inactive)
REMARK    1  A    between atoms: C1_2  and  C2_3 
ROOT
ATOM      1  C2  UNL d   1       0.400  -0.162  -0.137  0.00  0.00    -0.081 A 
ATOM      2  C3  UNL d   1      -0.048  -0.656   1.094  0.00  0.00     0.006 A 
ATOM      3  C4  UNL d   1       0.457  -0.140   2.290  0.00  0.00     0.002 A 
ATOM      4  C5  UNL d   1       1.413   0.882   2.275  0.00  0.00    -0.080 A 
ATOM      5  C6  UNL d   1       1.941   1.465   3.552  0.00  0.00     0.076 C 
ATOM      6  C7  UNL d   1       1.873   1.362   1.045  0.00  0.00     0.002 A 
ATOM      7  C8  UNL d   1       1.369   0.847  -0.151  0.00  0.00     0.006 A 
ENDROOT
BRANCH   1   8
ATOM      8  C1  UNL d   1      -0.190  -0.671  -1.427  0.00  0.00     0.054 C 
ATOM      9  C   UNL d   1      -1.683  -0.384  -1.504  0.00  0.00     0.018 C 
ENDBRANCH   1   8
TORSDOF 1
ENDMDL
