MODEL 1
REMARK minimizedAffinity -3.79129267
REMARK minimizedRMSD -1
REMARK  1 active torsions:
REMARK  status: ('A' for Active; 'I' for Inactive)
REMARK    1  A    between atoms: C1_2  and  C2_3 
ROOT
ATOM      1  C2  UNL d   1       1.272   1.205  -0.466  0.00  0.00    -0.081 A 
ATOM      2  C3  UNL d   1       0.377   1.489  -1.505  0.00  0.00     0.006 A 
ATOM      3  C4  UNL d   1      -0.714   0.652  -1.747  0.00  0.00     0.002 A 
ATOM      4  C5  UNL d   1      -0.934  -0.477  -0.951  0.00  0.00    -0.080 A 
ATOM      5  C6  UNL d   1      -2.119  -1.367  -1.182  0.00  0.00     0.076 C 
ATOM      6  C7  UNL d   1      -0.030  -0.771   0.075  0.00  0.00     0.002 A 
ATOM      7  C8  UNL d   1       1.062   0.065   0.318  0.00  0.00     0.006 A 
ENDROOT
BRANCH   1   8
ATOM      8  C1  UNL d   1       2.414   2.140  -0.161  0.00  0.00     0.054 C 
ATOM      9  C   UNL d   1       2.147   3.536  -0.707  0.00  0.00     0.018 C 
ENDBRANCH   1   8
TORSDOF 1
ENDMDL
