MODEL 1
REMARK minimizedAffinity -6.54546452
REMARK minimizedRMSD -1
REMARK  1 active torsions:
REMARK  status: ('A' for Active; 'I' for Inactive)
REMARK    1  A    between atoms: C1_2  and  C2_3 
ROOT
ATOM      1  C2  UNL d   1       0.681  -0.339   1.152  0.00  0.00    -0.081 A 
ATOM      2  C3  UNL d   1       0.059  -1.402   1.818  0.00  0.00     0.006 A 
ATOM      3  C4  UNL d   1      -1.203  -1.847   1.417  0.00  0.00     0.002 A 
ATOM      4  C5  UNL d   1      -1.861  -1.242   0.341  0.00  0.00    -0.080 A 
ATOM      5  C6  UNL d   1      -3.203  -1.729  -0.118  0.00  0.00     0.076 C 
ATOM      6  C7  UNL d   1      -1.247  -0.168  -0.313  0.00  0.00     0.002 A 
ATOM      7  C8  UNL d   1       0.015   0.277   0.087  0.00  0.00     0.006 A 
ENDROOT
BRANCH   1   8
ATOM      8  C1  UNL d   1       2.070   0.100   1.540  0.00  0.00     0.054 C 
ATOM      9  C   UNL d   1       2.459   1.392   0.835  0.00  0.00     0.018 C 
ENDBRANCH   1   8
TORSDOF 1
ENDMDL
