MODEL 1
REMARK minimizedAffinity -4.65234327
REMARK minimizedRMSD -1
REMARK  1 active torsions:
REMARK  status: ('A' for Active; 'I' for Inactive)
REMARK    1  A    between atoms: C1_2  and  C2_3 
ROOT
ATOM      1  C2  UNL d   1       0.792   0.327   0.265  0.00  0.00    -0.081 A 
ATOM      2  C3  UNL d   1      -0.063   0.447  -0.837  0.00  0.00     0.006 A 
ATOM      3  C4  UNL d   1      -1.402   0.062  -0.739  0.00  0.00     0.002 A 
ATOM      4  C5  UNL d   1      -1.911  -0.441   0.463  0.00  0.00    -0.080 A 
ATOM      5  C6  UNL d   1      -3.354  -0.830   0.590  0.00  0.00     0.076 C 
ATOM      6  C7  UNL d   1      -1.052  -0.577   1.559  0.00  0.00     0.002 A 
ATOM      7  C8  UNL d   1       0.287  -0.193   1.462  0.00  0.00     0.006 A 
ENDROOT
BRANCH   1   8
ATOM      8  C1  UNL d   1       2.220   0.802   0.183  0.00  0.00     0.054 C 
ATOM      9  C   UNL d   1       2.409   2.121   0.918  0.00  0.00     0.018 C 
ENDBRANCH   1   8
TORSDOF 1
ENDMDL
