MODEL 1
REMARK minimizedAffinity -5.75863266
REMARK minimizedRMSD -1
REMARK  1 active torsions:
REMARK  status: ('A' for Active; 'I' for Inactive)
REMARK    1  A    between atoms: C1_2  and  C2_3 
ROOT
ATOM      1  C2  UNL d   1       0.608   0.384  -0.204  0.00  0.00    -0.081 A 
ATOM      2  C3  UNL d   1      -0.327   0.492  -1.241  0.00  0.00     0.006 A 
ATOM      3  C4  UNL d   1      -1.612  -0.035  -1.094  0.00  0.00     0.002 A 
ATOM      4  C5  UNL d   1      -1.986  -0.673   0.094  0.00  0.00    -0.080 A 
ATOM      5  C6  UNL d   1      -3.372  -1.217   0.276  0.00  0.00     0.076 C 
ATOM      6  C7  UNL d   1      -1.047  -0.797   1.123  0.00  0.00     0.002 A 
ATOM      7  C8  UNL d   1       0.238  -0.270   0.977  0.00  0.00     0.006 A 
ENDROOT
BRANCH   1   8
ATOM      8  C1  UNL d   1       1.973   1.009  -0.335  0.00  0.00     0.054 C 
ATOM      9  C   UNL d   1       2.059   2.317   0.438  0.00  0.00     0.018 C 
ENDBRANCH   1   8
TORSDOF 1
ENDMDL
