MODEL 1
REMARK minimizedAffinity -2.59505844
REMARK minimizedRMSD -1
REMARK  1 active torsions:
REMARK  status: ('A' for Active; 'I' for Inactive)
REMARK    1  A    between atoms: C1_2  and  C2_3 
ROOT
ATOM      1  C2  UNL d   1       1.480  -0.319   1.488  0.00  0.00    -0.081 A 
ATOM      2  C3  UNL d   1       1.427   0.795   2.335  0.00  0.00     0.006 A 
ATOM      3  C4  UNL d   1       1.846   2.049   1.883  0.00  0.00     0.002 A 
ATOM      4  C5  UNL d   1       2.316   2.211   0.575  0.00  0.00    -0.080 A 
ATOM      5  C6  UNL d   1       2.740   3.557   0.068  0.00  0.00     0.076 C 
ATOM      6  C7  UNL d   1       2.385   1.095  -0.266  0.00  0.00     0.002 A 
ATOM      7  C8  UNL d   1       1.967  -0.159   0.186  0.00  0.00     0.006 A 
ENDROOT
BRANCH   1   8
ATOM      8  C1  UNL d   1       0.968  -1.659   1.951  0.00  0.00     0.054 C 
ATOM      9  C   UNL d   1      -0.461  -1.898   1.484  0.00  0.00     0.018 C 
ENDBRANCH   1   8
TORSDOF 1
ENDMDL
