MODEL 1
REMARK minimizedAffinity -5.52013302
REMARK minimizedRMSD -1
REMARK  1 active torsions:
REMARK  status: ('A' for Active; 'I' for Inactive)
REMARK    1  A    between atoms: C1_2  and  C2_3 
ROOT
ATOM      1  C2  UNL d   1      -1.114  -0.981   0.217  0.00  0.00    -0.081 A 
ATOM      2  C3  UNL d   1      -0.325  -0.889   1.370  0.00  0.00     0.006 A 
ATOM      3  C4  UNL d   1       0.691   0.065   1.457  0.00  0.00     0.002 A 
ATOM      4  C5  UNL d   1       0.931   0.946   0.398  0.00  0.00    -0.080 A 
ATOM      5  C6  UNL d   1       2.000   1.995   0.491  0.00  0.00     0.076 C 
ATOM      6  C7  UNL d   1       0.155   0.842  -0.761  0.00  0.00     0.002 A 
ATOM      7  C8  UNL d   1      -0.862  -0.111  -0.850  0.00  0.00     0.006 A 
ENDROOT
BRANCH   1   8
ATOM      8  C1  UNL d   1      -2.254  -1.965   0.145  0.00  0.00     0.054 C 
ATOM      9  C   UNL d   1      -3.600  -1.257   0.189  0.00  0.00     0.018 C 
ENDBRANCH   1   8
TORSDOF 1
ENDMDL
