MODEL 1
REMARK minimizedAffinity 1.68748248
REMARK minimizedRMSD -1
REMARK  1 active torsions:
REMARK  status: ('A' for Active; 'I' for Inactive)
REMARK    1  A    between atoms: C1_2  and  C2_3 
ROOT
ATOM      1  C2  UNL d   1      -0.731  -1.766   0.176  0.00  0.00    -0.081 A 
ATOM      2  C3  UNL d   1      -1.810  -1.650  -0.708  0.00  0.00     0.006 A 
ATOM      3  C4  UNL d   1      -1.811  -0.665  -1.699  0.00  0.00     0.002 A 
ATOM      4  C5  UNL d   1      -0.729   0.213  -1.828  0.00  0.00    -0.080 A 
ATOM      5  C6  UNL d   1      -0.703   1.255  -2.906  0.00  0.00     0.076 C 
ATOM      6  C7  UNL d   1       0.341   0.108  -0.933  0.00  0.00     0.002 A 
ATOM      7  C8  UNL d   1       0.341  -0.875   0.059  0.00  0.00     0.006 A 
ENDROOT
BRANCH   1   8
ATOM      8  C1  UNL d   1      -0.699  -2.867   1.205  0.00  0.00     0.054 C 
ATOM      9  C   UNL d   1       0.369  -2.609   2.259  0.00  0.00     0.018 C 
ENDBRANCH   1   8
TORSDOF 1
ENDMDL
