MODEL 1
REMARK minimizedAffinity -4.40492392
REMARK minimizedRMSD -1
REMARK  1 active torsions:
REMARK  status: ('A' for Active; 'I' for Inactive)
REMARK    1  A    between atoms: C1_2  and  C2_3 
ROOT
ATOM      1  C2  UNL d   1      -1.659  -0.471  -0.278  0.00  0.00    -0.081 A 
ATOM      2  C3  UNL d   1      -0.463  -0.069  -0.884  0.00  0.00     0.006 A 
ATOM      3  C4  UNL d   1       0.706   0.060  -0.130  0.00  0.00     0.002 A 
ATOM      4  C5  UNL d   1       0.700  -0.217   1.241  0.00  0.00    -0.080 A 
ATOM      5  C6  UNL d   1       1.954  -0.111   2.057  0.00  0.00     0.076 C 
ATOM      6  C7  UNL d   1      -0.499  -0.602   1.851  0.00  0.00     0.002 A 
ATOM      7  C8  UNL d   1      -1.668  -0.731   1.097  0.00  0.00     0.006 A 
ENDROOT
BRANCH   1   8
ATOM      8  C1  UNL d   1      -2.905  -0.674  -1.100  0.00  0.00     0.054 C 
ATOM      9  C   UNL d   1      -4.107  -0.980  -0.218  0.00  0.00     0.018 C 
ENDBRANCH   1   8
TORSDOF 1
ENDMDL
