MODEL 1
REMARK minimizedAffinity -3.86630583
REMARK minimizedRMSD -1
REMARK  0 active torsions:
REMARK  status: ('A' for Active; 'I' for Inactive)
ROOT
ATOM      1  C1  DEN d   1      -1.583  -0.052  -1.058  0.00  0.00     0.130 A 
ATOM      2  C2  DEN d   1      -0.565   0.035  -2.102  0.00  0.00    -0.031 A 
ATOM      3  C3  DEN d   1       0.753  -0.184  -1.473  0.00  0.00     0.027 A 
ATOM      4  C4  DEN d   1       1.313  -0.651   1.001  0.00  0.00     0.027 A 
ATOM      5  C5  DEN d   1       0.781  -0.805   2.263  0.00  0.00    -0.003 A 
ATOM      6  C6  DEN d   1      -0.561  -0.686   2.509  0.00  0.00     0.001 A 
ATOM      7  C7  DEN d   1      -1.423  -0.449   1.472  0.00  0.00     0.017 A 
ATOM      8  C8  DEN d   1      -0.894  -0.286   0.198  0.00  0.00    -0.094 A 
ATOM      9  C9  DEN d   1       0.464  -0.422  -0.033  0.00  0.00    -0.072 A 
ENDROOT
TORSDOF 0
ENDMDL
