MODEL 1
REMARK minimizedAffinity -3.83383203
REMARK minimizedRMSD -1
REMARK  0 active torsions:
REMARK  status: ('A' for Active; 'I' for Inactive)
ROOT
ATOM      1  C1  DEN d   1      -1.134   0.934  -0.769  0.00  0.00     0.130 A 
ATOM      2  C2  DEN d   1      -1.015   0.585  -2.182  0.00  0.00    -0.031 A 
ATOM      3  C3  DEN d   1       0.249  -0.156  -2.364  0.00  0.00     0.027 A 
ATOM      4  C4  DEN d   1       2.023  -0.797  -0.605  0.00  0.00     0.027 A 
ATOM      5  C5  DEN d   1       2.366  -0.710   0.726  0.00  0.00    -0.003 A 
ATOM      6  C6  DEN d   1       1.590  -0.045   1.638  0.00  0.00     0.001 A 
ATOM      7  C7  DEN d   1       0.408   0.521   1.240  0.00  0.00     0.017 A 
ATOM      8  C8  DEN d   1       0.059   0.443  -0.102  0.00  0.00    -0.094 A 
ATOM      9  C9  DEN d   1       0.850  -0.244  -1.006  0.00  0.00    -0.072 A 
ENDROOT
TORSDOF 0
ENDMDL
