MODEL 1
REMARK minimizedAffinity -0.525290132
REMARK minimizedRMSD -1
REMARK  0 active torsions:
REMARK  status: ('A' for Active; 'I' for Inactive)
ROOT
ATOM      1  C1  DEN d   1      -0.017   0.529  -0.824  0.00  0.00     0.130 A 
ATOM      2  C2  DEN d   1      -1.412   0.098  -0.867  0.00  0.00    -0.031 A 
ATOM      3  C3  DEN d   1      -1.707  -0.620   0.389  0.00  0.00     0.027 A 
ATOM      4  C4  DEN d   1      -0.149  -1.101   2.388  0.00  0.00     0.027 A 
ATOM      5  C5  DEN d   1       1.128  -0.943   2.879  0.00  0.00    -0.003 A 
ATOM      6  C6  DEN d   1       2.114  -0.319   2.162  0.00  0.00     0.001 A 
ATOM      7  C7  DEN d   1       1.827   0.211   0.931  0.00  0.00     0.017 A 
ATOM      8  C8  DEN d   1       0.543   0.050   0.427  0.00  0.00    -0.094 A 
ATOM      9  C9  DEN d   1      -0.443  -0.574   1.172  0.00  0.00    -0.072 A 
ENDROOT
TORSDOF 0
ENDMDL
