MODEL 1
REMARK minimizedAffinity -3.28338933
REMARK minimizedRMSD -1
REMARK  0 active torsions:
REMARK  status: ('A' for Active; 'I' for Inactive)
ROOT
ATOM      1  C1  DEN d   1       3.290   5.952   2.202  0.00  0.00     0.130 A 
ATOM      2  C2  DEN d   1       4.713   5.978   2.531  0.00  0.00    -0.031 A 
ATOM      3  C3  DEN d   1       4.842   6.000   4.002  0.00  0.00     0.027 A 
ATOM      4  C4  DEN d   1       2.986   5.991   5.793  0.00  0.00     0.027 A 
ATOM      5  C5  DEN d   1       1.624   5.984   5.999  0.00  0.00    -0.003 A 
ATOM      6  C6  DEN d   1       0.730   6.000   4.962  0.00  0.00     0.001 A 
ATOM      7  C7  DEN d   1       1.186   5.978   3.670  0.00  0.00     0.017 A 
ATOM      8  C8  DEN d   1       2.558   5.993   3.455  0.00  0.00    -0.094 A 
ATOM      9  C9  DEN d   1       3.447   5.964   4.517  0.00  0.00    -0.072 A 
ENDROOT
TORSDOF 0
ENDMDL
