MODEL 1
REMARK minimizedAffinity -1.55223
REMARK minimizedRMSD -1
REMARK  0 active torsions:
REMARK  status: ('A' for Active; 'I' for Inactive)
ROOT
ATOM      1  C1  DEN d   1      -0.099   0.009  -2.780  0.00  0.00     0.130 A 
ATOM      2  C2  DEN d   1      -1.195   0.949  -2.564  0.00  0.00    -0.031 A 
ATOM      3  C3  DEN d   1      -1.207   1.316  -1.133  0.00  0.00     0.027 A 
ATOM      4  C4  DEN d   1       0.361   0.527   0.757  0.00  0.00     0.027 A 
ATOM      5  C5  DEN d   1       1.436  -0.279   1.061  0.00  0.00    -0.003 A 
ATOM      6  C6  DEN d   1       2.047  -1.065   0.121  0.00  0.00     0.001 A 
ATOM      7  C7  DEN d   1       1.617  -1.028  -1.179  0.00  0.00     0.017 A 
ATOM      8  C8  DEN d   1       0.530  -0.223  -1.492  0.00  0.00    -0.094 A 
ATOM      9  C9  DEN d   1      -0.067   0.574  -0.530  0.00  0.00    -0.072 A 
ENDROOT
TORSDOF 0
ENDMDL
