MODEL 1
REMARK minimizedAffinity -6.43990946
REMARK minimizedRMSD -1
REMARK  0 active torsions:
REMARK  status: ('A' for Active; 'I' for Inactive)
ROOT
ATOM      1  C1  DEN d   1      -0.386  -0.034   0.115  0.00  0.00     0.130 A 
ATOM      2  C2  DEN d   1      -1.209   0.223   1.293  0.00  0.00    -0.031 A 
ATOM      3  C3  DEN d   1      -0.615  -0.506   2.432  0.00  0.00     0.027 A 
ATOM      4  C4  DEN d   1       1.488  -1.998   2.485  0.00  0.00     0.027 A 
ATOM      5  C5  DEN d   1       2.510  -2.524   1.727  0.00  0.00    -0.003 A 
ATOM      6  C6  DEN d   1       2.618  -2.288   0.382  0.00  0.00     0.001 A 
ATOM      7  C7  DEN d   1       1.713  -1.467  -0.238  0.00  0.00     0.017 A 
ATOM      8  C8  DEN d   1       0.676  -0.938   0.519  0.00  0.00    -0.094 A 
ATOM      9  C9  DEN d   1       0.591  -1.179   1.880  0.00  0.00    -0.072 A 
ENDROOT
TORSDOF 0
ENDMDL
