MODEL 1
REMARK minimizedAffinity -2.31780171
REMARK minimizedRMSD -1
REMARK  0 active torsions:
REMARK  status: ('A' for Active; 'I' for Inactive)
ROOT
ATOM      1  C1  DEN d   1       0.851   0.280  -0.823  0.00  0.00     0.130 A 
ATOM      2  C2  DEN d   1      -0.293   0.668  -1.643  0.00  0.00    -0.031 A 
ATOM      3  C3  DEN d   1      -1.516   0.483  -0.838  0.00  0.00     0.027 A 
ATOM      4  C4  DEN d   1      -1.749  -0.358   1.590  0.00  0.00     0.027 A 
ATOM      5  C5  DEN d   1      -1.059  -0.819   2.689  0.00  0.00    -0.003 A 
ATOM      6  C6  DEN d   1       0.302  -0.977   2.683  0.00  0.00     0.001 A 
ATOM      7  C7  DEN d   1       1.021  -0.629   1.571  0.00  0.00     0.017 A 
ATOM      8  C8  DEN d   1       0.332  -0.170   0.456  0.00  0.00    -0.094 A 
ATOM      9  C9  DEN d   1      -1.043  -0.005   0.486  0.00  0.00    -0.072 A 
ENDROOT
TORSDOF 0
ENDMDL
