MODEL 1
REMARK minimizedAffinity -5.26237917
REMARK minimizedRMSD -1
REMARK  0 active torsions:
REMARK  status: ('A' for Active; 'I' for Inactive)
ROOT
ATOM      1  C1  DEN d   1      -0.395   0.353   0.418  0.00  0.00     0.130 A 
ATOM      2  C2  DEN d   1       0.847  -0.393   0.236  0.00  0.00    -0.031 A 
ATOM      3  C3  DEN d   1       1.512   0.117  -0.979  0.00  0.00     0.027 A 
ATOM      4  C4  DEN d   1       0.747   1.984  -2.585  0.00  0.00     0.027 A 
ATOM      5  C5  DEN d   1      -0.247   2.900  -2.850  0.00  0.00    -0.003 A 
ATOM      6  C6  DEN d   1      -1.368   3.007  -2.069  0.00  0.00     0.001 A 
ATOM      7  C7  DEN d   1      -1.500   2.215  -0.960  0.00  0.00     0.017 A 
ATOM      8  C8  DEN d   1      -0.505   1.284  -0.691  0.00  0.00    -0.094 A 
ATOM      9  C9  DEN d   1       0.626   1.200  -1.485  0.00  0.00    -0.072 A 
ENDROOT
TORSDOF 0
ENDMDL
