MODEL 1
REMARK minimizedAffinity -4.43487692
REMARK minimizedRMSD -1
REMARK  0 active torsions:
REMARK  status: ('A' for Active; 'I' for Inactive)
ROOT
ATOM      1  C   UNL d   1      -1.169   3.307   1.490  0.00  0.00    -0.002 A 
ATOM      2  C1  UNL d   1      -1.007   2.214   2.330  0.00  0.00     0.010 A 
ATOM      3  C2  UNL d   1      -0.463   1.023   1.847  0.00  0.00     0.041 A 
ATOM      4  C3  UNL d   1      -0.078   0.947   0.494  0.00  0.00    -0.075 A 
ATOM      5  S   UNL d   1       0.612  -0.409  -0.317  0.00  0.00     0.015 SA
ATOM      6  C4  UNL d   1       0.709   0.431  -1.796  0.00  0.00     0.022 A 
ATOM      7  C5  UNL d   1       0.231   1.716  -1.693  0.00  0.00     0.026 A 
ATOM      8  C6  UNL d   1      -0.230   2.035  -0.371  0.00  0.00    -0.082 A 
ATOM      9  C7  UNL d   1      -0.786   3.229   0.148  0.00  0.00     0.045 A 
ENDROOT
TORSDOF 0
ENDMDL
