MODEL 1
REMARK minimizedAffinity -3.4047327
REMARK minimizedRMSD -1
REMARK  0 active torsions:
REMARK  status: ('A' for Active; 'I' for Inactive)
ROOT
ATOM      1  C   UNL d   1       1.452  -6.000   1.030  0.00  0.00    -0.002 A 
ATOM      2  C1  UNL d   1       2.388  -4.977   1.001  0.00  0.00     0.010 A 
ATOM      3  C2  UNL d   1       2.221  -3.885   0.146  0.00  0.00     0.041 A 
ATOM      4  C3  UNL d   1       1.085  -3.838  -0.685  0.00  0.00    -0.075 A 
ATOM      5  S   UNL d   1       0.671  -2.599  -1.810  0.00  0.00     0.015 SA
ATOM      6  C4  UNL d   1      -0.760  -3.399  -2.278  0.00  0.00     0.022 A 
ATOM      7  C5  UNL d   1      -0.933  -4.584  -1.602  0.00  0.00     0.026 A 
ATOM      8  C6  UNL d   1       0.127  -4.856  -0.672  0.00  0.00    -0.082 A 
ATOM      9  C7  UNL d   1       0.325  -5.950   0.205  0.00  0.00     0.045 A 
ENDROOT
TORSDOF 0
ENDMDL
