MODEL 1
REMARK minimizedAffinity -0.745500922
REMARK minimizedRMSD -1
REMARK  0 active torsions:
REMARK  status: ('A' for Active; 'I' for Inactive)
ROOT
ATOM      1  C   UNL d   1      -2.346   1.612   0.097  0.00  0.00    -0.002 A 
ATOM      2  C1  UNL d   1      -1.646   2.348  -0.849  0.00  0.00     0.010 A 
ATOM      3  C2  UNL d   1      -0.592   1.771  -1.559  0.00  0.00     0.041 A 
ATOM      4  C3  UNL d   1      -0.250   0.429  -1.302  0.00  0.00    -0.075 A 
ATOM      5  S   UNL d   1       1.004  -0.487  -2.051  0.00  0.00     0.015 SA
ATOM      6  C4  UNL d   1       0.639  -1.876  -1.134  0.00  0.00     0.022 A 
ATOM      7  C5  UNL d   1      -0.411  -1.665  -0.272  0.00  0.00     0.026 A 
ATOM      8  C6  UNL d   1      -0.941  -0.333  -0.355  0.00  0.00    -0.082 A 
ATOM      9  C7  UNL d   1      -2.005   0.281   0.349  0.00  0.00     0.045 A 
ENDROOT
TORSDOF 0
ENDMDL
