MODEL 1
REMARK minimizedAffinity -3.49603963
REMARK minimizedRMSD -1
REMARK  0 active torsions:
REMARK  status: ('A' for Active; 'I' for Inactive)
ROOT
ATOM      1  C   UNL d   1      -1.336   2.777   1.900  0.00  0.00    -0.002 A 
ATOM      2  C1  UNL d   1      -1.586   3.136   0.583  0.00  0.00     0.010 A 
ATOM      3  C2  UNL d   1      -1.159   2.322  -0.468  0.00  0.00     0.041 A 
ATOM      4  C3  UNL d   1      -0.472   1.129  -0.171  0.00  0.00    -0.075 A 
ATOM      5  S   UNL d   1       0.144  -0.024  -1.295  0.00  0.00     0.015 SA
ATOM      6  C4  UNL d   1       0.752  -1.021  -0.054  0.00  0.00     0.022 A 
ATOM      7  C5  UNL d   1       0.501  -0.502   1.194  0.00  0.00     0.026 A 
ATOM      8  C6  UNL d   1      -0.209   0.745   1.148  0.00  0.00    -0.082 A 
ATOM      9  C7  UNL d   1      -0.654   1.592   2.191  0.00  0.00     0.045 A 
ENDROOT
TORSDOF 0
ENDMDL
