MODEL 1
REMARK minimizedAffinity 12.672884
REMARK minimizedRMSD -1
REMARK  0 active torsions:
REMARK  status: ('A' for Active; 'I' for Inactive)
ROOT
ATOM      1  C4' PXY d   1       2.987   0.507  -1.208  0.00  0.00     0.077 C 
ATOM      2  C1' PXY d   1       6.000   5.424  -1.613  0.00  0.00     0.077 C 
ATOM      3  C1  PXY d   1       5.201   4.141  -1.500  0.00  0.00    -0.082 A 
ATOM      4  C2  PXY d   1       5.814   2.975  -1.623  0.00  0.00     0.003 A 
ATOM      5  C3  PXY d   1       5.101   1.806  -1.555  0.00  0.00     0.003 A 
ATOM      6  C4  PXY d   1       3.755   1.828  -1.306  0.00  0.00    -0.082 A 
ATOM      7  C5  PXY d   1       3.124   3.013  -1.169  0.00  0.00     0.003 A 
ATOM      8  C6  PXY d   1       3.858   4.190  -1.282  0.00  0.00     0.003 A 
ENDROOT
TORSDOF 0
ENDMDL
