MODEL 1
REMARK minimizedAffinity 11.0299149
REMARK minimizedRMSD -1
REMARK  0 active torsions:
REMARK  status: ('A' for Active; 'I' for Inactive)
ROOT
ATOM      1  C4' PXY d   1       1.949  -2.183  -0.754  0.00  0.00     0.077 C 
ATOM      2  C1' PXY d   1       0.447   3.355  -0.054  0.00  0.00     0.077 C 
ATOM      3  C1  PXY d   1       0.830   1.900  -0.245  0.00  0.00    -0.082 A 
ATOM      4  C2  PXY d   1       1.615   1.309   0.641  0.00  0.00     0.003 A 
ATOM      5  C3  PXY d   1       1.998   0.004   0.467  0.00  0.00     0.003 A 
ATOM      6  C4  PXY d   1       1.529  -0.719  -0.597  0.00  0.00    -0.082 A 
ATOM      7  C5  PXY d   1       0.719  -0.126  -1.499  0.00  0.00     0.003 A 
ATOM      8  C6  PXY d   1       0.376   1.211  -1.326  0.00  0.00     0.003 A 
ENDROOT
TORSDOF 0
ENDMDL
