MODEL 1
REMARK minimizedAffinity 9.75002956
REMARK minimizedRMSD -1
REMARK  0 active torsions:
REMARK  status: ('A' for Active; 'I' for Inactive)
ROOT
ATOM      1  C4' PXY d   1       1.234   0.380  -1.286  0.00  0.00     0.077 C 
ATOM      2  C1' PXY d   1      -1.114   4.551   1.955  0.00  0.00     0.077 C 
ATOM      3  C1  PXY d   1      -0.494   3.466   1.097  0.00  0.00    -0.082 A 
ATOM      4  C2  PXY d   1      -1.003   2.245   1.115  0.00  0.00     0.003 A 
ATOM      5  C3  PXY d   1      -0.435   1.245   0.370  0.00  0.00     0.003 A 
ATOM      6  C4  PXY d   1       0.634   1.509  -0.444  0.00  0.00    -0.082 A 
ATOM      7  C5  PXY d   1       1.154   2.755  -0.476  0.00  0.00     0.003 A 
ATOM      8  C6  PXY d   1       0.587   3.746   0.319  0.00  0.00     0.003 A 
ENDROOT
TORSDOF 0
ENDMDL
