MODEL 1
REMARK minimizedAffinity 6.26160097
REMARK minimizedRMSD -1
REMARK  0 active torsions:
REMARK  status: ('A' for Active; 'I' for Inactive)
ROOT
ATOM      1  C4' PXY d   1      -0.111  -0.332   4.015  0.00  0.00     0.077 C 
ATOM      2  C1' PXY d   1       0.144   2.909  -0.765  0.00  0.00     0.077 C 
ATOM      3  C1  PXY d   1       0.068   2.067   0.493  0.00  0.00    -0.082 A 
ATOM      4  C2  PXY d   1       1.103   1.322   0.846  0.00  0.00     0.003 A 
ATOM      5  C3  PXY d   1       1.040   0.530   1.963  0.00  0.00     0.003 A 
ATOM      6  C4  PXY d   1      -0.076   0.541   2.757  0.00  0.00    -0.082 A 
ATOM      7  C5  PXY d   1      -1.132   1.306   2.410  0.00  0.00     0.003 A 
ATOM      8  C6  PXY d   1      -1.063   2.071   1.250  0.00  0.00     0.003 A 
ENDROOT
TORSDOF 0
ENDMDL
