MODEL 1
REMARK minimizedAffinity 4.6486454
REMARK minimizedRMSD -1
REMARK  0 active torsions:
REMARK  status: ('A' for Active; 'I' for Inactive)
ROOT
ATOM      1  C4' PXY d   1       0.721   1.932   0.244  0.00  0.00     0.077 C 
ATOM      2  C1' PXY d   1      -3.928   0.267  -2.760  0.00  0.00     0.077 C 
ATOM      3  C1  PXY d   1      -2.717   0.708  -1.963  0.00  0.00    -0.082 A 
ATOM      4  C2  PXY d   1      -1.571   0.932  -2.585  0.00  0.00     0.003 A 
ATOM      5  C3  PXY d   1      -0.457   1.300  -1.875  0.00  0.00     0.003 A 
ATOM      6  C4  PXY d   1      -0.531   1.494  -0.522  0.00  0.00    -0.082 A 
ATOM      7  C5  PXY d   1      -1.699   1.278   0.119  0.00  0.00     0.003 A 
ATOM      8  C6  PXY d   1      -2.808   0.865  -0.615  0.00  0.00     0.003 A 
ENDROOT
TORSDOF 0
ENDMDL
