MODEL 1
REMARK minimizedAffinity 11.3614635
REMARK minimizedRMSD -1
REMARK  0 active torsions:
REMARK  status: ('A' for Active; 'I' for Inactive)
ROOT
ATOM      1  C4' PXY d   1       1.661   2.027   0.482  0.00  0.00     0.077 C 
ATOM      2  C1' PXY d   1      -3.648   0.670  -1.358  0.00  0.00     0.077 C 
ATOM      3  C1  PXY d   1      -2.261   1.031  -0.864  0.00  0.00    -0.082 A 
ATOM      4  C2  PXY d   1      -1.282   1.210  -1.737  0.00  0.00     0.003 A 
ATOM      5  C3  PXY d   1      -0.014   1.505  -1.306  0.00  0.00     0.003 A 
ATOM      6  C4  PXY d   1       0.243   1.671   0.028  0.00  0.00    -0.082 A 
ATOM      7  C5  PXY d   1      -0.752   1.500   0.924  0.00  0.00     0.003 A 
ATOM      8  C6  PXY d   1      -2.023   1.160   0.469  0.00  0.00     0.003 A 
ENDROOT
TORSDOF 0
ENDMDL
