MODEL 1
REMARK minimizedAffinity 5.97445631
REMARK minimizedRMSD -1
REMARK  0 active torsions:
REMARK  status: ('A' for Active; 'I' for Inactive)
ROOT
ATOM      1  C4' PXY d   1       3.851  -1.837   1.998  0.00  0.00     0.077 C 
ATOM      2  C1' PXY d   1       0.491   2.232  -0.363  0.00  0.00     0.077 C 
ATOM      3  C1  PXY d   1       1.367   1.156   0.248  0.00  0.00    -0.082 A 
ATOM      4  C2  PXY d   1       1.805   1.295   1.489  0.00  0.00     0.003 A 
ATOM      5  C3  PXY d   1       2.624   0.347   2.046  0.00  0.00     0.003 A 
ATOM      6  C4  PXY d   1       2.956  -0.781   1.344  0.00  0.00    -0.082 A 
ATOM      7  C5  PXY d   1       2.505  -0.935   0.081  0.00  0.00     0.003 A 
ATOM      8  C6  PXY d   1       1.708   0.058  -0.481  0.00  0.00     0.003 A 
ENDROOT
TORSDOF 0
ENDMDL
