MODEL 1
REMARK minimizedAffinity 12.8893852
REMARK minimizedRMSD -1
REMARK  0 active torsions:
REMARK  status: ('A' for Active; 'I' for Inactive)
ROOT
ATOM      1  C4' PXY d   1       0.341  -1.870  -1.964  0.00  0.00     0.077 C 
ATOM      2  C1' PXY d   1       4.716  -0.844   1.673  0.00  0.00     0.077 C 
ATOM      3  C1  PXY d   1       3.572  -1.125   0.719  0.00  0.00    -0.082 A 
ATOM      4  C2  PXY d   1       3.093  -0.149  -0.035  0.00  0.00     0.003 A 
ATOM      5  C3  PXY d   1       2.038  -0.379  -0.880  0.00  0.00     0.003 A 
ATOM      6  C4  PXY d   1       1.501  -1.633  -0.993  0.00  0.00    -0.082 A 
ATOM      7  C5  PXY d   1       1.991  -2.637  -0.235  0.00  0.00     0.003 A 
ATOM      8  C6  PXY d   1       3.035  -2.374   0.646  0.00  0.00     0.003 A 
ENDROOT
TORSDOF 0
ENDMDL
