MODEL 1
REMARK minimizedAffinity 2.05745554
REMARK minimizedRMSD -1
REMARK  0 active torsions:
REMARK  status: ('A' for Active; 'I' for Inactive)
ROOT
ATOM      1  C4' PXY d   1       3.478   3.232   1.464  0.00  0.00     0.077 C 
ATOM      2  C1' PXY d   1      -1.059   0.910  -1.265  0.00  0.00     0.077 C 
ATOM      3  C1  PXY d   1       0.133   1.508  -0.543  0.00  0.00    -0.082 A 
ATOM      4  C2  PXY d   1       0.200   2.817  -0.364  0.00  0.00     0.003 A 
ATOM      5  C3  PXY d   1       1.286   3.377   0.258  0.00  0.00     0.003 A 
ATOM      6  C4  PXY d   1       2.288   2.584   0.749  0.00  0.00    -0.082 A 
ATOM      7  C5  PXY d   1       2.222   1.247   0.579  0.00  0.00     0.003 A 
ATOM      8  C6  PXY d   1       1.131   0.701  -0.092  0.00  0.00     0.003 A 
ENDROOT
TORSDOF 0
ENDMDL
