MODEL 1
REMARK minimizedAffinity 1.98868036
REMARK minimizedRMSD -1
REMARK  0 active torsions:
REMARK  status: ('A' for Active; 'I' for Inactive)
ROOT
ATOM      1  C4' PXY d   1       3.037  -0.937   0.723  0.00  0.00     0.077 C 
ATOM      2  C1' PXY d   1      -1.286   1.151  -2.496  0.00  0.00     0.077 C 
ATOM      3  C1  PXY d   1      -0.150   0.615  -1.647  0.00  0.00    -0.082 A 
ATOM      4  C2  PXY d   1       0.447  -0.515  -1.990  0.00  0.00     0.003 A 
ATOM      5  C3  PXY d   1       1.454  -1.030  -1.217  0.00  0.00     0.003 A 
ATOM      6  C4  PXY d   1       1.892  -0.354  -0.109  0.00  0.00    -0.082 A 
ATOM      7  C5  PXY d   1       1.296   0.805   0.242  0.00  0.00     0.003 A 
ATOM      8  C6  PXY d   1       0.247   1.290  -0.534  0.00  0.00     0.003 A 
ENDROOT
TORSDOF 0
ENDMDL
