MODEL 1
REMARK minimizedAffinity -0.177652687
REMARK minimizedRMSD -1
REMARK  0 active torsions:
REMARK  status: ('A' for Active; 'I' for Inactive)
ROOT
ATOM      1  C4' PXY d   1       1.495  -1.798  -0.202  0.00  0.00     0.077 C 
ATOM      2  C1' PXY d   1       4.081   3.338   0.386  0.00  0.00     0.077 C 
ATOM      3  C1  PXY d   1       3.393   1.996   0.238  0.00  0.00    -0.082 A 
ATOM      4  C2  PXY d   1       4.119   0.903   0.066  0.00  0.00     0.003 A 
ATOM      5  C3  PXY d   1       3.512  -0.314  -0.101  0.00  0.00     0.003 A 
ATOM      6  C4  PXY d   1       2.148  -0.423  -0.039  0.00  0.00    -0.082 A 
ATOM      7  C5  PXY d   1       1.400   0.686   0.147  0.00  0.00     0.003 A 
ATOM      8  C6  PXY d   1       2.035   1.918   0.274  0.00  0.00     0.003 A 
ENDROOT
TORSDOF 0
ENDMDL
