MODEL 1
REMARK minimizedAffinity 1.61554515
REMARK minimizedRMSD -1
REMARK  0 active torsions:
REMARK  status: ('A' for Active; 'I' for Inactive)
ROOT
ATOM      1  C4' PXY d   1      -4.538  -0.124  -0.032  0.00  0.00     0.077 C 
ATOM      2  C1' PXY d   1      -5.996   4.030  -3.778  0.00  0.00     0.077 C 
ATOM      3  C1  PXY d   1      -5.613   2.933  -2.805  0.00  0.00    -0.082 A 
ATOM      4  C2  PXY d   1      -6.000   3.012  -1.543  0.00  0.00     0.003 A 
ATOM      5  C3  PXY d   1      -5.634   2.045  -0.643  0.00  0.00     0.003 A 
ATOM      6  C4  PXY d   1      -4.910   0.957  -1.051  0.00  0.00    -0.082 A 
ATOM      7  C5  PXY d   1      -4.521   0.862  -2.340  0.00  0.00     0.003 A 
ATOM      8  C6  PXY d   1      -4.867   1.876  -3.229  0.00  0.00     0.003 A 
ENDROOT
TORSDOF 0
ENDMDL
