MODEL 1
REMARK minimizedAffinity -5.83689594
REMARK minimizedRMSD -1
REMARK  0 active torsions:
REMARK  status: ('A' for Active; 'I' for Inactive)
ROOT
ATOM      1  C4' PXY d   1      -1.684   0.579  -1.108  0.00  0.00     0.077 C 
ATOM      2  C1' PXY d   1       3.273  -1.590   0.924  0.00  0.00     0.077 C 
ATOM      3  C1  PXY d   1       1.975  -1.027   0.380  0.00  0.00    -0.082 A 
ATOM      4  C2  PXY d   1       1.473   0.080   0.901  0.00  0.00     0.003 A 
ATOM      5  C3  PXY d   1       0.283   0.585   0.443  0.00  0.00     0.003 A 
ATOM      6  C4  PXY d   1      -0.372  -0.020  -0.597  0.00  0.00    -0.082 A 
ATOM      7  C5  PXY d   1       0.140  -1.144  -1.141  0.00  0.00     0.003 A 
ATOM      8  C6  PXY d   1       1.327  -1.664  -0.634  0.00  0.00     0.003 A 
ENDROOT
TORSDOF 0
ENDMDL
