MODEL 1
REMARK minimizedAffinity 0.584677935
REMARK minimizedRMSD -1
REMARK  0 active torsions:
REMARK  status: ('A' for Active; 'I' for Inactive)
ROOT
ATOM      1  C4' PXY d   1       4.671   1.021  -0.276  0.00  0.00     0.077 C 
ATOM      2  C1' PXY d   1      -0.124  -2.204  -0.416  0.00  0.00     0.077 C 
ATOM      3  C1  PXY d   1       1.126  -1.347  -0.379  0.00  0.00    -0.082 A 
ATOM      4  C2  PXY d   1       2.272  -1.843  -0.818  0.00  0.00     0.003 A 
ATOM      5  C3  PXY d   1       3.419  -1.093  -0.763  0.00  0.00     0.003 A 
ATOM      6  C4  PXY d   1       3.382   0.196  -0.303  0.00  0.00    -0.082 A 
ATOM      7  C5  PXY d   1       2.215   0.712   0.137  0.00  0.00     0.003 A 
ATOM      8  C6  PXY d   1       1.070  -0.079   0.111  0.00  0.00     0.003 A 
ENDROOT
TORSDOF 0
ENDMDL
