MODEL 1
REMARK minimizedAffinity 0.584517777
REMARK minimizedRMSD -1
REMARK  1 active torsions:
REMARK  status: ('A' for Active; 'I' for Inactive)
REMARK    1  A    between atoms: C1_2  and  C2_3 
ROOT
ATOM      1  C2  UNL d   1      -3.003   4.233  -2.985  0.00  0.00    -0.081 A 
ATOM      2  C3  UNL d   1      -2.998   3.750  -1.670  0.00  0.00     0.006 A 
ATOM      3  C4  UNL d   1      -2.974   2.376  -1.420  0.00  0.00     0.002 A 
ATOM      4  C5  UNL d   1      -2.946   1.462  -2.479  0.00  0.00    -0.080 A 
ATOM      5  C6  UNL d   1      -2.889  -0.015  -2.225  0.00  0.00     0.076 C 
ATOM      6  C7  UNL d   1      -2.968   1.944  -3.793  0.00  0.00     0.002 A 
ATOM      7  C8  UNL d   1      -2.993   3.318  -4.043  0.00  0.00     0.006 A 
ENDROOT
BRANCH   1   8
ATOM      8  C1  UNL d   1      -2.964   5.715  -3.257  0.00  0.00     0.054 C 
ATOM      9  C   UNL d   1      -2.684   6.000  -4.726  0.00  0.00     0.018 C 
ENDBRANCH   1   8
TORSDOF 1
ENDMDL
