MODEL 1
REMARK minimizedAffinity 9.67311478
REMARK minimizedRMSD -1
REMARK  1 active torsions:
REMARK  status: ('A' for Active; 'I' for Inactive)
REMARK    1  A    between atoms: C1_2  and  C2_3 
ROOT
ATOM      1  C2  UNL d   1      -4.294   3.452  -1.377  0.00  0.00    -0.081 A 
ATOM      2  C3  UNL d   1      -3.800   4.695  -0.963  0.00  0.00     0.006 A 
ATOM      3  C4  UNL d   1      -3.105   5.514  -1.856  0.00  0.00     0.002 A 
ATOM      4  C5  UNL d   1      -2.899   5.108  -3.179  0.00  0.00    -0.080 A 
ATOM      5  C6  UNL d   1      -2.181   5.992  -4.155  0.00  0.00     0.076 C 
ATOM      6  C7  UNL d   1      -3.377   3.859  -3.588  0.00  0.00     0.002 A 
ATOM      7  C8  UNL d   1      -4.072   3.039  -2.696  0.00  0.00     0.006 A 
ENDROOT
BRANCH   1   8
ATOM      8  C1  UNL d   1      -5.100   2.595  -0.435  0.00  0.00     0.054 C 
ATOM      9  C   UNL d   1      -5.998   3.443   0.454  0.00  0.00     0.018 C 
ENDBRANCH   1   8
TORSDOF 1
ENDMDL
