MODEL 1
REMARK minimizedAffinity -1.87243819
REMARK minimizedRMSD -1
REMARK  1 active torsions:
REMARK  status: ('A' for Active; 'I' for Inactive)
REMARK    1  A    between atoms: C1_2  and  C2_3 
ROOT
ATOM      1  C2  UNL d   1      -3.422   3.569  -1.721  0.00  0.00    -0.081 A 
ATOM      2  C3  UNL d   1      -3.596   4.908  -2.092  0.00  0.00     0.006 A 
ATOM      3  C4  UNL d   1      -3.011   5.400  -3.262  0.00  0.00     0.002 A 
ATOM      4  C5  UNL d   1      -2.249   4.561  -4.082  0.00  0.00    -0.080 A 
ATOM      5  C6  UNL d   1      -1.641   5.069  -5.355  0.00  0.00     0.076 C 
ATOM      6  C7  UNL d   1      -2.060   3.228  -3.701  0.00  0.00     0.002 A 
ATOM      7  C8  UNL d   1      -2.644   2.736  -2.532  0.00  0.00     0.006 A 
ENDROOT
BRANCH   1   8
ATOM      8  C1  UNL d   1      -4.105   3.019  -0.495  0.00  0.00     0.054 C 
ATOM      9  C   UNL d   1      -5.594   3.333  -0.503  0.00  0.00     0.018 C 
ENDBRANCH   1   8
TORSDOF 1
ENDMDL
