MODEL 1
REMARK minimizedAffinity -0.0185752716
REMARK minimizedRMSD -1
REMARK  1 active torsions:
REMARK  status: ('A' for Active; 'I' for Inactive)
REMARK    1  A    between atoms: C1_2  and  C2_3 
ROOT
ATOM      1  C2  UNL d   1      -2.787  -0.141   2.379  0.00  0.00    -0.081 A 
ATOM      2  C3  UNL d   1      -2.570  -0.812   1.169  0.00  0.00     0.006 A 
ATOM      3  C4  UNL d   1      -1.308  -1.324   0.860  0.00  0.00     0.002 A 
ATOM      4  C5  UNL d   1      -0.245  -1.182   1.758  0.00  0.00    -0.080 A 
ATOM      5  C6  UNL d   1       1.108  -1.754   1.452  0.00  0.00     0.076 C 
ATOM      6  C7  UNL d   1      -0.457  -0.497   2.960  0.00  0.00     0.002 A 
ATOM      7  C8  UNL d   1      -1.719   0.016   3.269  0.00  0.00     0.006 A 
ENDROOT
BRANCH   1   8
ATOM      8  C1  UNL d   1      -4.163   0.356   2.744  0.00  0.00     0.054 C 
ATOM      9  C   UNL d   1      -4.237   0.752   4.212  0.00  0.00     0.018 C 
ENDBRANCH   1   8
TORSDOF 1
ENDMDL
