MODEL 1
REMARK minimizedAffinity 3.89950585
REMARK minimizedRMSD -1
REMARK  1 active torsions:
REMARK  status: ('A' for Active; 'I' for Inactive)
REMARK    1  A    between atoms: C1_2  and  C2_3 
ROOT
ATOM      1  C2  UNL d   1      -3.940   3.427  -2.202  0.00  0.00    -0.081 A 
ATOM      2  C3  UNL d   1      -3.753   2.429  -3.166  0.00  0.00     0.006 A 
ATOM      3  C4  UNL d   1      -3.177   2.738  -4.401  0.00  0.00     0.002 A 
ATOM      4  C5  UNL d   1      -2.773   4.046  -4.689  0.00  0.00    -0.080 A 
ATOM      5  C6  UNL d   1      -2.127   4.385  -5.999  0.00  0.00     0.076 C 
ATOM      6  C7  UNL d   1      -2.976   5.046  -3.732  0.00  0.00     0.002 A 
ATOM      7  C8  UNL d   1      -3.552   4.738  -2.497  0.00  0.00     0.006 A 
ENDROOT
BRANCH   1   8
ATOM      8  C1  UNL d   1      -4.500   3.085  -0.845  0.00  0.00     0.054 C 
ATOM      9  C   UNL d   1      -5.995   3.366  -0.776  0.00  0.00     0.018 C 
ENDBRANCH   1   8
TORSDOF 1
ENDMDL
