MODEL 1
REMARK minimizedAffinity 3.00319505
REMARK minimizedRMSD -1
REMARK  1 active torsions:
REMARK  status: ('A' for Active; 'I' for Inactive)
REMARK    1  A    between atoms: C1_2  and  C2_3 
ROOT
ATOM      1  C2  UNL d   1       0.164  -1.967  -1.630  0.00  0.00    -0.081 A 
ATOM      2  C3  UNL d   1      -1.011  -1.615  -0.955  0.00  0.00     0.006 A 
ATOM      3  C4  UNL d   1      -1.026  -1.519   0.438  0.00  0.00     0.002 A 
ATOM      4  C5  UNL d   1       0.135  -1.765   1.179  0.00  0.00    -0.080 A 
ATOM      5  C6  UNL d   1       0.141  -1.636   2.673  0.00  0.00     0.076 C 
ATOM      6  C7  UNL d   1       1.305  -2.134   0.506  0.00  0.00     0.002 A 
ATOM      7  C8  UNL d   1       1.320  -2.231  -0.887  0.00  0.00     0.006 A 
ENDROOT
BRANCH   1   8
ATOM      8  C1  UNL d   1       0.200  -2.009  -3.137  0.00  0.00     0.054 C 
ATOM      9  C   UNL d   1       1.531  -1.500  -3.673  0.00  0.00     0.018 C 
ENDBRANCH   1   8
TORSDOF 1
ENDMDL
