MODEL 1
REMARK minimizedAffinity -1.67673957
REMARK minimizedRMSD -1
REMARK  1 active torsions:
REMARK  status: ('A' for Active; 'I' for Inactive)
REMARK    1  A    between atoms: C1_2  and  C2_3 
ROOT
ATOM      1  C2  UNL d   1      -2.327   3.374  -3.183  0.00  0.00    -0.081 A 
ATOM      2  C3  UNL d   1      -2.852   4.646  -3.442  0.00  0.00     0.006 A 
ATOM      3  C4  UNL d   1      -2.217   5.503  -4.344  0.00  0.00     0.002 A 
ATOM      4  C5  UNL d   1      -1.052   5.101  -5.006  0.00  0.00    -0.080 A 
ATOM      5  C6  UNL d   1      -0.378   6.000  -5.999  0.00  0.00     0.076 C 
ATOM      6  C7  UNL d   1      -0.518   3.836  -4.734  0.00  0.00     0.002 A 
ATOM      7  C8  UNL d   1      -1.152   2.979  -3.832  0.00  0.00     0.006 A 
ENDROOT
BRANCH   1   8
ATOM      8  C1  UNL d   1      -3.045   2.422  -2.260  0.00  0.00     0.054 C 
ATOM      9  C   UNL d   1      -2.392   1.047  -2.266  0.00  0.00     0.018 C 
ENDBRANCH   1   8
TORSDOF 1
ENDMDL
