MODEL 1
REMARK minimizedAffinity 1.81174672
REMARK minimizedRMSD -1
REMARK  1 active torsions:
REMARK  status: ('A' for Active; 'I' for Inactive)
REMARK    1  A    between atoms: C1_2  and  C2_3 
ROOT
ATOM      1  C2  UNL d   1      -1.092   4.603   5.359  0.00  0.00    -0.076 A 
ATOM      2  C3  UNL d   1       0.160   4.588   5.999  0.00  0.00     0.004 A 
ATOM      3  C4  UNL d   1       1.259   5.238   5.440  0.00  0.00    -0.003 A 
ATOM      4  C5  UNL d   1       1.124   5.914   4.233  0.00  0.00     0.000 A 
ATOM      5  C6  UNL d   1      -0.115   5.955   3.593  0.00  0.00     0.000 A 
ATOM      6  C7  UNL d   1      -1.237   5.318   4.151  0.00  0.00    -0.073 A 
ATOM      7  C8  UNL d   1      -2.547   5.388   3.416  0.00  0.00     0.078 C 
ENDROOT
BRANCH   1   8
ATOM      8  C1  UNL d   1      -2.241   3.857   5.999  0.00  0.00     0.053 C 
ATOM      9  C   UNL d   1      -2.272   2.387   5.608  0.00  0.00     0.018 C 
ENDBRANCH   1   8
TORSDOF 1
ENDMDL
