MODEL 1
REMARK minimizedAffinity -0.657508731
REMARK minimizedRMSD -1
REMARK  1 active torsions:
REMARK  status: ('A' for Active; 'I' for Inactive)
REMARK    1  A    between atoms: C1_2  and  C2_3 
ROOT
ATOM      1  C2  UNL d   1      -3.547   3.321   4.272  0.00  0.00    -0.076 A 
ATOM      2  C3  UNL d   1      -3.026   4.522   3.761  0.00  0.00     0.004 A 
ATOM      3  C4  UNL d   1      -1.935   5.145   4.365  0.00  0.00    -0.003 A 
ATOM      4  C5  UNL d   1      -1.347   4.577   5.490  0.00  0.00     0.000 A 
ATOM      5  C6  UNL d   1      -1.841   3.376   6.000  0.00  0.00     0.000 A 
ATOM      6  C7  UNL d   1      -2.929   2.727   5.393  0.00  0.00    -0.073 A 
ATOM      7  C8  UNL d   1      -3.424   1.437   5.989  0.00  0.00     0.078 C 
ENDROOT
BRANCH   1   8
ATOM      8  C1  UNL d   1      -4.748   2.705   3.591  0.00  0.00     0.053 C 
ATOM      9  C   UNL d   1      -5.780   2.190   4.583  0.00  0.00     0.018 C 
ENDBRANCH   1   8
TORSDOF 1
ENDMDL
