MODEL 1
REMARK minimizedAffinity 3.72472191
REMARK minimizedRMSD -1
REMARK  1 active torsions:
REMARK  status: ('A' for Active; 'I' for Inactive)
REMARK    1  A    between atoms: C1_2  and  C2_3 
ROOT
ATOM      1  C2  UNL d   1      -0.403   5.007   4.572  0.00  0.00    -0.076 A 
ATOM      2  C3  UNL d   1      -1.296   5.995   4.121  0.00  0.00     0.004 A 
ATOM      3  C4  UNL d   1      -2.632   5.989   4.517  0.00  0.00    -0.003 A 
ATOM      4  C5  UNL d   1      -3.097   4.996   5.372  0.00  0.00     0.000 A 
ATOM      5  C6  UNL d   1      -2.221   4.018   5.843  0.00  0.00     0.000 A 
ATOM      6  C7  UNL d   1      -0.867   4.019   5.466  0.00  0.00    -0.073 A 
ATOM      7  C8  UNL d   1       0.032   2.938   6.000  0.00  0.00     0.078 C 
ENDROOT
BRANCH   1   8
ATOM      8  C1  UNL d   1       1.029   5.049   4.086  0.00  0.00     0.053 C 
ATOM      9  C   UNL d   1       1.893   5.998   4.902  0.00  0.00     0.018 C 
ENDBRANCH   1   8
TORSDOF 1
ENDMDL
