MODEL 1
REMARK minimizedAffinity 2.6627655
REMARK minimizedRMSD -1
REMARK  1 active torsions:
REMARK  status: ('A' for Active; 'I' for Inactive)
REMARK    1  A    between atoms: C1_2  and  C2_3 
ROOT
ATOM      1  C2  UNL d   1      -0.497   5.677   4.823  0.00  0.00    -0.076 A 
ATOM      2  C3  UNL d   1      -1.259   5.999   5.960  0.00  0.00     0.004 A 
ATOM      3  C4  UNL d   1      -2.629   5.746   5.999  0.00  0.00    -0.003 A 
ATOM      4  C5  UNL d   1      -3.259   5.167   4.903  0.00  0.00     0.000 A 
ATOM      5  C6  UNL d   1      -2.516   4.825   3.774  0.00  0.00     0.000 A 
ATOM      6  C7  UNL d   1      -1.130   5.058   3.724  0.00  0.00    -0.073 A 
ATOM      7  C8  UNL d   1      -0.379   4.675   2.479  0.00  0.00     0.078 C 
ENDROOT
BRANCH   1   8
ATOM      8  C1  UNL d   1       0.981   5.999   4.827  0.00  0.00     0.053 C 
ATOM      9  C   UNL d   1       1.712   5.365   6.000  0.00  0.00     0.018 C 
ENDBRANCH   1   8
TORSDOF 1
ENDMDL
