MODEL 1
REMARK minimizedAffinity -3.67251372
REMARK minimizedRMSD -1
REMARK  1 active torsions:
REMARK  status: ('A' for Active; 'I' for Inactive)
REMARK    1  A    between atoms: C1_2  and  C2_3 
ROOT
ATOM      1  C2  UNL d   1      -2.347   4.972   4.932  0.00  0.00    -0.076 A 
ATOM      2  C3  UNL d   1      -1.506   6.000   4.471  0.00  0.00     0.004 A 
ATOM      3  C4  UNL d   1      -0.121   5.903   4.593  0.00  0.00    -0.003 A 
ATOM      4  C5  UNL d   1       0.446   4.776   5.178  0.00  0.00     0.000 A 
ATOM      5  C6  UNL d   1      -0.372   3.739   5.625  0.00  0.00     0.000 A 
ATOM      6  C7  UNL d   1      -1.769   3.814   5.495  0.00  0.00    -0.073 A 
ATOM      7  C8  UNL d   1      -2.604   2.669   6.000  0.00  0.00     0.078 C 
ENDROOT
BRANCH   1   8
ATOM      8  C1  UNL d   1      -3.843   5.145   4.797  0.00  0.00     0.053 C 
ATOM      9  C   UNL d   1      -4.436   5.980   5.921  0.00  0.00     0.018 C 
ENDBRANCH   1   8
TORSDOF 1
ENDMDL
