MODEL 1
REMARK minimizedAffinity 6.98659086
REMARK minimizedRMSD -1
REMARK  1 active torsions:
REMARK  status: ('A' for Active; 'I' for Inactive)
REMARK    1  A    between atoms: C1_2  and  C2_3 
ROOT
ATOM      1  C2  UNL d   1      -1.464   5.235   4.459  0.00  0.00    -0.076 A 
ATOM      2  C3  UNL d   1      -0.376   5.995   3.993  0.00  0.00     0.004 A 
ATOM      3  C4  UNL d   1       0.900   5.824   4.528  0.00  0.00    -0.003 A 
ATOM      4  C5  UNL d   1       1.109   4.890   5.537  0.00  0.00     0.000 A 
ATOM      5  C6  UNL d   1       0.045   4.116   5.999  0.00  0.00     0.000 A 
ATOM      6  C7  UNL d   1      -1.244   4.264   5.459  0.00  0.00    -0.073 A 
ATOM      7  C8  UNL d   1      -2.356   3.407   5.999  0.00  0.00     0.078 C 
ENDROOT
BRANCH   1   8
ATOM      8  C1  UNL d   1      -2.830   5.483   3.860  0.00  0.00     0.053 C 
ATOM      9  C   UNL d   1      -3.846   5.937   4.896  0.00  0.00     0.018 C 
ENDBRANCH   1   8
TORSDOF 1
ENDMDL
