MODEL 1
REMARK minimizedAffinity 2.52600574
REMARK minimizedRMSD -1
REMARK  1 active torsions:
REMARK  status: ('A' for Active; 'I' for Inactive)
REMARK    1  A    between atoms: C1_2  and  C2_3 
ROOT
ATOM      1  C2  UNL d   1       0.639   5.410   4.700  0.00  0.00    -0.076 A 
ATOM      2  C3  UNL d   1       0.048   5.994   5.833  0.00  0.00     0.004 A 
ATOM      3  C4  UNL d   1      -1.336   6.000   5.998  0.00  0.00    -0.003 A 
ATOM      4  C5  UNL d   1      -2.151   5.421   5.031  0.00  0.00     0.000 A 
ATOM      5  C6  UNL d   1      -1.581   4.822   3.909  0.00  0.00     0.000 A 
ATOM      6  C7  UNL d   1      -0.186   4.793   3.736  0.00  0.00    -0.073 A 
ATOM      7  C8  UNL d   1       0.374   4.138   2.503  0.00  0.00     0.078 C 
ENDROOT
BRANCH   1   8
ATOM      8  C1  UNL d   1       2.144   5.457   4.562  0.00  0.00     0.053 C 
ATOM      9  C   UNL d   1       2.828   5.982   5.816  0.00  0.00     0.018 C 
ENDBRANCH   1   8
TORSDOF 1
ENDMDL
