MODEL 1
REMARK minimizedAffinity 6.50068808
REMARK minimizedRMSD -1
REMARK  0 active torsions:
REMARK  status: ('A' for Active; 'I' for Inactive)
ROOT
ATOM      1  C   UNL d   1       2.937   0.961  -6.000  0.00  0.00     0.172 C 
ATOM      2  N   UNL d   1       3.684  -0.226  -5.655  0.00  0.00    -0.070 N 
ATOM      3  C1  UNL d   1       4.851  -0.254  -4.939  0.00  0.00    -0.004 A 
ATOM      4  C2  UNL d   1       5.244  -1.570  -4.824  0.00  0.00    -0.047 A 
ATOM      5  C3  UNL d   1       4.280  -2.360  -5.495  0.00  0.00    -0.047 A 
ATOM      6  C4  UNL d   1       3.326  -1.502  -6.000  0.00  0.00    -0.004 A 
ENDROOT
TORSDOF 0
ENDMDL
