MODEL 1
REMARK minimizedAffinity 1.74483824
REMARK minimizedRMSD -1
REMARK  0 active torsions:
REMARK  status: ('A' for Active; 'I' for Inactive)
ROOT
ATOM      1  C   UNL d   1      -1.979  -2.667  -2.399  0.00  0.00     0.172 C 
ATOM      2  N   UNL d   1      -2.281  -2.958  -3.781  0.00  0.00    -0.070 N 
ATOM      3  C1  UNL d   1      -1.562  -2.526  -4.863  0.00  0.00    -0.004 A 
ATOM      4  C2  UNL d   1      -2.171  -3.016  -5.998  0.00  0.00    -0.047 A 
ATOM      5  C3  UNL d   1      -3.296  -3.768  -5.583  0.00  0.00    -0.047 A 
ATOM      6  C4  UNL d   1      -3.340  -3.715  -4.206  0.00  0.00    -0.004 A 
ENDROOT
TORSDOF 0
ENDMDL
