MODEL 1
REMARK minimizedAffinity 0.0864282101
REMARK minimizedRMSD -1
REMARK  0 active torsions:
REMARK  status: ('A' for Active; 'I' for Inactive)
ROOT
ATOM      1  C   UNL d   1       1.040   3.373  -5.997  0.00  0.00     0.172 C 
ATOM      2  N   UNL d   1       2.017   4.271  -5.429  0.00  0.00    -0.070 N 
ATOM      3  C1  UNL d   1       2.456   5.437  -5.998  0.00  0.00    -0.004 A 
ATOM      4  C2  UNL d   1       3.383   5.999  -5.148  0.00  0.00    -0.047 A 
ATOM      5  C3  UNL d   1       3.507   5.141  -4.029  0.00  0.00    -0.047 A 
ATOM      6  C4  UNL d   1       2.650   4.079  -4.230  0.00  0.00    -0.004 A 
ENDROOT
TORSDOF 0
ENDMDL
