MODEL 1
REMARK minimizedAffinity 4.54820919
REMARK minimizedRMSD -1
REMARK  0 active torsions:
REMARK  status: ('A' for Active; 'I' for Inactive)
ROOT
ATOM      1  C   UNL d   1       4.670  -0.119  -4.108  0.00  0.00     0.172 C 
ATOM      2  N   UNL d   1       4.029  -1.384  -4.381  0.00  0.00    -0.070 N 
ATOM      3  C1  UNL d   1       4.022  -2.471  -3.548  0.00  0.00    -0.004 A 
ATOM      4  C2  UNL d   1       3.308  -3.473  -4.168  0.00  0.00    -0.047 A 
ATOM      5  C3  UNL d   1       2.870  -2.971  -5.417  0.00  0.00    -0.047 A 
ATOM      6  C4  UNL d   1       3.331  -1.675  -5.523  0.00  0.00    -0.004 A 
ENDROOT
TORSDOF 0
ENDMDL
