MODEL 1
REMARK minimizedAffinity -1.35168016
REMARK minimizedRMSD -1
REMARK  0 active torsions:
REMARK  status: ('A' for Active; 'I' for Inactive)
ROOT
ATOM      1  C   UNL d   1       4.523   5.997  -5.837  0.00  0.00     0.172 C 
ATOM      2  N   UNL d   1       3.235   5.347  -5.900  0.00  0.00    -0.070 N 
ATOM      3  C1  UNL d   1       3.024   3.994  -5.930  0.00  0.00    -0.004 A 
ATOM      4  C2  UNL d   1       1.664   3.780  -5.989  0.00  0.00    -0.047 A 
ATOM      5  C3  UNL d   1       1.036   5.048  -5.995  0.00  0.00    -0.047 A 
ATOM      6  C4  UNL d   1       2.031   6.000  -5.939  0.00  0.00    -0.004 A 
ENDROOT
TORSDOF 0
ENDMDL
