MODEL 1
REMARK minimizedAffinity 6.77480745
REMARK minimizedRMSD -1
REMARK  0 active torsions:
REMARK  status: ('A' for Active; 'I' for Inactive)
ROOT
ATOM      1  C   UNL d   1       1.813   3.814   1.282  0.00  0.00     0.172 C 
ATOM      2  N   UNL d   1       0.454   3.706   1.758  0.00  0.00    -0.070 N 
ATOM      3  C1  UNL d   1      -0.587   4.517   1.392  0.00  0.00    -0.004 A 
ATOM      4  C2  UNL d   1      -1.712   4.089   2.063  0.00  0.00    -0.047 A 
ATOM      5  C3  UNL d   1      -1.334   2.982   2.860  0.00  0.00    -0.047 A 
ATOM      6  C4  UNL d   1       0.012   2.767   2.652  0.00  0.00    -0.004 A 
ENDROOT
TORSDOF 0
ENDMDL
