MODEL 1
REMARK minimizedAffinity -0.376266986
REMARK minimizedRMSD -1
REMARK  0 active torsions:
REMARK  status: ('A' for Active; 'I' for Inactive)
ROOT
ATOM      1  C   UNL d   1       2.992   2.500  -5.998  0.00  0.00     0.172 C 
ATOM      2  N   UNL d   1       2.802   3.905  -5.722  0.00  0.00    -0.070 N 
ATOM      3  C1  UNL d   1       3.725   4.738  -5.149  0.00  0.00    -0.004 A 
ATOM      4  C2  UNL d   1       3.163   5.992  -5.058  0.00  0.00    -0.047 A 
ATOM      5  C3  UNL d   1       1.856   5.910  -5.594  0.00  0.00    -0.047 A 
ATOM      6  C4  UNL d   1       1.658   4.607  -5.997  0.00  0.00    -0.004 A 
ENDROOT
TORSDOF 0
ENDMDL
