MODEL 1
REMARK minimizedAffinity 0.354637325
REMARK minimizedRMSD -1
REMARK  0 active torsions:
REMARK  status: ('A' for Active; 'I' for Inactive)
ROOT
ATOM      1  C   UNL d   1       2.997   2.393  -5.999  0.00  0.00     0.172 C 
ATOM      2  N   UNL d   1       2.631   3.752  -5.675  0.00  0.00    -0.070 N 
ATOM      3  C1  UNL d   1       3.349   4.871  -6.000  0.00  0.00    -0.004 A 
ATOM      4  C2  UNL d   1       2.667   5.966  -5.515  0.00  0.00    -0.047 A 
ATOM      5  C3  UNL d   1       1.499   5.488  -4.875  0.00  0.00    -0.047 A 
ATOM      6  C4  UNL d   1       1.501   4.114  -4.989  0.00  0.00    -0.004 A 
ENDROOT
TORSDOF 0
ENDMDL
