MODEL 1
REMARK minimizedAffinity -2.83372831
REMARK minimizedRMSD -1
REMARK  0 active torsions:
REMARK  status: ('A' for Active; 'I' for Inactive)
ROOT
ATOM      1  C   UNL d   1       6.000   0.529  -4.860  0.00  0.00     0.172 C 
ATOM      2  N   UNL d   1       5.073  -0.549  -5.113  0.00  0.00    -0.070 N 
ATOM      3  C1  UNL d   1       5.096  -1.779  -4.510  0.00  0.00    -0.004 A 
ATOM      4  C2  UNL d   1       4.050  -2.518  -5.021  0.00  0.00    -0.047 A 
ATOM      5  C3  UNL d   1       3.377  -1.705  -5.963  0.00  0.00    -0.047 A 
ATOM      6  C4  UNL d   1       4.031  -0.492  -6.000  0.00  0.00    -0.004 A 
ENDROOT
TORSDOF 0
ENDMDL
