MODEL 1
REMARK minimizedAffinity 3.45620227
REMARK minimizedRMSD -1
REMARK  0 active torsions:
REMARK  status: ('A' for Active; 'I' for Inactive)
ROOT
ATOM      1  C   UNL d   1       2.635   5.998  -5.971  0.00  0.00     0.172 C 
ATOM      2  N   UNL d   1       2.274   4.742  -5.357  0.00  0.00    -0.070 N 
ATOM      3  C1  UNL d   1       1.888   4.573  -4.054  0.00  0.00    -0.004 A 
ATOM      4  C2  UNL d   1       1.629   3.233  -3.862  0.00  0.00    -0.047 A 
ATOM      5  C3  UNL d   1       1.869   2.574  -5.091  0.00  0.00    -0.047 A 
ATOM      6  C4  UNL d   1       2.267   3.533  -6.000  0.00  0.00    -0.004 A 
ENDROOT
TORSDOF 0
ENDMDL
