MODEL 1
REMARK minimizedAffinity 2.34240866
REMARK minimizedRMSD -1
REMARK  0 active torsions:
REMARK  status: ('A' for Active; 'I' for Inactive)
ROOT
ATOM      1  C   UNL d   1      -2.771  -1.435  -0.676  0.00  0.00     0.172 C 
ATOM      2  N   UNL d   1      -3.187  -2.363  -1.701  0.00  0.00    -0.070 N 
ATOM      3  C1  UNL d   1      -4.346  -3.092  -1.695  0.00  0.00    -0.004 A 
ATOM      4  C2  UNL d   1      -4.372  -3.853  -2.843  0.00  0.00    -0.047 A 
ATOM      5  C3  UNL d   1      -3.187  -3.572  -3.565  0.00  0.00    -0.047 A 
ATOM      6  C4  UNL d   1      -2.472  -2.646  -2.835  0.00  0.00    -0.004 A 
ENDROOT
TORSDOF 0
ENDMDL
