MODEL 1
REMARK minimizedAffinity -0.405015051
REMARK minimizedRMSD -1
REMARK  0 active torsions:
REMARK  status: ('A' for Active; 'I' for Inactive)
ROOT
ATOM      1  C   UNL d   1       4.067   5.918  -5.999  0.00  0.00     0.172 C 
ATOM      2  N   UNL d   1       3.089   4.855  -5.994  0.00  0.00    -0.070 N 
ATOM      3  C1  UNL d   1       1.730   5.021  -5.983  0.00  0.00    -0.004 A 
ATOM      4  C2  UNL d   1       1.152   3.770  -5.982  0.00  0.00    -0.047 A 
ATOM      5  C3  UNL d   1       2.200   2.820  -5.991  0.00  0.00    -0.047 A 
ATOM      6  C4  UNL d   1       3.389   3.519  -5.999  0.00  0.00    -0.004 A 
ENDROOT
TORSDOF 0
ENDMDL
