MODEL 1
REMARK minimizedAffinity 2.55706191
REMARK minimizedRMSD -1
REMARK  0 active torsions:
REMARK  status: ('A' for Active; 'I' for Inactive)
ROOT
ATOM      1  C   UNL d   1       1.104   3.943   1.697  0.00  0.00     0.172 C 
ATOM      2  N   UNL d   1       1.938   2.813   1.362  0.00  0.00    -0.070 N 
ATOM      3  C1  UNL d   1       2.257   1.779   2.202  0.00  0.00    -0.004 A 
ATOM      4  C2  UNL d   1       3.067   0.907   1.509  0.00  0.00    -0.047 A 
ATOM      5  C3  UNL d   1       3.243   1.435   0.208  0.00  0.00    -0.047 A 
ATOM      6  C4  UNL d   1       2.532   2.615   0.144  0.00  0.00    -0.004 A 
ENDROOT
TORSDOF 0
ENDMDL
