MODEL 1
REMARK minimizedAffinity 1.47941148
REMARK minimizedRMSD -1
REMARK  0 active torsions:
REMARK  status: ('A' for Active; 'I' for Inactive)
ROOT
ATOM      1  C   UNL d   1       2.333   2.599  -5.856  0.00  0.00     0.172 C 
ATOM      2  N   UNL d   1       2.592   3.961  -5.451  0.00  0.00    -0.070 N 
ATOM      3  C1  UNL d   1       1.914   4.648  -4.480  0.00  0.00    -0.004 A 
ATOM      4  C2  UNL d   1       2.462   5.909  -4.394  0.00  0.00    -0.047 A 
ATOM      5  C3  UNL d   1       3.506   5.983  -5.347  0.00  0.00    -0.047 A 
ATOM      6  C4  UNL d   1       3.565   4.763  -5.987  0.00  0.00    -0.004 A 
ENDROOT
TORSDOF 0
ENDMDL
