MODEL 1
REMARK minimizedAffinity 6.79018497
REMARK minimizedRMSD -1
REMARK  0 active torsions:
REMARK  status: ('A' for Active; 'I' for Inactive)
ROOT
ATOM      1  C   UNL d   1      -1.464  -1.554   3.296  0.00  0.00     0.172 C 
ATOM      2  N   UNL d   1      -1.472  -1.487   1.853  0.00  0.00    -0.070 N 
ATOM      3  C1  UNL d   1      -0.560  -2.081   1.021  0.00  0.00    -0.004 A 
ATOM      4  C2  UNL d   1      -0.915  -1.781  -0.276  0.00  0.00    -0.047 A 
ATOM      5  C3  UNL d   1      -2.079  -0.979  -0.222  0.00  0.00    -0.047 A 
ATOM      6  C4  UNL d   1      -2.402  -0.812   1.108  0.00  0.00    -0.004 A 
ENDROOT
TORSDOF 0
ENDMDL
