MODEL 1
REMARK minimizedAffinity 2.79020643
REMARK minimizedRMSD -1
REMARK  0 active torsions:
REMARK  status: ('A' for Active; 'I' for Inactive)
ROOT
ATOM      1  C   UNL d   1       3.449   1.647  -5.991  0.00  0.00     0.172 C 
ATOM      2  N   UNL d   1       2.954   3.004  -5.993  0.00  0.00    -0.070 N 
ATOM      3  C1  UNL d   1       1.635   3.373  -5.991  0.00  0.00    -0.004 A 
ATOM      4  C2  UNL d   1       1.582   4.750  -5.994  0.00  0.00    -0.047 A 
ATOM      5  C3  UNL d   1       2.915   5.225  -5.999  0.00  0.00    -0.047 A 
ATOM      6  C4  UNL d   1       3.744   4.123  -5.999  0.00  0.00    -0.004 A 
ENDROOT
TORSDOF 0
ENDMDL
