MODEL 1
REMARK minimizedAffinity 4.40953588
REMARK minimizedRMSD -1
REMARK  0 active torsions:
REMARK  status: ('A' for Active; 'I' for Inactive)
ROOT
ATOM      1  C   UNL d   1       6.000  -0.033  -3.766  0.00  0.00     0.172 C 
ATOM      2  N   UNL d   1       4.940  -0.909  -4.208  0.00  0.00    -0.070 N 
ATOM      3  C1  UNL d   1       4.228  -0.777  -5.370  0.00  0.00    -0.004 A 
ATOM      4  C2  UNL d   1       3.314  -1.807  -5.423  0.00  0.00    -0.047 A 
ATOM      5  C3  UNL d   1       3.482  -2.584  -4.253  0.00  0.00    -0.047 A 
ATOM      6  C4  UNL d   1       4.496  -2.006  -3.518  0.00  0.00    -0.004 A 
ENDROOT
TORSDOF 0
ENDMDL
