MODEL 1
REMARK minimizedAffinity 0.945604026
REMARK minimizedRMSD -1
REMARK  0 active torsions:
REMARK  status: ('A' for Active; 'I' for Inactive)
ROOT
ATOM      1  C   UNL d   1      -1.959   5.999  -1.135  0.00  0.00     0.172 C 
ATOM      2  N   UNL d   1      -0.788   5.302  -0.656  0.00  0.00    -0.070 N 
ATOM      3  C1  UNL d   1      -0.241   5.425   0.593  0.00  0.00    -0.004 A 
ATOM      4  C2  UNL d   1       0.859   4.598   0.655  0.00  0.00    -0.047 A 
ATOM      5  C3  UNL d   1       0.979   3.957  -0.601  0.00  0.00    -0.047 A 
ATOM      6  C4  UNL d   1      -0.054   4.411  -1.393  0.00  0.00    -0.004 A 
ENDROOT
TORSDOF 0
ENDMDL
