MODEL 1
REMARK minimizedAffinity 15.8706236
REMARK minimizedRMSD -1
REMARK  3 active torsions:
REMARK  status: ('A' for Active; 'I' for Inactive)
REMARK    1  A    between atoms: C3'_2  and  C2'_3 
REMARK    2  A    between atoms: C2'_3  and  C1'_4 
REMARK    3  A    between atoms: C1'_4  and  C1_5 
ROOT
ATOM      1  C1  N4B d   1      -0.523  -0.169   4.196  0.00  0.00    -0.075 A 
ATOM      2  C2  N4B d   1       0.815  -0.581   4.009  0.00  0.00     0.002 A 
ATOM      3  C3  N4B d   1       1.357  -1.543   4.826  0.00  0.00     0.002 A 
ATOM      4  C4  N4B d   1       0.590  -2.091   5.843  0.00  0.00    -0.004 A 
ATOM      5  C5  N4B d   1      -0.709  -1.707   6.000  0.00  0.00     0.002 A 
ATOM      6  C6  N4B d   1      -1.269  -0.744   5.184  0.00  0.00     0.002 A 
ENDROOT
BRANCH   1   7
ATOM      7  C1' N4B d   1      -1.133   0.941   3.384  0.00  0.00     0.057 C 
BRANCH   7   8
ATOM      8  C2' N4B d   1      -0.023   1.847   2.860  0.00  0.00     0.009 C 
BRANCH   8   9
ATOM      9  C3' N4B d   1      -0.542   2.855   1.849  0.00  0.00     0.004 C 
ATOM     10  C4' N4B d   1      -0.452   2.359   0.437  0.00  0.00     0.003 C 
ENDBRANCH   8   9
ENDBRANCH   7   8
ENDBRANCH   1   7
TORSDOF 3
ENDMDL
