MODEL 1
REMARK minimizedAffinity 6.33972883
REMARK minimizedRMSD -1
REMARK  3 active torsions:
REMARK  status: ('A' for Active; 'I' for Inactive)
REMARK    1  A    between atoms: C3'_2  and  C2'_3 
REMARK    2  A    between atoms: C2'_3  and  C1'_4 
REMARK    3  A    between atoms: C1'_4  and  C1_5 
ROOT
ATOM      1  C1  N4B d   1      -0.850   0.743  -0.847  0.00  0.00    -0.075 A 
ATOM      2  C2  N4B d   1      -2.186   0.295  -0.945  0.00  0.00     0.002 A 
ATOM      3  C3  N4B d   1      -2.454  -0.961  -1.432  0.00  0.00     0.002 A 
ATOM      4  C4  N4B d   1      -1.410  -1.775  -1.842  0.00  0.00    -0.004 A 
ATOM      5  C5  N4B d   1      -0.121  -1.345  -1.721  0.00  0.00     0.002 A 
ATOM      6  C6  N4B d   1       0.164  -0.086  -1.229  0.00  0.00     0.002 A 
ENDROOT
BRANCH   1   7
ATOM      7  C1' N4B d   1      -0.512   2.140  -0.401  0.00  0.00     0.057 C 
BRANCH   7   8
ATOM      8  C2' N4B d   1       0.320   2.070   0.876  0.00  0.00     0.009 C 
BRANCH   8   9
ATOM      9  C3' N4B d   1      -0.550   1.930   2.113  0.00  0.00     0.004 C 
ATOM     10  C4' N4B d   1       0.171   1.289   3.261  0.00  0.00     0.003 C 
ENDBRANCH   8   9
ENDBRANCH   7   8
ENDBRANCH   1   7
TORSDOF 3
ENDMDL
