MODEL 1
REMARK minimizedAffinity 10.4040413
REMARK minimizedRMSD -1
REMARK  3 active torsions:
REMARK  status: ('A' for Active; 'I' for Inactive)
REMARK    1  A    between atoms: C3'_2  and  C2'_3 
REMARK    2  A    between atoms: C2'_3  and  C1'_4 
REMARK    3  A    between atoms: C1'_4  and  C1_5 
ROOT
ATOM      1  C1  N4B d   1      -1.758   1.652   0.188  0.00  0.00    -0.075 A 
ATOM      2  C2  N4B d   1      -1.881   1.253   1.537  0.00  0.00     0.002 A 
ATOM      3  C3  N4B d   1      -0.870   1.521   2.427  0.00  0.00     0.002 A 
ATOM      4  C4  N4B d   1       0.276   2.168   1.989  0.00  0.00    -0.004 A 
ATOM      5  C5  N4B d   1       0.376   2.573   0.690  0.00  0.00     0.002 A 
ATOM      6  C6  N4B d   1      -0.634   2.313  -0.215  0.00  0.00     0.002 A 
ENDROOT
BRANCH   1   7
ATOM      7  C1' N4B d   1      -2.799   1.305  -0.841  0.00  0.00     0.057 C 
BRANCH   7   8
ATOM      8  C2' N4B d   1      -3.637   0.136  -0.331  0.00  0.00     0.009 C 
BRANCH   8   9
ATOM      9  C3' N4B d   1      -5.096   0.519  -0.151  0.00  0.00     0.004 C 
ATOM     10  C4' N4B d   1      -5.384   1.090   1.205  0.00  0.00     0.003 C 
ENDBRANCH   8   9
ENDBRANCH   7   8
ENDBRANCH   1   7
TORSDOF 3
ENDMDL
