MODEL 1
REMARK minimizedAffinity 8.1725111
REMARK minimizedRMSD -1
REMARK  3 active torsions:
REMARK  status: ('A' for Active; 'I' for Inactive)
REMARK    1  A    between atoms: C3'_2  and  C2'_3 
REMARK    2  A    between atoms: C2'_3  and  C1'_4 
REMARK    3  A    between atoms: C1'_4  and  C1_5 
ROOT
ATOM      1  C1  N4B d   1      -0.120   1.655   3.023  0.00  0.00    -0.075 A 
ATOM      2  C2  N4B d   1       1.109   2.332   3.186  0.00  0.00     0.002 A 
ATOM      3  C3  N4B d   1       1.386   3.445   2.432  0.00  0.00     0.002 A 
ATOM      4  C4  N4B d   1       0.461   3.888   1.498  0.00  0.00    -0.004 A 
ATOM      5  C5  N4B d   1      -0.734   3.244   1.364  0.00  0.00     0.002 A 
ATOM      6  C6  N4B d   1      -1.027   2.126   2.119  0.00  0.00     0.002 A 
ENDROOT
BRANCH   1   7
ATOM      7  C1' N4B d   1      -0.431   0.384   3.764  0.00  0.00     0.057 C 
BRANCH   7   8
ATOM      8  C2' N4B d   1       0.848  -0.435   3.912  0.00  0.00     0.009 C 
BRANCH   8   9
ATOM      9  C3' N4B d   1       0.749  -1.443   5.045  0.00  0.00     0.004 C 
ATOM     10  C4' N4B d   1      -0.368  -1.137   5.998  0.00  0.00     0.003 C 
ENDBRANCH   8   9
ENDBRANCH   7   8
ENDBRANCH   1   7
TORSDOF 3
ENDMDL
