MODEL 1
REMARK minimizedAffinity 7.4759078
REMARK minimizedRMSD -1
REMARK  0 active torsions:
REMARK  status: ('A' for Active; 'I' for Inactive)
ROOT
ATOM      1  C   UNL d   1       2.354  -3.203   2.071  0.00  0.00     0.020 A 
ATOM      2  C1  UNL d   1       3.537  -2.481   1.923  0.00  0.00     0.020 A 
ATOM      3  C2  UNL d   1       3.497  -1.159   1.476  0.00  0.00     0.034 A 
ATOM      4  C3  UNL d   1       2.272  -0.554   1.176  0.00  0.00     0.017 A 
ATOM      5  C4  UNL d   1       1.084  -1.279   1.325  0.00  0.00     0.017 A 
ATOM      6  C5  UNL d   1       1.129  -2.603   1.773  0.00  0.00     0.034 A 
ATOM      7 Cl   UNL d   1      -0.467  -0.601   0.974  0.00  0.00    -0.070 Cl
ATOM      8 Cl1  UNL d   1       2.297   1.085   0.629  0.00  0.00    -0.070 Cl
ENDROOT
TORSDOF 0
ENDMDL
