MODEL 1
REMARK minimizedAffinity -0.330626994
REMARK minimizedRMSD -1
REMARK  0 active torsions:
REMARK  status: ('A' for Active; 'I' for Inactive)
ROOT
ATOM      1  C   UNL d   1       2.114  -3.136   2.859  0.00  0.00     0.020 A 
ATOM      2  C1  UNL d   1       3.358  -2.506   2.890  0.00  0.00     0.020 A 
ATOM      3  C2  UNL d   1       3.549  -1.305   2.204  0.00  0.00     0.034 A 
ATOM      4  C3  UNL d   1       2.495  -0.730   1.485  0.00  0.00     0.017 A 
ATOM      5  C4  UNL d   1       1.247  -1.363   1.455  0.00  0.00     0.017 A 
ATOM      6  C5  UNL d   1       1.061  -2.565   2.143  0.00  0.00     0.034 A 
ATOM      7 Cl   UNL d   1      -0.101  -0.714   0.589  0.00  0.00    -0.070 Cl
ATOM      8 Cl1  UNL d   1       2.802   0.758   0.661  0.00  0.00    -0.070 Cl
ENDROOT
TORSDOF 0
ENDMDL
