MODEL 1
REMARK minimizedAffinity 8.77537441
REMARK minimizedRMSD -1
REMARK  0 active torsions:
REMARK  status: ('A' for Active; 'I' for Inactive)
ROOT
ATOM      1  C   UNL d   1      -2.413  -4.147   0.069  0.00  0.00     0.020 A 
ATOM      2  C1  UNL d   1      -3.114  -3.063  -0.456  0.00  0.00     0.020 A 
ATOM      3  C2  UNL d   1      -2.696  -1.760  -0.177  0.00  0.00     0.034 A 
ATOM      4  C3  UNL d   1      -1.573  -1.538   0.628  0.00  0.00     0.017 A 
ATOM      5  C4  UNL d   1      -0.869  -2.627   1.155  0.00  0.00     0.017 A 
ATOM      6  C5  UNL d   1      -1.293  -3.930   0.872  0.00  0.00     0.034 A 
ATOM      7 Cl   UNL d   1       0.525  -2.433   2.156  0.00  0.00    -0.070 Cl
ATOM      8 Cl1  UNL d   1      -1.112   0.100   0.931  0.00  0.00    -0.070 Cl
ENDROOT
TORSDOF 0
ENDMDL
