MODEL 1
REMARK minimizedAffinity 2.13039064
REMARK minimizedRMSD -1
REMARK  0 active torsions:
REMARK  status: ('A' for Active; 'I' for Inactive)
ROOT
ATOM      1  C   UNL d   1       0.339  -2.081   1.479  0.00  0.00     0.020 A 
ATOM      2  C1  UNL d   1       1.683  -2.411   1.310  0.00  0.00     0.020 A 
ATOM      3  C2  UNL d   1       2.214  -2.541   0.025  0.00  0.00     0.034 A 
ATOM      4  C3  UNL d   1       1.401  -2.339  -1.096  0.00  0.00     0.017 A 
ATOM      5  C4  UNL d   1       0.052  -2.007  -0.925  0.00  0.00     0.017 A 
ATOM      6  C5  UNL d   1      -0.475  -1.879   0.364  0.00  0.00     0.034 A 
ATOM      7 Cl   UNL d   1      -1.014  -1.744  -2.260  0.00  0.00    -0.070 Cl
ATOM      8 Cl1  UNL d   1       2.124  -2.515  -2.655  0.00  0.00    -0.070 Cl
ENDROOT
TORSDOF 0
ENDMDL
