MODEL 1
REMARK minimizedAffinity 3.50116801
REMARK minimizedRMSD -1
REMARK  0 active torsions:
REMARK  status: ('A' for Active; 'I' for Inactive)
ROOT
ATOM      1  C   UNL d   1       0.528  -3.267   2.074  0.00  0.00     0.020 A 
ATOM      2  C1  UNL d   1       1.863  -2.907   2.257  0.00  0.00     0.020 A 
ATOM      3  C2  UNL d   1       2.238  -1.563   2.199  0.00  0.00     0.034 A 
ATOM      4  C3  UNL d   1       1.277  -0.575   1.956  0.00  0.00     0.017 A 
ATOM      5  C4  UNL d   1      -0.062  -0.937   1.773  0.00  0.00     0.017 A 
ATOM      6  C5  UNL d   1      -0.432  -2.284   1.832  0.00  0.00     0.034 A 
ATOM      7 Cl   UNL d   1      -1.304   0.226   1.470  0.00  0.00    -0.070 Cl
ATOM      8 Cl1  UNL d   1       1.812   1.068   1.898  0.00  0.00    -0.070 Cl
ENDROOT
TORSDOF 0
ENDMDL
