MODEL 1
REMARK minimizedAffinity 1.7069906
REMARK minimizedRMSD -1
REMARK  0 active torsions:
REMARK  status: ('A' for Active; 'I' for Inactive)
ROOT
ATOM      1  C   UNL d   1       1.933   1.286   0.643  0.00  0.00     0.020 A 
ATOM      2  C1  UNL d   1       2.915   0.326   0.885  0.00  0.00     0.020 A 
ATOM      3  C2  UNL d   1       2.548  -0.979   1.222  0.00  0.00     0.034 A 
ATOM      4  C3  UNL d   1       1.195  -1.327   1.317  0.00  0.00     0.017 A 
ATOM      5  C4  UNL d   1       0.211  -0.363   1.074  0.00  0.00     0.017 A 
ATOM      6  C5  UNL d   1       0.584   0.942   0.737  0.00  0.00     0.034 A 
ATOM      7 Cl   UNL d   1      -1.478  -0.718   1.173  0.00  0.00    -0.070 Cl
ATOM      8 Cl1  UNL d   1       0.814  -2.959   1.737  0.00  0.00    -0.070 Cl
ENDROOT
TORSDOF 0
ENDMDL
