MODEL 1
REMARK minimizedAffinity 8.35380554
REMARK minimizedRMSD -1
REMARK  0 active torsions:
REMARK  status: ('A' for Active; 'I' for Inactive)
ROOT
ATOM      1  C   UNL d   1       1.714   0.028   2.929  0.00  0.00     0.020 A 
ATOM      2  C1  UNL d   1       2.243  -1.182   2.481  0.00  0.00     0.020 A 
ATOM      3  C2  UNL d   1       3.150  -1.196   1.420  0.00  0.00     0.034 A 
ATOM      4  C3  UNL d   1       3.531   0.001   0.802  0.00  0.00     0.017 A 
ATOM      5  C4  UNL d   1       3.000   1.214   1.253  0.00  0.00     0.017 A 
ATOM      6  C5  UNL d   1       2.091   1.224   2.316  0.00  0.00     0.034 A 
ATOM      7 Cl   UNL d   1       3.422   2.732   0.541  0.00  0.00    -0.070 Cl
ATOM      8 Cl1  UNL d   1       4.658  -0.092  -0.505  0.00  0.00    -0.070 Cl
ENDROOT
TORSDOF 0
ENDMDL
