MODEL 1
REMARK minimizedAffinity -4.21106243
REMARK minimizedRMSD -1
REMARK  1 active torsions:
REMARK  status: ('A' for Active; 'I' for Inactive)
REMARK    1  A    between atoms: N_2  and  C1_3 
ROOT
ATOM      1  C1  UNL d   1       0.205  -1.365   0.076  0.00  0.00     0.143 A 
ATOM      2  C2  UNL d   1       0.071  -2.613   0.693  0.00  0.00    -0.057 A 
ATOM      3  C3  UNL d   1      -0.006  -3.791  -0.061  0.00  0.00     0.033 A 
ATOM      4  C4  UNL d   1       0.022  -3.737  -1.450  0.00  0.00    -0.042 A 
ATOM      5  C5  UNL d   1       0.129  -2.505  -2.085  0.00  0.00     0.033 A 
ATOM      6  C6  UNL d   1       0.212  -1.333  -1.327  0.00  0.00    -0.057 A 
ENDROOT
BRANCH   1   7
ATOM      7  N   UNL d   1       0.187  -0.150   0.767  0.00  0.00    -0.732 N 
ATOM      8  C   UNL d   1       0.633   1.069   0.126  0.00  0.00     0.284 C 
ATOM      9  H3  UNL d   1      -0.650  -0.039   1.335  0.00  0.00     0.395 HD
ENDBRANCH   1   7
TORSDOF 1
ENDMDL
