MODEL 1
REMARK minimizedAffinity -4.01447344
REMARK minimizedRMSD -1
REMARK  1 active torsions:
REMARK  status: ('A' for Active; 'I' for Inactive)
REMARK    1  A    between atoms: N_2  and  C1_3 
ROOT
ATOM      1  C1  UNL d   1       0.198  -0.262  -0.191  0.00  0.00     0.143 A 
ATOM      2  C2  UNL d   1      -0.756  -0.555   0.789  0.00  0.00    -0.057 A 
ATOM      3  C3  UNL d   1      -1.067  -1.877   1.128  0.00  0.00     0.033 A 
ATOM      4  C4  UNL d   1      -0.448  -2.934   0.470  0.00  0.00    -0.042 A 
ATOM      5  C5  UNL d   1       0.486  -2.667  -0.525  0.00  0.00     0.033 A 
ATOM      6  C6  UNL d   1       0.797  -1.345  -0.854  0.00  0.00    -0.057 A 
ENDROOT
BRANCH   1   7
ATOM      7  N   UNL d   1       0.480   1.030  -0.642  0.00  0.00    -0.732 N 
ATOM      8  C   UNL d   1       1.328   1.912   0.131  0.00  0.00     0.284 C 
ATOM      9  H3  UNL d   1       0.650   1.063  -1.645  0.00  0.00     0.395 HD
ENDBRANCH   1   7
TORSDOF 1
ENDMDL
