MODEL 1
REMARK minimizedAffinity -3.00143313
REMARK minimizedRMSD -1
REMARK  1 active torsions:
REMARK  status: ('A' for Active; 'I' for Inactive)
REMARK    1  A    between atoms: N_2  and  C1_3 
ROOT
ATOM      1  C1  UNL d   1      -0.795  -1.187  -0.301  0.00  0.00     0.143 A 
ATOM      2  C2  UNL d   1      -0.230  -0.076  -0.937  0.00  0.00    -0.057 A 
ATOM      3  C3  UNL d   1       0.144  -0.124  -2.286  0.00  0.00     0.033 A 
ATOM      4  C4  UNL d   1      -0.015  -1.297  -3.017  0.00  0.00    -0.042 A 
ATOM      5  C5  UNL d   1      -0.551  -2.421  -2.398  0.00  0.00     0.033 A 
ATOM      6  C6  UNL d   1      -0.928  -2.365  -1.053  0.00  0.00    -0.057 A 
ENDROOT
BRANCH   1   7
ATOM      7  N   UNL d   1      -1.096  -1.232   1.062  0.00  0.00    -0.732 N 
ATOM      8  C   UNL d   1      -0.112  -1.693   2.019  0.00  0.00     0.284 C 
ATOM      9  H3  UNL d   1      -1.627  -0.421   1.370  0.00  0.00     0.395 HD
ENDBRANCH   1   7
TORSDOF 1
ENDMDL
