MODEL 1
REMARK minimizedAffinity -4.07407141
REMARK minimizedRMSD -1
REMARK  1 active torsions:
REMARK  status: ('A' for Active; 'I' for Inactive)
REMARK    1  A    between atoms: N_2  and  C1_3 
ROOT
ATOM      1  C1  UNL d   1       0.360   0.942   0.423  0.00  0.00     0.143 A 
ATOM      2  C2  UNL d   1      -0.063   0.103   1.459  0.00  0.00    -0.057 A 
ATOM      3  C3  UNL d   1      -0.276  -1.265   1.245  0.00  0.00     0.033 A 
ATOM      4  C4  UNL d   1      -0.096  -1.813  -0.021  0.00  0.00    -0.042 A 
ATOM      5  C5  UNL d   1       0.300  -0.992  -1.071  0.00  0.00     0.033 A 
ATOM      6  C6  UNL d   1       0.518   0.371  -0.849  0.00  0.00    -0.057 A 
ENDROOT
BRANCH   1   7
ATOM      7  N   UNL d   1       0.494   2.327   0.549  0.00  0.00    -0.732 N 
ATOM      8  C   UNL d   1       1.802   2.933   0.676  0.00  0.00     0.284 C 
ATOM      9  H3  UNL d   1      -0.143   2.836  -0.060  0.00  0.00     0.395 HD
ENDBRANCH   1   7
TORSDOF 1
ENDMDL
