MODEL 1
REMARK minimizedAffinity -2.77691674
REMARK minimizedRMSD -1
REMARK  1 active torsions:
REMARK  status: ('A' for Active; 'I' for Inactive)
REMARK    1  A    between atoms: N_2  and  C1_3 
ROOT
ATOM      1  C1  UNL d   1       0.237   0.277   0.296  0.00  0.00     0.143 A 
ATOM      2  C2  UNL d   1      -0.953   0.085   1.005  0.00  0.00    -0.057 A 
ATOM      3  C3  UNL d   1      -1.374  -1.195   1.385  0.00  0.00     0.033 A 
ATOM      4  C4  UNL d   1      -0.623  -2.313   1.035  0.00  0.00    -0.042 A 
ATOM      5  C5  UNL d   1       0.551  -2.147   0.309  0.00  0.00     0.033 A 
ATOM      6  C6  UNL d   1       0.970  -0.866  -0.061  0.00  0.00    -0.057 A 
ENDROOT
BRANCH   1   7
ATOM      7  N   UNL d   1       0.659   1.515  -0.195  0.00  0.00    -0.732 N 
ATOM      8  C   UNL d   1       1.849   2.150   0.330  0.00  0.00     0.284 C 
ATOM      9  H3  UNL d   1       0.561   1.586  -1.205  0.00  0.00     0.395 HD
ENDBRANCH   1   7
TORSDOF 1
ENDMDL
