MODEL 1
REMARK minimizedAffinity -4.49506903
REMARK minimizedRMSD -1
REMARK  1 active torsions:
REMARK  status: ('A' for Active; 'I' for Inactive)
REMARK    1  A    between atoms: N_2  and  C1_3 
ROOT
ATOM      1  C1  UNL d   1       0.037   0.365   0.327  0.00  0.00     0.143 A 
ATOM      2  C2  UNL d   1      -0.391   1.571  -0.240  0.00  0.00    -0.057 A 
ATOM      3  C3  UNL d   1       0.378   2.736  -0.134  0.00  0.00     0.033 A 
ATOM      4  C4  UNL d   1       1.579   2.723   0.568  0.00  0.00    -0.042 A 
ATOM      5  C5  UNL d   1       2.011   1.542   1.161  0.00  0.00     0.033 A 
ATOM      6  C6  UNL d   1       1.242   0.380   1.047  0.00  0.00    -0.057 A 
ENDROOT
BRANCH   1   7
ATOM      7  N   UNL d   1      -0.730  -0.803   0.341  0.00  0.00    -0.732 N 
ATOM      8  C   UNL d   1      -0.975  -1.508   1.580  0.00  0.00     0.284 C 
ATOM      9  H3  UNL d   1      -1.540  -0.743  -0.271  0.00  0.00     0.395 HD
ENDBRANCH   1   7
TORSDOF 1
ENDMDL
