MODEL 1
REMARK minimizedAffinity -2.53040552
REMARK minimizedRMSD -1
REMARK  1 active torsions:
REMARK  status: ('A' for Active; 'I' for Inactive)
REMARK    1  A    between atoms: N_2  and  C1_3 
ROOT
ATOM      1  C1  UNL d   1      -0.075   0.002   0.115  0.00  0.00     0.143 A 
ATOM      2  C2  UNL d   1      -1.160  -0.440   0.880  0.00  0.00    -0.057 A 
ATOM      3  C3  UNL d   1      -1.311  -1.791   1.213  0.00  0.00     0.033 A 
ATOM      4  C4  UNL d   1      -0.392  -2.732   0.761  0.00  0.00    -0.042 A 
ATOM      5  C5  UNL d   1       0.681  -2.319  -0.021  0.00  0.00     0.033 A 
ATOM      6  C6  UNL d   1       0.830  -0.967  -0.345  0.00  0.00    -0.057 A 
ENDROOT
BRANCH   1   7
ATOM      7  N   UNL d   1       0.077   1.317  -0.332  0.00  0.00    -0.732 N 
ATOM      8  C   UNL d   1       1.074   2.185   0.257  0.00  0.00     0.284 C 
ATOM      9  H3  UNL d   1       0.004   1.394  -1.343  0.00  0.00     0.395 HD
ENDBRANCH   1   7
TORSDOF 1
ENDMDL
