MODEL 1
REMARK minimizedAffinity -4.80232286
REMARK minimizedRMSD -1
REMARK  1 active torsions:
REMARK  status: ('A' for Active; 'I' for Inactive)
REMARK    1  A    between atoms: N_2  and  C1_3 
ROOT
ATOM      1  C1  UNL d   1       0.289  -0.252   0.420  0.00  0.00     0.143 A 
ATOM      2  C2  UNL d   1      -0.326  -0.675   1.603  0.00  0.00    -0.057 A 
ATOM      3  C3  UNL d   1      -0.536  -2.034   1.867  0.00  0.00     0.033 A 
ATOM      4  C4  UNL d   1      -0.159  -2.996   0.935  0.00  0.00    -0.042 A 
ATOM      5  C5  UNL d   1       0.432  -2.596  -0.259  0.00  0.00     0.033 A 
ATOM      6  C6  UNL d   1       0.644  -1.238  -0.513  0.00  0.00    -0.057 A 
ENDROOT
BRANCH   1   7
ATOM      7  N   UNL d   1       0.436   1.089   0.057  0.00  0.00    -0.732 N 
ATOM      8  C   UNL d   1       1.494   1.895   0.626  0.00  0.00     0.284 C 
ATOM      9  H3  UNL d   1       0.287   1.240  -0.938  0.00  0.00     0.395 HD
ENDBRANCH   1   7
TORSDOF 1
ENDMDL
