MODEL 1
REMARK minimizedAffinity -4.95374584
REMARK minimizedRMSD -1
REMARK  1 active torsions:
REMARK  status: ('A' for Active; 'I' for Inactive)
REMARK    1  A    between atoms: N_2  and  C1_3 
ROOT
ATOM      1  C1  UNL d   1       0.461  -0.003   0.066  0.00  0.00     0.143 A 
ATOM      2  C2  UNL d   1      -0.225  -0.408   1.216  0.00  0.00    -0.057 A 
ATOM      3  C3  UNL d   1      -0.612  -1.742   1.398  0.00  0.00     0.033 A 
ATOM      4  C4  UNL d   1      -0.345  -2.690   0.417  0.00  0.00    -0.042 A 
ATOM      5  C5  UNL d   1       0.313  -2.305  -0.746  0.00  0.00     0.033 A 
ATOM      6  C6  UNL d   1       0.703  -0.973  -0.919  0.00  0.00    -0.057 A 
ENDROOT
BRANCH   1   7
ATOM      7  N   UNL d   1       0.785   1.326  -0.218  0.00  0.00    -0.732 N 
ATOM      8  C   UNL d   1       1.593   2.100   0.700  0.00  0.00     0.284 C 
ATOM      9  H3  UNL d   1       1.019   1.468  -1.198  0.00  0.00     0.395 HD
ENDBRANCH   1   7
TORSDOF 1
ENDMDL
