MODEL 1
REMARK minimizedAffinity -3.78530574
REMARK minimizedRMSD -1
REMARK  1 active torsions:
REMARK  status: ('A' for Active; 'I' for Inactive)
REMARK    1  A    between atoms: N_2  and  C1_3 
ROOT
ATOM      1  C1  UNL d   1      -0.154  -1.412   0.536  0.00  0.00     0.143 A 
ATOM      2  C2  UNL d   1      -0.402  -0.222   1.228  0.00  0.00    -0.057 A 
ATOM      3  C3  UNL d   1      -0.216   1.025   0.619  0.00  0.00     0.033 A 
ATOM      4  C4  UNL d   1       0.252   1.104  -0.689  0.00  0.00    -0.042 A 
ATOM      5  C5  UNL d   1       0.529  -0.066  -1.388  0.00  0.00     0.033 A 
ATOM      6  C6  UNL d   1       0.335  -1.308  -0.776  0.00  0.00    -0.057 A 
ENDROOT
BRANCH   1   7
ATOM      7  N   UNL d   1      -0.226  -2.680   1.119  0.00  0.00    -0.732 N 
ATOM      8  C   UNL d   1      -0.247  -3.869   0.295  0.00  0.00     0.284 C 
ATOM      9  H3  UNL d   1       0.357  -2.759   1.949  0.00  0.00     0.395 HD
ENDBRANCH   1   7
TORSDOF 1
ENDMDL
