MODEL 1
REMARK minimizedAffinity -4.72100735
REMARK minimizedRMSD -1
REMARK  1 active torsions:
REMARK  status: ('A' for Active; 'I' for Inactive)
REMARK    1  A    between atoms: N_2  and  C1_3 
ROOT
ATOM      1  C1  UNL d   1       0.057   0.405   0.431  0.00  0.00     0.143 A 
ATOM      2  C2  UNL d   1      -0.600  -0.136   1.541  0.00  0.00    -0.057 A 
ATOM      3  C3  UNL d   1      -0.912  -1.499   1.607  0.00  0.00     0.033 A 
ATOM      4  C4  UNL d   1      -0.597  -2.343   0.547  0.00  0.00    -0.042 A 
ATOM      5  C5  UNL d   1       0.033  -1.822  -0.578  0.00  0.00     0.033 A 
ATOM      6  C6  UNL d   1       0.348  -0.461  -0.634  0.00  0.00    -0.057 A 
ENDROOT
BRANCH   1   7
ATOM      7  N   UNL d   1       0.306   1.770   0.264  0.00  0.00    -0.732 N 
ATOM      8  C   UNL d   1       1.606   2.325   0.572  0.00  0.00     0.284 C 
ATOM      9  H3  UNL d   1      -0.113   2.140  -0.587  0.00  0.00     0.395 HD
ENDBRANCH   1   7
TORSDOF 1
ENDMDL
