MODEL 1
REMARK minimizedAffinity 9.57638359
REMARK minimizedRMSD -1
REMARK  0 active torsions:
REMARK  status: ('A' for Active; 'I' for Inactive)
ROOT
ATOM      1  C2' OXE d   1       3.453   6.000  -3.703  0.00  0.00     0.078 C 
ATOM      2  C1' OXE d   1       1.782   4.493  -5.381  0.00  0.00     0.078 C 
ATOM      3  C1  OXE d   1       3.232   4.089  -5.285  0.00  0.00    -0.078 A 
ATOM      4  C2  OXE d   1       4.053   4.860  -4.498  0.00  0.00    -0.078 A 
ATOM      5  C3  OXE d   1       5.387   4.500  -4.331  0.00  0.00     0.003 A 
ATOM      6  C4  OXE d   1       5.936   3.451  -5.079  0.00  0.00    -0.002 A 
ATOM      7  C5  OXE d   1       5.126   2.677  -5.917  0.00  0.00    -0.002 A 
ATOM      8  C6  OXE d   1       3.767   2.955  -5.999  0.00  0.00     0.003 A 
ENDROOT
TORSDOF 0
ENDMDL
