MODEL 1
REMARK minimizedAffinity -4.41036367
REMARK minimizedRMSD -1
REMARK  0 active torsions:
REMARK  status: ('A' for Active; 'I' for Inactive)
ROOT
ATOM      1  C2' OXE d   1      -5.621  -2.470  -2.037  0.00  0.00     0.078 C 
ATOM      2  C1' OXE d   1      -5.583  -1.909   0.714  0.00  0.00     0.078 C 
ATOM      3  C1  OXE d   1      -5.598  -3.356   0.291  0.00  0.00    -0.078 A 
ATOM      4  C2  OXE d   1      -5.664  -3.621  -1.056  0.00  0.00    -0.078 A 
ATOM      5  C3  OXE d   1      -5.625  -4.939  -1.502  0.00  0.00     0.003 A 
ATOM      6  C4  OXE d   1      -5.675  -5.999  -0.588  0.00  0.00    -0.002 A 
ATOM      7  C5  OXE d   1      -5.648  -5.751   0.789  0.00  0.00    -0.002 A 
ATOM      8  C6  OXE d   1      -5.567  -4.439   1.243  0.00  0.00     0.003 A 
ENDROOT
TORSDOF 0
ENDMDL
