MODEL 1
REMARK minimizedAffinity -1.34066224
REMARK minimizedRMSD -1
REMARK  0 active torsions:
REMARK  status: ('A' for Active; 'I' for Inactive)
ROOT
ATOM      1  C2' OXE d   1      -5.984  -3.087  -2.379  0.00  0.00     0.078 C 
ATOM      2  C1' OXE d   1      -5.964  -5.894  -2.375  0.00  0.00     0.078 C 
ATOM      3  C1  OXE d   1      -5.928  -5.189  -1.042  0.00  0.00    -0.078 A 
ATOM      4  C2  OXE d   1      -5.891  -3.815  -1.055  0.00  0.00    -0.078 A 
ATOM      5  C3  OXE d   1      -5.912  -3.114   0.147  0.00  0.00     0.003 A 
ATOM      6  C4  OXE d   1      -5.816  -3.795   1.367  0.00  0.00    -0.002 A 
ATOM      7  C5  OXE d   1      -5.812  -5.194   1.401  0.00  0.00    -0.002 A 
ATOM      8  C6  OXE d   1      -5.910  -5.904   0.210  0.00  0.00     0.003 A 
ENDROOT
TORSDOF 0
ENDMDL
