MODEL 1
REMARK minimizedAffinity -0.27347362
REMARK minimizedRMSD -1
REMARK  0 active torsions:
REMARK  status: ('A' for Active; 'I' for Inactive)
ROOT
ATOM      1  C2' OXE d   1      -5.980  -2.302  -0.236  0.00  0.00     0.078 C 
ATOM      2  C1' OXE d   1      -5.965  -2.133  -3.038  0.00  0.00     0.078 C 
ATOM      3  C1  OXE d   1      -5.973  -3.507  -2.416  0.00  0.00    -0.078 A 
ATOM      4  C2  OXE d   1      -5.933  -3.580  -1.044  0.00  0.00    -0.078 A 
ATOM      5  C3  OXE d   1      -5.994  -4.822  -0.418  0.00  0.00     0.003 A 
ATOM      6  C4  OXE d   1      -5.941  -6.000  -1.174  0.00  0.00    -0.002 A 
ATOM      7  C5  OXE d   1      -5.941  -5.947  -2.571  0.00  0.00    -0.002 A 
ATOM      8  C6  OXE d   1      -6.000  -4.712  -3.207  0.00  0.00     0.003 A 
ENDROOT
TORSDOF 0
ENDMDL
