MODEL 1
REMARK minimizedAffinity 0.837963879
REMARK minimizedRMSD -1
REMARK  0 active torsions:
REMARK  status: ('A' for Active; 'I' for Inactive)
ROOT
ATOM      1  C2' OXE d   1      -5.765  -5.963  -2.618  0.00  0.00     0.078 C 
ATOM      2  C1' OXE d   1      -5.648  -3.160  -2.538  0.00  0.00     0.078 C 
ATOM      3  C1  OXE d   1      -5.754  -3.897  -1.226  0.00  0.00    -0.078 A 
ATOM      4  C2  OXE d   1      -5.858  -5.267  -1.278  0.00  0.00    -0.078 A 
ATOM      5  C3  OXE d   1      -5.903  -5.999  -0.095  0.00  0.00     0.003 A 
ATOM      6  C4  OXE d   1      -5.999  -5.347   1.140  0.00  0.00    -0.002 A 
ATOM      7  C5  OXE d   1      -5.935  -3.951   1.212  0.00  0.00    -0.002 A 
ATOM      8  C6  OXE d   1      -5.770  -3.215   0.044  0.00  0.00     0.003 A 
ENDROOT
TORSDOF 0
ENDMDL
