MODEL 1
REMARK minimizedAffinity 7.39117336
REMARK minimizedRMSD -1
REMARK  0 active torsions:
REMARK  status: ('A' for Active; 'I' for Inactive)
ROOT
ATOM      1  C2' OXE d   1      -5.622  -2.272  -2.006  0.00  0.00     0.078 C 
ATOM      2  C1' OXE d   1      -4.838  -2.196   0.688  0.00  0.00     0.078 C 
ATOM      3  C1  OXE d   1      -5.020  -3.549   0.046  0.00  0.00    -0.078 A 
ATOM      4  C2  OXE d   1      -5.448  -3.577  -1.259  0.00  0.00    -0.078 A 
ATOM      5  C3  OXE d   1      -5.579  -4.797  -1.916  0.00  0.00     0.003 A 
ATOM      6  C4  OXE d   1      -5.427  -5.999  -1.215  0.00  0.00    -0.002 A 
ATOM      7  C5  OXE d   1      -5.029  -5.994   0.127  0.00  0.00    -0.002 A 
ATOM      8  C6  OXE d   1      -4.780  -4.780   0.758  0.00  0.00     0.003 A 
ENDROOT
TORSDOF 0
ENDMDL
