MODEL 1
REMARK minimizedAffinity 0.96916306
REMARK minimizedRMSD -1
REMARK  0 active torsions:
REMARK  status: ('A' for Active; 'I' for Inactive)
ROOT
ATOM      1  C2' OXE d   1      -5.845  -5.111   0.262  0.00  0.00     0.078 C 
ATOM      2  C1' OXE d   1      -5.780  -5.988  -2.404  0.00  0.00     0.078 C 
ATOM      3  C1  OXE d   1      -5.839  -4.501  -2.153  0.00  0.00    -0.078 A 
ATOM      4  C2  OXE d   1      -5.918  -4.083  -0.847  0.00  0.00    -0.078 A 
ATOM      5  C3  OXE d   1      -5.919  -2.722  -0.557  0.00  0.00     0.003 A 
ATOM      6  C4  OXE d   1      -5.997  -1.778  -1.589  0.00  0.00    -0.002 A 
ATOM      7  C5  OXE d   1      -5.958  -2.184  -2.927  0.00  0.00    -0.002 A 
ATOM      8  C6  OXE d   1      -5.836  -3.537  -3.225  0.00  0.00     0.003 A 
ENDROOT
TORSDOF 0
ENDMDL
