MODEL 1
REMARK minimizedAffinity 2.23562121
REMARK minimizedRMSD -1
REMARK  0 active torsions:
REMARK  status: ('A' for Active; 'I' for Inactive)
ROOT
ATOM      1  C2' OXE d   1       3.954  -0.050   1.970  0.00  0.00     0.078 C 
ATOM      2  C1' OXE d   1       1.899  -0.835   3.714  0.00  0.00     0.078 C 
ATOM      3  C1  OXE d   1       1.675   0.396   2.871  0.00  0.00    -0.078 A 
ATOM      4  C2  OXE d   1       2.704   0.799   2.055  0.00  0.00    -0.078 A 
ATOM      5  C3  OXE d   1       2.529   1.896   1.216  0.00  0.00     0.003 A 
ATOM      6  C4  OXE d   1       1.374   2.682   1.309  0.00  0.00    -0.002 A 
ATOM      7  C5  OXE d   1       0.330   2.312   2.163  0.00  0.00    -0.002 A 
ATOM      8  C6  OXE d   1       0.447   1.150   2.918  0.00  0.00     0.003 A 
ENDROOT
TORSDOF 0
ENDMDL
