MODEL 1
REMARK minimizedAffinity 8.47182465
REMARK minimizedRMSD -1
REMARK  0 active torsions:
REMARK  status: ('A' for Active; 'I' for Inactive)
ROOT
ATOM      1  C2' OXE d   1       4.545   1.745  -6.000  0.00  0.00     0.078 C 
ATOM      2  C1' OXE d   1       5.811   3.761  -4.512  0.00  0.00     0.078 C 
ATOM      3  C1  OXE d   1       4.367   3.971  -4.895  0.00  0.00    -0.078 A 
ATOM      4  C2  OXE d   1       3.769   3.001  -5.663  0.00  0.00    -0.078 A 
ATOM      5  C3  OXE d   1       2.424   3.119  -5.999  0.00  0.00     0.003 A 
ATOM      6  C4  OXE d   1       1.717   4.288  -5.692  0.00  0.00    -0.002 A 
ATOM      7  C5  OXE d   1       2.319   5.306  -4.945  0.00  0.00    -0.002 A 
ATOM      8  C6  OXE d   1       3.627   5.145  -4.503  0.00  0.00     0.003 A 
ENDROOT
TORSDOF 0
ENDMDL
