MODEL 1
REMARK minimizedAffinity 6.46689081
REMARK minimizedRMSD -1
REMARK  0 active torsions:
REMARK  status: ('A' for Active; 'I' for Inactive)
ROOT
ATOM      1  C2' OXE d   1      -4.636   3.427   2.144  0.00  0.00     0.078 C 
ATOM      2  C1' OXE d   1      -2.219   4.476   3.113  0.00  0.00     0.078 C 
ATOM      3  C1  OXE d   1      -2.218   3.053   2.615  0.00  0.00    -0.078 A 
ATOM      4  C2  OXE d   1      -3.416   2.533   2.185  0.00  0.00    -0.078 A 
ATOM      5  C3  OXE d   1      -3.459   1.243   1.664  0.00  0.00     0.003 A 
ATOM      6  C4  OXE d   1      -2.329   0.418   1.716  0.00  0.00    -0.002 A 
ATOM      7  C5  OXE d   1      -1.109   0.916   2.186  0.00  0.00    -0.002 A 
ATOM      8  C6  OXE d   1      -1.027   2.241   2.599  0.00  0.00     0.003 A 
ENDROOT
TORSDOF 0
ENDMDL
