MODEL 1
REMARK minimizedAffinity 7.36242676
REMARK minimizedRMSD -1
REMARK  0 active torsions:
REMARK  status: ('A' for Active; 'I' for Inactive)
ROOT
ATOM      1  C2' OXE d   1       5.879   3.660  -4.870  0.00  0.00     0.078 C 
ATOM      2  C1' OXE d   1       4.083   1.821  -6.000  0.00  0.00     0.078 C 
ATOM      3  C1  OXE d   1       3.571   3.206  -5.692  0.00  0.00    -0.078 A 
ATOM      4  C2  OXE d   1       4.444   4.085  -5.097  0.00  0.00    -0.078 A 
ATOM      5  C3  OXE d   1       4.039   5.392  -4.842  0.00  0.00     0.003 A 
ATOM      6  C4  OXE d   1       2.708   5.774  -5.046  0.00  0.00    -0.002 A 
ATOM      7  C5  OXE d   1       1.792   4.883  -5.615  0.00  0.00    -0.002 A 
ATOM      8  C6  OXE d   1       2.218   3.611  -5.983  0.00  0.00     0.003 A 
ENDROOT
TORSDOF 0
ENDMDL
