MODEL 1
REMARK minimizedAffinity 13.5728016
REMARK minimizedRMSD -1
REMARK  0 active torsions:
REMARK  status: ('A' for Active; 'I' for Inactive)
ROOT
ATOM      1  C2' OXE d   1       1.874   3.380  -0.648  0.00  0.00     0.078 C 
ATOM      2  C1' OXE d   1       3.968   1.611  -1.252  0.00  0.00     0.078 C 
ATOM      3  C1  OXE d   1       3.798   2.825  -2.130  0.00  0.00    -0.078 A 
ATOM      4  C2  OXE d   1       2.742   3.661  -1.856  0.00  0.00    -0.078 A 
ATOM      5  C3  OXE d   1       2.571   4.824  -2.601  0.00  0.00     0.003 A 
ATOM      6  C4  OXE d   1       3.373   5.071  -3.722  0.00  0.00    -0.002 A 
ATOM      7  C5  OXE d   1       4.429   4.212  -4.043  0.00  0.00    -0.002 A 
ATOM      8  C6  OXE d   1       4.681   3.110  -3.234  0.00  0.00     0.003 A 
ENDROOT
TORSDOF 0
ENDMDL
