MODEL 1
REMARK minimizedAffinity 2.67099118
REMARK minimizedRMSD -1
REMARK  0 active torsions:
REMARK  status: ('A' for Active; 'I' for Inactive)
ROOT
ATOM      1  C2' OXE d   1       0.711  -1.037   3.003  0.00  0.00     0.078 C 
ATOM      2  C1' OXE d   1      -1.664   0.402   2.590  0.00  0.00     0.078 C 
ATOM      3  C1  OXE d   1      -0.456   1.163   3.077  0.00  0.00    -0.078 A 
ATOM      4  C2  OXE d   1       0.689   0.443   3.321  0.00  0.00    -0.078 A 
ATOM      5  C3  OXE d   1       1.847   1.104   3.719  0.00  0.00     0.003 A 
ATOM      6  C4  OXE d   1       1.815   2.471   4.020  0.00  0.00    -0.002 A 
ATOM      7  C5  OXE d   1       0.649   3.216   3.817  0.00  0.00    -0.002 A 
ATOM      8  C6  OXE d   1      -0.481   2.586   3.307  0.00  0.00     0.003 A 
ENDROOT
TORSDOF 0
ENDMDL
