MODEL 1
REMARK minimizedAffinity 10.4943218
REMARK minimizedRMSD -1
REMARK  0 active torsions:
REMARK  status: ('A' for Active; 'I' for Inactive)
ROOT
ATOM      1  C2' OXE d   1       1.608   2.745  -1.701  0.00  0.00     0.078 C 
ATOM      2  C1' OXE d   1      -0.577   1.279  -0.723  0.00  0.00     0.078 C 
ATOM      3  C1  OXE d   1       0.363   0.587  -1.680  0.00  0.00    -0.078 A 
ATOM      4  C2  OXE d   1       1.403   1.327  -2.189  0.00  0.00    -0.078 A 
ATOM      5  C3  OXE d   1       2.330   0.722  -3.033  0.00  0.00     0.003 A 
ATOM      6  C4  OXE d   1       2.127  -0.587  -3.488  0.00  0.00    -0.002 A 
ATOM      7  C5  OXE d   1       1.052  -1.345  -3.012  0.00  0.00    -0.002 A 
ATOM      8  C6  OXE d   1       0.187  -0.788  -2.077  0.00  0.00     0.003 A 
ENDROOT
TORSDOF 0
ENDMDL
