MODEL 1
REMARK minimizedAffinity 3.83891344
REMARK minimizedRMSD -1
REMARK  0 active torsions:
REMARK  status: ('A' for Active; 'I' for Inactive)
ROOT
ATOM      1  C2' OXE d   1      -0.272   3.701   3.059  0.00  0.00     0.078 C 
ATOM      2  C1' OXE d   1       2.239   2.784   2.202  0.00  0.00     0.078 C 
ATOM      3  C1  OXE d   1       1.319   1.793   2.870  0.00  0.00    -0.078 A 
ATOM      4  C2  OXE d   1       0.111   2.262   3.328  0.00  0.00    -0.078 A 
ATOM      5  C3  OXE d   1      -0.798   1.378   3.902  0.00  0.00     0.003 A 
ATOM      6  C4  OXE d   1      -0.433   0.051   4.156  0.00  0.00    -0.002 A 
ATOM      7  C5  OXE d   1       0.809  -0.437   3.734  0.00  0.00    -0.002 A 
ATOM      8  C6  OXE d   1       1.677   0.408   3.052  0.00  0.00     0.003 A 
ENDROOT
TORSDOF 0
ENDMDL
