MODEL 1
REMARK minimizedAffinity 9.03462887
REMARK minimizedRMSD -1
REMARK  0 active torsions:
REMARK  status: ('A' for Active; 'I' for Inactive)
ROOT
ATOM      1  C2' OXE d   1       1.491   3.113  -0.923  0.00  0.00     0.078 C 
ATOM      2  C1' OXE d   1       3.161   1.342  -2.320  0.00  0.00     0.078 C 
ATOM      3  C1  OXE d   1       3.067   2.762  -2.820  0.00  0.00    -0.078 A 
ATOM      4  C2  OXE d   1       2.211   3.610  -2.158  0.00  0.00    -0.078 A 
ATOM      5  C3  OXE d   1       2.128   4.944  -2.543  0.00  0.00     0.003 A 
ATOM      6  C4  OXE d   1       2.790   5.393  -3.693  0.00  0.00    -0.002 A 
ATOM      7  C5  OXE d   1       3.635   4.535  -4.405  0.00  0.00    -0.002 A 
ATOM      8  C6  OXE d   1       3.817   3.231  -3.958  0.00  0.00     0.003 A 
ENDROOT
TORSDOF 0
ENDMDL
