MODEL 1
REMARK minimizedAffinity 3.36081839
REMARK minimizedRMSD -1
REMARK  0 active torsions:
REMARK  status: ('A' for Active; 'I' for Inactive)
ROOT
ATOM      1  C2' OXE d   1      -5.627  -1.878  -0.275  0.00  0.00     0.078 C 
ATOM      2  C1' OXE d   1      -5.999  -1.395  -3.015  0.00  0.00     0.078 C 
ATOM      3  C1  OXE d   1      -5.892  -2.829  -2.562  0.00  0.00    -0.078 A 
ATOM      4  C2  OXE d   1      -5.663  -3.055  -1.226  0.00  0.00    -0.078 A 
ATOM      5  C3  OXE d   1      -5.611  -4.360  -0.746  0.00  0.00     0.003 A 
ATOM      6  C4  OXE d   1      -5.635  -5.443  -1.634  0.00  0.00    -0.002 A 
ATOM      7  C5  OXE d   1      -5.827  -5.234  -3.003  0.00  0.00    -0.002 A 
ATOM      8  C6  OXE d   1      -6.000  -3.938  -3.477  0.00  0.00     0.003 A 
ENDROOT
TORSDOF 0
ENDMDL
