MODEL 1
REMARK minimizedAffinity 14.1007395
REMARK minimizedRMSD -1
REMARK  0 active torsions:
REMARK  status: ('A' for Active; 'I' for Inactive)
ROOT
ATOM      1  C2' OXE d   1       2.359   4.936  -6.000  0.00  0.00     0.078 C 
ATOM      2  C1' OXE d   1       4.841   4.184  -4.927  0.00  0.00     0.078 C 
ATOM      3  C1  OXE d   1       3.622   4.031  -4.053  0.00  0.00    -0.078 A 
ATOM      4  C2  OXE d   1       2.417   4.445  -4.570  0.00  0.00    -0.078 A 
ATOM      5  C3  OXE d   1       1.253   4.275  -3.826  0.00  0.00     0.003 A 
ATOM      6  C4  OXE d   1       1.318   3.829  -2.500  0.00  0.00    -0.002 A 
ATOM      7  C5  OXE d   1       2.539   3.439  -1.941  0.00  0.00    -0.002 A 
ATOM      8  C6  OXE d   1       3.692   3.493  -2.717  0.00  0.00     0.003 A 
ENDROOT
TORSDOF 0
ENDMDL
