MODEL 1
REMARK minimizedAffinity 1.50095046
REMARK minimizedRMSD -1
REMARK  0 active torsions:
REMARK  status: ('A' for Active; 'I' for Inactive)
ROOT
ATOM      1  C2' OXE d   1      -5.482  -4.910   2.427  0.00  0.00     0.078 C 
ATOM      2  C1' OXE d   1      -5.671  -2.392   1.199  0.00  0.00     0.078 C 
ATOM      3  C1  OXE d   1      -5.769  -3.613   0.319  0.00  0.00    -0.078 A 
ATOM      4  C2  OXE d   1      -5.629  -4.840   0.922  0.00  0.00    -0.078 A 
ATOM      5  C3  OXE d   1      -5.766  -6.000   0.164  0.00  0.00     0.003 A 
ATOM      6  C4  OXE d   1      -5.891  -5.926  -1.228  0.00  0.00    -0.002 A 
ATOM      7  C5  OXE d   1      -5.996  -4.686  -1.867  0.00  0.00    -0.002 A 
ATOM      8  C6  OXE d   1      -5.979  -3.523  -1.105  0.00  0.00     0.003 A 
ENDROOT
TORSDOF 0
ENDMDL
