MODEL 1
REMARK minimizedAffinity -5.81109238
REMARK minimizedRMSD -1
REMARK  0 active torsions:
REMARK  status: ('A' for Active; 'I' for Inactive)
ROOT
ATOM      1  C   UNL d   1      -1.926  -0.688   3.074  0.00  0.00    -0.002 A 
ATOM      2  C1  UNL d   1      -2.893   0.015   2.369  0.00  0.00     0.010 A 
ATOM      3  C2  UNL d   1      -2.649   0.445   1.064  0.00  0.00     0.041 A 
ATOM      4  C3  UNL d   1      -1.405   0.152   0.471  0.00  0.00    -0.075 A 
ATOM      5  S   UNL d   1      -0.883   0.577  -1.116  0.00  0.00     0.015 SA
ATOM      6  C4  UNL d   1       0.635  -0.166  -0.897  0.00  0.00     0.022 A 
ATOM      7  C5  UNL d   1       0.758  -0.729   0.351  0.00  0.00     0.026 A 
ATOM      8  C6  UNL d   1      -0.416  -0.556   1.160  0.00  0.00    -0.082 A 
ATOM      9  C7  UNL d   1      -0.694  -0.977   2.482  0.00  0.00     0.045 A 
ENDROOT
TORSDOF 0
ENDMDL
