MODEL 1
REMARK minimizedAffinity -1.46843278
REMARK minimizedRMSD -1
REMARK  0 active torsions:
REMARK  status: ('A' for Active; 'I' for Inactive)
ROOT
ATOM      1  C   UNL d   1      -3.334   0.231   2.765  0.00  0.00    -0.002 A 
ATOM      2  C1  UNL d   1      -3.490   0.469   1.407  0.00  0.00     0.010 A 
ATOM      3  C2  UNL d   1      -2.423   0.285   0.526  0.00  0.00     0.041 A 
ATOM      4  C3  UNL d   1      -1.184  -0.149   1.038  0.00  0.00    -0.075 A 
ATOM      5  S   UNL d   1       0.262  -0.443   0.147  0.00  0.00     0.015 SA
ATOM      6  C4  UNL d   1       1.122  -0.893   1.548  0.00  0.00     0.022 A 
ATOM      7  C5  UNL d   1       0.340  -0.825   2.677  0.00  0.00     0.026 A 
ATOM      8  C6  UNL d   1      -1.002  -0.396   2.401  0.00  0.00    -0.082 A 
ATOM      9  C7  UNL d   1      -2.103  -0.199   3.269  0.00  0.00     0.045 A 
ENDROOT
TORSDOF 0
ENDMDL
