MODEL 1
REMARK minimizedAffinity -0.683236241
REMARK minimizedRMSD -1
REMARK  0 active torsions:
REMARK  status: ('A' for Active; 'I' for Inactive)
ROOT
ATOM      1  C   UNL d   1       1.860  -0.535  -4.183  0.00  0.00    -0.002 A 
ATOM      2  C1  UNL d   1       1.278  -1.793  -4.128  0.00  0.00     0.010 A 
ATOM      3  C2  UNL d   1       0.540  -2.186  -3.010  0.00  0.00     0.041 A 
ATOM      4  C3  UNL d   1       0.393  -1.284  -1.938  0.00  0.00    -0.075 A 
ATOM      5  S   UNL d   1      -0.467  -1.547  -0.468  0.00  0.00     0.015 SA
ATOM      6  C4  UNL d   1      -0.084   0.006   0.122  0.00  0.00     0.022 A 
ATOM      7  C5  UNL d   1       0.682   0.721  -0.768  0.00  0.00     0.026 A 
ATOM      8  C6  UNL d   1       0.969  -0.010  -1.971  0.00  0.00    -0.082 A 
ATOM      9  C7  UNL d   1       1.712   0.358  -3.118  0.00  0.00     0.045 A 
ENDROOT
TORSDOF 0
ENDMDL
