MODEL 1
REMARK minimizedAffinity -0.209228262
REMARK minimizedRMSD -1
REMARK  0 active torsions:
REMARK  status: ('A' for Active; 'I' for Inactive)
ROOT
ATOM      1  C   UNL d   1       1.223   0.639   1.700  0.00  0.00    -0.002 A 
ATOM      2  C1  UNL d   1      -0.048   0.101   1.845  0.00  0.00     0.010 A 
ATOM      3  C2  UNL d   1      -0.743  -0.388   0.737  0.00  0.00     0.041 A 
ATOM      4  C3  UNL d   1      -0.133  -0.328  -0.531  0.00  0.00    -0.075 A 
ATOM      5  S   UNL d   1      -0.794  -0.867  -2.029  0.00  0.00     0.015 SA
ATOM      6  C4  UNL d   1       0.595  -0.397  -2.897  0.00  0.00     0.022 A 
ATOM      7  C5  UNL d   1       1.550   0.160  -2.080  0.00  0.00     0.026 A 
ATOM      8  C6  UNL d   1       1.147   0.209  -0.703  0.00  0.00    -0.082 A 
ATOM      9  C7  UNL d   1       1.825   0.697   0.440  0.00  0.00     0.045 A 
ENDROOT
TORSDOF 0
ENDMDL
