MODEL 1
REMARK minimizedAffinity -1.32739389
REMARK minimizedRMSD -1
REMARK  0 active torsions:
REMARK  status: ('A' for Active; 'I' for Inactive)
ROOT
ATOM      1  C   UNL d   1       0.907  -1.539  -3.699  0.00  0.00    -0.002 A 
ATOM      2  C1  UNL d   1       1.736  -0.427  -3.759  0.00  0.00     0.010 A 
ATOM      3  C2  UNL d   1       1.876   0.415  -2.655  0.00  0.00     0.041 A 
ATOM      4  C3  UNL d   1       1.164   0.119  -1.477  0.00  0.00    -0.075 A 
ATOM      5  S   UNL d   1       1.181   1.008   0.000  0.00  0.00     0.015 SA
ATOM      6  C4  UNL d   1       0.088  -0.066   0.747  0.00  0.00     0.022 A 
ATOM      7  C5  UNL d   1      -0.290  -1.084  -0.096  0.00  0.00     0.026 A 
ATOM      8  C6  UNL d   1       0.323  -0.995  -1.391  0.00  0.00    -0.082 A 
ATOM      9  C7  UNL d   1       0.202  -1.830  -2.528  0.00  0.00     0.045 A 
ENDROOT
TORSDOF 0
ENDMDL
