MODEL 1
REMARK minimizedAffinity -2.49337029
REMARK minimizedRMSD -1
REMARK  0 active torsions:
REMARK  status: ('A' for Active; 'I' for Inactive)
ROOT
ATOM      1  C   UNL d   1       0.370  -0.766  -2.807  0.00  0.00    -0.002 A 
ATOM      2  C1  UNL d   1       0.724  -1.986  -3.365  0.00  0.00     0.010 A 
ATOM      3  C2  UNL d   1       1.960  -2.148  -3.995  0.00  0.00     0.041 A 
ATOM      4  C3  UNL d   1       2.843  -1.052  -4.053  0.00  0.00    -0.075 A 
ATOM      5  S   UNL d   1       4.410  -1.017  -4.772  0.00  0.00     0.015 SA
ATOM      6  C4  UNL d   1       4.647   0.618  -4.354  0.00  0.00     0.022 A 
ATOM      7  C5  UNL d   1       3.567   1.141  -3.683  0.00  0.00     0.026 A 
ATOM      8  C6  UNL d   1       2.510   0.186  -3.497  0.00  0.00    -0.082 A 
ATOM      9  C7  UNL d   1       1.250   0.319  -2.867  0.00  0.00     0.045 A 
ENDROOT
TORSDOF 0
ENDMDL
