MODEL 1
REMARK minimizedAffinity -3.38231444
REMARK minimizedRMSD -1
REMARK  0 active torsions:
REMARK  status: ('A' for Active; 'I' for Inactive)
ROOT
ATOM      1  C   UNL d   1       0.484   0.023  -4.139  0.00  0.00    -0.002 A 
ATOM      2  C1  UNL d   1       0.879  -1.294  -3.953  0.00  0.00     0.010 A 
ATOM      3  C2  UNL d   1       1.027  -1.815  -2.666  0.00  0.00     0.041 A 
ATOM      4  C3  UNL d   1       0.767  -0.983  -1.559  0.00  0.00    -0.075 A 
ATOM      5  S   UNL d   1       0.882  -1.405   0.108  0.00  0.00     0.015 SA
ATOM      6  C4  UNL d   1       0.408   0.152   0.612  0.00  0.00     0.022 A 
ATOM      7  C5  UNL d   1       0.165   0.987  -0.453  0.00  0.00     0.026 A 
ATOM      8  C6  UNL d   1       0.367   0.346  -1.722  0.00  0.00    -0.082 A 
ATOM      9  C7  UNL d   1       0.227   0.846  -3.039  0.00  0.00     0.045 A 
ENDROOT
TORSDOF 0
ENDMDL
