MODEL 1
REMARK minimizedAffinity 0.820138752
REMARK minimizedRMSD -1
REMARK  0 active torsions:
REMARK  status: ('A' for Active; 'I' for Inactive)
ROOT
ATOM      1  C   UNL d   1       0.177  -0.195   3.268  0.00  0.00    -0.002 A 
ATOM      2  C1  UNL d   1      -1.128   0.263   3.155  0.00  0.00     0.010 A 
ATOM      3  C2  UNL d   1      -1.665   0.577   1.904  0.00  0.00     0.041 A 
ATOM      4  C3  UNL d   1      -0.860   0.420   0.759  0.00  0.00    -0.075 A 
ATOM      5  S   UNL d   1      -1.305   0.742  -0.876  0.00  0.00     0.015 SA
ATOM      6  C4  UNL d   1       0.227   0.279  -1.462  0.00  0.00     0.022 A 
ATOM      7  C5  UNL d   1       1.069  -0.114  -0.450  0.00  0.00     0.026 A 
ATOM      8  C6  UNL d   1       0.457  -0.039   0.847  0.00  0.00    -0.082 A 
ATOM      9  C7  UNL d   1       0.972  -0.349   2.129  0.00  0.00     0.045 A 
ENDROOT
TORSDOF 0
ENDMDL
