MODEL 1
REMARK minimizedAffinity -2.41262126
REMARK minimizedRMSD -1
REMARK  0 active torsions:
REMARK  status: ('A' for Active; 'I' for Inactive)
ROOT
ATOM      1  C   UNL d   1      -1.204  -0.336   2.394  0.00  0.00    -0.002 A 
ATOM      2  C1  UNL d   1      -1.988   0.139   1.352  0.00  0.00     0.010 A 
ATOM      3  C2  UNL d   1      -1.574  -0.010   0.027  0.00  0.00     0.041 A 
ATOM      4  C3  UNL d   1      -0.349  -0.654  -0.236  0.00  0.00    -0.075 A 
ATOM      5  S   UNL d   1       0.360  -0.950  -1.780  0.00  0.00     0.015 SA
ATOM      6  C4  UNL d   1       1.718  -1.715  -1.093  0.00  0.00     0.022 A 
ATOM      7  C5  UNL d   1       1.650  -1.752   0.280  0.00  0.00     0.026 A 
ATOM      8  C6  UNL d   1       0.458  -1.142   0.796  0.00  0.00    -0.082 A 
ATOM      9  C7  UNL d   1       0.011  -0.974   2.129  0.00  0.00     0.045 A 
ENDROOT
TORSDOF 0
ENDMDL
