MODEL 1
REMARK minimizedAffinity -2.38614774
REMARK minimizedRMSD -1
REMARK  0 active torsions:
REMARK  status: ('A' for Active; 'I' for Inactive)
ROOT
ATOM      1  C   UNL d   1      -0.264  -0.105   3.020  0.00  0.00    -0.002 A 
ATOM      2  C1  UNL d   1      -1.245   0.310   2.131  0.00  0.00     0.010 A 
ATOM      3  C2  UNL d   1      -1.070   0.150   0.755  0.00  0.00     0.041 A 
ATOM      4  C3  UNL d   1       0.118  -0.442   0.283  0.00  0.00    -0.075 A 
ATOM      5  S   UNL d   1       0.550  -0.741  -1.359  0.00  0.00     0.015 SA
ATOM      6  C4  UNL d   1       2.046  -1.427  -0.919  0.00  0.00     0.022 A 
ATOM      7  C5  UNL d   1       2.228  -1.436   0.444  0.00  0.00     0.026 A 
ATOM      8  C6  UNL d   1       1.120  -0.869   1.159  0.00  0.00    -0.082 A 
ATOM      9  C7  UNL d   1       0.913  -0.692   2.549  0.00  0.00     0.045 A 
ENDROOT
TORSDOF 0
ENDMDL
