MODEL 1
REMARK minimizedAffinity -4.18114328
REMARK minimizedRMSD -1
REMARK  0 active torsions:
REMARK  status: ('A' for Active; 'I' for Inactive)
ROOT
ATOM      1  C   UNL d   1      -0.764   0.161  -2.580  0.00  0.00     0.172 C 
ATOM      2  N   UNL d   1      -1.494  -0.270  -1.411  0.00  0.00    -0.070 N 
ATOM      3  C1  UNL d   1      -1.083  -0.120  -0.113  0.00  0.00    -0.004 A 
ATOM      4  C2  UNL d   1      -2.055  -0.659   0.702  0.00  0.00    -0.047 A 
ATOM      5  C3  UNL d   1      -3.085  -1.150  -0.135  0.00  0.00    -0.047 A 
ATOM      6  C4  UNL d   1      -2.712  -0.897  -1.438  0.00  0.00    -0.004 A 
ENDROOT
TORSDOF 0
ENDMDL
