MODEL 1
REMARK minimizedAffinity -3.77986717
REMARK minimizedRMSD -1
REMARK  0 active torsions:
REMARK  status: ('A' for Active; 'I' for Inactive)
ROOT
ATOM      1  C   UNL d   1       1.049  -0.192   0.032  0.00  0.00     0.172 C 
ATOM      2  N   UNL d   1      -0.372  -0.446   0.007  0.00  0.00    -0.070 N 
ATOM      3  C1  UNL d   1      -1.098  -1.021   1.016  0.00  0.00    -0.004 A 
ATOM      4  C2  UNL d   1      -2.412  -1.087   0.607  0.00  0.00    -0.047 A 
ATOM      5  C3  UNL d   1      -2.478  -0.533  -0.694  0.00  0.00    -0.047 A 
ATOM      6  C4  UNL d   1      -1.201  -0.145  -1.041  0.00  0.00    -0.004 A 
ENDROOT
TORSDOF 0
ENDMDL
