MODEL 1
REMARK minimizedAffinity -3.91856456
REMARK minimizedRMSD -1
REMARK  0 active torsions:
REMARK  status: ('A' for Active; 'I' for Inactive)
ROOT
ATOM      1  C   UNL d   1       0.722   0.501   0.227  0.00  0.00     0.172 C 
ATOM      2  N   UNL d   1      -0.522   0.045  -0.347  0.00  0.00    -0.070 N 
ATOM      3  C1  UNL d   1      -0.784  -0.082  -1.685  0.00  0.00    -0.004 A 
ATOM      4  C2  UNL d   1      -2.076  -0.544  -1.820  0.00  0.00    -0.047 A 
ATOM      5  C3  UNL d   1      -2.608  -0.699  -0.518  0.00  0.00    -0.047 A 
ATOM      6  C4  UNL d   1      -1.625  -0.327   0.375  0.00  0.00    -0.004 A 
ENDROOT
TORSDOF 0
ENDMDL
