MODEL 1
REMARK minimizedAffinity -3.56097507
REMARK minimizedRMSD -1
REMARK  0 active torsions:
REMARK  status: ('A' for Active; 'I' for Inactive)
ROOT
ATOM      1  C   UNL d   1      -3.266  -0.411  -0.823  0.00  0.00     0.172 C 
ATOM      2  N   UNL d   1      -1.840  -0.222  -0.694  0.00  0.00    -0.070 N 
ATOM      3  C1  UNL d   1      -1.032  -0.841   0.222  0.00  0.00    -0.004 A 
ATOM      4  C2  UNL d   1       0.256  -0.396   0.017  0.00  0.00    -0.047 A 
ATOM      5  C3  UNL d   1       0.221   0.523  -1.058  0.00  0.00    -0.047 A 
ATOM      6  C4  UNL d   1      -1.089   0.612  -1.480  0.00  0.00    -0.004 A 
ENDROOT
TORSDOF 0
ENDMDL
