MODEL 1
REMARK minimizedAffinity -1.5660708
REMARK minimizedRMSD -1
REMARK  0 active torsions:
REMARK  status: ('A' for Active; 'I' for Inactive)
ROOT
ATOM      1  C   UNL d   1      -0.177   0.627  -1.507  0.00  0.00     0.172 C 
ATOM      2  N   UNL d   1       0.129  -0.140  -0.322  0.00  0.00    -0.070 N 
ATOM      3  C1  UNL d   1       1.370  -0.283   0.239  0.00  0.00    -0.004 A 
ATOM      4  C2  UNL d   1       1.240  -1.086   1.351  0.00  0.00    -0.047 A 
ATOM      5  C3  UNL d   1      -0.126  -1.439   1.462  0.00  0.00    -0.047 A 
ATOM      6  C4  UNL d   1      -0.791  -0.840   0.414  0.00  0.00    -0.004 A 
ENDROOT
TORSDOF 0
ENDMDL
