MODEL 1
REMARK minimizedAffinity -3.97456646
REMARK minimizedRMSD -1
REMARK  0 active torsions:
REMARK  status: ('A' for Active; 'I' for Inactive)
ROOT
ATOM      1  C   UNL d   1       1.414  -0.092   0.013  0.00  0.00     0.172 C 
ATOM      2  N   UNL d   1       0.003  -0.190  -0.277  0.00  0.00    -0.070 N 
ATOM      3  C1  UNL d   1      -0.953  -0.683   0.570  0.00  0.00    -0.004 A 
ATOM      4  C2  UNL d   1      -2.169  -0.605  -0.075  0.00  0.00    -0.047 A 
ATOM      5  C3  UNL d   1      -1.934  -0.047  -1.354  0.00  0.00    -0.047 A 
ATOM      6  C4  UNL d   1      -0.581   0.201  -1.453  0.00  0.00    -0.004 A 
ENDROOT
TORSDOF 0
ENDMDL
