MODEL 1
REMARK minimizedAffinity -3.07212305
REMARK minimizedRMSD -1
REMARK  0 active torsions:
REMARK  status: ('A' for Active; 'I' for Inactive)
ROOT
ATOM      1  C   UNL d   1       1.003   0.568   0.380  0.00  0.00     0.172 C 
ATOM      2  N   UNL d   1      -0.283   0.098  -0.079  0.00  0.00    -0.070 N 
ATOM      3  C1  UNL d   1      -1.364  -0.172   0.717  0.00  0.00    -0.004 A 
ATOM      4  C2  UNL d   1      -2.393  -0.594  -0.097  0.00  0.00    -0.047 A 
ATOM      5  C3  UNL d   1      -1.913  -0.578  -1.428  0.00  0.00    -0.047 A 
ATOM      6  C4  UNL d   1      -0.604  -0.145  -1.388  0.00  0.00    -0.004 A 
ENDROOT
TORSDOF 0
ENDMDL
