MODEL 1
REMARK minimizedAffinity -3.7558074
REMARK minimizedRMSD -1
REMARK  0 active torsions:
REMARK  status: ('A' for Active; 'I' for Inactive)
ROOT
ATOM      1  C   UNL d   1      -3.199  -0.248  -0.325  0.00  0.00     0.172 C 
ATOM      2  N   UNL d   1      -1.768  -0.102  -0.459  0.00  0.00    -0.070 N 
ATOM      3  C1  UNL d   1      -1.125   0.581  -1.457  0.00  0.00    -0.004 A 
ATOM      4  C2  UNL d   1       0.230   0.485  -1.228  0.00  0.00    -0.047 A 
ATOM      5  C3  UNL d   1       0.408  -0.284  -0.054  0.00  0.00    -0.047 A 
ATOM      6  C4  UNL d   1      -0.845  -0.635   0.402  0.00  0.00    -0.004 A 
ENDROOT
TORSDOF 0
ENDMDL
