MODEL 1
REMARK minimizedAffinity -3.03804755
REMARK minimizedRMSD -1
REMARK  0 active torsions:
REMARK  status: ('A' for Active; 'I' for Inactive)
ROOT
ATOM      1  C   UNL d   1       0.463   0.311   0.054  0.00  0.00     0.172 C 
ATOM      2  N   UNL d   1      -0.872   0.065  -0.438  0.00  0.00    -0.070 N 
ATOM      3  C1  UNL d   1      -1.769  -0.822   0.096  0.00  0.00    -0.004 A 
ATOM      4  C2  UNL d   1      -2.922  -0.760  -0.656  0.00  0.00    -0.047 A 
ATOM      5  C3  UNL d   1      -2.711   0.195  -1.678  0.00  0.00    -0.047 A 
ATOM      6  C4  UNL d   1      -1.433   0.690  -1.520  0.00  0.00    -0.004 A 
ENDROOT
TORSDOF 0
ENDMDL
