MODEL 1
REMARK minimizedAffinity -2.50385714
REMARK minimizedRMSD -1
REMARK  0 active torsions:
REMARK  status: ('A' for Active; 'I' for Inactive)
ROOT
ATOM      1  C   UNL d   1      -3.139  -1.155  -0.569  0.00  0.00     0.172 C 
ATOM      2  N   UNL d   1      -1.778  -0.872  -0.179  0.00  0.00    -0.070 N 
ATOM      3  C1  UNL d   1      -1.057  -1.560   0.760  0.00  0.00    -0.004 A 
ATOM      4  C2  UNL d   1       0.192  -0.983   0.839  0.00  0.00    -0.047 A 
ATOM      5  C3  UNL d   1       0.223   0.089  -0.084  0.00  0.00    -0.047 A 
ATOM      6  C4  UNL d   1      -1.009   0.135  -0.701  0.00  0.00    -0.004 A 
ENDROOT
TORSDOF 0
ENDMDL
