MODEL 1
REMARK minimizedAffinity -2.04575872
REMARK minimizedRMSD -1
REMARK  0 active torsions:
REMARK  status: ('A' for Active; 'I' for Inactive)
ROOT
ATOM      1  C   UNL d   1       0.766  -0.037   0.385  0.00  0.00     0.172 C 
ATOM      2  N   UNL d   1      -0.638  -0.293   0.167  0.00  0.00    -0.070 N 
ATOM      3  C1  UNL d   1      -1.523  -0.743   1.110  0.00  0.00    -0.004 A 
ATOM      4  C2  UNL d   1      -2.758  -0.858   0.510  0.00  0.00    -0.047 A 
ATOM      5  C3  UNL d   1      -2.610  -0.466  -0.842  0.00  0.00    -0.047 A 
ATOM      6  C4  UNL d   1      -1.287  -0.121  -1.027  0.00  0.00    -0.004 A 
ENDROOT
TORSDOF 0
ENDMDL
