MODEL 1
REMARK minimizedAffinity -3.78341317
REMARK minimizedRMSD -1
REMARK  0 active torsions:
REMARK  status: ('A' for Active; 'I' for Inactive)
ROOT
ATOM      1  C   UNL d   1       0.900   0.163   0.244  0.00  0.00     0.172 C 
ATOM      2  N   UNL d   1      -0.483  -0.203   0.053  0.00  0.00    -0.070 N 
ATOM      3  C1  UNL d   1      -1.212  -0.004  -1.089  0.00  0.00    -0.004 A 
ATOM      4  C2  UNL d   1      -2.483  -0.489  -0.870  0.00  0.00    -0.047 A 
ATOM      5  C3  UNL d   1      -2.520  -0.997   0.451  0.00  0.00    -0.047 A 
ATOM      6  C4  UNL d   1      -1.269  -0.807   0.999  0.00  0.00    -0.004 A 
ENDROOT
TORSDOF 0
ENDMDL
