MODEL 1
REMARK minimizedAffinity -2.18659306
REMARK minimizedRMSD -1
REMARK  0 active torsions:
REMARK  status: ('A' for Active; 'I' for Inactive)
ROOT
ATOM      1  C   UNL d   1      -0.986  -1.509   1.103  0.00  0.00     0.172 C 
ATOM      2  N   UNL d   1      -0.297  -0.625   0.192  0.00  0.00    -0.070 N 
ATOM      3  C1  UNL d   1      -0.673  -0.356  -1.096  0.00  0.00    -0.004 A 
ATOM      4  C2  UNL d   1       0.239   0.532  -1.626  0.00  0.00    -0.047 A 
ATOM      5  C3  UNL d   1       1.197   0.804  -0.620  0.00  0.00    -0.047 A 
ATOM      6  C4  UNL d   1       0.841   0.075   0.495  0.00  0.00    -0.004 A 
ENDROOT
TORSDOF 0
ENDMDL
