MODEL 1
REMARK minimizedAffinity -4.05685854
REMARK minimizedRMSD -1
REMARK  0 active torsions:
REMARK  status: ('A' for Active; 'I' for Inactive)
ROOT
ATOM      1  C   UNL d   1       0.859   0.281   0.255  0.00  0.00     0.172 C 
ATOM      2  N   UNL d   1      -0.499  -0.076  -0.079  0.00  0.00    -0.070 N 
ATOM      3  C1  UNL d   1      -1.397  -0.676   0.762  0.00  0.00    -0.004 A 
ATOM      4  C2  UNL d   1      -2.576  -0.848   0.069  0.00  0.00    -0.047 A 
ATOM      5  C3  UNL d   1      -2.379  -0.335  -1.235  0.00  0.00    -0.047 A 
ATOM      6  C4  UNL d   1      -1.085   0.137  -1.299  0.00  0.00    -0.004 A 
ENDROOT
TORSDOF 0
ENDMDL
