MODEL 1
REMARK minimizedAffinity -3.92725348
REMARK minimizedRMSD -1
REMARK  0 active torsions:
REMARK  status: ('A' for Active; 'I' for Inactive)
ROOT
ATOM      1  C   UNL d   1      -0.015   0.422  -1.367  0.00  0.00     0.172 C 
ATOM      2  N   UNL d   1      -0.808  -0.222  -0.346  0.00  0.00    -0.070 N 
ATOM      3  C1  UNL d   1      -2.149  -0.486  -0.426  0.00  0.00    -0.004 A 
ATOM      4  C2  UNL d   1      -2.528  -1.106   0.745  0.00  0.00    -0.047 A 
ATOM      5  C3  UNL d   1      -1.374  -1.218   1.557  0.00  0.00    -0.047 A 
ATOM      6  C4  UNL d   1      -0.324  -0.663   0.857  0.00  0.00    -0.004 A 
ENDROOT
TORSDOF 0
ENDMDL
