MODEL 1
REMARK minimizedAffinity -1.42946136
REMARK minimizedRMSD -1
REMARK  0 active torsions:
REMARK  status: ('A' for Active; 'I' for Inactive)
ROOT
ATOM      1  C   UNL d   1       1.833   0.720   0.750  0.00  0.00     0.172 C 
ATOM      2  N   UNL d   1       0.544   0.309   0.244  0.00  0.00    -0.070 N 
ATOM      3  C1  UNL d   1       0.075   0.533  -1.023  0.00  0.00    -0.004 A 
ATOM      4  C2  UNL d   1      -1.188  -0.012  -1.108  0.00  0.00    -0.047 A 
ATOM      5  C3  UNL d   1      -1.489  -0.582   0.152  0.00  0.00    -0.047 A 
ATOM      6  C4  UNL d   1      -0.399  -0.369   0.970  0.00  0.00    -0.004 A 
ENDROOT
TORSDOF 0
ENDMDL
