MODEL 1
REMARK minimizedAffinity -3.34542108
REMARK minimizedRMSD -1
REMARK  0 active torsions:
REMARK  status: ('A' for Active; 'I' for Inactive)
ROOT
ATOM      1  C   UNL d   1       0.144   1.134   0.658  0.00  0.00     0.172 C 
ATOM      2  N   UNL d   1      -0.947   0.346   0.134  0.00  0.00    -0.070 N 
ATOM      3  C1  UNL d   1      -2.127   0.089   0.778  0.00  0.00    -0.004 A 
ATOM      4  C2  UNL d   1      -2.899  -0.695  -0.052  0.00  0.00    -0.047 A 
ATOM      5  C3  UNL d   1      -2.156  -0.916  -1.237  0.00  0.00    -0.047 A 
ATOM      6  C4  UNL d   1      -0.952  -0.261  -1.094  0.00  0.00    -0.004 A 
ENDROOT
TORSDOF 0
ENDMDL
