MODEL 1
REMARK minimizedAffinity 3.36726451
REMARK minimizedRMSD -1
REMARK  0 active torsions:
REMARK  status: ('A' for Active; 'I' for Inactive)
ROOT
ATOM      1  C   UNL d   1      -0.756   3.019   2.218  0.00  0.00     0.078 C 
ATOM      2  C1  UNL d   1      -0.874   2.416   0.851  0.00  0.00    -0.077 A 
ATOM      3  C2  UNL d   1       0.246   2.292   0.019  0.00  0.00    -0.001 A 
ATOM      4  C3  UNL d   1       0.120   1.737  -1.256  0.00  0.00     0.003 A 
ATOM      5  C4  UNL d   1      -1.123   1.302  -1.710  0.00  0.00    -0.005 A 
ATOM      6  C5  UNL d   1      -2.243   1.423  -0.890  0.00  0.00     0.003 A 
ATOM      7  C6  UNL d   1      -2.119   1.978   0.385  0.00  0.00    -0.001 A 
ENDROOT
TORSDOF 0
ENDMDL
