MODEL 1
REMARK minimizedAffinity -0.883277178
REMARK minimizedRMSD -1
REMARK  0 active torsions:
REMARK  status: ('A' for Active; 'I' for Inactive)
ROOT
ATOM      1  C   UNL d   1       0.820  -1.136   2.296  0.00  0.00     0.078 C 
ATOM      2  C1  UNL d   1      -0.057   0.011   1.893  0.00  0.00    -0.077 A 
ATOM      3  C2  UNL d   1      -0.617   0.076   0.611  0.00  0.00    -0.001 A 
ATOM      4  C3  UNL d   1      -1.423   1.155   0.246  0.00  0.00     0.003 A 
ATOM      5  C4  UNL d   1      -1.677   2.178   1.157  0.00  0.00    -0.005 A 
ATOM      6  C5  UNL d   1      -1.123   2.124   2.434  0.00  0.00     0.003 A 
ATOM      7  C6  UNL d   1      -0.316   1.046   2.801  0.00  0.00    -0.001 A 
ENDROOT
TORSDOF 0
ENDMDL
