MODEL 1
REMARK minimizedAffinity -4.21226168
REMARK minimizedRMSD -1
REMARK  0 active torsions:
REMARK  status: ('A' for Active; 'I' for Inactive)
ROOT
ATOM      1  C   UNL d   1       0.493  -1.022  -0.019  0.00  0.00     0.078 C 
ATOM      2  C1  UNL d   1      -0.275   0.111   0.595  0.00  0.00    -0.077 A 
ATOM      3  C2  UNL d   1      -0.960   1.035  -0.205  0.00  0.00    -0.001 A 
ATOM      4  C3  UNL d   1      -1.662   2.090   0.380  0.00  0.00     0.003 A 
ATOM      5  C4  UNL d   1      -1.685   2.232   1.766  0.00  0.00    -0.005 A 
ATOM      6  C5  UNL d   1      -1.005   1.320   2.569  0.00  0.00     0.003 A 
ATOM      7  C6  UNL d   1      -0.302   0.264   1.986  0.00  0.00    -0.001 A 
ENDROOT
TORSDOF 0
ENDMDL
