MODEL 1
REMARK minimizedAffinity -4.52097893
REMARK minimizedRMSD -1
REMARK  0 active torsions:
REMARK  status: ('A' for Active; 'I' for Inactive)
ROOT
ATOM      1  C   UNL d   1      -2.077   2.084   1.556  0.00  0.00     0.078 C 
ATOM      2  C1  UNL d   1      -1.209   0.919   1.183  0.00  0.00    -0.077 A 
ATOM      3  C2  UNL d   1      -0.749   0.023   2.155  0.00  0.00    -0.001 A 
ATOM      4  C3  UNL d   1       0.066  -1.052   1.795  0.00  0.00     0.003 A 
ATOM      5  C4  UNL d   1       0.429  -1.239   0.463  0.00  0.00    -0.005 A 
ATOM      6  C5  UNL d   1      -0.023  -0.351  -0.511  0.00  0.00     0.003 A 
ATOM      7  C6  UNL d   1      -0.838   0.724  -0.153  0.00  0.00    -0.001 A 
ENDROOT
TORSDOF 0
ENDMDL
