MODEL 1
REMARK minimizedAffinity -5.31016636
REMARK minimizedRMSD -1
REMARK  0 active torsions:
REMARK  status: ('A' for Active; 'I' for Inactive)
ROOT
ATOM      1  C   UNL d   1      -2.303   1.970   1.524  0.00  0.00     0.078 C 
ATOM      2  C1  UNL d   1      -1.363   0.916   1.020  0.00  0.00    -0.077 A 
ATOM      3  C2  UNL d   1      -1.032   0.833  -0.338  0.00  0.00    -0.001 A 
ATOM      4  C3  UNL d   1      -0.163  -0.159  -0.793  0.00  0.00     0.003 A 
ATOM      5  C4  UNL d   1       0.382  -1.076   0.102  0.00  0.00    -0.005 A 
ATOM      6  C5  UNL d   1       0.058  -1.003   1.455  0.00  0.00     0.003 A 
ATOM      7  C6  UNL d   1      -0.811  -0.012   1.913  0.00  0.00    -0.001 A 
ENDROOT
TORSDOF 0
ENDMDL
