MODEL 1
REMARK minimizedAffinity -4.89950752
REMARK minimizedRMSD -1
REMARK  0 active torsions:
REMARK  status: ('A' for Active; 'I' for Inactive)
ROOT
ATOM      1  C   UNL d   1      -1.787   1.959   1.189  0.00  0.00     0.078 C 
ATOM      2  C1  UNL d   1      -0.775   1.161   0.421  0.00  0.00    -0.077 A 
ATOM      3  C2  UNL d   1      -0.254   1.632  -0.790  0.00  0.00    -0.001 A 
ATOM      4  C3  UNL d   1       0.680   0.875  -1.499  0.00  0.00     0.003 A 
ATOM      5  C4  UNL d   1       1.100  -0.359  -1.005  0.00  0.00    -0.005 A 
ATOM      6  C5  UNL d   1       0.586  -0.836   0.199  0.00  0.00     0.003 A 
ATOM      7  C6  UNL d   1      -0.349  -0.080   0.909  0.00  0.00    -0.001 A 
ENDROOT
TORSDOF 0
ENDMDL
