MODEL 1
REMARK minimizedAffinity -3.92741227
REMARK minimizedRMSD -1
REMARK  0 active torsions:
REMARK  status: ('A' for Active; 'I' for Inactive)
ROOT
ATOM      1  C   UNL d   1      -1.973   1.748   1.544  0.00  0.00     0.078 C 
ATOM      2  C1  UNL d   1      -1.166   0.851   0.653  0.00  0.00    -0.077 A 
ATOM      3  C2  UNL d   1      -0.114   1.358  -0.119  0.00  0.00    -0.001 A 
ATOM      4  C3  UNL d   1       0.622   0.514  -0.951  0.00  0.00     0.003 A 
ATOM      5  C4  UNL d   1       0.314  -0.843  -1.020  0.00  0.00    -0.005 A 
ATOM      6  C5  UNL d   1      -0.733  -1.357  -0.257  0.00  0.00     0.003 A 
ATOM      7  C6  UNL d   1      -1.471  -0.514   0.575  0.00  0.00    -0.001 A 
ENDROOT
TORSDOF 0
ENDMDL
