MODEL 1
REMARK minimizedAffinity -4.18473625
REMARK minimizedRMSD -1
REMARK  0 active torsions:
REMARK  status: ('A' for Active; 'I' for Inactive)
ROOT
ATOM      1  C   UNL d   1      -0.154   0.794  -0.279  0.00  0.00     0.078 C 
ATOM      2  C1  UNL d   1       0.307  -0.467  -0.946  0.00  0.00    -0.077 A 
ATOM      3  C2  UNL d   1       1.593  -0.973  -0.722  0.00  0.00    -0.001 A 
ATOM      4  C3  UNL d   1       2.012  -2.143  -1.358  0.00  0.00     0.003 A 
ATOM      5  C4  UNL d   1       1.152  -2.816  -2.223  0.00  0.00    -0.005 A 
ATOM      6  C5  UNL d   1      -0.129  -2.319  -2.454  0.00  0.00     0.003 A 
ATOM      7  C6  UNL d   1      -0.550  -1.149  -1.819  0.00  0.00    -0.001 A 
ENDROOT
TORSDOF 0
ENDMDL
