MODEL 1
REMARK minimizedAffinity -3.77582169
REMARK minimizedRMSD -1
REMARK  0 active torsions:
REMARK  status: ('A' for Active; 'I' for Inactive)
ROOT
ATOM      1  C   UNL d   1      -2.020   1.871   1.239  0.00  0.00     0.078 C 
ATOM      2  C1  UNL d   1      -0.905   1.265   0.441  0.00  0.00    -0.077 A 
ATOM      3  C2  UNL d   1      -0.471  -0.044   0.686  0.00  0.00    -0.001 A 
ATOM      4  C3  UNL d   1       0.575  -0.592  -0.058  0.00  0.00     0.003 A 
ATOM      5  C4  UNL d   1       1.197   0.162  -1.051  0.00  0.00    -0.005 A 
ATOM      6  C5  UNL d   1       0.774   1.466  -1.301  0.00  0.00     0.003 A 
ATOM      7  C6  UNL d   1      -0.272   2.016  -0.557  0.00  0.00    -0.001 A 
ENDROOT
TORSDOF 0
ENDMDL
