MODEL 1
REMARK minimizedAffinity -5.05478191
REMARK minimizedRMSD -1
REMARK  0 active torsions:
REMARK  status: ('A' for Active; 'I' for Inactive)
ROOT
ATOM      1  C   UNL d   1       0.643  -1.087  -0.232  0.00  0.00     0.078 C 
ATOM      2  C1  UNL d   1      -0.188  -0.077   0.501  0.00  0.00    -0.077 A 
ATOM      3  C2  UNL d   1      -0.636   1.087  -0.136  0.00  0.00    -0.001 A 
ATOM      4  C3  UNL d   1      -1.401   2.024   0.562  0.00  0.00     0.003 A 
ATOM      5  C4  UNL d   1      -1.724   1.807   1.900  0.00  0.00    -0.005 A 
ATOM      6  C5  UNL d   1      -1.281   0.652   2.542  0.00  0.00     0.003 A 
ATOM      7  C6  UNL d   1      -0.516  -0.285   1.847  0.00  0.00    -0.001 A 
ENDROOT
TORSDOF 0
ENDMDL
