MODEL 1
REMARK minimizedAffinity -5.46893883
REMARK minimizedRMSD -1
REMARK  0 active torsions:
REMARK  status: ('A' for Active; 'I' for Inactive)
ROOT
ATOM      1  C   UNL d   1       0.955  -1.184  -0.765  0.00  0.00     0.078 C 
ATOM      2  C1  UNL d   1       0.005  -0.292  -0.023  0.00  0.00    -0.077 A 
ATOM      3  C2  UNL d   1      -0.574   0.820  -0.645  0.00  0.00    -0.001 A 
ATOM      4  C3  UNL d   1      -1.449   1.648   0.061  0.00  0.00     0.003 A 
ATOM      5  C4  UNL d   1      -1.752   1.372   1.392  0.00  0.00    -0.005 A 
ATOM      6  C5  UNL d   1      -1.179   0.268   2.020  0.00  0.00     0.003 A 
ATOM      7  C6  UNL d   1      -0.304  -0.561   1.316  0.00  0.00    -0.001 A 
ENDROOT
TORSDOF 0
ENDMDL
