MODEL 1
REMARK minimizedAffinity -5.60371447
REMARK minimizedRMSD -1
REMARK  0 active torsions:
REMARK  status: ('A' for Active; 'I' for Inactive)
ROOT
ATOM      1  C   UNL d   1      -2.328   2.689   1.476  0.00  0.00     0.078 C 
ATOM      2  C1  UNL d   1      -1.441   1.515   1.187  0.00  0.00    -0.077 A 
ATOM      3  C2  UNL d   1      -0.954   1.279  -0.104  0.00  0.00    -0.001 A 
ATOM      4  C3  UNL d   1      -0.137   0.177  -0.361  0.00  0.00     0.003 A 
ATOM      5  C4  UNL d   1       0.200  -0.699   0.669  0.00  0.00    -0.005 A 
ATOM      6  C5  UNL d   1      -0.281  -0.474   1.958  0.00  0.00     0.003 A 
ATOM      7  C6  UNL d   1      -1.099   0.628   2.216  0.00  0.00    -0.001 A 
ENDROOT
TORSDOF 0
ENDMDL
