MODEL 1
REMARK minimizedAffinity -5.34507465
REMARK minimizedRMSD -1
REMARK  0 active torsions:
REMARK  status: ('A' for Active; 'I' for Inactive)
ROOT
ATOM      1  C   UNL d   1       0.915  -1.133  -0.793  0.00  0.00     0.078 C 
ATOM      2  C1  UNL d   1       0.096  -0.303   0.150  0.00  0.00    -0.077 A 
ATOM      3  C2  UNL d   1      -0.031  -0.658   1.498  0.00  0.00    -0.001 A 
ATOM      4  C3  UNL d   1      -0.805   0.118   2.363  0.00  0.00     0.003 A 
ATOM      5  C4  UNL d   1      -1.459   1.252   1.888  0.00  0.00    -0.005 A 
ATOM      6  C5  UNL d   1      -1.342   1.612   0.547  0.00  0.00     0.003 A 
ATOM      7  C6  UNL d   1      -0.568   0.837  -0.319  0.00  0.00    -0.001 A 
ENDROOT
TORSDOF 0
ENDMDL
