MODEL 1
REMARK minimizedAffinity -1.65826488
REMARK minimizedRMSD -1
REMARK  0 active torsions:
REMARK  status: ('A' for Active; 'I' for Inactive)
ROOT
ATOM      1  C   UNL d   1       0.703  -0.059  -0.803  0.00  0.00     0.078 C 
ATOM      2  C1  UNL d   1       0.793  -1.478  -1.282  0.00  0.00    -0.077 A 
ATOM      3  C2  UNL d   1       1.383  -2.470  -0.490  0.00  0.00    -0.001 A 
ATOM      4  C3  UNL d   1       1.469  -3.784  -0.952  0.00  0.00     0.003 A 
ATOM      5  C4  UNL d   1       0.969  -4.117  -2.210  0.00  0.00    -0.005 A 
ATOM      6  C5  UNL d   1       0.383  -3.136  -3.006  0.00  0.00     0.003 A 
ATOM      7  C6  UNL d   1       0.296  -1.821  -2.545  0.00  0.00    -0.001 A 
ENDROOT
TORSDOF 0
ENDMDL
