MODEL 1
REMARK minimizedAffinity -3.52163601
REMARK minimizedRMSD -1
REMARK  1 active torsions:
REMARK  status: ('A' for Active; 'I' for Inactive)
REMARK    1  A    between atoms: C1_2  and  C2_3 
ROOT
ATOM      1  C2  UNL d   1       0.667  -0.689  -0.739  0.00  0.00    -0.076 A 
ATOM      2  C3  UNL d   1       0.371  -2.032  -0.447  0.00  0.00     0.004 A 
ATOM      3  C4  UNL d   1       1.223  -3.059  -0.852  0.00  0.00    -0.003 A 
ATOM      4  C5  UNL d   1       2.385  -2.759  -1.554  0.00  0.00     0.000 A 
ATOM      5  C6  UNL d   1       2.704  -1.431  -1.836  0.00  0.00     0.000 A 
ATOM      6  C7  UNL d   1       1.864  -0.383  -1.421  0.00  0.00    -0.073 A 
ATOM      7  C8  UNL d   1       2.253   1.031  -1.758  0.00  0.00     0.078 C 
ENDROOT
BRANCH   1   8
ATOM      8  C1  UNL d   1      -0.307   0.379  -0.298  0.00  0.00     0.053 C 
ATOM      9  C   UNL d   1      -0.781   0.182   1.134  0.00  0.00     0.018 C 
ENDBRANCH   1   8
TORSDOF 1
ENDMDL
