MODEL 1
REMARK minimizedAffinity -2.43777132
REMARK minimizedRMSD -1
REMARK  1 active torsions:
REMARK  status: ('A' for Active; 'I' for Inactive)
REMARK    1  A    between atoms: C1_2  and  C2_3 
ROOT
ATOM      1  C2  UNL d   1      -1.400   0.921   0.059  0.00  0.00    -0.076 A 
ATOM      2  C3  UNL d   1      -2.622   1.445  -0.398  0.00  0.00     0.004 A 
ATOM      3  C4  UNL d   1      -3.783   1.328   0.365  0.00  0.00    -0.003 A 
ATOM      4  C5  UNL d   1      -3.740   0.686   1.598  0.00  0.00     0.000 A 
ATOM      5  C6  UNL d   1      -2.533   0.177   2.075  0.00  0.00     0.000 A 
ATOM      6  C7  UNL d   1      -1.350   0.301   1.325  0.00  0.00    -0.073 A 
ATOM      7  C8  UNL d   1      -0.078  -0.273   1.886  0.00  0.00     0.078 C 
ENDROOT
BRANCH   1   8
ATOM      8  C1  UNL d   1      -0.180   1.054  -0.824  0.00  0.00     0.053 C 
ATOM      9  C   UNL d   1       0.769   2.143  -0.347  0.00  0.00     0.018 C 
ENDBRANCH   1   8
TORSDOF 1
ENDMDL
