MODEL 1
REMARK minimizedAffinity -1.60098267
REMARK minimizedRMSD -1
REMARK  1 active torsions:
REMARK  status: ('A' for Active; 'I' for Inactive)
REMARK    1  A    between atoms: C1_2  and  C2_3 
ROOT
ATOM      1  C2  UNL d   1      -1.146   0.580   1.384  0.00  0.00    -0.076 A 
ATOM      2  C3  UNL d   1      -2.084   1.495   1.892  0.00  0.00     0.004 A 
ATOM      3  C4  UNL d   1      -3.435   1.163   1.981  0.00  0.00    -0.003 A 
ATOM      4  C5  UNL d   1      -3.870  -0.091   1.564  0.00  0.00     0.000 A 
ATOM      5  C6  UNL d   1      -2.950  -1.017   1.074  0.00  0.00     0.000 A 
ATOM      6  C7  UNL d   1      -1.582  -0.704   0.993  0.00  0.00    -0.073 A 
ATOM      7  C8  UNL d   1      -0.635  -1.740   0.451  0.00  0.00     0.078 C 
ENDROOT
BRANCH   1   8
ATOM      8  C1  UNL d   1       0.301   1.005   1.286  0.00  0.00     0.053 C 
ATOM      9  C   UNL d   1       0.635   1.630  -0.059  0.00  0.00     0.018 C 
ENDBRANCH   1   8
TORSDOF 1
ENDMDL
