MODEL 1
REMARK minimizedAffinity -2.23936176
REMARK minimizedRMSD -1
REMARK  1 active torsions:
REMARK  status: ('A' for Active; 'I' for Inactive)
REMARK    1  A    between atoms: C1_2  and  C2_3 
ROOT
ATOM      1  C2  UNL d   1      -0.076  -0.185   0.060  0.00  0.00    -0.076 A 
ATOM      2  C3  UNL d   1       0.240   1.174  -0.110  0.00  0.00     0.004 A 
ATOM      3  C4  UNL d   1       1.296   1.568  -0.930  0.00  0.00    -0.003 A 
ATOM      4  C5  UNL d   1       2.054   0.609  -1.593  0.00  0.00     0.000 A 
ATOM      5  C6  UNL d   1       1.744  -0.743  -1.449  0.00  0.00     0.000 A 
ATOM      6  C7  UNL d   1       0.672  -1.156  -0.639  0.00  0.00    -0.073 A 
ATOM      7  C8  UNL d   1       0.386  -2.628  -0.515  0.00  0.00     0.078 C 
ENDROOT
BRANCH   1   8
ATOM      8  C1  UNL d   1      -1.215  -0.554   0.983  0.00  0.00     0.053 C 
ATOM      9  C   UNL d   1      -2.470   0.262   0.714  0.00  0.00     0.018 C 
ENDBRANCH   1   8
TORSDOF 1
ENDMDL
