MODEL 1
REMARK minimizedAffinity -5.23267031
REMARK minimizedRMSD -1
REMARK  1 active torsions:
REMARK  status: ('A' for Active; 'I' for Inactive)
REMARK    1  A    between atoms: C1_2  and  C2_3 
ROOT
ATOM      1  C2  UNL d   1       0.950  -0.057  -0.338  0.00  0.00    -0.076 A 
ATOM      2  C3  UNL d   1       1.328   1.031  -1.144  0.00  0.00     0.004 A 
ATOM      3  C4  UNL d   1       1.791   0.834  -2.444  0.00  0.00    -0.003 A 
ATOM      4  C5  UNL d   1       1.883  -0.454  -2.960  0.00  0.00     0.000 A 
ATOM      5  C6  UNL d   1       1.496  -1.543  -2.181  0.00  0.00     0.000 A 
ATOM      6  C7  UNL d   1       1.011  -1.361  -0.874  0.00  0.00    -0.073 A 
ATOM      7  C8  UNL d   1       0.614  -2.573  -0.076  0.00  0.00     0.078 C 
ENDROOT
BRANCH   1   8
ATOM      8  C1  UNL d   1       0.482   0.215   1.073  0.00  0.00     0.053 C 
ATOM      9  C   UNL d   1      -1.016   0.469   1.151  0.00  0.00     0.018 C 
ENDBRANCH   1   8
TORSDOF 1
ENDMDL
