MODEL 1
REMARK minimizedAffinity -2.38180995
REMARK minimizedRMSD -1
REMARK  1 active torsions:
REMARK  status: ('A' for Active; 'I' for Inactive)
REMARK    1  A    between atoms: C1_2  and  C2_3 
ROOT
ATOM      1  C2  UNL d   1       0.866  -0.676  -0.492  0.00  0.00    -0.076 A 
ATOM      2  C3  UNL d   1       0.894  -2.077  -0.375  0.00  0.00     0.004 A 
ATOM      3  C4  UNL d   1       1.872  -2.832  -1.020  0.00  0.00    -0.003 A 
ATOM      4  C5  UNL d   1       2.839  -2.198  -1.792  0.00  0.00     0.000 A 
ATOM      5  C6  UNL d   1       2.838  -0.808  -1.905  0.00  0.00     0.000 A 
ATOM      6  C7  UNL d   1       1.868  -0.031  -1.248  0.00  0.00    -0.073 A 
ATOM      7  C8  UNL d   1       1.910   1.464  -1.409  0.00  0.00     0.078 C 
ENDROOT
BRANCH   1   8
ATOM      8  C1  UNL d   1      -0.235   0.087   0.208  0.00  0.00     0.053 C 
ATOM      9  C   UNL d   1      -0.132   0.001   1.723  0.00  0.00     0.018 C 
ENDBRANCH   1   8
TORSDOF 1
ENDMDL
