MODEL 1
REMARK minimizedAffinity -1.75461328
REMARK minimizedRMSD -1
REMARK  1 active torsions:
REMARK  status: ('A' for Active; 'I' for Inactive)
REMARK    1  A    between atoms: C1_2  and  C2_3 
ROOT
ATOM      1  C2  UNL d   1       0.054   0.133   0.281  0.00  0.00    -0.076 A 
ATOM      2  C3  UNL d   1       0.290   1.362  -0.359  0.00  0.00     0.004 A 
ATOM      3  C4  UNL d   1       1.059   1.430  -1.520  0.00  0.00    -0.003 A 
ATOM      4  C5  UNL d   1       1.604   0.270  -2.060  0.00  0.00     0.000 A 
ATOM      5  C6  UNL d   1       1.365  -0.960  -1.447  0.00  0.00     0.000 A 
ATOM      6  C7  UNL d   1       0.579  -1.048  -0.286  0.00  0.00    -0.073 A 
ATOM      7  C8  UNL d   1       0.359  -2.400   0.336  0.00  0.00     0.078 C 
ENDROOT
BRANCH   1   8
ATOM      8  C1  UNL d   1      -0.765   0.124   1.552  0.00  0.00     0.053 C 
ATOM      9  C   UNL d   1      -2.256   0.259   1.286  0.00  0.00     0.018 C 
ENDBRANCH   1   8
TORSDOF 1
ENDMDL
