MODEL 1
REMARK minimizedAffinity -0.478380114
REMARK minimizedRMSD -1
REMARK  1 active torsions:
REMARK  status: ('A' for Active; 'I' for Inactive)
REMARK    1  A    between atoms: C1_2  and  C2_3 
ROOT
ATOM      1  C2  UNL d   1       0.381  -0.233  -0.039  0.00  0.00    -0.076 A 
ATOM      2  C3  UNL d   1      -0.330  -1.192   0.704  0.00  0.00     0.004 A 
ATOM      3  C4  UNL d   1      -0.115  -2.555   0.509  0.00  0.00    -0.003 A 
ATOM      4  C5  UNL d   1       0.816  -2.982  -0.431  0.00  0.00     0.000 A 
ATOM      5  C6  UNL d   1       1.544  -2.045  -1.164  0.00  0.00     0.000 A 
ATOM      6  C7  UNL d   1       1.350  -0.667  -0.969  0.00  0.00    -0.073 A 
ATOM      7  C8  UNL d   1       2.157   0.299  -1.792  0.00  0.00     0.078 C 
ENDROOT
BRANCH   1   8
ATOM      8  C1  UNL d   1       0.085   1.231   0.195  0.00  0.00     0.053 C 
ATOM      9  C   UNL d   1       0.994   1.848   1.247  0.00  0.00     0.018 C 
ENDBRANCH   1   8
TORSDOF 1
ENDMDL
