MODEL 1
REMARK minimizedAffinity -5.02961349
REMARK minimizedRMSD -1
REMARK  1 active torsions:
REMARK  status: ('A' for Active; 'I' for Inactive)
REMARK    1  A    between atoms: C1_2  and  C2_3 
ROOT
ATOM      1  C2  UNL d   1       0.262   0.179   0.052  0.00  0.00    -0.076 A 
ATOM      2  C3  UNL d   1      -0.166  -0.544  -1.075  0.00  0.00     0.004 A 
ATOM      3  C4  UNL d   1       0.416  -0.337  -2.324  0.00  0.00    -0.003 A 
ATOM      4  C5  UNL d   1       1.437   0.597  -2.467  0.00  0.00     0.000 A 
ATOM      5  C6  UNL d   1       1.886   1.311  -1.357  0.00  0.00     0.000 A 
ATOM      6  C7  UNL d   1       1.321   1.102  -0.087  0.00  0.00    -0.073 A 
ATOM      7  C8  UNL d   1       1.840   1.904   1.075  0.00  0.00     0.078 C 
ENDROOT
BRANCH   1   8
ATOM      8  C1  UNL d   1      -0.426  -0.068   1.375  0.00  0.00     0.053 C 
ATOM      9  C   UNL d   1      -1.941  -0.077   1.252  0.00  0.00     0.018 C 
ENDBRANCH   1   8
TORSDOF 1
ENDMDL
