MODEL 1
REMARK minimizedAffinity -3.24876523
REMARK minimizedRMSD -1
REMARK  1 active torsions:
REMARK  status: ('A' for Active; 'I' for Inactive)
REMARK    1  A    between atoms: C1_2  and  C2_3 
ROOT
ATOM      1  C2  UNL d   1      -0.492   0.118   0.995  0.00  0.00    -0.076 A 
ATOM      2  C3  UNL d   1      -0.217   1.312   0.306  0.00  0.00     0.004 A 
ATOM      3  C4  UNL d   1       0.701   1.341  -0.742  0.00  0.00    -0.003 A 
ATOM      4  C5  UNL d   1       1.359   0.175  -1.120  0.00  0.00     0.000 A 
ATOM      5  C6  UNL d   1       1.085  -1.022  -0.459  0.00  0.00     0.000 A 
ATOM      6  C7  UNL d   1       0.150  -1.072   0.589  0.00  0.00    -0.073 A 
ATOM      7  C8  UNL d   1      -0.102  -2.389   1.270  0.00  0.00     0.078 C 
ENDROOT
BRANCH   1   8
ATOM      8  C1  UNL d   1      -1.477   0.154   2.141  0.00  0.00     0.053 C 
ATOM      9  C   UNL d   1      -2.922   0.150   1.668  0.00  0.00     0.018 C 
ENDBRANCH   1   8
TORSDOF 1
ENDMDL
