MODEL 1
REMARK minimizedAffinity -2.8291111
REMARK minimizedRMSD -1
REMARK  1 active torsions:
REMARK  status: ('A' for Active; 'I' for Inactive)
REMARK    1  A    between atoms: C1_2  and  C2_3 
ROOT
ATOM      1  C2  UNL d   1      -1.213   0.391   0.543  0.00  0.00    -0.076 A 
ATOM      2  C3  UNL d   1      -2.175   1.259  -0.002  0.00  0.00     0.004 A 
ATOM      3  C4  UNL d   1      -3.463   1.326   0.527  0.00  0.00    -0.003 A 
ATOM      4  C5  UNL d   1      -3.810   0.525   1.609  0.00  0.00     0.000 A 
ATOM      5  C6  UNL d   1      -2.864  -0.330   2.173  0.00  0.00     0.000 A 
ATOM      6  C7  UNL d   1      -1.556  -0.397   1.663  0.00  0.00    -0.073 A 
ATOM      7  C8  UNL d   1      -0.578  -1.341   2.306  0.00  0.00     0.078 C 
ENDROOT
BRANCH   1   8
ATOM      8  C1  UNL d   1       0.159   0.342  -0.089  0.00  0.00     0.053 C 
ATOM      9  C   UNL d   1       0.357   1.425  -1.138  0.00  0.00     0.018 C 
ENDBRANCH   1   8
TORSDOF 1
ENDMDL
