MODEL 1
REMARK minimizedAffinity -2.97880459
REMARK minimizedRMSD -1
REMARK  1 active torsions:
REMARK  status: ('A' for Active; 'I' for Inactive)
REMARK    1  A    between atoms: C1_2  and  C2_3 
ROOT
ATOM      1  C2  UNL d   1       0.668   0.421   0.098  0.00  0.00    -0.076 A 
ATOM      2  C3  UNL d   1      -0.276  -0.184   0.946  0.00  0.00     0.004 A 
ATOM      3  C4  UNL d   1      -0.336  -1.570   1.079  0.00  0.00    -0.003 A 
ATOM      4  C5  UNL d   1       0.548  -2.374   0.368  0.00  0.00     0.000 A 
ATOM      5  C6  UNL d   1       1.503  -1.790  -0.464  0.00  0.00     0.000 A 
ATOM      6  C7  UNL d   1       1.587  -0.393  -0.597  0.00  0.00    -0.073 A 
ATOM      7  C8  UNL d   1       2.632   0.183  -1.513  0.00  0.00     0.078 C 
ENDROOT
BRANCH   1   8
ATOM      8  C1  UNL d   1       0.667   1.928  -0.027  0.00  0.00     0.053 C 
ATOM      9  C   UNL d   1       1.007   2.622   1.283  0.00  0.00     0.018 C 
ENDBRANCH   1   8
TORSDOF 1
ENDMDL
