MODEL 1
REMARK minimizedAffinity -2.2162683
REMARK minimizedRMSD -1
REMARK  1 active torsions:
REMARK  status: ('A' for Active; 'I' for Inactive)
REMARK    1  A    between atoms: C1_2  and  C2_3 
ROOT
ATOM      1  C2  UNL d   1       1.089  -0.916  -0.360  0.00  0.00    -0.076 A 
ATOM      2  C3  UNL d   1       0.317  -0.384   0.687  0.00  0.00     0.004 A 
ATOM      3  C4  UNL d   1       0.350   0.977   0.983  0.00  0.00    -0.003 A 
ATOM      4  C5  UNL d   1       1.155   1.830   0.235  0.00  0.00     0.000 A 
ATOM      5  C6  UNL d   1       1.914   1.322  -0.819  0.00  0.00     0.000 A 
ATOM      6  C7  UNL d   1       1.880  -0.046  -1.140  0.00  0.00    -0.073 A 
ATOM      7  C8  UNL d   1       2.723  -0.540  -2.284  0.00  0.00     0.078 C 
ENDROOT
BRANCH   1   8
ATOM      8  C1  UNL d   1       1.033  -2.405  -0.617  0.00  0.00     0.053 C 
ATOM      9  C   UNL d   1       0.294  -3.158   0.478  0.00  0.00     0.018 C 
ENDBRANCH   1   8
TORSDOF 1
ENDMDL
