MODEL 1
REMARK minimizedAffinity -3.61609674
REMARK minimizedRMSD -1
REMARK  0 active torsions:
REMARK  status: ('A' for Active; 'I' for Inactive)
ROOT
ATOM      1  C4' PXY d   1       5.991   4.095  -4.500  0.00  0.00     0.077 C 
ATOM      2  C1' PXY d   1       0.614   5.860  -5.679  0.00  0.00     0.077 C 
ATOM      3  C1  PXY d   1       2.028   5.401  -5.381  0.00  0.00    -0.082 A 
ATOM      4  C2  PXY d   1       2.230   4.424  -4.512  0.00  0.00     0.003 A 
ATOM      5  C3  PXY d   1       3.504   4.019  -4.208  0.00  0.00     0.003 A 
ATOM      6  C4  PXY d   1       4.580   4.583  -4.838  0.00  0.00    -0.082 A 
ATOM      7  C5  PXY d   1       4.381   5.574  -5.734  0.00  0.00     0.003 A 
ATOM      8  C6  PXY d   1       3.083   5.999  -5.999  0.00  0.00     0.003 A 
ENDROOT
TORSDOF 0
ENDMDL
