MODEL 1
REMARK minimizedAffinity -1.55913544
REMARK minimizedRMSD -1
REMARK  0 active torsions:
REMARK  status: ('A' for Active; 'I' for Inactive)
ROOT
ATOM      1  C4' PXY d   1       6.000   3.607  -4.651  0.00  0.00     0.077 C 
ATOM      2  C1' PXY d   1       0.857   5.995  -5.777  0.00  0.00     0.077 C 
ATOM      3  C1  PXY d   1       2.211   5.375  -5.492  0.00  0.00    -0.082 A 
ATOM      4  C2  PXY d   1       2.284   4.261  -4.782  0.00  0.00     0.003 A 
ATOM      5  C3  PXY d   1       3.502   3.704  -4.488  0.00  0.00     0.003 A 
ATOM      6  C4  PXY d   1       4.654   4.264  -4.971  0.00  0.00    -0.082 A 
ATOM      7  C5  PXY d   1       4.588   5.394  -5.705  0.00  0.00     0.003 A 
ATOM      8  C6  PXY d   1       3.344   5.966  -5.958  0.00  0.00     0.003 A 
ENDROOT
TORSDOF 0
ENDMDL
