MODEL 1
REMARK minimizedAffinity 0.467624873
REMARK minimizedRMSD -1
REMARK  0 active torsions:
REMARK  status: ('A' for Active; 'I' for Inactive)
ROOT
ATOM      1  C4' PXY d   1      -1.365   6.000  -3.310  0.00  0.00     0.077 C 
ATOM      2  C1' PXY d   1       3.797   5.973  -5.913  0.00  0.00     0.077 C 
ATOM      3  C1  PXY d   1       2.438   5.986  -5.241  0.00  0.00    -0.082 A 
ATOM      4  C2  PXY d   1       2.361   5.993  -3.920  0.00  0.00     0.003 A 
ATOM      5  C3  PXY d   1       1.141   5.972  -3.296  0.00  0.00     0.003 A 
ATOM      6  C4  PXY d   1      -0.014   5.997  -4.031  0.00  0.00    -0.082 A 
ATOM      7  C5  PXY d   1       0.056   6.000  -5.379  0.00  0.00     0.003 A 
ATOM      8  C6  PXY d   1       1.304   5.980  -5.994  0.00  0.00     0.003 A 
ENDROOT
TORSDOF 0
ENDMDL
