MODEL 1
REMARK minimizedAffinity -0.143178985
REMARK minimizedRMSD -1
REMARK  0 active torsions:
REMARK  status: ('A' for Active; 'I' for Inactive)
ROOT
ATOM      1  C4' PXY d   1      -3.350   5.998  -2.112  0.00  0.00     0.077 C 
ATOM      2  C1' PXY d   1       1.099   5.969  -5.803  0.00  0.00     0.077 C 
ATOM      3  C1  PXY d   1      -0.060   5.972  -4.826  0.00  0.00    -0.082 A 
ATOM      4  C2  PXY d   1      -1.301   5.960  -5.283  0.00  0.00     0.003 A 
ATOM      5  C3  PXY d   1      -2.361   5.994  -4.414  0.00  0.00     0.003 A 
ATOM      6  C4  PXY d   1      -2.149   5.987  -3.062  0.00  0.00    -0.082 A 
ATOM      7  C5  PXY d   1      -0.885   5.989  -2.587  0.00  0.00     0.003 A 
ATOM      8  C6  PXY d   1       0.177   5.995  -3.486  0.00  0.00     0.003 A 
ENDROOT
TORSDOF 0
ENDMDL
