MODEL 1
REMARK minimizedAffinity 1.1701448
REMARK minimizedRMSD -1
REMARK  0 active torsions:
REMARK  status: ('A' for Active; 'I' for Inactive)
ROOT
ATOM      1  C4' PXY d   1       3.697   5.986  -4.486  0.00  0.00     0.077 C 
ATOM      2  C1' PXY d   1      -2.078   5.990  -4.724  0.00  0.00     0.077 C 
ATOM      3  C1  PXY d   1      -0.563   5.984  -4.674  0.00  0.00    -0.082 A 
ATOM      4  C2  PXY d   1       0.052   5.972  -3.503  0.00  0.00     0.003 A 
ATOM      5  C3  PXY d   1       1.422   5.999  -3.438  0.00  0.00     0.003 A 
ATOM      6  C4  PXY d   1       2.170   5.983  -4.585  0.00  0.00    -0.082 A 
ATOM      7  C5  PXY d   1       1.549   5.984  -5.784  0.00  0.00     0.003 A 
ATOM      8  C6  PXY d   1       0.158   5.999  -5.828  0.00  0.00     0.003 A 
ENDROOT
TORSDOF 0
ENDMDL
