MODEL 1
REMARK minimizedAffinity 8.56063461
REMARK minimizedRMSD -1
REMARK  0 active torsions:
REMARK  status: ('A' for Active; 'I' for Inactive)
ROOT
ATOM      1  C4' PXY d   1       5.993   6.000  -5.905  0.00  0.00     0.077 C 
ATOM      2  C1' PXY d   1       0.811   3.908  -4.427  0.00  0.00     0.077 C 
ATOM      3  C1  PXY d   1       2.175   4.452  -4.804  0.00  0.00    -0.082 A 
ATOM      4  C2  PXY d   1       2.263   5.494  -5.614  0.00  0.00     0.003 A 
ATOM      5  C3  PXY d   1       3.489   5.978  -5.991  0.00  0.00     0.003 A 
ATOM      6  C4  PXY d   1       4.636   5.423  -5.490  0.00  0.00    -0.082 A 
ATOM      7  C5  PXY d   1       4.555   4.367  -4.654  0.00  0.00     0.003 A 
ATOM      8  C6  PXY d   1       3.301   3.864  -4.317  0.00  0.00     0.003 A 
ENDROOT
TORSDOF 0
ENDMDL
