MODEL 1
REMARK minimizedAffinity 3.30015969
REMARK minimizedRMSD -1
REMARK  0 active torsions:
REMARK  status: ('A' for Active; 'I' for Inactive)
ROOT
ATOM      1  C4' PXY d   1      -0.615   3.712  -4.271  0.00  0.00     0.077 C 
ATOM      2  C1' PXY d   1       4.405   6.000  -6.000  0.00  0.00     0.077 C 
ATOM      3  C1  PXY d   1       3.094   5.388  -5.544  0.00  0.00    -0.082 A 
ATOM      4  C2  PXY d   1       1.951   5.908  -5.960  0.00  0.00     0.003 A 
ATOM      5  C3  PXY d   1       0.756   5.388  -5.533  0.00  0.00     0.003 A 
ATOM      6  C4  PXY d   1       0.732   4.291  -4.713  0.00  0.00    -0.082 A 
ATOM      7  C5  PXY d   1       1.895   3.749  -4.293  0.00  0.00     0.003 A 
ATOM      8  C6  PXY d   1       3.096   4.317  -4.705  0.00  0.00     0.003 A 
ENDROOT
TORSDOF 0
ENDMDL
