MODEL 1
REMARK minimizedAffinity 4.86911678
REMARK minimizedRMSD -1
REMARK  0 active torsions:
REMARK  status: ('A' for Active; 'I' for Inactive)
ROOT
ATOM      1  C4' PXY d   1       0.958   0.464   2.594  0.00  0.00     0.077 C 
ATOM      2  C1' PXY d   1       1.524   2.525  -2.777  0.00  0.00     0.077 C 
ATOM      3  C1  PXY d   1       1.370   1.973  -1.374  0.00  0.00    -0.082 A 
ATOM      4  C2  PXY d   1       1.293   2.806  -0.348  0.00  0.00     0.003 A 
ATOM      5  C3  PXY d   1       1.186   2.324   0.931  0.00  0.00     0.003 A 
ATOM      6  C4  PXY d   1       1.104   0.976   1.158  0.00  0.00    -0.082 A 
ATOM      7  C5  PXY d   1       1.171   0.120   0.116  0.00  0.00     0.003 A 
ATOM      8  C6  PXY d   1       1.321   0.629  -1.170  0.00  0.00     0.003 A 
ENDROOT
TORSDOF 0
ENDMDL
