MODEL 1
REMARK minimizedAffinity 10.3504677
REMARK minimizedRMSD -1
REMARK  0 active torsions:
REMARK  status: ('A' for Active; 'I' for Inactive)
ROOT
ATOM      1  C4' PXY d   1       2.105   2.314  -2.436  0.00  0.00     0.077 C 
ATOM      2  C1' PXY d   1      -0.445   0.727   2.503  0.00  0.00     0.077 C 
ATOM      3  C1  PXY d   1       0.219   1.156   1.209  0.00  0.00    -0.082 A 
ATOM      4  C2  PXY d   1       0.522   0.246   0.297  0.00  0.00     0.003 A 
ATOM      5  C3  PXY d   1       1.151   0.612  -0.865  0.00  0.00     0.003 A 
ATOM      6  C4  PXY d   1       1.426   1.929  -1.119  0.00  0.00    -0.082 A 
ATOM      7  C5  PXY d   1       1.110   2.864  -0.198  0.00  0.00     0.003 A 
ATOM      8  C6  PXY d   1       0.509   2.467   0.992  0.00  0.00     0.003 A 
ENDROOT
TORSDOF 0
ENDMDL
