MODEL 1
REMARK minimizedAffinity 3.45899868
REMARK minimizedRMSD -1
REMARK  0 active torsions:
REMARK  status: ('A' for Active; 'I' for Inactive)
ROOT
ATOM      1  C4' PXY d   1      -2.992   5.717  -3.011  0.00  0.00     0.077 C 
ATOM      2  C1' PXY d   1       2.069   5.997  -5.790  0.00  0.00     0.077 C 
ATOM      3  C1  PXY d   1       0.748   5.918  -5.051  0.00  0.00    -0.082 A 
ATOM      4  C2  PXY d   1      -0.384   5.877  -5.736  0.00  0.00     0.003 A 
ATOM      5  C3  PXY d   1      -1.589   5.838  -5.083  0.00  0.00     0.003 A 
ATOM      6  C4  PXY d   1      -1.634   5.787  -3.715  0.00  0.00    -0.082 A 
ATOM      7  C5  PXY d   1      -0.484   5.818  -3.010  0.00  0.00     0.003 A 
ATOM      8  C6  PXY d   1       0.727   5.899  -3.690  0.00  0.00     0.003 A 
ENDROOT
TORSDOF 0
ENDMDL
