MODEL 1
REMARK minimizedAffinity 1.54424191
REMARK minimizedRMSD -1
REMARK  0 active torsions:
REMARK  status: ('A' for Active; 'I' for Inactive)
ROOT
ATOM      1  C4' PXY d   1       4.349   2.390   0.701  0.00  0.00     0.077 C 
ATOM      2  C1' PXY d   1      -1.188   0.870   1.371  0.00  0.00     0.077 C 
ATOM      3  C1  PXY d   1       0.261   1.275   1.185  0.00  0.00    -0.082 A 
ATOM      4  C2  PXY d   1       1.220   0.541   1.724  0.00  0.00     0.003 A 
ATOM      5  C3  PXY d   1       2.534   0.910   1.592  0.00  0.00     0.003 A 
ATOM      6  C4  PXY d   1       2.873   2.014   0.856  0.00  0.00    -0.082 A 
ATOM      7  C5  PXY d   1       1.901   2.763   0.294  0.00  0.00     0.003 A 
ATOM      8  C6  PXY d   1       0.571   2.394   0.474  0.00  0.00     0.003 A 
ENDROOT
TORSDOF 0
ENDMDL
