MODEL 1
REMARK minimizedAffinity 2.01762962
REMARK minimizedRMSD -1
REMARK  0 active torsions:
REMARK  status: ('A' for Active; 'I' for Inactive)
ROOT
ATOM      1  C4' PXY d   1      -5.474   5.998  -4.322  0.00  0.00     0.077 C 
ATOM      2  C1' PXY d   1      -0.499   5.978  -1.378  0.00  0.00     0.077 C 
ATOM      3  C1  PXY d   1      -1.797   5.988  -2.161  0.00  0.00    -0.082 A 
ATOM      4  C2  PXY d   1      -2.951   5.997  -1.513  0.00  0.00     0.003 A 
ATOM      5  C3  PXY d   1      -4.135   5.975  -2.205  0.00  0.00     0.003 A 
ATOM      6  C4  PXY d   1      -4.138   5.997  -3.574  0.00  0.00    -0.082 A 
ATOM      7  C5  PXY d   1      -2.965   5.998  -4.242  0.00  0.00     0.003 A 
ATOM      8  C6  PXY d   1      -1.774   5.980  -3.521  0.00  0.00     0.003 A 
ENDROOT
TORSDOF 0
ENDMDL
