MODEL 1
REMARK minimizedAffinity -3.89550471
REMARK minimizedRMSD -1
REMARK  0 active torsions:
REMARK  status: ('A' for Active; 'I' for Inactive)
ROOT
ATOM      1  C4' PXY d   1       3.023   5.973  -4.673  0.00  0.00     0.077 C 
ATOM      2  C1' PXY d   1      -2.758   5.999  -4.722  0.00  0.00     0.077 C 
ATOM      3  C1  PXY d   1      -1.242   5.987  -4.721  0.00  0.00    -0.082 A 
ATOM      4  C2  PXY d   1      -0.588   5.976  -3.571  0.00  0.00     0.003 A 
ATOM      5  C3  PXY d   1       0.783   5.997  -3.551  0.00  0.00     0.003 A 
ATOM      6  C4  PXY d   1       1.492   5.976  -4.722  0.00  0.00    -0.082 A 
ATOM      7  C5  PXY d   1       0.833   5.976  -5.900  0.00  0.00     0.003 A 
ATOM      8  C6  PXY d   1      -0.559   5.996  -5.898  0.00  0.00     0.003 A 
ENDROOT
TORSDOF 0
ENDMDL
