MODEL 1
REMARK minimizedAffinity -2.08274031
REMARK minimizedRMSD -1
REMARK  0 active torsions:
REMARK  status: ('A' for Active; 'I' for Inactive)
ROOT
ATOM      1  C4' PXY d   1       5.990   3.698  -4.216  0.00  0.00     0.077 C 
ATOM      2  C1' PXY d   1       0.869   6.000  -5.590  0.00  0.00     0.077 C 
ATOM      3  C1  PXY d   1       2.217   5.402  -5.240  0.00  0.00    -0.082 A 
ATOM      4  C2  PXY d   1       2.275   4.303  -4.505  0.00  0.00     0.003 A 
ATOM      5  C3  PXY d   1       3.486   3.767  -4.152  0.00  0.00     0.003 A 
ATOM      6  C4  PXY d   1       4.650   4.331  -4.602  0.00  0.00    -0.082 A 
ATOM      7  C5  PXY d   1       4.600   5.445  -5.362  0.00  0.00     0.003 A 
ATOM      8  C6  PXY d   1       3.361   5.998  -5.674  0.00  0.00     0.003 A 
ENDROOT
TORSDOF 0
ENDMDL
