MODEL 1
REMARK minimizedAffinity 2.53077936
REMARK minimizedRMSD -1
REMARK  0 active torsions:
REMARK  status: ('A' for Active; 'I' for Inactive)
ROOT
ATOM      1  C4' PXY d   1       5.998   5.315  -4.686  0.00  0.00     0.077 C 
ATOM      2  C1' PXY d   1       0.466   4.260  -5.989  0.00  0.00     0.077 C 
ATOM      3  C1  PXY d   1       1.917   4.545  -5.657  0.00  0.00    -0.082 A 
ATOM      4  C2  PXY d   1       2.636   3.631  -5.026  0.00  0.00     0.003 A 
ATOM      5  C3  PXY d   1       3.941   3.885  -4.690  0.00  0.00     0.003 A 
ATOM      6  C4  PXY d   1       4.532   5.066  -5.050  0.00  0.00    -0.082 A 
ATOM      7  C5  PXY d   1       3.808   6.000  -5.704  0.00  0.00     0.003 A 
ATOM      8  C6  PXY d   1       2.473   5.739  -6.000  0.00  0.00     0.003 A 
ENDROOT
TORSDOF 0
ENDMDL
