MODEL 1
REMARK minimizedAffinity 4.27148438
REMARK minimizedRMSD -1
REMARK  0 active torsions:
REMARK  status: ('A' for Active; 'I' for Inactive)
ROOT
ATOM      1  C4' PXY d   1       0.308   0.577   3.155  0.00  0.00     0.077 C 
ATOM      2  C1' PXY d   1       1.501   2.054  -2.305  0.00  0.00     0.077 C 
ATOM      3  C1  PXY d   1       1.180   1.658  -0.877  0.00  0.00    -0.082 A 
ATOM      4  C2  PXY d   1       1.431   2.504   0.109  0.00  0.00     0.003 A 
ATOM      5  C3  PXY d   1       1.176   2.150   1.408  0.00  0.00     0.003 A 
ATOM      6  C4  PXY d   1       0.608   0.938   1.698  0.00  0.00    -0.082 A 
ATOM      7  C5  PXY d   1       0.338   0.074   0.696  0.00  0.00     0.003 A 
ATOM      8  C6  PXY d   1       0.643   0.436  -0.613  0.00  0.00     0.003 A 
ENDROOT
TORSDOF 0
ENDMDL
