MODEL 1
REMARK minimizedAffinity -0.108147755
REMARK minimizedRMSD -1
REMARK  0 active torsions:
REMARK  status: ('A' for Active; 'I' for Inactive)
ROOT
ATOM      1  C4' PXY d   1      -0.482  -1.986   0.595  0.00  0.00     0.077 C 
ATOM      2  C1' PXY d   1       1.704   3.318  -0.110  0.00  0.00     0.077 C 
ATOM      3  C1  PXY d   1       1.127   1.927   0.062  0.00  0.00    -0.082 A 
ATOM      4  C2  PXY d   1       0.813   1.495   1.273  0.00  0.00     0.003 A 
ATOM      5  C3  PXY d   1       0.320   0.228   1.450  0.00  0.00     0.003 A 
ATOM      6  C4  PXY d   1       0.095  -0.586   0.372  0.00  0.00    -0.082 A 
ATOM      7  C5  PXY d   1       0.403  -0.148  -0.867  0.00  0.00     0.003 A 
ATOM      8  C6  PXY d   1       0.941   1.126  -1.022  0.00  0.00     0.003 A 
ENDROOT
TORSDOF 0
ENDMDL
