MODEL 1
REMARK minimizedAffinity 2.37483525
REMARK minimizedRMSD -1
REMARK  0 active torsions:
REMARK  status: ('A' for Active; 'I' for Inactive)
ROOT
ATOM      1  C4' PXY d   1       5.005   3.844  -4.170  0.00  0.00     0.077 C 
ATOM      2  C1' PXY d   1      -0.037   5.998  -6.000  0.00  0.00     0.077 C 
ATOM      3  C1  PXY d   1       1.291   5.438  -5.530  0.00  0.00    -0.082 A 
ATOM      4  C2  PXY d   1       1.310   4.411  -4.696  0.00  0.00     0.003 A 
ATOM      5  C3  PXY d   1       2.502   3.912  -4.237  0.00  0.00     0.003 A 
ATOM      6  C4  PXY d   1       3.687   4.436  -4.677  0.00  0.00    -0.082 A 
ATOM      7  C5  PXY d   1       3.677   5.477  -5.537  0.00  0.00     0.003 A 
ATOM      8  C6  PXY d   1       2.456   5.995  -5.959  0.00  0.00     0.003 A 
ENDROOT
TORSDOF 0
ENDMDL
