MODEL 1
REMARK minimizedAffinity 0.521235585
REMARK minimizedRMSD -1
REMARK  0 active torsions:
REMARK  status: ('A' for Active; 'I' for Inactive)
ROOT
ATOM      1  C4' PXY d   1      -2.217   5.979  -4.193  0.00  0.00     0.077 C 
ATOM      2  C1' PXY d   1       3.459   5.885  -5.283  0.00  0.00     0.077 C 
ATOM      3  C1  PXY d   1       1.972   5.905  -4.985  0.00  0.00    -0.082 A 
ATOM      4  C2  PXY d   1       1.104   5.848  -5.982  0.00  0.00     0.003 A 
ATOM      5  C3  PXY d   1      -0.243   5.898  -5.733  0.00  0.00     0.003 A 
ATOM      6  C4  PXY d   1      -0.708   5.952  -4.446  0.00  0.00    -0.082 A 
ATOM      7  C5  PXY d   1       0.171   6.000  -3.423  0.00  0.00     0.003 A 
ATOM      8  C6  PXY d   1       1.535   5.990  -3.699  0.00  0.00     0.003 A 
ENDROOT
TORSDOF 0
ENDMDL
