MODEL 1
REMARK minimizedAffinity -0.848792613
REMARK minimizedRMSD -1
REMARK  0 active torsions:
REMARK  status: ('A' for Active; 'I' for Inactive)
ROOT
ATOM      1  C4' PXY d   1       1.095   5.999  -4.485  0.00  0.00     0.077 C 
ATOM      2  C1' PXY d   1       5.387   2.203  -3.724  0.00  0.00     0.077 C 
ATOM      3  C1  PXY d   1       4.270   3.209  -3.924  0.00  0.00    -0.082 A 
ATOM      4  C2  PXY d   1       3.036   2.894  -3.565  0.00  0.00     0.003 A 
ATOM      5  C3  PXY d   1       2.008   3.779  -3.768  0.00  0.00     0.003 A 
ATOM      6  C4  PXY d   1       2.255   5.019  -4.294  0.00  0.00    -0.082 A 
ATOM      7  C5  PXY d   1       3.514   5.351  -4.652  0.00  0.00     0.003 A 
ATOM      8  C6  PXY d   1       4.536   4.423  -4.476  0.00  0.00     0.003 A 
ENDROOT
TORSDOF 0
ENDMDL
