MODEL 1
REMARK minimizedAffinity -3.89512706
REMARK minimizedRMSD -1
REMARK  1 active torsions:
REMARK  status: ('A' for Active; 'I' for Inactive)
REMARK    1  A    between atoms: C1_2  and  C2_3 
ROOT
ATOM      1  C2  UNL d   1       0.131  -0.111  -0.289  0.00  0.00    -0.076 A 
ATOM      2  C3  UNL d   1       0.747   0.927  -1.010  0.00  0.00     0.004 A 
ATOM      3  C4  UNL d   1       1.950   0.717  -1.682  0.00  0.00    -0.003 A 
ATOM      4  C5  UNL d   1       2.557  -0.534  -1.645  0.00  0.00     0.000 A 
ATOM      5  C6  UNL d   1       1.951  -1.579  -0.949  0.00  0.00     0.000 A 
ATOM      6  C7  UNL d   1       0.729  -1.389  -0.280  0.00  0.00    -0.073 A 
ATOM      7  C8  UNL d   1       0.123  -2.550   0.460  0.00  0.00     0.078 C 
ENDROOT
BRANCH   1   8
ATOM      8  C1  UNL d   1      -1.159   0.182   0.443  0.00  0.00     0.053 C 
ATOM      9  C   UNL d   1      -0.924   0.754   1.832  0.00  0.00     0.018 C 
ENDBRANCH   1   8
TORSDOF 1
ENDMDL
