MODEL 1
REMARK minimizedAffinity -5.63250971
REMARK minimizedRMSD -1
REMARK  1 active torsions:
REMARK  status: ('A' for Active; 'I' for Inactive)
REMARK    1  A    between atoms: C1_2  and  C2_3 
ROOT
ATOM      1  C2  UNL d   1       1.058  -0.188  -0.647  0.00  0.00    -0.076 A 
ATOM      2  C3  UNL d   1       0.128   0.860  -0.533  0.00  0.00     0.004 A 
ATOM      3  C4  UNL d   1       0.254   2.017  -1.300  0.00  0.00    -0.003 A 
ATOM      4  C5  UNL d   1       1.311   2.144  -2.194  0.00  0.00     0.000 A 
ATOM      5  C6  UNL d   1       2.233   1.107  -2.333  0.00  0.00     0.000 A 
ATOM      6  C7  UNL d   1       2.111  -0.073  -1.579  0.00  0.00    -0.073 A 
ATOM      7  C8  UNL d   1       3.137  -1.157  -1.764  0.00  0.00     0.078 C 
ENDROOT
BRANCH   1   8
ATOM      8  C1  UNL d   1       0.885  -1.407   0.231  0.00  0.00     0.053 C 
ATOM      9  C   UNL d   1      -0.524  -1.976   0.169  0.00  0.00     0.018 C 
ENDBRANCH   1   8
TORSDOF 1
ENDMDL
