MODEL 1
REMARK minimizedAffinity -5.59202862
REMARK minimizedRMSD -1
REMARK  1 active torsions:
REMARK  status: ('A' for Active; 'I' for Inactive)
REMARK    1  A    between atoms: C1_2  and  C2_3 
ROOT
ATOM      1  C2  UNL d   1       0.379  -0.094  -0.210  0.00  0.00    -0.076 A 
ATOM      2  C3  UNL d   1       1.117   0.918  -0.848  0.00  0.00     0.004 A 
ATOM      3  C4  UNL d   1       2.312   0.630  -1.505  0.00  0.00    -0.003 A 
ATOM      4  C5  UNL d   1       2.788  -0.676  -1.536  0.00  0.00     0.000 A 
ATOM      5  C6  UNL d   1       2.060  -1.696  -0.924  0.00  0.00     0.000 A 
ATOM      6  C7  UNL d   1       0.845  -1.425  -0.271  0.00  0.00    -0.073 A 
ATOM      7  C8  UNL d   1       0.104  -2.562   0.377  0.00  0.00     0.078 C 
ENDROOT
BRANCH   1   8
ATOM      8  C1  UNL d   1      -0.896   0.283   0.510  0.00  0.00     0.053 C 
ATOM      9  C   UNL d   1      -0.645   0.736   1.940  0.00  0.00     0.018 C 
ENDBRANCH   1   8
TORSDOF 1
ENDMDL
