MODEL 1
REMARK minimizedAffinity -2.09908748
REMARK minimizedRMSD -1
REMARK  1 active torsions:
REMARK  status: ('A' for Active; 'I' for Inactive)
REMARK    1  A    between atoms: C1_2  and  C2_3 
ROOT
ATOM      1  C2  UNL d   1      -0.707   0.279   0.085  0.00  0.00    -0.076 A 
ATOM      2  C3  UNL d   1      -0.669   1.459  -0.677  0.00  0.00     0.004 A 
ATOM      3  C4  UNL d   1       0.199   1.586  -1.760  0.00  0.00    -0.003 A 
ATOM      4  C5  UNL d   1       1.044   0.535  -2.099  0.00  0.00     0.000 A 
ATOM      5  C6  UNL d   1       1.007  -0.650  -1.364  0.00  0.00     0.000 A 
ATOM      6  C7  UNL d   1       0.125  -0.801  -0.280  0.00  0.00    -0.073 A 
ATOM      7  C8  UNL d   1       0.132  -2.098   0.481  0.00  0.00     0.078 C 
ENDROOT
BRANCH   1   8
ATOM      8  C1  UNL d   1      -1.651   0.208   1.265  0.00  0.00     0.053 C 
ATOM      9  C   UNL d   1      -1.350   1.267   2.315  0.00  0.00     0.018 C 
ENDBRANCH   1   8
TORSDOF 1
ENDMDL
