MODEL 1
REMARK minimizedAffinity -4.14228344
REMARK minimizedRMSD -1
REMARK  1 active torsions:
REMARK  status: ('A' for Active; 'I' for Inactive)
REMARK    1  A    between atoms: C1_2  and  C2_3 
ROOT
ATOM      1  C2  UNL d   1       0.129   0.241  -0.539  0.00  0.00    -0.076 A 
ATOM      2  C3  UNL d   1       0.489  -1.053  -0.124  0.00  0.00     0.004 A 
ATOM      3  C4  UNL d   1       1.542  -1.734  -0.733  0.00  0.00    -0.003 A 
ATOM      4  C5  UNL d   1       2.252  -1.132  -1.765  0.00  0.00     0.000 A 
ATOM      5  C6  UNL d   1       1.920   0.159  -2.177  0.00  0.00     0.000 A 
ATOM      6  C7  UNL d   1       0.872   0.865  -1.563  0.00  0.00    -0.073 A 
ATOM      7  C8  UNL d   1       0.553   2.252  -2.052  0.00  0.00     0.078 C 
ENDROOT
BRANCH   1   8
ATOM      8  C1  UNL d   1      -1.040   0.920   0.140  0.00  0.00     0.053 C 
ATOM      9  C   UNL d   1      -1.578   0.117   1.314  0.00  0.00     0.018 C 
ENDBRANCH   1   8
TORSDOF 1
ENDMDL
