MODEL 1
REMARK minimizedAffinity -5.76915359
REMARK minimizedRMSD -1
REMARK  1 active torsions:
REMARK  status: ('A' for Active; 'I' for Inactive)
REMARK    1  A    between atoms: C1_2  and  C2_3 
ROOT
ATOM      1  C2  UNL d   1       1.121   0.904  -1.858  0.00  0.00    -0.076 A 
ATOM      2  C3  UNL d   1      -0.203   1.303  -1.606  0.00  0.00     0.004 A 
ATOM      3  C4  UNL d   1      -0.962   0.685  -0.613  0.00  0.00    -0.003 A 
ATOM      4  C5  UNL d   1      -0.409  -0.342   0.143  0.00  0.00     0.000 A 
ATOM      5  C6  UNL d   1       0.908  -0.739  -0.082  0.00  0.00     0.000 A 
ATOM      6  C7  UNL d   1       1.693  -0.116  -1.067  0.00  0.00    -0.073 A 
ATOM      7  C8  UNL d   1       3.106  -0.588  -1.271  0.00  0.00     0.078 C 
ENDROOT
BRANCH   1   8
ATOM      8  C1  UNL d   1       1.886   1.592  -2.966  0.00  0.00     0.053 C 
ATOM      9  C   UNL d   1       1.472   1.110  -4.347  0.00  0.00     0.018 C 
ENDBRANCH   1   8
TORSDOF 1
ENDMDL
