MODEL 1
REMARK minimizedAffinity -3.77463555
REMARK minimizedRMSD -1
REMARK  1 active torsions:
REMARK  status: ('A' for Active; 'I' for Inactive)
REMARK    1  A    between atoms: C1_2  and  C2_3 
ROOT
ATOM      1  C2  UNL d   1       0.916  -0.256  -0.132  0.00  0.00    -0.076 A 
ATOM      2  C3  UNL d   1       1.385   0.828  -0.894  0.00  0.00     0.004 A 
ATOM      3  C4  UNL d   1       2.469   0.682  -1.758  0.00  0.00    -0.003 A 
ATOM      4  C5  UNL d   1       3.102  -0.551  -1.874  0.00  0.00     0.000 A 
ATOM      5  C6  UNL d   1       2.639  -1.641  -1.138  0.00  0.00     0.000 A 
ATOM      6  C7  UNL d   1       1.537  -1.515  -0.275  0.00  0.00    -0.073 A 
ATOM      7  C8  UNL d   1       1.084  -2.723   0.499  0.00  0.00     0.078 C 
ENDROOT
BRANCH   1   8
ATOM      8  C1  UNL d   1      -0.246  -0.031   0.809  0.00  0.00     0.053 C 
ATOM      9  C   UNL d   1      -1.558  -0.561   0.250  0.00  0.00     0.018 C 
ENDBRANCH   1   8
TORSDOF 1
ENDMDL
