MODEL 1
REMARK minimizedAffinity -2.07776594
REMARK minimizedRMSD -1
REMARK  0 active torsions:
REMARK  status: ('A' for Active; 'I' for Inactive)
ROOT
ATOM      1  C   UNL d   1       0.804  -1.803   2.782  0.00  0.00     0.077 C 
ATOM      2  C1  UNL d   1       0.894  -1.271   1.383  0.00  0.00    -0.074 A 
ATOM      3  C2  UNL d   1       1.958  -1.623   0.546  0.00  0.00    -0.005 A 
ATOM      4  C3  UNL d   1       2.023  -1.127  -0.756  0.00  0.00     0.006 A 
ATOM      5  C4  UNL d   1       1.027  -0.275  -1.234  0.00  0.00    -0.005 A 
ATOM      6  C5  UNL d   1      -0.045   0.088  -0.412  0.00  0.00    -0.074 A 
ATOM      7  C6  UNL d   1      -1.129   0.995  -0.914  0.00  0.00     0.077 C 
ATOM      8  C7  UNL d   1      -0.107  -0.420   0.893  0.00  0.00    -0.001 A 
ENDROOT
TORSDOF 0
ENDMDL
