MODEL 1
REMARK minimizedAffinity -0.517096519
REMARK minimizedRMSD -1
REMARK  0 active torsions:
REMARK  status: ('A' for Active; 'I' for Inactive)
ROOT
ATOM      1  C   UNL d   1      -0.933   1.182  -0.890  0.00  0.00     0.077 C 
ATOM      2  C1  UNL d   1       0.053   0.258  -0.239  0.00  0.00    -0.074 A 
ATOM      3  C2  UNL d   1       1.253  -0.078  -0.875  0.00  0.00    -0.005 A 
ATOM      4  C3  UNL d   1       2.164  -0.931  -0.252  0.00  0.00     0.006 A 
ATOM      5  C4  UNL d   1       1.885  -1.456   1.010  0.00  0.00    -0.005 A 
ATOM      6  C5  UNL d   1       0.691  -1.132   1.662  0.00  0.00    -0.074 A 
ATOM      7  C6  UNL d   1       0.381  -1.680   3.023  0.00  0.00     0.077 C 
ATOM      8  C7  UNL d   1      -0.216  -0.268   1.033  0.00  0.00    -0.001 A 
ENDROOT
TORSDOF 0
ENDMDL
