MODEL 1
REMARK minimizedAffinity -3.88318682
REMARK minimizedRMSD -1
REMARK  0 active torsions:
REMARK  status: ('A' for Active; 'I' for Inactive)
ROOT
ATOM      1  C   UNL d   1       1.724  -0.972  -0.069  0.00  0.00     0.077 C 
ATOM      2  C1  UNL d   1       0.502  -0.141   0.189  0.00  0.00    -0.074 A 
ATOM      3  C2  UNL d   1      -0.219  -0.275   1.380  0.00  0.00    -0.005 A 
ATOM      4  C3  UNL d   1      -1.348   0.511   1.610  0.00  0.00     0.006 A 
ATOM      5  C4  UNL d   1      -1.767   1.437   0.654  0.00  0.00    -0.005 A 
ATOM      6  C5  UNL d   1      -1.057   1.585  -0.542  0.00  0.00    -0.074 A 
ATOM      7  C6  UNL d   1      -1.488   2.583  -1.576  0.00  0.00     0.077 C 
ATOM      8  C7  UNL d   1       0.080   0.797  -0.763  0.00  0.00    -0.001 A 
ENDROOT
TORSDOF 0
ENDMDL
