MODEL 1
REMARK minimizedAffinity -3.24188757
REMARK minimizedRMSD -1
REMARK  0 active torsions:
REMARK  status: ('A' for Active; 'I' for Inactive)
ROOT
ATOM      1  C   UNL d   1      -1.978   2.249  -2.879  0.00  0.00     0.077 C 
ATOM      2  C1  UNL d   1      -1.441   1.637  -1.620  0.00  0.00    -0.074 A 
ATOM      3  C2  UNL d   1      -2.094   1.820  -0.397  0.00  0.00    -0.005 A 
ATOM      4  C3  UNL d   1      -1.588   1.237   0.765  0.00  0.00     0.006 A 
ATOM      5  C4  UNL d   1      -0.425   0.467   0.715  0.00  0.00    -0.005 A 
ATOM      6  C5  UNL d   1       0.241   0.273  -0.499  0.00  0.00    -0.074 A 
ATOM      7  C6  UNL d   1       1.487  -0.560  -0.571  0.00  0.00     0.077 C 
ATOM      8  C7  UNL d   1      -0.277   0.856  -1.663  0.00  0.00    -0.001 A 
ENDROOT
TORSDOF 0
ENDMDL
