MODEL 1
REMARK minimizedAffinity 0.683894277
REMARK minimizedRMSD -1
REMARK  0 active torsions:
REMARK  status: ('A' for Active; 'I' for Inactive)
ROOT
ATOM      1  C   UNL d   1      -1.784   1.080  -0.336  0.00  0.00     0.077 C 
ATOM      2  C1  UNL d   1      -0.341   0.674  -0.300  0.00  0.00    -0.074 A 
ATOM      3  C2  UNL d   1       0.630   1.405  -0.993  0.00  0.00    -0.005 A 
ATOM      4  C3  UNL d   1       1.969   1.021  -0.942  0.00  0.00     0.006 A 
ATOM      5  C4  UNL d   1       2.352  -0.097  -0.199  0.00  0.00    -0.005 A 
ATOM      6  C5  UNL d   1       1.396  -0.840   0.501  0.00  0.00    -0.074 A 
ATOM      7  C6  UNL d   1       1.792  -2.037   1.313  0.00  0.00     0.077 C 
ATOM      8  C7  UNL d   1       0.053  -0.443   0.451  0.00  0.00    -0.001 A 
ENDROOT
TORSDOF 0
ENDMDL
