MODEL 1
REMARK minimizedAffinity -0.273647368
REMARK minimizedRMSD -1
REMARK  0 active torsions:
REMARK  status: ('A' for Active; 'I' for Inactive)
ROOT
ATOM      1  C   UNL d   1      -1.384   1.593  -1.210  0.00  0.00     0.077 C 
ATOM      2  C1  UNL d   1      -0.566   0.657  -0.372  0.00  0.00    -0.074 A 
ATOM      3  C2  UNL d   1       0.719   0.274  -0.767  0.00  0.00    -0.005 A 
ATOM      4  C3  UNL d   1       1.472  -0.589   0.028  0.00  0.00     0.006 A 
ATOM      5  C4  UNL d   1       0.948  -1.078   1.225  0.00  0.00    -0.005 A 
ATOM      6  C5  UNL d   1      -0.335  -0.706   1.638  0.00  0.00    -0.074 A 
ATOM      7  C6  UNL d   1      -0.910  -1.214   2.926  0.00  0.00     0.077 C 
ATOM      8  C7  UNL d   1      -1.083   0.168   0.836  0.00  0.00    -0.001 A 
ENDROOT
TORSDOF 0
ENDMDL
