MODEL 1
REMARK minimizedAffinity -4.01186752
REMARK minimizedRMSD -1
REMARK  0 active torsions:
REMARK  status: ('A' for Active; 'I' for Inactive)
ROOT
ATOM      1  C   UNL d   1      -0.418  -1.452   2.995  0.00  0.00     0.077 C 
ATOM      2  C1  UNL d   1       0.094  -0.949   1.678  0.00  0.00    -0.074 A 
ATOM      3  C2  UNL d   1       1.387  -1.256   1.244  0.00  0.00    -0.005 A 
ATOM      4  C3  UNL d   1       1.846  -0.789   0.012  0.00  0.00     0.006 A 
ATOM      5  C4  UNL d   1       1.017  -0.011  -0.797  0.00  0.00    -0.005 A 
ATOM      6  C5  UNL d   1      -0.280   0.306  -0.380  0.00  0.00    -0.074 A 
ATOM      7  C6  UNL d   1      -1.188   1.132  -1.242  0.00  0.00     0.077 C 
ATOM      8  C7  UNL d   1      -0.736  -0.173   0.855  0.00  0.00    -0.001 A 
ENDROOT
TORSDOF 0
ENDMDL
