MODEL 1
REMARK minimizedAffinity -3.89683867
REMARK minimizedRMSD -1
REMARK  0 active torsions:
REMARK  status: ('A' for Active; 'I' for Inactive)
ROOT
ATOM      1  C   UNL d   1      -0.050  -1.670   3.620  0.00  0.00     0.077 C 
ATOM      2  C1  UNL d   1       0.415  -1.225   2.266  0.00  0.00    -0.074 A 
ATOM      3  C2  UNL d   1       1.696  -1.545   1.804  0.00  0.00    -0.005 A 
ATOM      4  C3  UNL d   1       2.111  -1.132   0.538  0.00  0.00     0.006 A 
ATOM      5  C4  UNL d   1       1.252  -0.395  -0.278  0.00  0.00    -0.005 A 
ATOM      6  C5  UNL d   1      -0.033  -0.066   0.167  0.00  0.00    -0.074 A 
ATOM      7  C6  UNL d   1      -0.973   0.716  -0.702  0.00  0.00     0.077 C 
ATOM      8  C7  UNL d   1      -0.445  -0.491   1.437  0.00  0.00    -0.001 A 
ENDROOT
TORSDOF 0
ENDMDL
