MODEL 1
REMARK minimizedAffinity -2.11170864
REMARK minimizedRMSD -1
REMARK  0 active torsions:
REMARK  status: ('A' for Active; 'I' for Inactive)
ROOT
ATOM      1  C   UNL d   1       0.827  -0.168   0.239  0.00  0.00     0.077 C 
ATOM      2  C1  UNL d   1      -0.247   0.751  -0.262  0.00  0.00    -0.074 A 
ATOM      3  C2  UNL d   1      -0.799   1.732   0.568  0.00  0.00    -0.005 A 
ATOM      4  C3  UNL d   1      -1.790   2.586   0.084  0.00  0.00     0.006 A 
ATOM      5  C4  UNL d   1      -2.240   2.467  -1.231  0.00  0.00    -0.005 A 
ATOM      6  C5  UNL d   1      -1.700   1.492  -2.076  0.00  0.00    -0.074 A 
ATOM      7  C6  UNL d   1      -2.165   1.357  -3.495  0.00  0.00     0.077 C 
ATOM      8  C7  UNL d   1      -0.699   0.643  -1.585  0.00  0.00    -0.001 A 
ENDROOT
TORSDOF 0
ENDMDL
