MODEL 1
REMARK minimizedAffinity -2.58557606
REMARK minimizedRMSD -1
REMARK  0 active torsions:
REMARK  status: ('A' for Active; 'I' for Inactive)
ROOT
ATOM      1  C   UNL d   1       1.118  -1.521   1.902  0.00  0.00     0.077 C 
ATOM      2  C1  UNL d   1       1.158  -0.811   0.582  0.00  0.00    -0.074 A 
ATOM      3  C2  UNL d   1       2.154  -1.096  -0.358  0.00  0.00    -0.005 A 
ATOM      4  C3  UNL d   1       2.172  -0.434  -1.586  0.00  0.00     0.006 A 
ATOM      5  C4  UNL d   1       1.197   0.518  -1.886  0.00  0.00    -0.005 A 
ATOM      6  C5  UNL d   1       0.193   0.815  -0.959  0.00  0.00    -0.074 A 
ATOM      7  C6  UNL d   1      -0.868   1.829  -1.270  0.00  0.00     0.077 C 
ATOM      8  C7  UNL d   1       0.177   0.141   0.269  0.00  0.00    -0.001 A 
ENDROOT
TORSDOF 0
ENDMDL
