MODEL 1
REMARK minimizedAffinity -4.32107162
REMARK minimizedRMSD -1
REMARK  0 active torsions:
REMARK  status: ('A' for Active; 'I' for Inactive)
ROOT
ATOM      1  C   UNL d   1       0.003  -1.723   3.585  0.00  0.00     0.077 C 
ATOM      2  C1  UNL d   1       0.487  -1.171   2.278  0.00  0.00    -0.074 A 
ATOM      3  C2  UNL d   1       1.729  -1.545   1.754  0.00  0.00    -0.005 A 
ATOM      4  C3  UNL d   1       2.161  -1.030   0.532  0.00  0.00     0.006 A 
ATOM      5  C4  UNL d   1       1.357  -0.137  -0.178  0.00  0.00    -0.005 A 
ATOM      6  C5  UNL d   1       0.112   0.248   0.329  0.00  0.00    -0.074 A 
ATOM      7  C6  UNL d   1      -0.768   1.199  -0.425  0.00  0.00     0.077 C 
ATOM      8  C7  UNL d   1      -0.318  -0.279   1.555  0.00  0.00    -0.001 A 
ENDROOT
TORSDOF 0
ENDMDL
