MODEL 1
REMARK minimizedAffinity -3.0265336
REMARK minimizedRMSD -1
REMARK  0 active torsions:
REMARK  status: ('A' for Active; 'I' for Inactive)
ROOT
ATOM      1  C   UNL d   1      -1.444   1.579  -1.830  0.00  0.00     0.077 C 
ATOM      2  C1  UNL d   1      -0.840   0.731  -0.752  0.00  0.00    -0.074 A 
ATOM      3  C2  UNL d   1      -1.466   0.595   0.492  0.00  0.00    -0.005 A 
ATOM      4  C3  UNL d   1      -0.896  -0.205   1.482  0.00  0.00     0.006 A 
ATOM      5  C4  UNL d   1       0.302  -0.877   1.240  0.00  0.00    -0.005 A 
ATOM      6  C5  UNL d   1       0.942  -0.754   0.002  0.00  0.00    -0.074 A 
ATOM      7  C6  UNL d   1       2.226  -1.478  -0.278  0.00  0.00     0.077 C 
ATOM      8  C7  UNL d   1       0.360   0.046  -0.990  0.00  0.00    -0.001 A 
ENDROOT
TORSDOF 0
ENDMDL
