MODEL 1
REMARK minimizedAffinity -1.75151396
REMARK minimizedRMSD -1
REMARK  0 active torsions:
REMARK  status: ('A' for Active; 'I' for Inactive)
ROOT
ATOM      1  C   UNL d   1      -1.165  -0.694   2.320  0.00  0.00     0.077 C 
ATOM      2  C1  UNL d   1      -0.460  -0.318   1.051  0.00  0.00    -0.074 A 
ATOM      3  C2  UNL d   1       0.903  -0.582   0.881  0.00  0.00    -0.005 A 
ATOM      4  C3  UNL d   1       1.544  -0.236  -0.309  0.00  0.00     0.006 A 
ATOM      5  C4  UNL d   1       0.829   0.377  -1.339  0.00  0.00    -0.005 A 
ATOM      6  C5  UNL d   1      -0.535   0.647  -1.188  0.00  0.00    -0.074 A 
ATOM      7  C6  UNL d   1      -1.320   1.296  -2.289  0.00  0.00     0.077 C 
ATOM      8  C7  UNL d   1      -1.173   0.290   0.008  0.00  0.00    -0.001 A 
ENDROOT
TORSDOF 0
ENDMDL
