MODEL 1
REMARK minimizedAffinity -1.38707519
REMARK minimizedRMSD -1
REMARK  0 active torsions:
REMARK  status: ('A' for Active; 'I' for Inactive)
ROOT
ATOM      1  C   UNL d   1       1.540  -0.902  -1.636  0.00  0.00     0.077 C 
ATOM      2  C1  UNL d   1       0.462   0.046  -1.202  0.00  0.00    -0.074 A 
ATOM      3  C2  UNL d   1       0.463   0.595   0.084  0.00  0.00    -0.005 A 
ATOM      4  C3  UNL d   1      -0.541   1.483   0.470  0.00  0.00     0.006 A 
ATOM      5  C4  UNL d   1      -1.554   1.831  -0.425  0.00  0.00    -0.005 A 
ATOM      6  C5  UNL d   1      -1.570   1.293  -1.716  0.00  0.00    -0.074 A 
ATOM      7  C6  UNL d   1      -2.645   1.664  -2.693  0.00  0.00     0.077 C 
ATOM      8  C7  UNL d   1      -0.554   0.407  -2.098  0.00  0.00    -0.001 A 
ENDROOT
TORSDOF 0
ENDMDL
