MODEL 1
REMARK minimizedAffinity -2.92550063
REMARK minimizedRMSD -1
REMARK  0 active torsions:
REMARK  status: ('A' for Active; 'I' for Inactive)
ROOT
ATOM      1  C   UNL d   1      -0.696   0.897  -0.613  0.00  0.00     0.077 C 
ATOM      2  C1  UNL d   1       0.207   0.028   0.212  0.00  0.00    -0.074 A 
ATOM      3  C2  UNL d   1       1.454  -0.378  -0.274  0.00  0.00    -0.005 A 
ATOM      4  C3  UNL d   1       2.286  -1.178   0.509  0.00  0.00     0.006 A 
ATOM      5  C4  UNL d   1       1.881  -1.579   1.782  0.00  0.00    -0.005 A 
ATOM      6  C5  UNL d   1       0.638  -1.182   2.285  0.00  0.00    -0.074 A 
ATOM      7  C6  UNL d   1       0.192  -1.596   3.656  0.00  0.00     0.077 C 
ATOM      8  C7  UNL d   1      -0.190  -0.372   1.496  0.00  0.00    -0.001 A 
ENDROOT
TORSDOF 0
ENDMDL
