MODEL 1
REMARK minimizedAffinity 11.3653975
REMARK minimizedRMSD -1
REMARK  0 active torsions:
REMARK  status: ('A' for Active; 'I' for Inactive)
ROOT
ATOM      1  C   UNL d   1      -0.524   3.142  -2.853  0.00  0.00     0.077 C 
ATOM      2  C1  UNL d   1      -1.447   2.356  -1.970  0.00  0.00    -0.074 A 
ATOM      3  C2  UNL d   1      -2.698   1.935  -2.431  0.00  0.00    -0.005 A 
ATOM      4  C3  UNL d   1      -3.541   1.197  -1.601  0.00  0.00     0.006 A 
ATOM      5  C4  UNL d   1      -3.143   0.873  -0.303  0.00  0.00    -0.005 A 
ATOM      6  C5  UNL d   1      -1.895   1.285   0.175  0.00  0.00    -0.074 A 
ATOM      7  C6  UNL d   1      -1.447   0.936   1.563  0.00  0.00     0.077 C 
ATOM      8  C7  UNL d   1      -1.050   2.020  -0.668  0.00  0.00    -0.001 A 
ENDROOT
TORSDOF 0
ENDMDL
