MODEL 1
REMARK minimizedAffinity -5.1921134
REMARK minimizedRMSD -1
REMARK  3 active torsions:
REMARK  status: ('A' for Active; 'I' for Inactive)
REMARK    1  A    between atoms: C3'_2  and  C2'_3 
REMARK    2  A    between atoms: C2'_3  and  C1'_4 
REMARK    3  A    between atoms: C1'_4  and  C1_5 
ROOT
ATOM      1  C1  N4B d   1       0.369  -1.725  -1.147  0.00  0.00    -0.075 A 
ATOM      2  C2  N4B d   1       0.133  -0.366  -0.844  0.00  0.00     0.002 A 
ATOM      3  C3  N4B d   1       0.617   0.172   0.324  0.00  0.00     0.002 A 
ATOM      4  C4  N4B d   1       1.320  -0.632   1.209  0.00  0.00    -0.004 A 
ATOM      5  C5  N4B d   1       1.565  -1.937   0.897  0.00  0.00     0.002 A 
ATOM      6  C6  N4B d   1       1.088  -2.489  -0.275  0.00  0.00     0.002 A 
ENDROOT
BRANCH   1   7
ATOM      7  C1' N4B d   1      -0.214  -2.378  -2.370  0.00  0.00     0.057 C 
BRANCH   7   8
ATOM      8  C2' N4B d   1      -0.762  -1.301  -3.301  0.00  0.00     0.009 C 
BRANCH   8   9
ATOM      9  C3' N4B d   1      -0.846  -1.782  -4.739  0.00  0.00     0.004 C 
ATOM     10  C4' N4B d   1      -1.240  -3.225  -4.847  0.00  0.00     0.003 C 
ENDBRANCH   8   9
ENDBRANCH   7   8
ENDBRANCH   1   7
TORSDOF 3
ENDMDL
