MODEL 1
REMARK minimizedAffinity 1.88097501
REMARK minimizedRMSD -1
REMARK  3 active torsions:
REMARK  status: ('A' for Active; 'I' for Inactive)
REMARK    1  A    between atoms: C3'_2  and  C2'_3 
REMARK    2  A    between atoms: C2'_3  and  C1'_4 
REMARK    3  A    between atoms: C1'_4  and  C1_5 
ROOT
ATOM      1  C1  N4B d   1      -0.810  -1.389  -2.933  0.00  0.00    -0.075 A 
ATOM      2  C2  N4B d   1      -1.154  -0.322  -3.791  0.00  0.00     0.002 A 
ATOM      3  C3  N4B d   1      -1.413  -0.564  -5.118  0.00  0.00     0.002 A 
ATOM      4  C4  N4B d   1      -1.317  -1.857  -5.611  0.00  0.00    -0.004 A 
ATOM      5  C5  N4B d   1      -1.009  -2.886  -4.770  0.00  0.00     0.002 A 
ATOM      6  C6  N4B d   1      -0.750  -2.658  -3.433  0.00  0.00     0.002 A 
ENDROOT
BRANCH   1   7
ATOM      7  C1' N4B d   1      -0.434  -1.162  -1.494  0.00  0.00     0.057 C 
BRANCH   7   8
ATOM      8  C2' N4B d   1      -0.308   0.338  -1.241  0.00  0.00     0.009 C 
BRANCH   8   9
ATOM      9  C3' N4B d   1      -0.012   0.645   0.217  0.00  0.00     0.004 C 
ATOM     10  C4' N4B d   1       1.394   1.118   0.437  0.00  0.00     0.003 C 
ENDBRANCH   8   9
ENDBRANCH   7   8
ENDBRANCH   1   7
TORSDOF 3
ENDMDL
