MODEL 1
REMARK minimizedAffinity -4.58533812
REMARK minimizedRMSD -1
REMARK  3 active torsions:
REMARK  status: ('A' for Active; 'I' for Inactive)
REMARK    1  A    between atoms: C3'_2  and  C2'_3 
REMARK    2  A    between atoms: C2'_3  and  C1'_4 
REMARK    3  A    between atoms: C1'_4  and  C1_5 
ROOT
ATOM      1  C1  N4B d   1       0.783  -0.707  -0.624  0.00  0.00    -0.075 A 
ATOM      2  C2  N4B d   1       2.014  -1.358  -0.858  0.00  0.00     0.002 A 
ATOM      3  C3  N4B d   1       2.917  -1.509   0.167  0.00  0.00     0.002 A 
ATOM      4  C4  N4B d   1       2.619  -1.002   1.423  0.00  0.00    -0.004 A 
ATOM      5  C5  N4B d   1       1.417  -0.396   1.646  0.00  0.00     0.002 A 
ATOM      6  C6  N4B d   1       0.499  -0.241   0.627  0.00  0.00     0.002 A 
ENDROOT
BRANCH   1   7
ATOM      7  C1' N4B d   1      -0.198  -0.442  -1.733  0.00  0.00     0.057 C 
BRANCH   7   8
ATOM      8  C2' N4B d   1      -0.719  -1.773  -2.268  0.00  0.00     0.009 C 
BRANCH   8   9
ATOM      9  C3' N4B d   1      -0.932  -1.736  -3.772  0.00  0.00     0.004 C 
ATOM     10  C4' N4B d   1      -1.430  -3.040  -4.320  0.00  0.00     0.003 C 
ENDBRANCH   8   9
ENDBRANCH   7   8
ENDBRANCH   1   7
TORSDOF 3
ENDMDL
