MODEL 1
REMARK minimizedAffinity -6.97198915
REMARK minimizedRMSD -1
REMARK  3 active torsions:
REMARK  status: ('A' for Active; 'I' for Inactive)
REMARK    1  A    between atoms: C3'_2  and  C2'_3 
REMARK    2  A    between atoms: C2'_3  and  C1'_4 
REMARK    3  A    between atoms: C1'_4  and  C1_5 
ROOT
ATOM      1  C1  N4B d   1       0.698  -1.587  -1.004  0.00  0.00    -0.075 A 
ATOM      2  C2  N4B d   1       1.864  -2.122  -0.413  0.00  0.00     0.002 A 
ATOM      3  C3  N4B d   1       2.634  -1.342   0.414  0.00  0.00     0.002 A 
ATOM      4  C4  N4B d   1       2.272  -0.024   0.647  0.00  0.00    -0.004 A 
ATOM      5  C5  N4B d   1       1.131   0.478   0.092  0.00  0.00     0.002 A 
ATOM      6  C6  N4B d   1       0.344  -0.297  -0.737  0.00  0.00     0.002 A 
ENDROOT
BRANCH   1   7
ATOM      7  C1' N4B d   1      -0.129  -2.376  -1.983  0.00  0.00     0.057 C 
BRANCH   7   8
ATOM      8  C2' N4B d   1      -0.744  -1.421  -3.002  0.00  0.00     0.009 C 
BRANCH   8   9
ATOM      9  C3' N4B d   1      -0.491  -1.874  -4.429  0.00  0.00     0.004 C 
ATOM     10  C4' N4B d   1      -1.374  -3.014  -4.842  0.00  0.00     0.003 C 
ENDBRANCH   8   9
ENDBRANCH   7   8
ENDBRANCH   1   7
TORSDOF 3
ENDMDL
