MODEL 1
REMARK minimizedAffinity -0.150509
REMARK minimizedRMSD -1
REMARK  3 active torsions:
REMARK  status: ('A' for Active; 'I' for Inactive)
REMARK    1  A    between atoms: C3'_2  and  C2'_3 
REMARK    2  A    between atoms: C2'_3  and  C1'_4 
REMARK    3  A    between atoms: C1'_4  and  C1_5 
ROOT
ATOM      1  C1  N4B d   1      -0.486   0.228   0.324  0.00  0.00    -0.075 A 
ATOM      2  C2  N4B d   1      -1.840   0.018   0.668  0.00  0.00     0.002 A 
ATOM      3  C3  N4B d   1      -2.680   1.092   0.834  0.00  0.00     0.002 A 
ATOM      4  C4  N4B d   1      -2.187   2.379   0.681  0.00  0.00    -0.004 A 
ATOM      5  C5  N4B d   1      -0.885   2.572   0.324  0.00  0.00     0.002 A 
ATOM      6  C6  N4B d   1      -0.030   1.502   0.149  0.00  0.00     0.002 A 
ENDROOT
BRANCH   1   7
ATOM      7  C1' N4B d   1       0.491  -0.911   0.216  0.00  0.00     0.057 C 
BRANCH   7   8
ATOM      8  C2' N4B d   1       1.909  -0.350   0.167  0.00  0.00     0.009 C 
BRANCH   8   9
ATOM      9  C3' N4B d   1       2.937  -1.429  -0.128  0.00  0.00     0.004 C 
ATOM     10  C4' N4B d   1       2.985  -1.804  -1.579  0.00  0.00     0.003 C 
ENDBRANCH   8   9
ENDBRANCH   7   8
ENDBRANCH   1   7
TORSDOF 3
ENDMDL
