MODEL 1
REMARK minimizedAffinity -2.17844439
REMARK minimizedRMSD -1
REMARK  3 active torsions:
REMARK  status: ('A' for Active; 'I' for Inactive)
REMARK    1  A    between atoms: C3'_2  and  C2'_3 
REMARK    2  A    between atoms: C2'_3  and  C1'_4 
REMARK    3  A    between atoms: C1'_4  and  C1_5 
ROOT
ATOM      1  C1  N4B d   1       0.894  -0.701  -0.620  0.00  0.00    -0.075 A 
ATOM      2  C2  N4B d   1       0.812   0.107   0.535  0.00  0.00     0.002 A 
ATOM      3  C3  N4B d   1       1.852   0.131   1.432  0.00  0.00     0.002 A 
ATOM      4  C4  N4B d   1       2.972  -0.655   1.204  0.00  0.00    -0.004 A 
ATOM      5  C5  N4B d   1       3.054  -1.412   0.073  0.00  0.00     0.002 A 
ATOM      6  C6  N4B d   1       2.018  -1.443  -0.839  0.00  0.00     0.002 A 
ENDROOT
BRANCH   1   7
ATOM      7  C1' N4B d   1      -0.253  -0.826  -1.585  0.00  0.00     0.057 C 
BRANCH   7   8
ATOM      8  C2' N4B d   1       0.245  -1.472  -2.875  0.00  0.00     0.009 C 
BRANCH   8   9
ATOM      9  C3' N4B d   1      -0.598  -1.072  -4.073  0.00  0.00     0.004 C 
ATOM     10  C4' N4B d   1      -0.904  -2.227  -4.979  0.00  0.00     0.003 C 
ENDBRANCH   8   9
ENDBRANCH   7   8
ENDBRANCH   1   7
TORSDOF 3
ENDMDL
