MODEL 1
REMARK minimizedAffinity -2.76553583
REMARK minimizedRMSD -1
REMARK  3 active torsions:
REMARK  status: ('A' for Active; 'I' for Inactive)
REMARK    1  A    between atoms: C3'_2  and  C2'_3 
REMARK    2  A    between atoms: C2'_3  and  C1'_4 
REMARK    3  A    between atoms: C1'_4  and  C1_5 
ROOT
ATOM      1  C1  N4B d   1      -0.447   1.426   0.657  0.00  0.00    -0.075 A 
ATOM      2  C2  N4B d   1      -1.123   0.244   1.032  0.00  0.00     0.002 A 
ATOM      3  C3  N4B d   1      -1.046  -0.873   0.236  0.00  0.00     0.002 A 
ATOM      4  C4  N4B d   1      -0.317  -0.826  -0.943  0.00  0.00    -0.004 A 
ATOM      5  C5  N4B d   1       0.354   0.312  -1.285  0.00  0.00     0.002 A 
ATOM      6  C6  N4B d   1       0.288   1.441  -0.493  0.00  0.00     0.002 A 
ENDROOT
BRANCH   1   7
ATOM      7  C1' N4B d   1      -0.573   2.698   1.450  0.00  0.00     0.057 C 
BRANCH   7   8
ATOM      8  C2' N4B d   1      -1.665   2.527   2.501  0.00  0.00     0.009 C 
BRANCH   8   9
ATOM      9  C3' N4B d   1      -1.334   3.260   3.790  0.00  0.00     0.004 C 
ATOM     10  C4' N4B d   1       0.123   3.191   4.139  0.00  0.00     0.003 C 
ENDBRANCH   8   9
ENDBRANCH   7   8
ENDBRANCH   1   7
TORSDOF 3
ENDMDL
