MODEL 1
REMARK minimizedAffinity -5.59688711
REMARK minimizedRMSD -1
REMARK  3 active torsions:
REMARK  status: ('A' for Active; 'I' for Inactive)
REMARK    1  A    between atoms: C3'_2  and  C2'_3 
REMARK    2  A    between atoms: C2'_3  and  C1'_4 
REMARK    3  A    between atoms: C1'_4  and  C1_5 
ROOT
ATOM      1  C1  N4B d   1       0.088   0.607  -0.675  0.00  0.00    -0.075 A 
ATOM      2  C2  N4B d   1       0.605   1.917  -0.785  0.00  0.00     0.002 A 
ATOM      3  C3  N4B d   1       0.216   2.885   0.108  0.00  0.00     0.002 A 
ATOM      4  C4  N4B d   1      -0.699   2.573   1.102  0.00  0.00    -0.004 A 
ATOM      5  C5  N4B d   1      -1.174   1.299   1.217  0.00  0.00     0.002 A 
ATOM      6  C6  N4B d   1      -0.789   0.315   0.329  0.00  0.00     0.002 A 
ENDROOT
BRANCH   1   7
ATOM      7  C1' N4B d   1       0.418  -0.463  -1.679  0.00  0.00     0.057 C 
BRANCH   7   8
ATOM      8  C2' N4B d   1      -0.843  -1.263  -1.992  0.00  0.00     0.009 C 
BRANCH   8   9
ATOM      9  C3' N4B d   1      -0.523  -2.602  -2.633  0.00  0.00     0.004 C 
ATOM     10  C4' N4B d   1       0.189  -2.462  -3.946  0.00  0.00     0.003 C 
ENDBRANCH   8   9
ENDBRANCH   7   8
ENDBRANCH   1   7
TORSDOF 3
ENDMDL
