MODEL 1
REMARK minimizedAffinity -4.97250509
REMARK minimizedRMSD -1
REMARK  3 active torsions:
REMARK  status: ('A' for Active; 'I' for Inactive)
REMARK    1  A    between atoms: C3'_2  and  C2'_3 
REMARK    2  A    between atoms: C2'_3  and  C1'_4 
REMARK    3  A    between atoms: C1'_4  and  C1_5 
ROOT
ATOM      1  C1  N4B d   1      -0.238  -0.941   0.031  0.00  0.00    -0.075 A 
ATOM      2  C2  N4B d   1       0.943  -0.937   0.805  0.00  0.00     0.002 A 
ATOM      3  C3  N4B d   1       1.697   0.206   0.902  0.00  0.00     0.002 A 
ATOM      4  C4  N4B d   1       1.302   1.348   0.220  0.00  0.00    -0.004 A 
ATOM      5  C5  N4B d   1       0.147   1.343  -0.505  0.00  0.00     0.002 A 
ATOM      6  C6  N4B d   1      -0.623   0.202  -0.607  0.00  0.00     0.002 A 
ENDROOT
BRANCH   1   7
ATOM      7  C1' N4B d   1      -1.049  -2.191  -0.173  0.00  0.00     0.057 C 
BRANCH   7   8
ATOM      8  C2' N4B d   1      -0.448  -2.996  -1.322  0.00  0.00     0.009 C 
BRANCH   8   9
ATOM      9  C3' N4B d   1      -1.429  -3.168  -2.470  0.00  0.00     0.004 C 
ATOM     10  C4' N4B d   1      -0.752  -3.236  -3.806  0.00  0.00     0.003 C 
ENDBRANCH   8   9
ENDBRANCH   7   8
ENDBRANCH   1   7
TORSDOF 3
ENDMDL
