MODEL 1
REMARK minimizedAffinity -1.5899868
REMARK minimizedRMSD -1
REMARK  3 active torsions:
REMARK  status: ('A' for Active; 'I' for Inactive)
REMARK    1  A    between atoms: C3'_2  and  C2'_3 
REMARK    2  A    between atoms: C2'_3  and  C1'_4 
REMARK    3  A    between atoms: C1'_4  and  C1_5 
ROOT
ATOM      1  C1  N4B d   1       0.103   2.520  -0.283  0.00  0.00    -0.075 A 
ATOM      2  C2  N4B d   1      -0.737   1.419  -0.557  0.00  0.00     0.002 A 
ATOM      3  C3  N4B d   1      -1.850   1.195   0.216  0.00  0.00     0.002 A 
ATOM      4  C4  N4B d   1      -2.131   2.045   1.276  0.00  0.00    -0.004 A 
ATOM      5  C5  N4B d   1      -1.328   3.121   1.518  0.00  0.00     0.002 A 
ATOM      6  C6  N4B d   1      -0.209   3.360   0.746  0.00  0.00     0.002 A 
ENDROOT
BRANCH   1   7
ATOM      7  C1' N4B d   1       1.377   2.757  -1.047  0.00  0.00     0.057 C 
BRANCH   7   8
ATOM      8  C2' N4B d   1       2.165   1.452  -1.123  0.00  0.00     0.009 C 
BRANCH   8   9
ATOM      9  C3' N4B d   1       2.621   0.983   0.248  0.00  0.00     0.004 C 
ATOM     10  C4' N4B d   1       1.970  -0.301   0.669  0.00  0.00     0.003 C 
ENDBRANCH   8   9
ENDBRANCH   7   8
ENDBRANCH   1   7
TORSDOF 3
ENDMDL
