MODEL 1
REMARK minimizedAffinity -1.45498693
REMARK minimizedRMSD -1
REMARK  3 active torsions:
REMARK  status: ('A' for Active; 'I' for Inactive)
REMARK    1  A    between atoms: C3'_2  and  C2'_3 
REMARK    2  A    between atoms: C2'_3  and  C1'_4 
REMARK    3  A    between atoms: C1'_4  and  C1_5 
ROOT
ATOM      1  C1  N4B d   1       0.318   0.231  -0.177  0.00  0.00    -0.075 A 
ATOM      2  C2  N4B d   1       0.891   1.114  -1.119  0.00  0.00     0.002 A 
ATOM      3  C3  N4B d   1       0.717   2.470  -0.982  0.00  0.00     0.002 A 
ATOM      4  C4  N4B d   1      -0.038   2.962   0.072  0.00  0.00    -0.004 A 
ATOM      5  C5  N4B d   1      -0.566   2.103   0.992  0.00  0.00     0.002 A 
ATOM      6  C6  N4B d   1      -0.396   0.739   0.869  0.00  0.00     0.002 A 
ENDROOT
BRANCH   1   7
ATOM      7  C1' N4B d   1       0.409  -1.263  -0.333  0.00  0.00     0.057 C 
BRANCH   7   8
ATOM      8  C2' N4B d   1       0.378  -1.614  -1.817  0.00  0.00     0.009 C 
BRANCH   8   9
ATOM      9  C3' N4B d   1      -0.019  -3.062  -2.050  0.00  0.00     0.004 C 
ATOM     10  C4' N4B d   1      -1.110  -3.208  -3.068  0.00  0.00     0.003 C 
ENDBRANCH   8   9
ENDBRANCH   7   8
ENDBRANCH   1   7
TORSDOF 3
ENDMDL
