MODEL 1
REMARK minimizedAffinity -5.92969561
REMARK minimizedRMSD -1
REMARK  3 active torsions:
REMARK  status: ('A' for Active; 'I' for Inactive)
REMARK    1  A    between atoms: C3'_2  and  C2'_3 
REMARK    2  A    between atoms: C2'_3  and  C1'_4 
REMARK    3  A    between atoms: C1'_4  and  C1_5 
ROOT
ATOM      1  C1  N4B d   1      -0.803   1.027  -0.436  0.00  0.00    -0.075 A 
ATOM      2  C2  N4B d   1      -1.450   1.667   0.643  0.00  0.00     0.002 A 
ATOM      3  C3  N4B d   1      -0.925   2.821   1.172  0.00  0.00     0.002 A 
ATOM      4  C4  N4B d   1       0.251   3.340   0.653  0.00  0.00    -0.004 A 
ATOM      5  C5  N4B d   1       0.857   2.729  -0.406  0.00  0.00     0.002 A 
ATOM      6  C6  N4B d   1       0.338   1.572  -0.950  0.00  0.00     0.002 A 
ENDROOT
BRANCH   1   7
ATOM      7  C1' N4B d   1      -1.292  -0.282  -0.992  0.00  0.00     0.057 C 
BRANCH   7   8
ATOM      8  C2' N4B d   1      -0.184  -1.324  -0.869  0.00  0.00     0.009 C 
BRANCH   8   9
ATOM      9  C3' N4B d   1       0.009  -2.103  -2.159  0.00  0.00     0.004 C 
ATOM     10  C4' N4B d   1      -1.247  -2.777  -2.624  0.00  0.00     0.003 C 
ENDBRANCH   8   9
ENDBRANCH   7   8
ENDBRANCH   1   7
TORSDOF 3
ENDMDL
