MODEL 1
REMARK minimizedAffinity -4.70103788
REMARK minimizedRMSD -1
REMARK  3 active torsions:
REMARK  status: ('A' for Active; 'I' for Inactive)
REMARK    1  A    between atoms: C3'_2  and  C2'_3 
REMARK    2  A    between atoms: C2'_3  and  C1'_4 
REMARK    3  A    between atoms: C1'_4  and  C1_5 
ROOT
ATOM      1  C1  N4B d   1       0.166   0.218   0.170  0.00  0.00    -0.075 A 
ATOM      2  C2  N4B d   1      -1.118   0.457   0.707  0.00  0.00     0.002 A 
ATOM      3  C3  N4B d   1      -1.577   1.744   0.841  0.00  0.00     0.002 A 
ATOM      4  C4  N4B d   1      -0.766   2.804   0.465  0.00  0.00    -0.004 A 
ATOM      5  C5  N4B d   1       0.463   2.564  -0.076  0.00  0.00     0.002 A 
ATOM      6  C6  N4B d   1       0.936   1.275  -0.221  0.00  0.00     0.002 A 
ENDROOT
BRANCH   1   7
ATOM      7  C1' N4B d   1       0.746  -1.168   0.084  0.00  0.00     0.057 C 
BRANCH   7   8
ATOM      8  C2' N4B d   1      -0.392  -2.183   0.028  0.00  0.00     0.009 C 
BRANCH   8   9
ATOM      9  C3' N4B d   1      -0.447  -2.901  -1.310  0.00  0.00     0.004 C 
ATOM     10  C4' N4B d   1      -1.820  -2.902  -1.913  0.00  0.00     0.003 C 
ENDBRANCH   8   9
ENDBRANCH   7   8
ENDBRANCH   1   7
TORSDOF 3
ENDMDL
