MODEL 1
REMARK minimizedAffinity -4.28176546
REMARK minimizedRMSD -1
REMARK  3 active torsions:
REMARK  status: ('A' for Active; 'I' for Inactive)
REMARK    1  A    between atoms: C3'_2  and  C2'_3 
REMARK    2  A    between atoms: C2'_3  and  C1'_4 
REMARK    3  A    between atoms: C1'_4  and  C1_5 
ROOT
ATOM      1  C1  N4B d   1       0.037  -0.817  -0.018  0.00  0.00    -0.075 A 
ATOM      2  C2  N4B d   1       0.621   0.394  -0.452  0.00  0.00     0.002 A 
ATOM      3  C3  N4B d   1       0.132   1.594   0.002  0.00  0.00     0.002 A 
ATOM      4  C4  N4B d   1      -0.948   1.609   0.872  0.00  0.00    -0.004 A 
ATOM      5  C5  N4B d   1      -1.490   0.435   1.307  0.00  0.00     0.002 A 
ATOM      6  C6  N4B d   1      -1.006  -0.779   0.862  0.00  0.00     0.002 A 
ENDROOT
BRANCH   1   7
ATOM      7  C1' N4B d   1       0.483  -2.150  -0.553  0.00  0.00     0.057 C 
BRANCH   7   8
ATOM      8  C2' N4B d   1      -0.746  -2.977  -0.922  0.00  0.00     0.009 C 
BRANCH   8   9
ATOM      9  C3' N4B d   1      -0.565  -3.704  -2.244  0.00  0.00     0.004 C 
ATOM     10  C4' N4B d   1       0.844  -3.638  -2.755  0.00  0.00     0.003 C 
ENDBRANCH   8   9
ENDBRANCH   7   8
ENDBRANCH   1   7
TORSDOF 3
ENDMDL
