MODEL 1
REMARK minimizedAffinity -5.43207836
REMARK minimizedRMSD -1
REMARK  3 active torsions:
REMARK  status: ('A' for Active; 'I' for Inactive)
REMARK    1  A    between atoms: C3'_2  and  C2'_3 
REMARK    2  A    between atoms: C2'_3  and  C1'_4 
REMARK    3  A    between atoms: C1'_4  and  C1_5 
ROOT
ATOM      1  C1  N4B d   1       0.587   0.925  -0.262  0.00  0.00    -0.075 A 
ATOM      2  C2  N4B d   1       1.935   0.753   0.121  0.00  0.00     0.002 A 
ATOM      3  C3  N4B d   1       2.345  -0.436   0.674  0.00  0.00     0.002 A 
ATOM      4  C4  N4B d   1       1.425  -1.455   0.869  0.00  0.00    -0.004 A 
ATOM      5  C5  N4B d   1       0.130  -1.289   0.473  0.00  0.00     0.002 A 
ATOM      6  C6  N4B d   1      -0.295  -0.101  -0.087  0.00  0.00     0.002 A 
ENDROOT
BRANCH   1   7
ATOM      7  C1' N4B d   1       0.073   2.237  -0.791  0.00  0.00     0.057 C 
BRANCH   7   8
ATOM      8  C2' N4B d   1       0.440   3.349   0.187  0.00  0.00     0.009 C 
BRANCH   8   9
ATOM      9  C3' N4B d   1       0.001   3.027   1.605  0.00  0.00     0.004 C 
ATOM     10  C4' N4B d   1      -1.443   2.632   1.690  0.00  0.00     0.003 C 
ENDBRANCH   8   9
ENDBRANCH   7   8
ENDBRANCH   1   7
TORSDOF 3
ENDMDL
