MODEL 1
REMARK minimizedAffinity 0.357868344
REMARK minimizedRMSD -1
REMARK  3 active torsions:
REMARK  status: ('A' for Active; 'I' for Inactive)
REMARK    1  A    between atoms: C3'_2  and  C2'_3 
REMARK    2  A    between atoms: C2'_3  and  C1'_4 
REMARK    3  A    between atoms: C1'_4  and  C1_5 
ROOT
ATOM      1  C1  N4B d   1       0.086   1.752   0.251  0.00  0.00    -0.075 A 
ATOM      2  C2  N4B d   1       1.346   1.116   0.300  0.00  0.00     0.002 A 
ATOM      3  C3  N4B d   1       1.438  -0.198   0.690  0.00  0.00     0.002 A 
ATOM      4  C4  N4B d   1       0.290  -0.887   1.052  0.00  0.00    -0.004 A 
ATOM      5  C5  N4B d   1      -0.926  -0.274   0.977  0.00  0.00     0.002 A 
ATOM      6  C6  N4B d   1      -1.033   1.045   0.583  0.00  0.00     0.002 A 
ENDROOT
BRANCH   1   7
ATOM      7  C1' N4B d   1      -0.054   3.211  -0.087  0.00  0.00     0.057 C 
BRANCH   7   8
ATOM      8  C2' N4B d   1      -0.261   4.005   1.200  0.00  0.00     0.009 C 
BRANCH   8   9
ATOM      9  C3' N4B d   1      -1.241   3.321   2.138  0.00  0.00     0.004 C 
ATOM     10  C4' N4B d   1      -0.860   3.464   3.581  0.00  0.00     0.003 C 
ENDBRANCH   8   9
ENDBRANCH   7   8
ENDBRANCH   1   7
TORSDOF 3
ENDMDL
