MODEL 1
REMARK minimizedAffinity -3.31147933
REMARK minimizedRMSD -1
REMARK  3 active torsions:
REMARK  status: ('A' for Active; 'I' for Inactive)
REMARK    1  A    between atoms: C3'_2  and  C2'_3 
REMARK    2  A    between atoms: C2'_3  and  C1'_4 
REMARK    3  A    between atoms: C1'_4  and  C1_5 
ROOT
ATOM      1  C1  N4B d   1      -0.591   0.627   0.232  0.00  0.00    -0.075 A 
ATOM      2  C2  N4B d   1      -1.556   1.654   0.151  0.00  0.00     0.002 A 
ATOM      3  C3  N4B d   1      -1.224   2.938   0.510  0.00  0.00     0.002 A 
ATOM      4  C4  N4B d   1       0.056   3.213   0.968  0.00  0.00    -0.004 A 
ATOM      5  C5  N4B d   1       0.990   2.220   1.019  0.00  0.00     0.002 A 
ATOM      6  C6  N4B d   1       0.671   0.926   0.658  0.00  0.00     0.002 A 
ENDROOT
BRANCH   1   7
ATOM      7  C1' N4B d   1      -0.931  -0.808  -0.068  0.00  0.00     0.057 C 
BRANCH   7   8
ATOM      8  C2' N4B d   1       0.183  -1.707   0.460  0.00  0.00     0.009 C 
BRANCH   8   9
ATOM      9  C3' N4B d   1       0.403  -2.920  -0.428  0.00  0.00     0.004 C 
ATOM     10  C4' N4B d   1       0.075  -2.653  -1.867  0.00  0.00     0.003 C 
ENDBRANCH   8   9
ENDBRANCH   7   8
ENDBRANCH   1   7
TORSDOF 3
ENDMDL
