MODEL 1
REMARK minimizedAffinity -5.69899416
REMARK minimizedRMSD -1
REMARK  3 active torsions:
REMARK  status: ('A' for Active; 'I' for Inactive)
REMARK    1  A    between atoms: C3'_2  and  C2'_3 
REMARK    2  A    between atoms: C2'_3  and  C1'_4 
REMARK    3  A    between atoms: C1'_4  and  C1_5 
ROOT
ATOM      1  C1  N4B d   1      -0.038  -0.466  -0.320  0.00  0.00    -0.075 A 
ATOM      2  C2  N4B d   1       1.137  -0.573   0.455  0.00  0.00     0.002 A 
ATOM      3  C3  N4B d   1       1.719  -1.801   0.654  0.00  0.00     0.002 A 
ATOM      4  C4  N4B d   1       1.135  -2.933   0.106  0.00  0.00    -0.004 A 
ATOM      5  C5  N4B d   1       0.014  -2.818  -0.663  0.00  0.00     0.002 A 
ATOM      6  C6  N4B d   1      -0.579  -1.590  -0.874  0.00  0.00     0.002 A 
ENDROOT
BRANCH   1   7
ATOM      7  C1' N4B d   1      -0.758   0.844  -0.495  0.00  0.00     0.057 C 
BRANCH   7   8
ATOM      8  C2' N4B d   1      -1.406   1.239   0.829  0.00  0.00     0.009 C 
BRANCH   8   9
ATOM      9  C3' N4B d   1      -1.020   2.646   1.253  0.00  0.00     0.004 C 
ATOM     10  C4' N4B d   1       0.232   3.131   0.584  0.00  0.00     0.003 C 
ENDBRANCH   8   9
ENDBRANCH   7   8
ENDBRANCH   1   7
TORSDOF 3
ENDMDL
