MODEL 1
REMARK minimizedAffinity -3.99882817
REMARK minimizedRMSD -1
REMARK  3 active torsions:
REMARK  status: ('A' for Active; 'I' for Inactive)
REMARK    1  A    between atoms: C3'_2  and  C2'_3 
REMARK    2  A    between atoms: C2'_3  and  C1'_4 
REMARK    3  A    between atoms: C1'_4  and  C1_5 
ROOT
ATOM      1  C1  N4B d   1       0.140  -0.878   0.319  0.00  0.00    -0.075 A 
ATOM      2  C2  N4B d   1       1.331  -1.249   0.981  0.00  0.00     0.002 A 
ATOM      3  C3  N4B d   1       2.394  -0.381   1.018  0.00  0.00     0.002 A 
ATOM      4  C4  N4B d   1       2.297   0.851   0.388  0.00  0.00    -0.004 A 
ATOM      5  C5  N4B d   1       1.135   1.212  -0.227  0.00  0.00     0.002 A 
ATOM      6  C6  N4B d   1       0.056   0.351  -0.270  0.00  0.00     0.002 A 
ENDROOT
BRANCH   1   7
ATOM      7  C1' N4B d   1      -1.019  -1.827   0.177  0.00  0.00     0.057 C 
BRANCH   7   8
ATOM      8  C2' N4B d   1      -0.624  -2.963  -0.760  0.00  0.00     0.009 C 
BRANCH   8   9
ATOM      9  C3' N4B d   1      -0.897  -2.621  -2.215  0.00  0.00     0.004 C 
ATOM     10  C4' N4B d   1       0.166  -3.133  -3.141  0.00  0.00     0.003 C 
ENDBRANCH   8   9
ENDBRANCH   7   8
ENDBRANCH   1   7
TORSDOF 3
ENDMDL
