MODEL 1
REMARK minimizedAffinity 0.320180029
REMARK minimizedRMSD -1
REMARK  0 active torsions:
REMARK  status: ('A' for Active; 'I' for Inactive)
ROOT
ATOM      1  C   UNL d   1      -2.268  -3.756  -1.625  0.00  0.00     0.172 C 
ATOM      2  N   UNL d   1      -1.152  -3.246  -2.386  0.00  0.00    -0.070 N 
ATOM      3  C1  UNL d   1      -0.388  -3.967  -3.264  0.00  0.00    -0.004 A 
ATOM      4  C2  UNL d   1       0.570  -3.123  -3.783  0.00  0.00    -0.047 A 
ATOM      5  C3  UNL d   1       0.375  -1.850  -3.195  0.00  0.00    -0.047 A 
ATOM      6  C4  UNL d   1      -0.697  -1.955  -2.335  0.00  0.00    -0.004 A 
ENDROOT
TORSDOF 0
ENDMDL
