MODEL 1
REMARK minimizedAffinity -1.65978169
REMARK minimizedRMSD -1
REMARK  0 active torsions:
REMARK  status: ('A' for Active; 'I' for Inactive)
ROOT
ATOM      1  C   UNL d   1       5.999   3.923  -5.941  0.00  0.00     0.172 C 
ATOM      2  N   UNL d   1       4.634   4.395  -5.934  0.00  0.00    -0.070 N 
ATOM      3  C1  UNL d   1       3.517   3.607  -5.861  0.00  0.00    -0.004 A 
ATOM      4  C2  UNL d   1       2.415   4.435  -5.880  0.00  0.00    -0.047 A 
ATOM      5  C3  UNL d   1       2.886   5.766  -5.968  0.00  0.00    -0.047 A 
ATOM      6  C4  UNL d   1       4.264   5.713  -6.000  0.00  0.00    -0.004 A 
ENDROOT
TORSDOF 0
ENDMDL
