MODEL 1
REMARK minimizedAffinity 1.05032766
REMARK minimizedRMSD -1
REMARK  0 active torsions:
REMARK  status: ('A' for Active; 'I' for Inactive)
ROOT
ATOM      1  C   UNL d   1       4.580   5.086   0.365  0.00  0.00     0.172 C 
ATOM      2  N   UNL d   1       3.881   4.223  -0.559  0.00  0.00    -0.070 N 
ATOM      3  C1  UNL d   1       4.467   3.337  -1.422  0.00  0.00    -0.004 A 
ATOM      4  C2  UNL d   1       3.463   2.707  -2.127  0.00  0.00    -0.047 A 
ATOM      5  C3  UNL d   1       2.231   3.234  -1.671  0.00  0.00    -0.047 A 
ATOM      6  C4  UNL d   1       2.519   4.171  -0.701  0.00  0.00    -0.004 A 
ENDROOT
TORSDOF 0
ENDMDL
