MODEL 1
REMARK minimizedAffinity -2.48076677
REMARK minimizedRMSD -1
REMARK  0 active torsions:
REMARK  status: ('A' for Active; 'I' for Inactive)
ROOT
ATOM      1  C   UNL d   1      -3.011   5.973  -5.996  0.00  0.00     0.172 C 
ATOM      2  N   UNL d   1      -2.340   4.695  -5.995  0.00  0.00    -0.070 N 
ATOM      3  C1  UNL d   1      -0.984   4.504  -6.000  0.00  0.00    -0.004 A 
ATOM      4  C2  UNL d   1      -0.749   3.147  -5.998  0.00  0.00    -0.047 A 
ATOM      5  C3  UNL d   1      -2.006   2.498  -5.992  0.00  0.00    -0.047 A 
ATOM      6  C4  UNL d   1      -2.974   3.480  -5.991  0.00  0.00    -0.004 A 
ENDROOT
TORSDOF 0
ENDMDL
