MODEL 1
REMARK minimizedAffinity -0.398460209
REMARK minimizedRMSD -1
REMARK  0 active torsions:
REMARK  status: ('A' for Active; 'I' for Inactive)
ROOT
ATOM      1  C   UNL d   1      -2.524   6.000  -5.999  0.00  0.00     0.172 C 
ATOM      2  N   UNL d   1      -1.341   5.172  -5.998  0.00  0.00    -0.070 N 
ATOM      3  C1  UNL d   1      -0.049   5.625  -6.000  0.00  0.00    -0.004 A 
ATOM      4  C2  UNL d   1       0.784   4.527  -5.997  0.00  0.00    -0.047 A 
ATOM      5  C3  UNL d   1      -0.036   3.374  -5.995  0.00  0.00    -0.047 A 
ATOM      6  C4  UNL d   1      -1.347   3.802  -5.996  0.00  0.00    -0.004 A 
ENDROOT
TORSDOF 0
ENDMDL
