MODEL 1
REMARK minimizedAffinity -2.18152404
REMARK minimizedRMSD -1
REMARK  0 active torsions:
REMARK  status: ('A' for Active; 'I' for Inactive)
ROOT
ATOM      1  C   UNL d   1       4.302   4.503  -5.983  0.00  0.00     0.172 C 
ATOM      2  N   UNL d   1       2.950   3.996  -5.989  0.00  0.00    -0.070 N 
ATOM      3  C1  UNL d   1       1.812   4.757  -5.994  0.00  0.00    -0.004 A 
ATOM      4  C2  UNL d   1       0.732   3.901  -6.000  0.00  0.00    -0.047 A 
ATOM      5  C3  UNL d   1       1.238   2.580  -5.997  0.00  0.00    -0.047 A 
ATOM      6  C4  UNL d   1       2.615   2.667  -5.990  0.00  0.00    -0.004 A 
ENDROOT
TORSDOF 0
ENDMDL
