MODEL 1
REMARK minimizedAffinity -1.9095825
REMARK minimizedRMSD -1
REMARK  0 active torsions:
REMARK  status: ('A' for Active; 'I' for Inactive)
ROOT
ATOM      1  C   UNL d   1      -3.748   3.989  -5.995  0.00  0.00     0.172 C 
ATOM      2  N   UNL d   1      -2.311   4.125  -5.996  0.00  0.00    -0.070 N 
ATOM      3  C1  UNL d   1      -1.620   5.307  -5.996  0.00  0.00    -0.004 A 
ATOM      4  C2  UNL d   1      -0.275   5.010  -5.997  0.00  0.00    -0.047 A 
ATOM      5  C3  UNL d   1      -0.152   3.600  -5.998  0.00  0.00    -0.047 A 
ATOM      6  C4  UNL d   1      -1.428   3.077  -5.997  0.00  0.00    -0.004 A 
ENDROOT
TORSDOF 0
ENDMDL
