MODEL 1
REMARK minimizedAffinity -1.58991957
REMARK minimizedRMSD -1
REMARK  0 active torsions:
REMARK  status: ('A' for Active; 'I' for Inactive)
ROOT
ATOM      1  C   UNL d   1       0.536   4.609  -5.992  0.00  0.00     0.172 C 
ATOM      2  N   UNL d   1       1.973   4.750  -5.995  0.00  0.00    -0.070 N 
ATOM      3  C1  UNL d   1       2.877   3.721  -5.997  0.00  0.00    -0.004 A 
ATOM      4  C2  UNL d   1       4.141   4.269  -6.000  0.00  0.00    -0.047 A 
ATOM      5  C3  UNL d   1       3.993   5.676  -5.997  0.00  0.00    -0.047 A 
ATOM      6  C4  UNL d   1       2.641   5.947  -5.994  0.00  0.00    -0.004 A 
ENDROOT
TORSDOF 0
ENDMDL
