MODEL 1
REMARK minimizedAffinity -2.73214054
REMARK minimizedRMSD -1
REMARK  0 active torsions:
REMARK  status: ('A' for Active; 'I' for Inactive)
ROOT
ATOM      1  C   UNL d   1      -2.989   3.044  -5.999  0.00  0.00     0.172 C 
ATOM      2  N   UNL d   1      -1.577   3.348  -5.997  0.00  0.00    -0.070 N 
ATOM      3  C1  UNL d   1      -0.562   2.429  -5.999  0.00  0.00    -0.004 A 
ATOM      4  C2  UNL d   1       0.631   3.118  -5.997  0.00  0.00    -0.047 A 
ATOM      5  C3  UNL d   1       0.323   4.499  -5.994  0.00  0.00    -0.047 A 
ATOM      6  C4  UNL d   1      -1.051   4.613  -5.994  0.00  0.00    -0.004 A 
ENDROOT
TORSDOF 0
ENDMDL
