MODEL 1
REMARK minimizedAffinity -0.433015943
REMARK minimizedRMSD -1
REMARK  0 active torsions:
REMARK  status: ('A' for Active; 'I' for Inactive)
ROOT
ATOM      1  C   UNL d   1      -1.747   5.977  -5.958  0.00  0.00     0.172 C 
ATOM      2  N   UNL d   1      -0.594   5.108  -5.973  0.00  0.00    -0.070 N 
ATOM      3  C1  UNL d   1      -0.626   3.739  -5.980  0.00  0.00    -0.004 A 
ATOM      4  C2  UNL d   1       0.675   3.286  -5.994  0.00  0.00    -0.047 A 
ATOM      5  C3  UNL d   1       1.519   4.422  -5.995  0.00  0.00    -0.047 A 
ATOM      6  C4  UNL d   1       0.707   5.536  -5.981  0.00  0.00    -0.004 A 
ENDROOT
TORSDOF 0
ENDMDL
