MODEL 1
REMARK minimizedAffinity -1.35198486
REMARK minimizedRMSD -1
REMARK  0 active torsions:
REMARK  status: ('A' for Active; 'I' for Inactive)
ROOT
ATOM      1  C   UNL d   1      -0.557   3.728  -5.998  0.00  0.00     0.172 C 
ATOM      2  N   UNL d   1      -1.935   4.161  -5.998  0.00  0.00    -0.070 N 
ATOM      3  C1  UNL d   1      -2.363   5.462  -5.999  0.00  0.00    -0.004 A 
ATOM      4  C2  UNL d   1      -3.741   5.453  -6.000  0.00  0.00    -0.047 A 
ATOM      5  C3  UNL d   1      -4.155   4.100  -5.999  0.00  0.00    -0.047 A 
ATOM      6  C4  UNL d   1      -3.017   3.321  -5.998  0.00  0.00    -0.004 A 
ENDROOT
TORSDOF 0
ENDMDL
