MODEL 1
REMARK minimizedAffinity -2.75093579
REMARK minimizedRMSD -1
REMARK  0 active torsions:
REMARK  status: ('A' for Active; 'I' for Inactive)
ROOT
ATOM      1  C   UNL d   1      -2.247   2.998  -5.996  0.00  0.00     0.172 C 
ATOM      2  N   UNL d   1      -0.807   3.033  -5.895  0.00  0.00    -0.070 N 
ATOM      3  C1  UNL d   1      -0.049   4.154  -5.684  0.00  0.00    -0.004 A 
ATOM      4  C2  UNL d   1       1.274   3.769  -5.651  0.00  0.00    -0.047 A 
ATOM      5  C3  UNL d   1       1.312   2.368  -5.851  0.00  0.00    -0.047 A 
ATOM      6  C4  UNL d   1       0.010   1.939  -6.000  0.00  0.00    -0.004 A 
ENDROOT
TORSDOF 0
ENDMDL
