MODEL 1
REMARK minimizedAffinity -0.98071295
REMARK minimizedRMSD -1
REMARK  0 active torsions:
REMARK  status: ('A' for Active; 'I' for Inactive)
ROOT
ATOM      1  C   UNL d   1      -2.735   5.954  -5.990  0.00  0.00     0.172 C 
ATOM      2  N   UNL d   1      -1.544   5.137  -5.993  0.00  0.00    -0.070 N 
ATOM      3  C1  UNL d   1      -1.515   3.768  -5.989  0.00  0.00    -0.004 A 
ATOM      4  C2  UNL d   1      -0.195   3.374  -5.994  0.00  0.00    -0.047 A 
ATOM      5  C3  UNL d   1       0.597   4.546  -5.999  0.00  0.00    -0.047 A 
ATOM      6  C4  UNL d   1      -0.264   5.623  -5.998  0.00  0.00    -0.004 A 
ENDROOT
TORSDOF 0
ENDMDL
