MODEL 1
REMARK minimizedAffinity -2.36072898
REMARK minimizedRMSD -1
REMARK  0 active torsions:
REMARK  status: ('A' for Active; 'I' for Inactive)
ROOT
ATOM      1  C   UNL d   1      -2.771   2.998  -5.997  0.00  0.00     0.172 C 
ATOM      2  N   UNL d   1      -1.413   3.491  -5.995  0.00  0.00    -0.070 N 
ATOM      3  C1  UNL d   1      -1.042   4.809  -5.988  0.00  0.00    -0.004 A 
ATOM      4  C2  UNL d   1       0.335   4.859  -5.988  0.00  0.00    -0.047 A 
ATOM      5  C3  UNL d   1       0.808   3.525  -5.996  0.00  0.00    -0.047 A 
ATOM      6  C4  UNL d   1      -0.296   2.698  -6.000  0.00  0.00    -0.004 A 
ENDROOT
TORSDOF 0
ENDMDL
