MODEL 1
REMARK minimizedAffinity -2.92435908
REMARK minimizedRMSD -1
REMARK  1 active torsions:
REMARK  status: ('A' for Active; 'I' for Inactive)
REMARK    1  A    between atoms: C1_2  and  C2_3 
ROOT
ATOM      1  C2  UNL d   1      -0.451  -0.676  -0.997  0.00  0.00    -0.081 A 
ATOM      2  C3  UNL d   1      -1.399  -0.097  -0.144  0.00  0.00     0.006 A 
ATOM      3  C4  UNL d   1      -1.000   0.788   0.860  0.00  0.00     0.002 A 
ATOM      4  C5  UNL d   1       0.350   1.115   1.023  0.00  0.00    -0.080 A 
ATOM      5  C6  UNL d   1       0.788   2.087   2.078  0.00  0.00     0.076 C 
ATOM      6  C7  UNL d   1       1.299   0.523   0.183  0.00  0.00     0.002 A 
ATOM      7  C8  UNL d   1       0.901  -0.363  -0.821  0.00  0.00     0.006 A 
ENDROOT
BRANCH   1   8
ATOM      8  C1  UNL d   1      -0.884  -1.581  -2.123  0.00  0.00     0.054 C 
ATOM      9  C   UNL d   1      -2.354  -1.955  -1.997  0.00  0.00     0.018 C 
ENDBRANCH   1   8
TORSDOF 1
ENDMDL
