MODEL 1
REMARK minimizedAffinity -3.94561529
REMARK minimizedRMSD -1
REMARK  1 active torsions:
REMARK  status: ('A' for Active; 'I' for Inactive)
REMARK    1  A    between atoms: C1_2  and  C2_3 
ROOT
ATOM      1  C2  UNL d   1      -0.559  -0.957  -0.773  0.00  0.00    -0.081 A 
ATOM      2  C3  UNL d   1      -1.233  -0.088   0.094  0.00  0.00     0.006 A 
ATOM      3  C4  UNL d   1      -0.532   0.893   0.799  0.00  0.00     0.002 A 
ATOM      4  C5  UNL d   1       0.852   1.027   0.643  0.00  0.00    -0.080 A 
ATOM      5  C6  UNL d   1       1.612   2.096   1.371  0.00  0.00     0.076 C 
ATOM      6  C7  UNL d   1       1.528   0.148  -0.210  0.00  0.00     0.002 A 
ATOM      7  C8  UNL d   1       0.828  -0.833  -0.915  0.00  0.00     0.006 A 
ENDROOT
BRANCH   1   8
ATOM      8  C1  UNL d   1      -1.321  -1.974  -1.584  0.00  0.00     0.054 C 
ATOM      9  C   UNL d   1      -1.867  -1.362  -2.866  0.00  0.00     0.018 C 
ENDBRANCH   1   8
TORSDOF 1
ENDMDL
