MODEL 1
REMARK minimizedAffinity -3.05149817
REMARK minimizedRMSD -1
REMARK  1 active torsions:
REMARK  status: ('A' for Active; 'I' for Inactive)
REMARK    1  A    between atoms: C1_2  and  C2_3 
ROOT
ATOM      1  C2  UNL d   1      -0.625  -0.731  -0.468  0.00  0.00    -0.081 A 
ATOM      2  C3  UNL d   1      -0.895  -0.271   0.826  0.00  0.00     0.006 A 
ATOM      3  C4  UNL d   1      -0.197   0.821   1.349  0.00  0.00     0.002 A 
ATOM      4  C5  UNL d   1       0.776   1.474   0.585  0.00  0.00    -0.080 A 
ATOM      5  C6  UNL d   1       1.511   2.665   1.123  0.00  0.00     0.076 C 
ATOM      6  C7  UNL d   1       1.057   1.003  -0.702  0.00  0.00     0.002 A 
ATOM      7  C8  UNL d   1       0.360  -0.088  -1.226  0.00  0.00     0.006 A 
ENDROOT
BRANCH   1   8
ATOM      8  C1  UNL d   1      -1.421  -1.867  -1.059  0.00  0.00     0.054 C 
ATOM      9  C   UNL d   1      -2.096  -1.452  -2.359  0.00  0.00     0.018 C 
ENDBRANCH   1   8
TORSDOF 1
ENDMDL
