MODEL 1
REMARK minimizedAffinity -5.3917923
REMARK minimizedRMSD -1
REMARK  1 active torsions:
REMARK  status: ('A' for Active; 'I' for Inactive)
REMARK    1  A    between atoms: C1_2  and  C2_3 
ROOT
ATOM      1  C2  UNL d   1      -0.789  -0.852  -0.468  0.00  0.00    -0.081 A 
ATOM      2  C3  UNL d   1      -1.390  -0.029   0.493  0.00  0.00     0.006 A 
ATOM      3  C4  UNL d   1      -0.677   1.027   1.066  0.00  0.00     0.002 A 
ATOM      4  C5  UNL d   1       0.644   1.283   0.683  0.00  0.00    -0.080 A 
ATOM      5  C6  UNL d   1       1.410   2.432   1.268  0.00  0.00     0.076 C 
ATOM      6  C7  UNL d   1       1.250   0.450  -0.264  0.00  0.00     0.002 A 
ATOM      7  C8  UNL d   1       0.538  -0.607  -0.837  0.00  0.00     0.006 A 
ENDROOT
BRANCH   1   8
ATOM      8  C1  UNL d   1      -1.575  -1.952  -1.134  0.00  0.00     0.054 C 
ATOM      9  C   UNL d   1      -2.217  -1.467  -2.427  0.00  0.00     0.018 C 
ENDBRANCH   1   8
TORSDOF 1
ENDMDL
