MODEL 1
REMARK minimizedAffinity -3.20363498
REMARK minimizedRMSD -1
REMARK  1 active torsions:
REMARK  status: ('A' for Active; 'I' for Inactive)
REMARK    1  A    between atoms: C1_2  and  C2_3 
ROOT
ATOM      1  C2  UNL d   1      -1.007  -1.235  -1.158  0.00  0.00    -0.081 A 
ATOM      2  C3  UNL d   1      -1.422   0.083  -0.934  0.00  0.00     0.006 A 
ATOM      3  C4  UNL d   1      -0.550   1.012  -0.360  0.00  0.00     0.002 A 
ATOM      4  C5  UNL d   1       0.752   0.641  -0.008  0.00  0.00    -0.080 A 
ATOM      5  C6  UNL d   1       1.707   1.636   0.581  0.00  0.00     0.076 C 
ATOM      6  C7  UNL d   1       1.161  -0.681  -0.216  0.00  0.00     0.002 A 
ATOM      7  C8  UNL d   1       0.290  -1.610  -0.789  0.00  0.00     0.006 A 
ENDROOT
BRANCH   1   8
ATOM      8  C1  UNL d   1      -1.922  -2.222  -1.836  0.00  0.00     0.054 C 
ATOM      9  C   UNL d   1      -2.316  -1.746  -3.227  0.00  0.00     0.018 C 
ENDBRANCH   1   8
TORSDOF 1
ENDMDL
