MODEL 1
REMARK minimizedAffinity -3.53184628
REMARK minimizedRMSD -1
REMARK  1 active torsions:
REMARK  status: ('A' for Active; 'I' for Inactive)
REMARK    1  A    between atoms: C1_2  and  C2_3 
ROOT
ATOM      1  C2  UNL d   1      -0.525  -0.638  -0.502  0.00  0.00    -0.081 A 
ATOM      2  C3  UNL d   1      -1.098   0.004   0.602  0.00  0.00     0.006 A 
ATOM      3  C4  UNL d   1      -0.506   1.148   1.143  0.00  0.00     0.002 A 
ATOM      4  C5  UNL d   1       0.665   1.673   0.585  0.00  0.00    -0.080 A 
ATOM      5  C6  UNL d   1       1.294   2.917   1.137  0.00  0.00     0.076 C 
ATOM      6  C7  UNL d   1       1.248   1.021  -0.507  0.00  0.00     0.002 A 
ATOM      7  C8  UNL d   1       0.656  -0.123  -1.048  0.00  0.00     0.006 A 
ENDROOT
BRANCH   1   8
ATOM      8  C1  UNL d   1      -1.196  -1.833  -1.127  0.00  0.00     0.054 C 
ATOM      9  C   UNL d   1      -1.934  -1.449  -2.402  0.00  0.00     0.018 C 
ENDBRANCH   1   8
TORSDOF 1
ENDMDL
