MODEL 1
REMARK minimizedAffinity -4.48030424
REMARK minimizedRMSD -1
REMARK  1 active torsions:
REMARK  status: ('A' for Active; 'I' for Inactive)
REMARK    1  A    between atoms: C1_2  and  C2_3 
ROOT
ATOM      1  C2  UNL d   1      -0.847  -0.739  -0.548  0.00  0.00    -0.081 A 
ATOM      2  C3  UNL d   1      -1.539   0.019   0.403  0.00  0.00     0.006 A 
ATOM      3  C4  UNL d   1      -0.945   1.145   0.980  0.00  0.00     0.002 A 
ATOM      4  C5  UNL d   1       0.346   1.535   0.608  0.00  0.00    -0.080 A 
ATOM      5  C6  UNL d   1       0.983   2.758   1.197  0.00  0.00     0.076 C 
ATOM      6  C7  UNL d   1       1.044   0.767  -0.330  0.00  0.00     0.002 A 
ATOM      7  C8  UNL d   1       0.451  -0.359  -0.906  0.00  0.00     0.006 A 
ENDROOT
BRANCH   1   8
ATOM      8  C1  UNL d   1      -1.509  -1.916  -1.219  0.00  0.00     0.054 C 
ATOM      9  C   UNL d   1      -2.092  -1.527  -2.570  0.00  0.00     0.018 C 
ENDBRANCH   1   8
TORSDOF 1
ENDMDL
