MODEL 1
REMARK minimizedAffinity -5.78963661
REMARK minimizedRMSD -1
REMARK  1 active torsions:
REMARK  status: ('A' for Active; 'I' for Inactive)
REMARK    1  A    between atoms: C1_2  and  C2_3 
ROOT
ATOM      1  C2  UNL d   1      -0.591  -0.434  -0.696  0.00  0.00    -0.081 A 
ATOM      2  C3  UNL d   1      -1.381  -0.061   0.399  0.00  0.00     0.006 A 
ATOM      3  C4  UNL d   1      -0.979   0.980   1.240  0.00  0.00     0.002 A 
ATOM      4  C5  UNL d   1       0.213   1.670   0.996  0.00  0.00    -0.080 A 
ATOM      5  C6  UNL d   1       0.641   2.809   1.873  0.00  0.00     0.076 C 
ATOM      6  C7  UNL d   1       1.010   1.286  -0.088  0.00  0.00     0.002 A 
ATOM      7  C8  UNL d   1       0.610   0.245  -0.928  0.00  0.00     0.006 A 
ENDROOT
BRANCH   1   8
ATOM      8  C1  UNL d   1      -1.054  -1.513  -1.641  0.00  0.00     0.054 C 
ATOM      9  C   UNL d   1      -1.936  -0.942  -2.742  0.00  0.00     0.018 C 
ENDBRANCH   1   8
TORSDOF 1
ENDMDL
