MODEL 1
REMARK minimizedAffinity -4.54474354
REMARK minimizedRMSD -1
REMARK  1 active torsions:
REMARK  status: ('A' for Active; 'I' for Inactive)
REMARK    1  A    between atoms: C1_2  and  C2_3 
ROOT
ATOM      1  C2  UNL d   1      -0.389  -0.552  -0.300  0.00  0.00    -0.081 A 
ATOM      2  C3  UNL d   1      -1.031   0.121   0.747  0.00  0.00     0.006 A 
ATOM      3  C4  UNL d   1      -0.505   1.312   1.252  0.00  0.00     0.002 A 
ATOM      4  C5  UNL d   1       0.667   1.855   0.713  0.00  0.00    -0.080 A 
ATOM      5  C6  UNL d   1       1.225   3.149   1.226  0.00  0.00     0.076 C 
ATOM      6  C7  UNL d   1       1.318   1.174  -0.321  0.00  0.00     0.002 A 
ATOM      7  C8  UNL d   1       0.793  -0.017  -0.826  0.00  0.00     0.006 A 
ENDROOT
BRANCH   1   8
ATOM      8  C1  UNL d   1      -0.989  -1.802  -0.890  0.00  0.00     0.054 C 
ATOM      9  C   UNL d   1      -1.767  -1.496  -2.162  0.00  0.00     0.018 C 
ENDBRANCH   1   8
TORSDOF 1
ENDMDL
