MODEL 1
REMARK minimizedAffinity -5.52796888
REMARK minimizedRMSD -1
REMARK  1 active torsions:
REMARK  status: ('A' for Active; 'I' for Inactive)
REMARK    1  A    between atoms: C1_2  and  C2_3 
ROOT
ATOM      1  C2  UNL d   1      -0.592  -0.654  -0.422  0.00  0.00    -0.081 A 
ATOM      2  C3  UNL d   1      -1.015  -0.311   0.868  0.00  0.00     0.006 A 
ATOM      3  C4  UNL d   1      -0.536   0.847   1.486  0.00  0.00     0.002 A 
ATOM      4  C5  UNL d   1       0.367   1.684   0.822  0.00  0.00    -0.080 A 
ATOM      5  C6  UNL d   1       0.866   2.945   1.462  0.00  0.00     0.076 C 
ATOM      6  C7  UNL d   1       0.803   1.332  -0.460  0.00  0.00     0.002 A 
ATOM      7  C8  UNL d   1       0.325   0.175  -1.078  0.00  0.00     0.006 A 
ENDROOT
BRANCH   1   8
ATOM      8  C1  UNL d   1      -1.157  -1.867  -1.116  0.00  0.00     0.054 C 
ATOM      9  C   UNL d   1      -1.533  -1.554  -2.558  0.00  0.00     0.018 C 
ENDBRANCH   1   8
TORSDOF 1
ENDMDL
