MODEL 1
REMARK minimizedAffinity -1.50648367
REMARK minimizedRMSD -1
REMARK  1 active torsions:
REMARK  status: ('A' for Active; 'I' for Inactive)
REMARK    1  A    between atoms: C1_2  and  C2_3 
ROOT
ATOM      1  C2  UNL d   1       0.423   1.065   1.071  0.00  0.00    -0.081 A 
ATOM      2  C3  UNL d   1       0.847   0.956  -0.260  0.00  0.00     0.006 A 
ATOM      3  C4  UNL d   1       0.123   0.184  -1.172  0.00  0.00     0.002 A 
ATOM      4  C5  UNL d   1      -1.039  -0.484  -0.772  0.00  0.00    -0.080 A 
ATOM      5  C6  UNL d   1      -1.842  -1.291  -1.749  0.00  0.00     0.076 C 
ATOM      6  C7  UNL d   1      -1.452  -0.389   0.561  0.00  0.00     0.002 A 
ATOM      7  C8  UNL d   1      -0.729   0.381   1.474  0.00  0.00     0.006 A 
ENDROOT
BRANCH   1   8
ATOM      8  C1  UNL d   1       1.165   1.948   2.041  0.00  0.00     0.054 C 
ATOM      9  C   UNL d   1       1.589   3.255   1.387  0.00  0.00     0.018 C 
ENDBRANCH   1   8
TORSDOF 1
ENDMDL
