MODEL 1
REMARK minimizedAffinity -4.58304977
REMARK minimizedRMSD -1
REMARK  1 active torsions:
REMARK  status: ('A' for Active; 'I' for Inactive)
REMARK    1  A    between atoms: C1_2  and  C2_3 
ROOT
ATOM      1  C2  UNL d   1       1.164   0.104   0.035  0.00  0.00    -0.081 A 
ATOM      2  C3  UNL d   1       2.505   0.392  -0.246  0.00  0.00     0.006 A 
ATOM      3  C4  UNL d   1       3.094   1.563   0.236  0.00  0.00     0.002 A 
ATOM      4  C5  UNL d   1       2.356   2.461   1.015  0.00  0.00    -0.080 A 
ATOM      5  C6  UNL d   1       2.985   3.706   1.564  0.00  0.00     0.076 C 
ATOM      6  C7  UNL d   1       1.011   2.182   1.282  0.00  0.00     0.002 A 
ATOM      7  C8  UNL d   1       0.421   1.012   0.799  0.00  0.00     0.006 A 
ENDROOT
BRANCH   1   8
ATOM      8  C1  UNL d   1       0.543  -1.189  -0.429  0.00  0.00     0.054 C 
ATOM      9  C   UNL d   1      -0.929  -1.264  -0.049  0.00  0.00     0.018 C 
ENDBRANCH   1   8
TORSDOF 1
ENDMDL
