MODEL 1
REMARK minimizedAffinity -4.2182622
REMARK minimizedRMSD -1
REMARK  1 active torsions:
REMARK  status: ('A' for Active; 'I' for Inactive)
REMARK    1  A    between atoms: C1_2  and  C2_3 
ROOT
ATOM      1  C2  UNL d   1      -0.591  -0.402  -0.380  0.00  0.00    -0.081 A 
ATOM      2  C3  UNL d   1      -1.079   0.314   0.720  0.00  0.00     0.006 A 
ATOM      3  C4  UNL d   1      -0.299   1.302   1.324  0.00  0.00     0.002 A 
ATOM      4  C5  UNL d   1       0.978   1.596   0.834  0.00  0.00    -0.080 A 
ATOM      5  C6  UNL d   1       1.815   2.676   1.455  0.00  0.00     0.076 C 
ATOM      6  C7  UNL d   1       1.473   0.869  -0.254  0.00  0.00     0.002 A 
ATOM      7  C8  UNL d   1       0.693  -0.120  -0.858  0.00  0.00     0.006 A 
ENDROOT
BRANCH   1   8
ATOM      8  C1  UNL d   1      -1.456  -1.424  -1.074  0.00  0.00     0.054 C 
ATOM      9  C   UNL d   1      -1.783  -0.996  -2.498  0.00  0.00     0.018 C 
ENDBRANCH   1   8
TORSDOF 1
ENDMDL
