MODEL 1
REMARK minimizedAffinity -3.89658666
REMARK minimizedRMSD -1
REMARK  0 active torsions:
REMARK  status: ('A' for Active; 'I' for Inactive)
ROOT
ATOM      1  C1  BNZ d   1      -0.431  -2.206  -1.092  0.00  0.00     0.000 A 
ATOM      2  C2  BNZ d   1      -0.152  -0.873  -0.947  0.00  0.00     0.000 A 
ATOM      3  C3  BNZ d   1      -0.461  -0.215   0.210  0.00  0.00     0.000 A 
ATOM      4  C4  BNZ d   1      -1.084  -0.880   1.205  0.00  0.00     0.000 A 
ATOM      5  C5  BNZ d   1      -1.379  -2.222   1.071  0.00  0.00     0.000 A 
ATOM      6  C6  BNZ d   1      -1.032  -2.890  -0.081  0.00  0.00     0.000 A 
ENDROOT
TORSDOF 0
ENDMDL
