MODEL 1
REMARK minimizedAffinity -5.16873693
REMARK minimizedRMSD -1
REMARK  0 active torsions:
REMARK  status: ('A' for Active; 'I' for Inactive)
ROOT
ATOM      1  C1  BNZ d   1       0.560  -1.000  -0.612  0.00  0.00     0.000 A 
ATOM      2  C2  BNZ d   1       0.365  -1.801   0.482  0.00  0.00     0.000 A 
ATOM      3  C3  BNZ d   1      -0.114  -3.073   0.342  0.00  0.00     0.000 A 
ATOM      4  C4  BNZ d   1      -0.434  -3.529  -0.886  0.00  0.00     0.000 A 
ATOM      5  C5  BNZ d   1      -0.251  -2.731  -1.998  0.00  0.00     0.000 A 
ATOM      6  C6  BNZ d   1       0.267  -1.465  -1.857  0.00  0.00     0.000 A 
ENDROOT
TORSDOF 0
ENDMDL
