MODEL 1
REMARK minimizedAffinity -4.70303011
REMARK minimizedRMSD -1
REMARK  0 active torsions:
REMARK  status: ('A' for Active; 'I' for Inactive)
ROOT
ATOM      1  C1  BNZ d   1      -1.363  -0.415   1.058  0.00  0.00     0.000 A 
ATOM      2  C2  BNZ d   1      -0.145  -0.012   0.577  0.00  0.00     0.000 A 
ATOM      3  C3  BNZ d   1       0.756  -0.924   0.103  0.00  0.00     0.000 A 
ATOM      4  C4  BNZ d   1       0.455  -2.238   0.147  0.00  0.00     0.000 A 
ATOM      5  C5  BNZ d   1      -0.764  -2.660   0.637  0.00  0.00     0.000 A 
ATOM      6  C6  BNZ d   1      -1.685  -1.737   1.078  0.00  0.00     0.000 A 
ENDROOT
TORSDOF 0
ENDMDL
