MODEL 1
REMARK minimizedAffinity -2.47054076
REMARK minimizedRMSD -1
REMARK  0 active torsions:
REMARK  status: ('A' for Active; 'I' for Inactive)
ROOT
ATOM      1  C1  BNZ d   1      -1.650  -0.769   1.251  0.00  0.00     0.000 A 
ATOM      2  C2  BNZ d   1      -0.810   0.176   0.726  0.00  0.00     0.000 A 
ATOM      3  C3  BNZ d   1       0.035  -0.132  -0.303  0.00  0.00     0.000 A 
ATOM      4  C4  BNZ d   1       0.068  -1.394  -0.778  0.00  0.00     0.000 A 
ATOM      5  C5  BNZ d   1      -0.766  -2.361  -0.254  0.00  0.00     0.000 A 
ATOM      6  C6  BNZ d   1      -1.643  -2.037   0.756  0.00  0.00     0.000 A 
ENDROOT
TORSDOF 0
ENDMDL
