MODEL 1
REMARK minimizedAffinity -5.31192207
REMARK minimizedRMSD -1
REMARK  0 active torsions:
REMARK  status: ('A' for Active; 'I' for Inactive)
ROOT
ATOM      1  C1  BNZ d   1      -0.029  -0.449   0.715  0.00  0.00     0.000 A 
ATOM      2  C2  BNZ d   1       0.999  -1.285   0.372  0.00  0.00     0.000 A 
ATOM      3  C3  BNZ d   1       0.779  -2.620   0.175  0.00  0.00     0.000 A 
ATOM      4  C4  BNZ d   1      -0.458  -3.123   0.361  0.00  0.00     0.000 A 
ATOM      5  C5  BNZ d   1      -1.504  -2.294   0.716  0.00  0.00     0.000 A 
ATOM      6  C6  BNZ d   1      -1.287  -0.944   0.875  0.00  0.00     0.000 A 
ENDROOT
TORSDOF 0
ENDMDL
