MODEL 1
REMARK minimizedAffinity -4.9020648
REMARK minimizedRMSD -1
REMARK  0 active torsions:
REMARK  status: ('A' for Active; 'I' for Inactive)
ROOT
ATOM      1  C1  BNZ d   1      -0.669  -1.762   1.157  0.00  0.00     0.000 A 
ATOM      2  C2  BNZ d   1      -0.978  -0.440   1.338  0.00  0.00     0.000 A 
ATOM      3  C3  BNZ d   1      -0.649   0.492   0.393  0.00  0.00     0.000 A 
ATOM      4  C4  BNZ d   1       0.022   0.107  -0.711  0.00  0.00     0.000 A 
ATOM      5  C5  BNZ d   1       0.349  -1.220  -0.904  0.00  0.00     0.000 A 
ATOM      6  C6  BNZ d   1      -0.018  -2.161   0.030  0.00  0.00     0.000 A 
ENDROOT
TORSDOF 0
ENDMDL
