MODEL 1
REMARK minimizedAffinity -2.95858574
REMARK minimizedRMSD -1
REMARK  0 active torsions:
REMARK  status: ('A' for Active; 'I' for Inactive)
ROOT
ATOM      1  C1  BNZ d   1       1.360   2.795   0.810  0.00  0.00     0.000 A 
ATOM      2  C2  BNZ d   1       0.956   1.534   1.160  0.00  0.00     0.000 A 
ATOM      3  C3  BNZ d   1       0.200   0.780   0.308  0.00  0.00     0.000 A 
ATOM      4  C4  BNZ d   1      -0.186   1.301  -0.875  0.00  0.00     0.000 A 
ATOM      5  C5  BNZ d   1       0.205   2.574  -1.239  0.00  0.00     0.000 A 
ATOM      6  C6  BNZ d   1       0.999   3.316  -0.395  0.00  0.00     0.000 A 
ENDROOT
TORSDOF 0
ENDMDL
