MODEL 1
REMARK minimizedAffinity -4.78407001
REMARK minimizedRMSD -1
REMARK  0 active torsions:
REMARK  status: ('A' for Active; 'I' for Inactive)
ROOT
ATOM      1  C1  BNZ d   1      -0.754  -0.912   1.267  0.00  0.00     0.000 A 
ATOM      2  C2  BNZ d   1      -0.918  -2.268   1.162  0.00  0.00     0.000 A 
ATOM      3  C3  BNZ d   1      -0.253  -2.981   0.204  0.00  0.00     0.000 A 
ATOM      4  C4  BNZ d   1       0.543  -2.333  -0.671  0.00  0.00     0.000 A 
ATOM      5  C5  BNZ d   1       0.712  -0.966  -0.583  0.00  0.00     0.000 A 
ATOM      6  C6  BNZ d   1       0.071  -0.257   0.406  0.00  0.00     0.000 A 
ENDROOT
TORSDOF 0
ENDMDL
