MODEL 1
REMARK minimizedAffinity -3.11627817
REMARK minimizedRMSD -1
REMARK  0 active torsions:
REMARK  status: ('A' for Active; 'I' for Inactive)
ROOT
ATOM      1  C1  BNZ d   1       0.974   3.309   2.331  0.00  0.00     0.000 A 
ATOM      2  C2  BNZ d   1       2.298   3.411   1.994  0.00  0.00     0.000 A 
ATOM      3  C3  BNZ d   1       2.704   3.254   0.699  0.00  0.00     0.000 A 
ATOM      4  C4  BNZ d   1       1.793   2.957  -0.250  0.00  0.00     0.000 A 
ATOM      5  C5  BNZ d   1       0.457   2.842   0.075  0.00  0.00     0.000 A 
ATOM      6  C6  BNZ d   1       0.046   3.039   1.373  0.00  0.00     0.000 A 
ENDROOT
TORSDOF 0
ENDMDL
