MODEL 1
REMARK minimizedAffinity -0.891257882
REMARK minimizedRMSD -1
REMARK  0 active torsions:
REMARK  status: ('A' for Active; 'I' for Inactive)
ROOT
ATOM      1  C1  BNZ d   1      -1.877  -3.104   1.238  0.00  0.00     0.000 A 
ATOM      2  C2  BNZ d   1      -2.251  -1.793   1.366  0.00  0.00     0.000 A 
ATOM      3  C3  BNZ d   1      -1.330  -0.789   1.261  0.00  0.00     0.000 A 
ATOM      4  C4  BNZ d   1      -0.031  -1.098   1.069  0.00  0.00     0.000 A 
ATOM      5  C5  BNZ d   1       0.363  -2.416   0.947  0.00  0.00     0.000 A 
ATOM      6  C6  BNZ d   1      -0.573  -3.422   1.014  0.00  0.00     0.000 A 
ENDROOT
TORSDOF 0
ENDMDL
