MODEL 1
REMARK minimizedAffinity -4.59937096
REMARK minimizedRMSD -1
REMARK  0 active torsions:
REMARK  status: ('A' for Active; 'I' for Inactive)
ROOT
ATOM      1  C1  BNZ d   1       0.431  -2.389  -0.146  0.00  0.00     0.000 A 
ATOM      2  C2  BNZ d   1       0.493  -1.026  -0.027  0.00  0.00     0.000 A 
ATOM      3  C3  BNZ d   1      -0.456  -0.342   0.680  0.00  0.00     0.000 A 
ATOM      4  C4  BNZ d   1      -1.487  -1.016   1.231  0.00  0.00     0.000 A 
ATOM      5  C5  BNZ d   1      -1.568  -2.389   1.111  0.00  0.00     0.000 A 
ATOM      6  C6  BNZ d   1      -0.589  -3.078   0.432  0.00  0.00     0.000 A 
ENDROOT
TORSDOF 0
ENDMDL
