MODEL 1
REMARK minimizedAffinity -2.47627831
REMARK minimizedRMSD -1
REMARK  0 active torsions:
REMARK  status: ('A' for Active; 'I' for Inactive)
ROOT
ATOM      1  C1  BNZ d   1       0.930  -1.033  -0.657  0.00  0.00     0.000 A 
ATOM      2  C2  BNZ d   1       1.196   0.002   0.199  0.00  0.00     0.000 A 
ATOM      3  C3  BNZ d   1       0.791   1.274  -0.094  0.00  0.00     0.000 A 
ATOM      4  C4  BNZ d   1       0.156   1.516  -1.259  0.00  0.00     0.000 A 
ATOM      5  C5  BNZ d   1      -0.112   0.484  -2.136  0.00  0.00     0.000 A 
ATOM      6  C6  BNZ d   1       0.263  -0.802  -1.820  0.00  0.00     0.000 A 
ENDROOT
TORSDOF 0
ENDMDL
