MODEL 1
REMARK minimizedAffinity -4.30927038
REMARK minimizedRMSD -1
REMARK  0 active torsions:
REMARK  status: ('A' for Active; 'I' for Inactive)
ROOT
ATOM      1  C1  BNZ d   1      -0.209   2.140   0.811  0.00  0.00     0.000 A 
ATOM      2  C2  BNZ d   1       0.824   2.023  -0.081  0.00  0.00     0.000 A 
ATOM      3  C3  BNZ d   1       1.824   2.954  -0.120  0.00  0.00     0.000 A 
ATOM      4  C4  BNZ d   1       1.769   4.021   0.703  0.00  0.00     0.000 A 
ATOM      5  C5  BNZ d   1       0.729   4.158   1.601  0.00  0.00     0.000 A 
ATOM      6  C6  BNZ d   1      -0.255   3.198   1.665  0.00  0.00     0.000 A 
ENDROOT
TORSDOF 0
ENDMDL
