MODEL 1
REMARK minimizedAffinity -4.21020746
REMARK minimizedRMSD -1
REMARK  0 active torsions:
REMARK  status: ('A' for Active; 'I' for Inactive)
ROOT
ATOM      1  C1  BNZ d   1      -0.022  -0.810  -0.819  0.00  0.00     0.000 A 
ATOM      2  C2  BNZ d   1      -0.466  -1.591   0.215  0.00  0.00     0.000 A 
ATOM      3  C3  BNZ d   1      -0.654  -2.935   0.046  0.00  0.00     0.000 A 
ATOM      4  C4  BNZ d   1      -0.436  -3.487  -1.165  0.00  0.00     0.000 A 
ATOM      5  C5  BNZ d   1       0.002  -2.712  -2.219  0.00  0.00     0.000 A 
ATOM      6  C6  BNZ d   1       0.228  -1.367  -2.035  0.00  0.00     0.000 A 
ENDROOT
TORSDOF 0
ENDMDL
