MODEL 1
REMARK minimizedAffinity -2.23272276
REMARK minimizedRMSD -1
REMARK  0 active torsions:
REMARK  status: ('A' for Active; 'I' for Inactive)
ROOT
ATOM      1  C1  BNZ d   1      -0.296  -1.135   0.044  0.00  0.00     0.000 A 
ATOM      2  C2  BNZ d   1      -0.838  -0.156   0.834  0.00  0.00     0.000 A 
ATOM      3  C3  BNZ d   1      -0.953   1.127   0.377  0.00  0.00     0.000 A 
ATOM      4  C4  BNZ d   1      -0.490   1.439  -0.850  0.00  0.00     0.000 A 
ATOM      5  C5  BNZ d   1       0.068   0.465  -1.655  0.00  0.00     0.000 A 
ATOM      6  C6  BNZ d   1       0.146  -0.834  -1.207  0.00  0.00     0.000 A 
ENDROOT
TORSDOF 0
ENDMDL
