MODEL 1
REMARK minimizedAffinity -5.4528389
REMARK minimizedRMSD -1
REMARK  0 active torsions:
REMARK  status: ('A' for Active; 'I' for Inactive)
ROOT
ATOM      1  C1  BNZ d   1      -0.016  -3.589  -0.799  0.00  0.00     0.000 A 
ATOM      2  C2  BNZ d   1      -0.171  -2.824   0.327  0.00  0.00     0.000 A 
ATOM      3  C3  BNZ d   1      -0.003  -1.468   0.280  0.00  0.00     0.000 A 
ATOM      4  C4  BNZ d   1       0.358  -0.884  -0.881  0.00  0.00     0.000 A 
ATOM      5  C5  BNZ d   1       0.527  -1.643  -2.022  0.00  0.00     0.000 A 
ATOM      6  C6  BNZ d   1       0.319  -3.003  -1.980  0.00  0.00     0.000 A 
ENDROOT
TORSDOF 0
ENDMDL
