MODEL 1
REMARK minimizedAffinity -4.53995466
REMARK minimizedRMSD -1
REMARK  1 active torsions:
REMARK  status: ('A' for Active; 'I' for Inactive)
REMARK    1  A    between atoms: N_2  and  C1_3 
ROOT
ATOM      1  C1  UNL d   1       0.671  -0.050  -0.451  0.00  0.00     0.143 A 
ATOM      2  C2  UNL d   1       1.104  -0.547  -1.685  0.00  0.00    -0.057 A 
ATOM      3  C3  UNL d   1       1.935   0.208  -2.521  0.00  0.00     0.033 A 
ATOM      4  C4  UNL d   1       2.326   1.490  -2.148  0.00  0.00    -0.042 A 
ATOM      5  C5  UNL d   1       1.888   2.014  -0.938  0.00  0.00     0.033 A 
ATOM      6  C6  UNL d   1       1.063   1.253  -0.105  0.00  0.00    -0.057 A 
ENDROOT
BRANCH   1   7
ATOM      7  N   UNL d   1      -0.237  -0.712   0.379  0.00  0.00    -0.732 N 
ATOM      8  C   UNL d   1      -1.220   0.031   1.137  0.00  0.00     0.284 C 
ATOM      9  H3  UNL d   1      -0.594  -1.568  -0.040  0.00  0.00     0.395 HD
ENDBRANCH   1   7
TORSDOF 1
ENDMDL
