MODEL 1
REMARK minimizedAffinity -3.42117739
REMARK minimizedRMSD -1
REMARK  1 active torsions:
REMARK  status: ('A' for Active; 'I' for Inactive)
REMARK    1  A    between atoms: N_2  and  C1_3 
ROOT
ATOM      1  C1  UNL d   1       0.759  -0.201  -0.791  0.00  0.00     0.143 A 
ATOM      2  C2  UNL d   1       0.444  -1.505  -0.393  0.00  0.00    -0.057 A 
ATOM      3  C3  UNL d   1      -0.240  -1.754   0.803  0.00  0.00     0.033 A 
ATOM      4  C4  UNL d   1      -0.597  -0.701   1.639  0.00  0.00    -0.042 A 
ATOM      5  C5  UNL d   1      -0.272   0.601   1.276  0.00  0.00     0.033 A 
ATOM      6  C6  UNL d   1       0.405   0.843   0.078  0.00  0.00    -0.057 A 
ENDROOT
BRANCH   1   7
ATOM      7  N   UNL d   1       1.524   0.104  -1.919  0.00  0.00    -0.732 N 
ATOM      8  C   UNL d   1       2.888   0.568  -1.781  0.00  0.00     0.284 C 
ATOM      9  H3  UNL d   1       1.386  -0.563  -2.674  0.00  0.00     0.395 HD
ENDBRANCH   1   7
TORSDOF 1
ENDMDL
