MODEL 1
REMARK minimizedAffinity -4.57364225
REMARK minimizedRMSD -1
REMARK  1 active torsions:
REMARK  status: ('A' for Active; 'I' for Inactive)
REMARK    1  A    between atoms: N_2  and  C1_3 
ROOT
ATOM      1  C1  UNL d   1       1.152   1.425  -0.911  0.00  0.00     0.143 A 
ATOM      2  C2  UNL d   1       1.659   0.631  -1.945  0.00  0.00    -0.057 A 
ATOM      3  C3  UNL d   1       1.359  -0.734  -2.026  0.00  0.00     0.033 A 
ATOM      4  C4  UNL d   1       0.567  -1.337  -1.055  0.00  0.00    -0.042 A 
ATOM      5  C5  UNL d   1       0.072  -0.573  -0.004  0.00  0.00     0.033 A 
ATOM      6  C6  UNL d   1       0.370   0.792   0.067  0.00  0.00    -0.057 A 
ENDROOT
BRANCH   1   7
ATOM      7  N   UNL d   1       1.494   2.766  -0.721  0.00  0.00    -0.732 N 
ATOM      8  C   UNL d   1       1.376   3.379   0.585  0.00  0.00     0.284 C 
ATOM      9  H3  UNL d   1       2.336   3.028  -1.229  0.00  0.00     0.395 HD
ENDBRANCH   1   7
TORSDOF 1
ENDMDL
