MODEL 1
REMARK minimizedAffinity -3.27153349
REMARK minimizedRMSD -1
REMARK  1 active torsions:
REMARK  status: ('A' for Active; 'I' for Inactive)
REMARK    1  A    between atoms: N_2  and  C1_3 
ROOT
ATOM      1  C1  UNL d   1       0.076   0.144   0.454  0.00  0.00     0.143 A 
ATOM      2  C2  UNL d   1       0.923   1.258   0.426  0.00  0.00    -0.057 A 
ATOM      3  C3  UNL d   1       1.721   1.536  -0.690  0.00  0.00     0.033 A 
ATOM      4  C4  UNL d   1       1.708   0.686  -1.791  0.00  0.00    -0.042 A 
ATOM      5  C5  UNL d   1       0.893  -0.441  -1.775  0.00  0.00     0.033 A 
ATOM      6  C6  UNL d   1       0.093  -0.709  -0.660  0.00  0.00    -0.057 A 
ENDROOT
BRANCH   1   7
ATOM      7  N   UNL d   1      -0.667  -0.240   1.573  0.00  0.00    -0.732 N 
ATOM      8  C   UNL d   1      -1.947   0.375   1.854  0.00  0.00     0.284 C 
ATOM      9  H3  UNL d   1      -0.646  -1.245   1.726  0.00  0.00     0.395 HD
ENDBRANCH   1   7
TORSDOF 1
ENDMDL
