MODEL 1
REMARK minimizedAffinity -5.22756767
REMARK minimizedRMSD -1
REMARK  1 active torsions:
REMARK  status: ('A' for Active; 'I' for Inactive)
REMARK    1  A    between atoms: N_2  and  C1_3 
ROOT
ATOM      1  C1  UNL d   1       1.561  -0.440  -1.551  0.00  0.00     0.143 A 
ATOM      2  C2  UNL d   1       0.777  -0.222  -0.413  0.00  0.00    -0.057 A 
ATOM      3  C3  UNL d   1       0.541   1.071   0.069  0.00  0.00     0.033 A 
ATOM      4  C4  UNL d   1       1.110   2.171  -0.565  0.00  0.00    -0.042 A 
ATOM      5  C5  UNL d   1       1.913   1.976  -1.683  0.00  0.00     0.033 A 
ATOM      6  C6  UNL d   1       2.140   0.682  -2.163  0.00  0.00    -0.057 A 
ENDROOT
BRANCH   1   7
ATOM      7  N   UNL d   1       1.914  -1.708  -2.021  0.00  0.00    -0.732 N 
ATOM      8  C   UNL d   1       1.593  -2.893  -1.256  0.00  0.00     0.284 C 
ATOM      9  H3  UNL d   1       1.763  -1.806  -3.023  0.00  0.00     0.395 HD
ENDBRANCH   1   7
TORSDOF 1
ENDMDL
