MODEL 1
REMARK minimizedAffinity -4.34791946
REMARK minimizedRMSD -1
REMARK  1 active torsions:
REMARK  status: ('A' for Active; 'I' for Inactive)
REMARK    1  A    between atoms: N_2  and  C1_3 
ROOT
ATOM      1  C1  UNL d   1      -0.044   0.526  -0.426  0.00  0.00     0.143 A 
ATOM      2  C2  UNL d   1       0.730   1.691  -0.435  0.00  0.00    -0.057 A 
ATOM      3  C3  UNL d   1       1.823   1.831  -1.299  0.00  0.00     0.033 A 
ATOM      4  C4  UNL d   1       2.179   0.792  -2.152  0.00  0.00    -0.042 A 
ATOM      5  C5  UNL d   1       1.439  -0.385  -2.143  0.00  0.00     0.033 A 
ATOM      6  C6  UNL d   1       0.345  -0.516  -1.282  0.00  0.00    -0.057 A 
ENDROOT
BRANCH   1   7
ATOM      7  N   UNL d   1      -1.082   0.288   0.478  0.00  0.00    -0.732 N 
ATOM      8  C   UNL d   1      -0.851  -0.489   1.677  0.00  0.00     0.284 C 
ATOM      9  H3  UNL d   1      -1.669   1.107   0.620  0.00  0.00     0.395 HD
ENDBRANCH   1   7
TORSDOF 1
ENDMDL
