MODEL 1
REMARK minimizedAffinity -4.27137423
REMARK minimizedRMSD -1
REMARK  1 active torsions:
REMARK  status: ('A' for Active; 'I' for Inactive)
REMARK    1  A    between atoms: N_2  and  C1_3 
ROOT
ATOM      1  C1  UNL d   1       0.514   0.705  -0.553  0.00  0.00     0.143 A 
ATOM      2  C2  UNL d   1       1.833   1.173  -0.565  0.00  0.00    -0.057 A 
ATOM      3  C3  UNL d   1       2.662   0.976  -1.676  0.00  0.00     0.033 A 
ATOM      4  C4  UNL d   1       2.195   0.280  -2.786  0.00  0.00    -0.042 A 
ATOM      5  C5  UNL d   1       0.896  -0.215  -2.786  0.00  0.00     0.033 A 
ATOM      6  C6  UNL d   1       0.070  -0.010  -1.676  0.00  0.00    -0.057 A 
ENDROOT
BRANCH   1   7
ATOM      7  N   UNL d   1      -0.328   0.783   0.559  0.00  0.00    -0.732 N 
ATOM      8  C   UNL d   1      -1.067  -0.378   1.006  0.00  0.00     0.284 C 
ATOM      9  H3  UNL d   1       0.074   1.336   1.313  0.00  0.00     0.395 HD
ENDBRANCH   1   7
TORSDOF 1
ENDMDL
