MODEL 1
REMARK minimizedAffinity -4.36294317
REMARK minimizedRMSD -1
REMARK  1 active torsions:
REMARK  status: ('A' for Active; 'I' for Inactive)
REMARK    1  A    between atoms: N_2  and  C1_3 
ROOT
ATOM      1  C1  UNL d   1       0.396  -0.547  -0.496  0.00  0.00     0.143 A 
ATOM      2  C2  UNL d   1       0.910  -1.804  -0.830  0.00  0.00    -0.057 A 
ATOM      3  C3  UNL d   1       1.943  -1.941  -1.765  0.00  0.00     0.033 A 
ATOM      4  C4  UNL d   1       2.462  -0.821  -2.406  0.00  0.00    -0.042 A 
ATOM      5  C5  UNL d   1       1.950   0.436  -2.108  0.00  0.00     0.033 A 
ATOM      6  C6  UNL d   1       0.923   0.567  -1.168  0.00  0.00    -0.057 A 
ENDROOT
BRANCH   1   7
ATOM      7  N   UNL d   1      -0.697  -0.354   0.352  0.00  0.00    -0.732 N 
ATOM      8  C   UNL d   1      -0.550   0.383   1.589  0.00  0.00     0.284 C 
ATOM      9  H3  UNL d   1      -1.552  -0.142  -0.158  0.00  0.00     0.395 HD
ENDBRANCH   1   7
TORSDOF 1
ENDMDL
