MODEL 1
REMARK minimizedAffinity -4.35374641
REMARK minimizedRMSD -1
REMARK  1 active torsions:
REMARK  status: ('A' for Active; 'I' for Inactive)
REMARK    1  A    between atoms: N_2  and  C1_3 
ROOT
ATOM      1  C1  UNL d   1       0.111  -0.002  -0.231  0.00  0.00     0.143 A 
ATOM      2  C2  UNL d   1       0.264  -1.366  -0.506  0.00  0.00    -0.057 A 
ATOM      3  C3  UNL d   1      -0.139  -2.341   0.414  0.00  0.00     0.033 A 
ATOM      4  C4  UNL d   1      -0.677  -1.969   1.642  0.00  0.00    -0.042 A 
ATOM      5  C5  UNL d   1      -0.815  -0.619   1.946  0.00  0.00     0.033 A 
ATOM      6  C6  UNL d   1      -0.417   0.350   1.021  0.00  0.00    -0.057 A 
ENDROOT
BRANCH   1   7
ATOM      7  N   UNL d   1       0.583   1.016  -1.062  0.00  0.00    -0.732 N 
ATOM      8  C   UNL d   1       2.001   1.285  -1.167  0.00  0.00     0.284 C 
ATOM      9  H3  UNL d   1       0.086   1.055  -1.949  0.00  0.00     0.395 HD
ENDBRANCH   1   7
TORSDOF 1
ENDMDL
