MODEL 1
REMARK minimizedAffinity -4.99402666
REMARK minimizedRMSD -1
REMARK  1 active torsions:
REMARK  status: ('A' for Active; 'I' for Inactive)
REMARK    1  A    between atoms: N_2  and  C1_3 
ROOT
ATOM      1  C1  UNL d   1       0.140  -0.168   0.260  0.00  0.00     0.143 A 
ATOM      2  C2  UNL d   1       0.766   1.019  -0.133  0.00  0.00    -0.057 A 
ATOM      3  C3  UNL d   1       1.447   1.112  -1.353  0.00  0.00     0.033 A 
ATOM      4  C4  UNL d   1       1.537   0.005  -2.191  0.00  0.00    -0.042 A 
ATOM      5  C5  UNL d   1       0.943  -1.192  -1.810  0.00  0.00     0.033 A 
ATOM      6  C6  UNL d   1       0.259  -1.276  -0.593  0.00  0.00    -0.057 A 
ENDROOT
BRANCH   1   7
ATOM      7  N   UNL d   1      -0.467  -0.352   1.505  0.00  0.00    -0.732 N 
ATOM      8  C   UNL d   1      -1.801   0.151   1.757  0.00  0.00     0.284 C 
ATOM      9  H3  UNL d   1      -0.293  -1.278   1.889  0.00  0.00     0.395 HD
ENDBRANCH   1   7
TORSDOF 1
ENDMDL
