MODEL 1
REMARK minimizedAffinity -4.70383501
REMARK minimizedRMSD -1
REMARK  1 active torsions:
REMARK  status: ('A' for Active; 'I' for Inactive)
REMARK    1  A    between atoms: N_2  and  C1_3 
ROOT
ATOM      1  C1  UNL d   1       0.461  -0.162  -0.188  0.00  0.00     0.143 A 
ATOM      2  C2  UNL d   1       1.324   0.936  -0.268  0.00  0.00    -0.057 A 
ATOM      3  C3  UNL d   1       2.072   1.188  -1.424  0.00  0.00     0.033 A 
ATOM      4  C4  UNL d   1       1.991   0.328  -2.514  0.00  0.00    -0.042 A 
ATOM      5  C5  UNL d   1       1.159  -0.784  -2.447  0.00  0.00     0.033 A 
ATOM      6  C6  UNL d   1       0.409  -1.027  -1.292  0.00  0.00    -0.057 A 
ENDROOT
BRANCH   1   7
ATOM      7  N   UNL d   1      -0.235  -0.522   0.969  0.00  0.00    -0.732 N 
ATOM      8  C   UNL d   1      -0.378  -1.914   1.340  0.00  0.00     0.284 C 
ATOM      9  H3  UNL d   1      -0.036   0.098   1.751  0.00  0.00     0.395 HD
ENDBRANCH   1   7
TORSDOF 1
ENDMDL
