MODEL 1
REMARK minimizedAffinity -3.07984805
REMARK minimizedRMSD -1
REMARK  1 active torsions:
REMARK  status: ('A' for Active; 'I' for Inactive)
REMARK    1  A    between atoms: N_2  and  C1_3 
ROOT
ATOM      1  C1  UNL d   1       0.299  -0.300   0.251  0.00  0.00     0.143 A 
ATOM      2  C2  UNL d   1       0.516  -1.066  -0.899  0.00  0.00    -0.057 A 
ATOM      3  C3  UNL d   1       1.246  -0.560  -1.982  0.00  0.00     0.033 A 
ATOM      4  C4  UNL d   1       1.747   0.737  -1.945  0.00  0.00    -0.042 A 
ATOM      5  C5  UNL d   1       1.522   1.526  -0.822  0.00  0.00     0.033 A 
ATOM      6  C6  UNL d   1       0.798   1.012   0.259  0.00  0.00    -0.057 A 
ENDROOT
BRANCH   1   7
ATOM      7  N   UNL d   1      -0.502  -0.711   1.320  0.00  0.00    -0.732 N 
ATOM      8  C   UNL d   1      -1.683   0.040   1.688  0.00  0.00     0.284 C 
ATOM      9  H3  UNL d   1      -0.626  -1.720   1.346  0.00  0.00     0.395 HD
ENDBRANCH   1   7
TORSDOF 1
ENDMDL
