MODEL 1
REMARK minimizedAffinity -3.9302392
REMARK minimizedRMSD -1
REMARK  1 active torsions:
REMARK  status: ('A' for Active; 'I' for Inactive)
REMARK    1  A    between atoms: N_2  and  C1_3 
ROOT
ATOM      1  C1  UNL d   1      -0.145   0.174   0.057  0.00  0.00     0.143 A 
ATOM      2  C2  UNL d   1       0.362   1.461   0.269  0.00  0.00    -0.057 A 
ATOM      3  C3  UNL d   1       1.219   2.065  -0.659  0.00  0.00     0.033 A 
ATOM      4  C4  UNL d   1       1.609   1.379  -1.804  0.00  0.00    -0.042 A 
ATOM      5  C5  UNL d   1       1.137   0.089  -2.023  0.00  0.00     0.033 A 
ATOM      6  C6  UNL d   1       0.276  -0.506  -1.096  0.00  0.00    -0.057 A 
ENDROOT
BRANCH   1   7
ATOM      7  N   UNL d   1      -0.922  -0.519   0.989  0.00  0.00    -0.732 N 
ATOM      8  C   UNL d   1      -2.073   0.110   1.602  0.00  0.00     0.284 C 
ATOM      9  H3  UNL d   1      -1.070  -1.490   0.726  0.00  0.00     0.395 HD
ENDBRANCH   1   7
TORSDOF 1
ENDMDL
