MODEL 1
REMARK minimizedAffinity -4.24184418
REMARK minimizedRMSD -1
REMARK  1 active torsions:
REMARK  status: ('A' for Active; 'I' for Inactive)
REMARK    1  A    between atoms: N_2  and  C1_3 
ROOT
ATOM      1  C1  UNL d   1      -0.027   0.603   0.233  0.00  0.00     0.143 A 
ATOM      2  C2  UNL d   1       0.732   1.773   0.118  0.00  0.00    -0.057 A 
ATOM      3  C3  UNL d   1       1.511   2.024  -1.017  0.00  0.00     0.033 A 
ATOM      4  C4  UNL d   1       1.569   1.094  -2.049  0.00  0.00    -0.042 A 
ATOM      5  C5  UNL d   1       0.843  -0.088  -1.946  0.00  0.00     0.033 A 
ATOM      6  C6  UNL d   1       0.061  -0.330  -0.812  0.00  0.00    -0.057 A 
ENDROOT
BRANCH   1   7
ATOM      7  N   UNL d   1      -0.744   0.249   1.378  0.00  0.00    -0.732 N 
ATOM      8  C   UNL d   1      -2.151  -0.077   1.296  0.00  0.00     0.284 C 
ATOM      9  H3  UNL d   1      -0.212  -0.358   1.998  0.00  0.00     0.395 HD
ENDBRANCH   1   7
TORSDOF 1
ENDMDL
