MODEL 1
REMARK minimizedAffinity -3.42956662
REMARK minimizedRMSD -1
REMARK  1 active torsions:
REMARK  status: ('A' for Active; 'I' for Inactive)
REMARK    1  A    between atoms: N_2  and  C1_3 
ROOT
ATOM      1  C1  UNL d   1       0.350  -0.051   0.384  0.00  0.00     0.143 A 
ATOM      2  C2  UNL d   1       0.676   1.290   0.153  0.00  0.00    -0.057 A 
ATOM      3  C3  UNL d   1       1.510   1.661  -0.909  0.00  0.00     0.033 A 
ATOM      4  C4  UNL d   1       2.057   0.692  -1.744  0.00  0.00    -0.042 A 
ATOM      5  C5  UNL d   1       1.766  -0.648  -1.518  0.00  0.00     0.033 A 
ATOM      6  C6  UNL d   1       0.927  -1.013  -0.460  0.00  0.00    -0.057 A 
ENDROOT
BRANCH   1   7
ATOM      7  N   UNL d   1      -0.393  -0.492   1.481  0.00  0.00    -0.732 N 
ATOM      8  C   UNL d   1      -1.598   0.201   1.883  0.00  0.00     0.284 C 
ATOM      9  H3  UNL d   1      -0.465  -1.507   1.519  0.00  0.00     0.395 HD
ENDBRANCH   1   7
TORSDOF 1
ENDMDL
