MODEL 1
REMARK minimizedAffinity -4.20618773
REMARK minimizedRMSD -1
REMARK  0 active torsions:
REMARK  status: ('A' for Active; 'I' for Inactive)
ROOT
ATOM      1  C1  DEN d   1       1.097  -0.188  -0.048  0.00  0.00     0.130 A 
ATOM      2  C2  DEN d   1       0.530  -0.433  -1.371  0.00  0.00    -0.031 A 
ATOM      3  C3  DEN d   1      -0.929  -0.214  -1.291  0.00  0.00     0.027 A 
ATOM      4  C4  DEN d   1      -2.355   0.481   0.742  0.00  0.00     0.027 A 
ATOM      5  C5  DEN d   1      -2.322   0.792   2.084  0.00  0.00    -0.003 A 
ATOM      6  C6  DEN d   1      -1.161   0.765   2.811  0.00  0.00     0.001 A 
ATOM      7  C7  DEN d   1       0.022   0.463   2.189  0.00  0.00     0.017 A 
ATOM      8  C8  DEN d   1      -0.005   0.142   0.839  0.00  0.00    -0.094 A 
ATOM      9  C9  DEN d   1      -1.187   0.187   0.119  0.00  0.00    -0.072 A 
ENDROOT
TORSDOF 0
ENDMDL
