MODEL 1
REMARK minimizedAffinity -4.46763134
REMARK minimizedRMSD -1
REMARK  0 active torsions:
REMARK  status: ('A' for Active; 'I' for Inactive)
ROOT
ATOM      1  C1  DEN d   1       1.155  -0.399  -0.423  0.00  0.00     0.130 A 
ATOM      2  C2  DEN d   1       0.218  -1.196  -1.211  0.00  0.00    -0.031 A 
ATOM      3  C3  DEN d   1      -1.120  -1.063  -0.601  0.00  0.00     0.027 A 
ATOM      4  C4  DEN d   1      -1.830   0.295   1.473  0.00  0.00     0.027 A 
ATOM      5  C5  DEN d   1      -1.384   1.122   2.480  0.00  0.00    -0.003 A 
ATOM      6  C6  DEN d   1      -0.066   1.471   2.608  0.00  0.00     0.001 A 
ATOM      7  C7  DEN d   1       0.847   1.026   1.688  0.00  0.00     0.017 A 
ATOM      8  C8  DEN d   1       0.406   0.185   0.675  0.00  0.00    -0.094 A 
ATOM      9  C9  DEN d   1      -0.933  -0.146   0.555  0.00  0.00    -0.072 A 
ENDROOT
TORSDOF 0
ENDMDL
