MODEL 1
REMARK minimizedAffinity -4.55690575
REMARK minimizedRMSD -1
REMARK  0 active torsions:
REMARK  status: ('A' for Active; 'I' for Inactive)
ROOT
ATOM      1  C1  DEN d   1      -1.465  -0.917  -0.196  0.00  0.00     0.130 A 
ATOM      2  C2  DEN d   1      -0.356  -1.064  -1.135  0.00  0.00    -0.031 A 
ATOM      3  C3  DEN d   1       0.803  -0.329  -0.591  0.00  0.00     0.027 A 
ATOM      4  C4  DEN d   1       0.990   1.012   1.604  0.00  0.00     0.027 A 
ATOM      5  C5  DEN d   1       0.307   1.432   2.725  0.00  0.00    -0.003 A 
ATOM      6  C6  DEN d   1      -1.012   1.129   2.932  0.00  0.00     0.001 A 
ATOM      7  C7  DEN d   1      -1.680   0.347   2.027  0.00  0.00     0.017 A 
ATOM      8  C8  DEN d   1      -1.000  -0.074   0.891  0.00  0.00    -0.094 A 
ATOM      9  C9  DEN d   1       0.337   0.232   0.705  0.00  0.00    -0.072 A 
ENDROOT
TORSDOF 0
ENDMDL
