MODEL 1
REMARK minimizedAffinity -4.62614584
REMARK minimizedRMSD -1
REMARK  0 active torsions:
REMARK  status: ('A' for Active; 'I' for Inactive)
ROOT
ATOM      1  C1  DEN d   1       1.266   0.003   0.125  0.00  0.00     0.130 A 
ATOM      2  C2  DEN d   1       0.478  -0.626  -0.931  0.00  0.00    -0.031 A 
ATOM      3  C3  DEN d   1      -0.948  -0.522  -0.560  0.00  0.00     0.027 A 
ATOM      4  C4  DEN d   1      -2.005   0.550   1.535  0.00  0.00     0.027 A 
ATOM      5  C5  DEN d   1      -1.738   1.199   2.719  0.00  0.00    -0.003 A 
ATOM      6  C6  DEN d   1      -0.459   1.463   3.135  0.00  0.00     0.001 A 
ATOM      7  C7  DEN d   1       0.599   1.116   2.338  0.00  0.00     0.017 A 
ATOM      8  C8  DEN d   1       0.338   0.454   1.146  0.00  0.00    -0.094 A 
ATOM      9  C9  DEN d   1      -0.962   0.207   0.737  0.00  0.00    -0.072 A 
ENDROOT
TORSDOF 0
ENDMDL
