MODEL 1
REMARK minimizedAffinity -5.78649092
REMARK minimizedRMSD -1
REMARK  0 active torsions:
REMARK  status: ('A' for Active; 'I' for Inactive)
ROOT
ATOM      1  C1  DEN d   1       1.392   0.857   0.068  0.00  0.00     0.130 A 
ATOM      2  C2  DEN d   1       1.006   0.168  -1.160  0.00  0.00    -0.031 A 
ATOM      3  C3  DEN d   1      -0.388  -0.295  -1.005  0.00  0.00     0.027 A 
ATOM      4  C4  DEN d   1      -1.978  -0.009   1.005  0.00  0.00     0.027 A 
ATOM      5  C5  DEN d   1      -2.095   0.498   2.281  0.00  0.00    -0.003 A 
ATOM      6  C6  DEN d   1      -1.056   1.124   2.916  0.00  0.00     0.001 A 
ATOM      7  C7  DEN d   1       0.134   1.301   2.259  0.00  0.00     0.017 A 
ATOM      8  C8  DEN d   1       0.261   0.787   0.976  0.00  0.00    -0.094 A 
ATOM      9  C9  DEN d   1      -0.805   0.167   0.346  0.00  0.00    -0.072 A 
ENDROOT
TORSDOF 0
ENDMDL
