MODEL 1
REMARK minimizedAffinity -3.68723083
REMARK minimizedRMSD -1
REMARK  0 active torsions:
REMARK  status: ('A' for Active; 'I' for Inactive)
ROOT
ATOM      1  C1  DEN d   1       0.892  -2.719  -0.798  0.00  0.00     0.130 A 
ATOM      2  C2  DEN d   1       0.811  -2.437  -2.228  0.00  0.00    -0.031 A 
ATOM      3  C3  DEN d   1       0.183  -1.111  -2.397  0.00  0.00     0.027 A 
ATOM      4  C4  DEN d   1      -0.662   0.526  -0.592  0.00  0.00     0.027 A 
ATOM      5  C5  DEN d   1      -0.818   0.720   0.762  0.00  0.00    -0.003 A 
ATOM      6  C6  DEN d   1      -0.449  -0.225   1.683  0.00  0.00     0.001 A 
ATOM      7  C7  DEN d   1       0.137  -1.389   1.262  0.00  0.00     0.017 A 
ATOM      8  C8  DEN d   1       0.290  -1.596  -0.102  0.00  0.00    -0.094 A 
ATOM      9  C9  DEN d   1      -0.078  -0.623  -1.016  0.00  0.00    -0.072 A 
ENDROOT
TORSDOF 0
ENDMDL
