MODEL 1
REMARK minimizedAffinity -3.04942894
REMARK minimizedRMSD -1
REMARK  0 active torsions:
REMARK  status: ('A' for Active; 'I' for Inactive)
ROOT
ATOM      1  C1  DEN d   1       1.094  -3.015  -1.081  0.00  0.00     0.130 A 
ATOM      2  C2  DEN d   1       0.467  -3.185  -2.389  0.00  0.00    -0.031 A 
ATOM      3  C3  DEN d   1      -0.390  -2.010  -2.642  0.00  0.00     0.027 A 
ATOM      4  C4  DEN d   1      -0.802   0.050  -1.144  0.00  0.00     0.027 A 
ATOM      5  C5  DEN d   1      -0.500   0.638   0.064  0.00  0.00    -0.003 A 
ATOM      6  C6  DEN d   1       0.321   0.039   0.982  0.00  0.00     0.001 A 
ATOM      7  C7  DEN d   1       0.905  -1.165   0.688  0.00  0.00     0.017 A 
ATOM      8  C8  DEN d   1       0.599  -1.768  -0.525  0.00  0.00    -0.094 A 
ATOM      9  C9  DEN d   1      -0.224  -1.140  -1.446  0.00  0.00    -0.072 A 
ENDROOT
TORSDOF 0
ENDMDL
