MODEL 1
REMARK minimizedAffinity -5.11186647
REMARK minimizedRMSD -1
REMARK  0 active torsions:
REMARK  status: ('A' for Active; 'I' for Inactive)
ROOT
ATOM      1  C1  DEN d   1       0.604  -0.718   1.341  0.00  0.00     0.130 A 
ATOM      2  C2  DEN d   1       1.396  -0.869   0.123  0.00  0.00    -0.031 A 
ATOM      3  C3  DEN d   1       0.918   0.125  -0.859  0.00  0.00     0.027 A 
ATOM      4  C4  DEN d   1      -0.959   1.877  -0.611  0.00  0.00     0.027 A 
ATOM      5  C5  DEN d   1      -1.922   2.378   0.236  0.00  0.00    -0.003 A 
ATOM      6  C6  DEN d   1      -2.132   1.864   1.488  0.00  0.00     0.001 A 
ATOM      7  C7  DEN d   1      -1.338   0.846   1.946  0.00  0.00     0.017 A 
ATOM      8  C8  DEN d   1      -0.369   0.331   1.095  0.00  0.00    -0.094 A 
ATOM      9  C9  DEN d   1      -0.164   0.873  -0.163  0.00  0.00    -0.072 A 
ENDROOT
TORSDOF 0
ENDMDL
