MODEL 1
REMARK minimizedAffinity -2.98630142
REMARK minimizedRMSD -1
REMARK  0 active torsions:
REMARK  status: ('A' for Active; 'I' for Inactive)
ROOT
ATOM      1  C1  DEN d   1       0.010   0.042  -0.708  0.00  0.00     0.130 A 
ATOM      2  C2  DEN d   1      -0.106  -0.979   0.330  0.00  0.00    -0.031 A 
ATOM      3  C3  DEN d   1      -0.685  -0.344   1.532  0.00  0.00     0.027 A 
ATOM      4  C4  DEN d   1      -1.414   2.105   1.881  0.00  0.00     0.027 A 
ATOM      5  C5  DEN d   1      -1.498   3.347   1.291  0.00  0.00    -0.003 A 
ATOM      6  C6  DEN d   1      -1.057   3.579   0.015  0.00  0.00     0.001 A 
ATOM      7  C7  DEN d   1      -0.554   2.545  -0.729  0.00  0.00     0.017 A 
ATOM      8  C8  DEN d   1      -0.459   1.292  -0.138  0.00  0.00    -0.094 A 
ATOM      9  C9  DEN d   1      -0.921   1.074   1.149  0.00  0.00    -0.072 A 
ENDROOT
TORSDOF 0
ENDMDL
