MODEL 1
REMARK minimizedAffinity -0.110596985
REMARK minimizedRMSD -1
REMARK  0 active torsions:
REMARK  status: ('A' for Active; 'I' for Inactive)
ROOT
ATOM      1  C1  DEN d   1       0.225   0.424  -0.583  0.00  0.00     0.130 A 
ATOM      2  C2  DEN d   1       0.095   0.324   0.868  0.00  0.00    -0.031 A 
ATOM      3  C3  DEN d   1       0.422  -1.062   1.260  0.00  0.00     0.027 A 
ATOM      4  C4  DEN d   1       1.116  -3.050  -0.230  0.00  0.00     0.027 A 
ATOM      5  C5  DEN d   1       1.352  -3.452  -1.526  0.00  0.00    -0.003 A 
ATOM      6  C6  DEN d   1       1.197  -2.608  -2.593  0.00  0.00     0.001 A 
ATOM      7  C7  DEN d   1       0.838  -1.303  -2.379  0.00  0.00     0.017 A 
ATOM      8  C8  DEN d   1       0.592  -0.891  -1.075  0.00  0.00    -0.094 A 
ATOM      9  C9  DEN d   1       0.766  -1.757  -0.009  0.00  0.00    -0.072 A 
ENDROOT
TORSDOF 0
ENDMDL
