MODEL 1
REMARK minimizedAffinity -1.31791651
REMARK minimizedRMSD -1
REMARK  0 active torsions:
REMARK  status: ('A' for Active; 'I' for Inactive)
ROOT
ATOM      1  C1  DEN d   1      -1.298   2.274   0.759  0.00  0.00     0.130 A 
ATOM      2  C2  DEN d   1      -1.875   1.605   1.923  0.00  0.00    -0.031 A 
ATOM      3  C3  DEN d   1      -1.292   0.251   2.005  0.00  0.00     0.027 A 
ATOM      4  C4  DEN d   1       0.442  -0.867   0.457  0.00  0.00     0.027 A 
ATOM      5  C5  DEN d   1       1.214  -0.697  -0.671  0.00  0.00    -0.003 A 
ATOM      6  C6  DEN d   1       1.178   0.453  -1.414  0.00  0.00     0.001 A 
ATOM      7  C7  DEN d   1       0.386   1.496  -1.013  0.00  0.00     0.017 A 
ATOM      8  C8  DEN d   1      -0.401   1.329   0.119  0.00  0.00    -0.094 A 
ATOM      9  C9  DEN d   1      -0.342   0.164   0.864  0.00  0.00    -0.072 A 
ENDROOT
TORSDOF 0
ENDMDL
