MODEL 1
REMARK minimizedAffinity -5.59738779
REMARK minimizedRMSD -1
REMARK  0 active torsions:
REMARK  status: ('A' for Active; 'I' for Inactive)
ROOT
ATOM      1  C1  DEN d   1      -1.564  -0.037   1.637  0.00  0.00     0.130 A 
ATOM      2  C2  DEN d   1      -2.357   1.147   1.954  0.00  0.00    -0.031 A 
ATOM      3  C3  DEN d   1      -1.929   2.237   1.054  0.00  0.00     0.027 A 
ATOM      4  C4  DEN d   1      -0.129   2.204  -0.793  0.00  0.00     0.027 A 
ATOM      5  C5  DEN d   1       0.817   1.428  -1.424  0.00  0.00    -0.003 A 
ATOM      6  C6  DEN d   1       1.058   0.130  -1.060  0.00  0.00     0.001 A 
ATOM      7  C7  DEN d   1       0.312  -0.446  -0.065  0.00  0.00     0.017 A 
ATOM      8  C8  DEN d   1      -0.639   0.333   0.581  0.00  0.00    -0.094 A 
ATOM      9  C9  DEN d   1      -0.876   1.640   0.189  0.00  0.00    -0.072 A 
ENDROOT
TORSDOF 0
ENDMDL
