MODEL 1
REMARK minimizedAffinity -4.71548128
REMARK minimizedRMSD -1
REMARK  0 active torsions:
REMARK  status: ('A' for Active; 'I' for Inactive)
ROOT
ATOM      1  C1  DEN d   1      -1.558   1.820   0.340  0.00  0.00     0.130 A 
ATOM      2  C2  DEN d   1      -2.055   2.081   1.688  0.00  0.00    -0.031 A 
ATOM      3  C3  DEN d   1      -1.546   1.017   2.577  0.00  0.00     0.027 A 
ATOM      4  C4  DEN d   1      -0.040  -0.996   2.000  0.00  0.00     0.027 A 
ATOM      5  C5  DEN d   1       0.627  -1.644   0.984  0.00  0.00    -0.003 A 
ATOM      6  C6  DEN d   1       0.585  -1.206  -0.313  0.00  0.00     0.001 A 
ATOM      7  C7  DEN d   1      -0.103  -0.062  -0.621  0.00  0.00     0.017 A 
ATOM      8  C8  DEN d   1      -0.784   0.593   0.396  0.00  0.00    -0.094 A 
ATOM      9  C9  DEN d   1      -0.719   0.141   1.704  0.00  0.00    -0.072 A 
ENDROOT
TORSDOF 0
ENDMDL
