MODEL 1
REMARK minimizedAffinity -5.31474447
REMARK minimizedRMSD -1
REMARK  0 active torsions:
REMARK  status: ('A' for Active; 'I' for Inactive)
ROOT
ATOM      1  C1  DEN d   1      -1.321   2.785   0.078  0.00  0.00     0.130 A 
ATOM      2  C2  DEN d   1      -2.009   2.912   1.359  0.00  0.00    -0.031 A 
ATOM      3  C3  DEN d   1      -1.783   1.670   2.124  0.00  0.00     0.027 A 
ATOM      4  C4  DEN d   1      -0.437  -0.426   1.455  0.00  0.00     0.027 A 
ATOM      5  C5  DEN d   1       0.317  -1.005   0.458  0.00  0.00    -0.003 A 
ATOM      6  C6  DEN d   1       0.548  -0.380  -0.739  0.00  0.00     0.001 A 
ATOM      7  C7  DEN d   1       0.057   0.881  -0.952  0.00  0.00     0.017 A 
ATOM      8  C8  DEN d   1      -0.711   1.468   0.045  0.00  0.00    -0.094 A 
ATOM      9  C9  DEN d   1      -0.923   0.825   1.253  0.00  0.00    -0.072 A 
ENDROOT
TORSDOF 0
ENDMDL
