MODEL 1
REMARK minimizedAffinity -4.23211241
REMARK minimizedRMSD -1
REMARK  0 active torsions:
REMARK  status: ('A' for Active; 'I' for Inactive)
ROOT
ATOM      1  C1  DEN d   1       0.592   2.225  -1.029  0.00  0.00     0.130 A 
ATOM      2  C2  DEN d   1       1.446   1.111  -1.431  0.00  0.00    -0.031 A 
ATOM      3  C3  DEN d   1       1.259   0.017  -0.457  0.00  0.00     0.027 A 
ATOM      4  C4  DEN d   1      -0.267  -0.062   1.621  0.00  0.00     0.027 A 
ATOM      5  C5  DEN d   1      -1.172   0.650   2.376  0.00  0.00    -0.003 A 
ATOM      6  C6  DEN d   1      -1.524   1.939   2.072  0.00  0.00     0.001 A 
ATOM      7  C7  DEN d   1      -1.002   2.540   0.957  0.00  0.00     0.017 A 
ATOM      8  C8  DEN d   1      -0.083   1.831   0.195  0.00  0.00    -0.094 A 
ATOM      9  C9  DEN d   1       0.251   0.525   0.512  0.00  0.00    -0.072 A 
ENDROOT
TORSDOF 0
ENDMDL
