MODEL 1
REMARK minimizedAffinity -6.51967907
REMARK minimizedRMSD -1
REMARK  0 active torsions:
REMARK  status: ('A' for Active; 'I' for Inactive)
ROOT
ATOM      1  C1  DEN d   1      -1.625   3.080   0.718  0.00  0.00     0.130 A 
ATOM      2  C2  DEN d   1      -1.108   3.709  -0.494  0.00  0.00    -0.031 A 
ATOM      3  C3  DEN d   1      -0.190   2.755  -1.148  0.00  0.00     0.027 A 
ATOM      4  C4  DEN d   1       0.475   0.376  -0.406  0.00  0.00     0.027 A 
ATOM      5  C5  DEN d   1       0.303  -0.587   0.564  0.00  0.00    -0.003 A 
ATOM      6  C6  DEN d   1      -0.490  -0.384   1.662  0.00  0.00     0.001 A 
ATOM      7  C7  DEN d   1      -1.178   0.794   1.794  0.00  0.00     0.017 A 
ATOM      8  C8  DEN d   1      -1.004   1.772   0.823  0.00  0.00    -0.094 A 
ATOM      9  C9  DEN d   1      -0.207   1.543  -0.285  0.00  0.00    -0.072 A 
ENDROOT
TORSDOF 0
ENDMDL
