MODEL 1
REMARK minimizedAffinity -5.20517015
REMARK minimizedRMSD -1
REMARK  0 active torsions:
REMARK  status: ('A' for Active; 'I' for Inactive)
ROOT
ATOM      1  C1  DEN d   1       0.131   2.531  -1.276  0.00  0.00     0.130 A 
ATOM      2  C2  DEN d   1      -0.404   3.845  -0.930  0.00  0.00    -0.031 A 
ATOM      3  C3  DEN d   1      -1.076   3.734   0.381  0.00  0.00     0.027 A 
ATOM      4  C4  DEN d   1      -1.333   1.667   1.902  0.00  0.00     0.027 A 
ATOM      5  C5  DEN d   1      -1.055   0.324   2.027  0.00  0.00    -0.003 A 
ATOM      6  C6  DEN d   1      -0.398  -0.380   1.053  0.00  0.00     0.001 A 
ATOM      7  C7  DEN d   1       0.044   0.267  -0.071  0.00  0.00     0.017 A 
ATOM      8  C8  DEN d   1      -0.239   1.620  -0.208  0.00  0.00    -0.094 A 
ATOM      9  C9  DEN d   1      -0.894   2.316   0.794  0.00  0.00    -0.072 A 
ENDROOT
TORSDOF 0
ENDMDL
