MODEL 1
REMARK minimizedAffinity -3.98976159
REMARK minimizedRMSD -1
REMARK  0 active torsions:
REMARK  status: ('A' for Active; 'I' for Inactive)
ROOT
ATOM      1  C1  DEN d   1       0.602  -1.039   1.017  0.00  0.00     0.130 A 
ATOM      2  C2  DEN d   1       1.281  -1.063  -0.276  0.00  0.00    -0.031 A 
ATOM      3  C3  DEN d   1       0.724   0.025  -1.104  0.00  0.00     0.027 A 
ATOM      4  C4  DEN d   1      -1.110   1.739  -0.511  0.00  0.00     0.027 A 
ATOM      5  C5  DEN d   1      -1.990   2.148   0.466  0.00  0.00    -0.003 A 
ATOM      6  C6  DEN d   1      -2.091   1.508   1.673  0.00  0.00     0.001 A 
ATOM      7  C7  DEN d   1      -1.266   0.450   1.951  0.00  0.00     0.017 A 
ATOM      8  C8  DEN d   1      -0.381   0.027   0.968  0.00  0.00    -0.094 A 
ATOM      9  C9  DEN d   1      -0.286   0.695  -0.241  0.00  0.00    -0.072 A 
ENDROOT
TORSDOF 0
ENDMDL
