MODEL 1
REMARK minimizedAffinity -4.85102654
REMARK minimizedRMSD -1
REMARK  0 active torsions:
REMARK  status: ('A' for Active; 'I' for Inactive)
ROOT
ATOM      1  C1  DEN d   1      -1.484   2.078  -0.080  0.00  0.00     0.130 A 
ATOM      2  C2  DEN d   1      -2.117   2.327   1.212  0.00  0.00    -0.031 A 
ATOM      3  C3  DEN d   1      -1.695   1.259   2.141  0.00  0.00     0.027 A 
ATOM      4  C4  DEN d   1      -0.127  -0.743   1.706  0.00  0.00     0.027 A 
ATOM      5  C5  DEN d   1       0.642  -1.380   0.758  0.00  0.00    -0.003 A 
ATOM      6  C6  DEN d   1       0.730  -0.933  -0.533  0.00  0.00     0.001 A 
ATOM      7  C7  DEN d   1       0.071   0.210  -0.902  0.00  0.00     0.017 A 
ATOM      8  C8  DEN d   1      -0.713   0.855   0.046  0.00  0.00    -0.094 A 
ATOM      9  C9  DEN d   1      -0.779   0.393   1.350  0.00  0.00    -0.072 A 
ENDROOT
TORSDOF 0
ENDMDL
