MODEL 1
REMARK minimizedAffinity 2.4254899
REMARK minimizedRMSD -1
REMARK  3 active torsions:
REMARK  status: ('A' for Active; 'I' for Inactive)
REMARK    1  A    between atoms: C3'_2  and  C2'_3 
REMARK    2  A    between atoms: C2'_3  and  C1'_4 
REMARK    3  A    between atoms: C1'_4  and  C1_5 
ROOT
ATOM      1  C1  N4B d   1      -1.543  -3.500   2.532  0.00  0.00    -0.075 A 
ATOM      2  C2  N4B d   1      -0.905  -4.707   2.171  0.00  0.00     0.002 A 
ATOM      3  C3  N4B d   1      -0.490  -4.904   0.876  0.00  0.00     0.002 A 
ATOM      4  C4  N4B d   1      -0.719  -3.921  -0.074  0.00  0.00    -0.004 A 
ATOM      5  C5  N4B d   1      -1.313  -2.747   0.288  0.00  0.00     0.002 A 
ATOM      6  C6  N4B d   1      -1.731  -2.534   1.586  0.00  0.00     0.002 A 
ENDROOT
BRANCH   1   7
ATOM      7  C1' N4B d   1      -2.090  -3.273   3.914  0.00  0.00     0.057 C 
BRANCH   7   8
ATOM      8  C2' N4B d   1      -2.831  -1.940   3.947  0.00  0.00     0.009 C 
BRANCH   8   9
ATOM      9  C3' N4B d   1      -2.244  -0.989   4.975  0.00  0.00     0.004 C 
ATOM     10  C4' N4B d   1      -2.925   0.347   4.987  0.00  0.00     0.003 C 
ENDBRANCH   8   9
ENDBRANCH   7   8
ENDBRANCH   1   7
TORSDOF 3
ENDMDL
