MODEL 1
REMARK minimizedAffinity 18.736927
REMARK minimizedRMSD -1
REMARK  3 active torsions:
REMARK  status: ('A' for Active; 'I' for Inactive)
REMARK    1  A    between atoms: C3'_2  and  C2'_3 
REMARK    2  A    between atoms: C2'_3  and  C1'_4 
REMARK    3  A    between atoms: C1'_4  and  C1_5 
ROOT
ATOM      1  C1  N4B d   1      -0.726  -3.639  -0.698  0.00  0.00    -0.075 A 
ATOM      2  C2  N4B d   1      -1.442  -2.589  -0.082  0.00  0.00     0.002 A 
ATOM      3  C3  N4B d   1      -1.608  -1.394  -0.738  0.00  0.00     0.002 A 
ATOM      4  C4  N4B d   1      -1.053  -1.220  -1.996  0.00  0.00    -0.004 A 
ATOM      5  C5  N4B d   1      -0.385  -2.248  -2.595  0.00  0.00     0.002 A 
ATOM      6  C6  N4B d   1      -0.214  -3.455  -1.949  0.00  0.00     0.002 A 
ENDROOT
BRANCH   1   7
ATOM      7  C1' N4B d   1      -0.445  -4.934   0.015  0.00  0.00     0.057 C 
BRANCH   7   8
ATOM      8  C2' N4B d   1      -0.041  -4.635   1.456  0.00  0.00     0.009 C 
BRANCH   8   9
ATOM      9  C3' N4B d   1       0.263  -5.903   2.235  0.00  0.00     0.004 C 
ATOM     10  C4' N4B d   1      -0.515  -6.000   3.514  0.00  0.00     0.003 C 
ENDBRANCH   8   9
ENDBRANCH   7   8
ENDBRANCH   1   7
TORSDOF 3
ENDMDL
