MODEL 1
REMARK minimizedAffinity 12.5588007
REMARK minimizedRMSD -1
REMARK  3 active torsions:
REMARK  status: ('A' for Active; 'I' for Inactive)
REMARK    1  A    between atoms: C3'_2  and  C2'_3 
REMARK    2  A    between atoms: C2'_3  and  C1'_4 
REMARK    3  A    between atoms: C1'_4  and  C1_5 
ROOT
ATOM      1  C1  N4B d   1      -0.652   0.947  -3.726  0.00  0.00    -0.075 A 
ATOM      2  C2  N4B d   1      -2.011   0.736  -3.406  0.00  0.00     0.002 A 
ATOM      3  C3  N4B d   1      -2.955   1.665  -3.770  0.00  0.00     0.002 A 
ATOM      4  C4  N4B d   1      -2.562   2.817  -4.435  0.00  0.00    -0.004 A 
ATOM      5  C5  N4B d   1      -1.251   3.001  -4.763  0.00  0.00     0.002 A 
ATOM      6  C6  N4B d   1      -0.292   2.074  -4.407  0.00  0.00     0.002 A 
ENDROOT
BRANCH   1   7
ATOM      7  C1' N4B d   1       0.427   0.001  -3.274  0.00  0.00     0.057 C 
BRANCH   7   8
ATOM      8  C2' N4B d   1       0.068  -1.415  -3.715  0.00  0.00     0.009 C 
BRANCH   8   9
ATOM      9  C3' N4B d   1      -0.447  -2.256  -2.560  0.00  0.00     0.004 C 
ATOM     10  C4' N4B d   1      -0.238  -1.601  -1.226  0.00  0.00     0.003 C 
ENDBRANCH   8   9
ENDBRANCH   7   8
ENDBRANCH   1   7
TORSDOF 3
ENDMDL
