MODEL 1
REMARK minimizedAffinity 19.4497147
REMARK minimizedRMSD -1
REMARK  3 active torsions:
REMARK  status: ('A' for Active; 'I' for Inactive)
REMARK    1  A    between atoms: C3'_2  and  C2'_3 
REMARK    2  A    between atoms: C2'_3  and  C1'_4 
REMARK    3  A    between atoms: C1'_4  and  C1_5 
ROOT
ATOM      1  C1  N4B d   1       2.454   0.446  -0.995  0.00  0.00    -0.075 A 
ATOM      2  C2  N4B d   1       3.380   0.142   0.028  0.00  0.00     0.002 A 
ATOM      3  C3  N4B d   1       3.836   1.136   0.858  0.00  0.00     0.002 A 
ATOM      4  C4  N4B d   1       3.398   2.439   0.674  0.00  0.00    -0.004 A 
ATOM      5  C5  N4B d   1       2.485   2.720  -0.300  0.00  0.00     0.002 A 
ATOM      6  C6  N4B d   1       2.014   1.730  -1.139  0.00  0.00     0.002 A 
ENDROOT
BRANCH   1   7
ATOM      7  C1' N4B d   1       1.992  -0.591  -1.981  0.00  0.00     0.057 C 
BRANCH   7   8
ATOM      8  C2' N4B d   1       0.526  -0.341  -2.321  0.00  0.00     0.009 C 
BRANCH   8   9
ATOM      9  C3' N4B d   1      -0.321  -1.588  -2.138  0.00  0.00     0.004 C 
ATOM     10  C4' N4B d   1      -1.586  -1.324  -1.375  0.00  0.00     0.003 C 
ENDBRANCH   8   9
ENDBRANCH   7   8
ENDBRANCH   1   7
TORSDOF 3
ENDMDL
