MODEL 1
REMARK minimizedAffinity 11.3506308
REMARK minimizedRMSD -1
REMARK  3 active torsions:
REMARK  status: ('A' for Active; 'I' for Inactive)
REMARK    1  A    between atoms: C3'_2  and  C2'_3 
REMARK    2  A    between atoms: C2'_3  and  C1'_4 
REMARK    3  A    between atoms: C1'_4  and  C1_5 
ROOT
ATOM      1  C1  N4B d   1       0.505  -2.593   2.505  0.00  0.00    -0.075 A 
ATOM      2  C2  N4B d   1      -0.709  -2.556   3.227  0.00  0.00     0.002 A 
ATOM      3  C3  N4B d   1      -0.712  -2.169   4.544  0.00  0.00     0.002 A 
ATOM      4  C4  N4B d   1       0.482  -1.834   5.164  0.00  0.00    -0.004 A 
ATOM      5  C5  N4B d   1       1.646  -1.848   4.453  0.00  0.00     0.002 A 
ATOM      6  C6  N4B d   1       1.664  -2.231   3.127  0.00  0.00     0.002 A 
ENDROOT
BRANCH   1   7
ATOM      7  C1' N4B d   1       0.571  -3.091   1.087  0.00  0.00     0.057 C 
BRANCH   7   8
ATOM      8  C2' N4B d   1      -0.823  -3.033   0.470  0.00  0.00     0.009 C 
BRANCH   8   9
ATOM      9  C3' N4B d   1      -0.910  -2.000  -0.640  0.00  0.00     0.004 C 
ATOM     10  C4' N4B d   1      -2.147  -1.156  -0.553  0.00  0.00     0.003 C 
ENDBRANCH   8   9
ENDBRANCH   7   8
ENDBRANCH   1   7
TORSDOF 3
ENDMDL
