MODEL 1
REMARK minimizedAffinity 8.31645012
REMARK minimizedRMSD -1
REMARK  3 active torsions:
REMARK  status: ('A' for Active; 'I' for Inactive)
REMARK    1  A    between atoms: C3'_2  and  C2'_3 
REMARK    2  A    between atoms: C2'_3  and  C1'_4 
REMARK    3  A    between atoms: C1'_4  and  C1_5 
ROOT
ATOM      1  C1  N4B d   1      -4.602   5.928  -2.067  0.00  0.00    -0.075 A 
ATOM      2  C2  N4B d   1      -5.880   5.928  -2.669  0.00  0.00     0.002 A 
ATOM      3  C3  N4B d   1      -5.994   5.943  -4.038  0.00  0.00     0.002 A 
ATOM      4  C4  N4B d   1      -4.850   5.977  -4.821  0.00  0.00    -0.004 A 
ATOM      5  C5  N4B d   1      -3.620   5.951  -4.232  0.00  0.00     0.002 A 
ATOM      6  C6  N4B d   1      -3.490   5.932  -2.858  0.00  0.00     0.002 A 
ENDROOT
BRANCH   1   7
ATOM      7  C1' N4B d   1      -4.428   5.999  -0.575  0.00  0.00     0.057 C 
BRANCH   7   8
ATOM      8  C2' N4B d   1      -3.823   4.689  -0.079  0.00  0.00     0.009 C 
BRANCH   8   9
ATOM      9  C3' N4B d   1      -4.694   4.023   0.972  0.00  0.00     0.004 C 
ATOM     10  C4' N4B d   1      -5.736   4.944   1.532  0.00  0.00     0.003 C 
ENDBRANCH   8   9
ENDBRANCH   7   8
ENDBRANCH   1   7
TORSDOF 3
ENDMDL
