MODEL 1
REMARK minimizedAffinity 20.9787598
REMARK minimizedRMSD -1
REMARK  3 active torsions:
REMARK  status: ('A' for Active; 'I' for Inactive)
REMARK    1  A    between atoms: C3'_2  and  C2'_3 
REMARK    2  A    between atoms: C2'_3  and  C1'_4 
REMARK    3  A    between atoms: C1'_4  and  C1_5 
ROOT
ATOM      1  C1  N4B d   1      -2.645  -0.878  -2.428  0.00  0.00    -0.075 A 
ATOM      2  C2  N4B d   1      -1.366  -1.473  -2.362  0.00  0.00     0.002 A 
ATOM      3  C3  N4B d   1      -0.895  -1.957  -1.166  0.00  0.00     0.002 A 
ATOM      4  C4  N4B d   1      -1.673  -1.840  -0.025  0.00  0.00    -0.004 A 
ATOM      5  C5  N4B d   1      -2.918  -1.286  -0.102  0.00  0.00     0.002 A 
ATOM      6  C6  N4B d   1      -3.406  -0.799  -1.298  0.00  0.00     0.002 A 
ENDROOT
BRANCH   1   7
ATOM      7  C1' N4B d   1      -3.168  -0.257  -3.695  0.00  0.00     0.057 C 
BRANCH   7   8
ATOM      8  C2' N4B d   1      -3.045   1.260  -3.597  0.00  0.00     0.009 C 
BRANCH   8   9
ATOM      9  C3' N4B d   1      -2.383   1.857  -4.828  0.00  0.00     0.004 C 
ATOM     10  C4' N4B d   1      -0.886   1.859  -4.739  0.00  0.00     0.003 C 
ENDBRANCH   8   9
ENDBRANCH   7   8
ENDBRANCH   1   7
TORSDOF 3
ENDMDL
