MODEL 1
REMARK minimizedAffinity 19.5867977
REMARK minimizedRMSD -1
REMARK  3 active torsions:
REMARK  status: ('A' for Active; 'I' for Inactive)
REMARK    1  A    between atoms: C3'_2  and  C2'_3 
REMARK    2  A    between atoms: C2'_3  and  C1'_4 
REMARK    3  A    between atoms: C1'_4  and  C1_5 
ROOT
ATOM      1  C1  N4B d   1      -0.566  -1.968  -2.253  0.00  0.00    -0.075 A 
ATOM      2  C2  N4B d   1      -0.381  -3.342  -2.522  0.00  0.00     0.002 A 
ATOM      3  C3  N4B d   1      -0.475  -4.260  -1.505  0.00  0.00     0.002 A 
ATOM      4  C4  N4B d   1      -0.733  -3.828  -0.213  0.00  0.00    -0.004 A 
ATOM      5  C5  N4B d   1      -0.935  -2.502   0.035  0.00  0.00     0.002 A 
ATOM      6  C6  N4B d   1      -0.848  -1.568  -0.979  0.00  0.00     0.002 A 
ENDROOT
BRANCH   1   7
ATOM      7  C1' N4B d   1      -0.389  -0.919  -3.316  0.00  0.00     0.057 C 
BRANCH   7   8
ATOM      8  C2' N4B d   1       1.100  -0.642  -3.503  0.00  0.00     0.009 C 
BRANCH   8   9
ATOM      9  C3' N4B d   1       1.654   0.249  -2.404  0.00  0.00     0.004 C 
ATOM     10  C4' N4B d   1       3.153   0.256  -2.362  0.00  0.00     0.003 C 
ENDBRANCH   8   9
ENDBRANCH   7   8
ENDBRANCH   1   7
TORSDOF 3
ENDMDL
