MODEL 1
REMARK minimizedAffinity -3.16341901
REMARK minimizedRMSD -1
REMARK  1 active torsions:
REMARK  status: ('A' for Active; 'I' for Inactive)
REMARK    1  A    between atoms: C1_2  and  C2_3 
ROOT
ATOM      1  C2  UNL d   1       0.501   0.217  -3.811  0.00  0.00    -0.081 A 
ATOM      2  C3  UNL d   1      -0.329  -0.604  -3.037  0.00  0.00     0.006 A 
ATOM      3  C4  UNL d   1       0.162  -1.219  -1.883  0.00  0.00     0.002 A 
ATOM      4  C5  UNL d   1       1.486  -1.018  -1.479  0.00  0.00    -0.080 A 
ATOM      5  C6  UNL d   1       2.016  -1.648  -0.225  0.00  0.00     0.076 C 
ATOM      6  C7  UNL d   1       2.320  -0.212  -2.261  0.00  0.00     0.002 A 
ATOM      7  C8  UNL d   1       1.830   0.403  -3.416  0.00  0.00     0.006 A 
ENDROOT
BRANCH   1   8
ATOM      8  C1  UNL d   1      -0.043   0.933  -5.020  0.00  0.00     0.054 C 
ATOM      9  C   UNL d   1      -1.529   0.659  -5.205  0.00  0.00     0.018 C 
ENDBRANCH   1   8
TORSDOF 1
ENDMDL
