MODEL 1
REMARK minimizedAffinity -0.70654875
REMARK minimizedRMSD -1
REMARK  1 active torsions:
REMARK  status: ('A' for Active; 'I' for Inactive)
REMARK    1  A    between atoms: C1_2  and  C2_3 
ROOT
ATOM      1  C2  UNL d   1      -2.516  -1.453  -5.543  0.00  0.00    -0.081 A 
ATOM      2  C3  UNL d   1      -2.530  -0.104  -5.921  0.00  0.00     0.006 A 
ATOM      3  C4  UNL d   1      -1.487   0.746  -5.549  0.00  0.00     0.002 A 
ATOM      4  C5  UNL d   1      -0.409   0.262  -4.800  0.00  0.00    -0.080 A 
ATOM      5  C6  UNL d   1       0.732   1.158  -4.419  0.00  0.00     0.076 C 
ATOM      6  C7  UNL d   1      -0.404  -1.081  -4.407  0.00  0.00     0.002 A 
ATOM      7  C8  UNL d   1      -1.447  -1.932  -4.778  0.00  0.00     0.006 A 
ENDROOT
BRANCH   1   8
ATOM      8  C1  UNL d   1      -3.608  -2.388  -5.998  0.00  0.00     0.054 C 
ATOM      9  C   UNL d   1      -4.986  -1.830  -5.672  0.00  0.00     0.018 C 
ENDBRANCH   1   8
TORSDOF 1
ENDMDL
