MODEL 1
REMARK minimizedAffinity -5.06056833
REMARK minimizedRMSD -1
REMARK  1 active torsions:
REMARK  status: ('A' for Active; 'I' for Inactive)
REMARK    1  A    between atoms: C1_2  and  C2_3 
ROOT
ATOM      1  C2  UNL d   1      -0.127  -0.071  -0.736  0.00  0.00    -0.081 A 
ATOM      2  C3  UNL d   1       1.052  -0.353  -0.034  0.00  0.00     0.006 A 
ATOM      3  C4  UNL d   1       1.111  -0.177   1.350  0.00  0.00     0.002 A 
ATOM      4  C5  UNL d   1      -0.007   0.277   2.057  0.00  0.00    -0.080 A 
ATOM      5  C6  UNL d   1       0.034   0.441   3.547  0.00  0.00     0.076 C 
ATOM      6  C7  UNL d   1      -1.179   0.576   1.354  0.00  0.00     0.002 A 
ATOM      7  C8  UNL d   1      -1.239   0.401  -0.030  0.00  0.00     0.006 A 
ENDROOT
BRANCH   1   8
ATOM      8  C1  UNL d   1      -0.214  -0.321  -2.219  0.00  0.00     0.054 C 
ATOM      9  C   UNL d   1       0.959   0.308  -2.957  0.00  0.00     0.018 C 
ENDBRANCH   1   8
TORSDOF 1
ENDMDL
