MODEL 1
REMARK minimizedAffinity -3.33115268
REMARK minimizedRMSD -1
REMARK  1 active torsions:
REMARK  status: ('A' for Active; 'I' for Inactive)
REMARK    1  A    between atoms: C1_2  and  C2_3 
ROOT
ATOM      1  C2  UNL d   1       0.732  -0.226   2.346  0.00  0.00    -0.081 A 
ATOM      2  C3  UNL d   1      -0.432   0.087   1.635  0.00  0.00     0.006 A 
ATOM      3  C4  UNL d   1      -0.502  -0.135   0.257  0.00  0.00     0.002 A 
ATOM      4  C5  UNL d   1       0.587  -0.682  -0.430  0.00  0.00    -0.080 A 
ATOM      5  C6  UNL d   1       0.515  -0.954  -1.903  0.00  0.00     0.076 C 
ATOM      6  C7  UNL d   1       1.757  -0.978   0.278  0.00  0.00     0.002 A 
ATOM      7  C8  UNL d   1       1.828  -0.755   1.655  0.00  0.00     0.006 A 
ENDROOT
BRANCH   1   8
ATOM      8  C1  UNL d   1       0.788  -0.047   3.842  0.00  0.00     0.054 C 
ATOM      9  C   UNL d   1       1.294  -1.307   4.531  0.00  0.00     0.018 C 
ENDBRANCH   1   8
TORSDOF 1
ENDMDL
