MODEL 1
REMARK minimizedAffinity -3.5178225
REMARK minimizedRMSD -1
REMARK  1 active torsions:
REMARK  status: ('A' for Active; 'I' for Inactive)
REMARK    1  A    between atoms: C1_2  and  C2_3 
ROOT
ATOM      1  C2  UNL d   1       0.018  -0.401  -0.092  0.00  0.00    -0.081 A 
ATOM      2  C3  UNL d   1      -1.246   0.039   0.321  0.00  0.00     0.006 A 
ATOM      3  C4  UNL d   1      -1.389   0.774   1.500  0.00  0.00     0.002 A 
ATOM      4  C5  UNL d   1      -0.272   1.089   2.281  0.00  0.00    -0.080 A 
ATOM      5  C6  UNL d   1      -0.408   1.903   3.533  0.00  0.00     0.076 C 
ATOM      6  C7  UNL d   1       0.988   0.635   1.877  0.00  0.00     0.002 A 
ATOM      7  C8  UNL d   1       1.132  -0.101   0.699  0.00  0.00     0.006 A 
ENDROOT
BRANCH   1   8
ATOM      8  C1  UNL d   1       0.184  -1.138  -1.396  0.00  0.00     0.054 C 
ATOM      9  C   UNL d   1       0.507  -0.182  -2.535  0.00  0.00     0.018 C 
ENDBRANCH   1   8
TORSDOF 1
ENDMDL
