MODEL 1
REMARK minimizedAffinity -4.46520567
REMARK minimizedRMSD -1
REMARK  1 active torsions:
REMARK  status: ('A' for Active; 'I' for Inactive)
REMARK    1  A    between atoms: C1_2  and  C2_3 
ROOT
ATOM      1  C2  UNL d   1       0.103  -0.605   0.050  0.00  0.00    -0.081 A 
ATOM      2  C3  UNL d   1      -1.228  -0.300   0.362  0.00  0.00     0.006 A 
ATOM      3  C4  UNL d   1      -1.533   0.469   1.488  0.00  0.00     0.002 A 
ATOM      4  C5  UNL d   1      -0.514   0.952   2.315  0.00  0.00    -0.080 A 
ATOM      5  C6  UNL d   1      -0.826   1.804   3.509  0.00  0.00     0.076 C 
ATOM      6  C7  UNL d   1       0.815   0.633   2.013  0.00  0.00     0.002 A 
ATOM      7  C8  UNL d   1       1.120  -0.137   0.888  0.00  0.00     0.006 A 
ENDROOT
BRANCH   1   8
ATOM      8  C1  UNL d   1       0.439  -1.380  -1.199  0.00  0.00     0.054 C 
ATOM      9  C   UNL d   1       0.871  -0.452  -2.325  0.00  0.00     0.018 C 
ENDBRANCH   1   8
TORSDOF 1
ENDMDL
