MODEL 1
REMARK minimizedAffinity -1.62706935
REMARK minimizedRMSD -1
REMARK  1 active torsions:
REMARK  status: ('A' for Active; 'I' for Inactive)
REMARK    1  A    between atoms: C1_2  and  C2_3 
ROOT
ATOM      1  C2  UNL d   1       0.006   0.061   3.762  0.00  0.00    -0.081 A 
ATOM      2  C3  UNL d   1      -1.340  -0.024   3.386  0.00  0.00     0.006 A 
ATOM      3  C4  UNL d   1      -1.694  -0.098   2.037  0.00  0.00     0.002 A 
ATOM      4  C5  UNL d   1      -0.710  -0.097   1.043  0.00  0.00    -0.080 A 
ATOM      5  C6  UNL d   1      -1.075  -0.208  -0.408  0.00  0.00     0.076 C 
ATOM      6  C7  UNL d   1       0.634   0.005   1.418  0.00  0.00     0.002 A 
ATOM      7  C8  UNL d   1       0.989   0.080   2.767  0.00  0.00     0.006 A 
ENDROOT
BRANCH   1   8
ATOM      8  C1  UNL d   1       0.395   0.076   5.219  0.00  0.00     0.054 C 
ATOM      9  C   UNL d   1       0.855  -1.298   5.683  0.00  0.00     0.018 C 
ENDBRANCH   1   8
TORSDOF 1
ENDMDL
