MODEL 1
REMARK minimizedAffinity -0.302157402
REMARK minimizedRMSD -1
REMARK  0 active torsions:
REMARK  status: ('A' for Active; 'I' for Inactive)
ROOT
ATOM      1  C1  DEN d   1       3.708   5.999   3.190  0.00  0.00     0.130 A 
ATOM      2  C2  DEN d   1       5.083   5.961   3.681  0.00  0.00    -0.031 A 
ATOM      3  C3  DEN d   1       5.985   5.945   2.512  0.00  0.00     0.027 A 
ATOM      4  C4  DEN d   1       5.389   5.979   0.003  0.00  0.00     0.027 A 
ATOM      5  C5  DEN d   1       4.353   6.000  -0.905  0.00  0.00    -0.003 A 
ATOM      6  C6  DEN d   1       3.040   5.987  -0.515  0.00  0.00     0.001 A 
ATOM      7  C7  DEN d   1       2.728   5.999   0.819  0.00  0.00     0.017 A 
ATOM      8  C8  DEN d   1       3.767   5.971   1.740  0.00  0.00    -0.094 A 
ATOM      9  C9  DEN d   1       5.088   5.996   1.326  0.00  0.00    -0.072 A 
ENDROOT
TORSDOF 0
ENDMDL
