MODEL 1
REMARK minimizedAffinity -1.70456731
REMARK minimizedRMSD -1
REMARK  0 active torsions:
REMARK  status: ('A' for Active; 'I' for Inactive)
ROOT
ATOM      1  C1  DEN d   1       3.858   6.000   4.103  0.00  0.00     0.130 A 
ATOM      2  C2  DEN d   1       4.957   5.508   4.930  0.00  0.00    -0.031 A 
ATOM      3  C3  DEN d   1       5.990   4.952   4.033  0.00  0.00     0.027 A 
ATOM      4  C4  DEN d   1       5.997   4.810   1.458  0.00  0.00     0.027 A 
ATOM      5  C5  DEN d   1       5.278   5.087   0.316  0.00  0.00    -0.003 A 
ATOM      6  C6  DEN d   1       4.030   5.651   0.358  0.00  0.00     0.001 A 
ATOM      7  C7  DEN d   1       3.483   5.999   1.565  0.00  0.00     0.017 A 
ATOM      8  C8  DEN d   1       4.199   5.717   2.721  0.00  0.00    -0.094 A 
ATOM      9  C9  DEN d   1       5.464   5.157   2.657  0.00  0.00    -0.072 A 
ENDROOT
TORSDOF 0
ENDMDL
