MODEL 1
REMARK minimizedAffinity 14.1373415
REMARK minimizedRMSD -1
REMARK  0 active torsions:
REMARK  status: ('A' for Active; 'I' for Inactive)
ROOT
ATOM      1  C1  DEN d   1      -0.155  -4.982   1.461  0.00  0.00     0.130 A 
ATOM      2  C2  DEN d   1       1.065  -5.540   2.037  0.00  0.00    -0.031 A 
ATOM      3  C3  DEN d   1       2.217  -4.936   1.339  0.00  0.00     0.027 A 
ATOM      4  C4  DEN d   1       2.231  -3.197  -0.566  0.00  0.00     0.027 A 
ATOM      5  C5  DEN d   1       1.438  -2.435  -1.396  0.00  0.00    -0.003 A 
ATOM      6  C6  DEN d   1       0.070  -2.494  -1.356  0.00  0.00     0.001 A 
ATOM      7  C7  DEN d   1      -0.548  -3.299  -0.436  0.00  0.00     0.017 A 
ATOM      8  C8  DEN d   1       0.245  -4.075   0.400  0.00  0.00    -0.094 A 
ATOM      9  C9  DEN d   1       1.626  -3.993   0.352  0.00  0.00    -0.072 A 
ENDROOT
TORSDOF 0
ENDMDL
