MODEL 1
REMARK minimizedAffinity 9.85654449
REMARK minimizedRMSD -1
REMARK  0 active torsions:
REMARK  status: ('A' for Active; 'I' for Inactive)
ROOT
ATOM      1  C1  DEN d   1       0.861  -3.104  -0.685  0.00  0.00     0.130 A 
ATOM      2  C2  DEN d   1       2.160  -3.383  -0.080  0.00  0.00    -0.031 A 
ATOM      3  C3  DEN d   1       3.060  -2.254  -0.391  0.00  0.00     0.027 A 
ATOM      4  C4  DEN d   1       2.569  -0.111  -1.740  0.00  0.00     0.027 A 
ATOM      5  C5  DEN d   1       1.610   0.567  -2.459  0.00  0.00    -0.003 A 
ATOM      6  C6  DEN d   1       0.355   0.058  -2.665  0.00  0.00     0.001 A 
ATOM      7  C7  DEN d   1       0.011  -1.145  -2.107  0.00  0.00     0.017 A 
ATOM      8  C8  DEN d   1       0.974  -1.838  -1.386  0.00  0.00    -0.094 A 
ATOM      9  C9  DEN d   1       2.233  -1.300  -1.179  0.00  0.00    -0.072 A 
ENDROOT
TORSDOF 0
ENDMDL
