MODEL 1
REMARK minimizedAffinity 10.1962996
REMARK minimizedRMSD -1
REMARK  0 active torsions:
REMARK  status: ('A' for Active; 'I' for Inactive)
ROOT
ATOM      1  C1  DEN d   1      -0.053  -3.506  -2.320  0.00  0.00     0.130 A 
ATOM      2  C2  DEN d   1      -0.473  -2.408  -3.186  0.00  0.00    -0.031 A 
ATOM      3  C3  DEN d   1       0.456  -1.280  -2.976  0.00  0.00     0.027 A 
ATOM      4  C4  DEN d   1       2.497  -1.129  -1.405  0.00  0.00     0.027 A 
ATOM      5  C5  DEN d   1       3.241  -1.806  -0.464  0.00  0.00    -0.003 A 
ATOM      6  C6  DEN d   1       2.923  -3.073  -0.054  0.00  0.00     0.001 A 
ATOM      7  C7  DEN d   1       1.857  -3.722  -0.620  0.00  0.00     0.017 A 
ATOM      8  C8  DEN d   1       1.097  -3.044  -1.564  0.00  0.00    -0.094 A 
ATOM      9  C9  DEN d   1       1.443  -1.767  -1.974  0.00  0.00    -0.072 A 
ENDROOT
TORSDOF 0
ENDMDL
