MODEL 1
REMARK minimizedAffinity 11.6430082
REMARK minimizedRMSD -1
REMARK  0 active torsions:
REMARK  status: ('A' for Active; 'I' for Inactive)
ROOT
ATOM      1  C1  DEN d   1       2.188  -3.376  -0.384  0.00  0.00     0.130 A 
ATOM      2  C2  DEN d   1       1.103  -2.631  -1.017  0.00  0.00    -0.031 A 
ATOM      3  C3  DEN d   1      -0.172  -3.100  -0.439  0.00  0.00     0.027 A 
ATOM      4  C4  DEN d   1      -0.570  -4.896   1.369  0.00  0.00     0.027 A 
ATOM      5  C5  DEN d   1       0.043  -5.810   2.197  0.00  0.00    -0.003 A 
ATOM      6  C6  DEN d   1       1.400  -6.000   2.198  0.00  0.00     0.001 A 
ATOM      7  C7  DEN d   1       2.193  -5.232   1.387  0.00  0.00     0.017 A 
ATOM      8  C8  DEN d   1       1.582  -4.313   0.544  0.00  0.00    -0.094 A 
ATOM      9  C9  DEN d   1       0.210  -4.128   0.567  0.00  0.00    -0.072 A 
ENDROOT
TORSDOF 0
ENDMDL
