MODEL 1
REMARK minimizedAffinity 8.15922832
REMARK minimizedRMSD -1
REMARK  0 active torsions:
REMARK  status: ('A' for Active; 'I' for Inactive)
ROOT
ATOM      1  C1  DEN d   1      -0.648  -1.194  -1.047  0.00  0.00     0.130 A 
ATOM      2  C2  DEN d   1      -1.841  -0.402  -1.335  0.00  0.00    -0.031 A 
ATOM      3  C3  DEN d   1      -1.420   0.804  -2.078  0.00  0.00     0.027 A 
ATOM      4  C4  DEN d   1       0.949   1.514  -2.809  0.00  0.00     0.027 A 
ATOM      5  C5  DEN d   1       2.282   1.170  -2.782  0.00  0.00    -0.003 A 
ATOM      6  C6  DEN d   1       2.733   0.041  -2.151  0.00  0.00     0.001 A 
ATOM      7  C7  DEN d   1       1.836  -0.809  -1.559  0.00  0.00     0.017 A 
ATOM      8  C8  DEN d   1       0.491  -0.465  -1.575  0.00  0.00    -0.094 A 
ATOM      9  C9  DEN d   1       0.054   0.674  -2.229  0.00  0.00    -0.072 A 
ENDROOT
TORSDOF 0
ENDMDL
