MODEL 1
REMARK minimizedAffinity 5.27282572
REMARK minimizedRMSD -1
REMARK  0 active torsions:
REMARK  status: ('A' for Active; 'I' for Inactive)
ROOT
ATOM      1  C1  DEN d   1      -2.766  -0.721  -0.311  0.00  0.00     0.130 A 
ATOM      2  C2  DEN d   1      -3.672  -1.859  -0.184  0.00  0.00    -0.031 A 
ATOM      3  C3  DEN d   1      -4.034  -1.998   1.241  0.00  0.00     0.027 A 
ATOM      4  C4  DEN d   1      -3.286  -0.566   3.252  0.00  0.00     0.027 A 
ATOM      5  C5  DEN d   1      -2.511   0.504   3.642  0.00  0.00    -0.003 A 
ATOM      6  C6  DEN d   1      -1.746   1.213   2.754  0.00  0.00     0.001 A 
ATOM      7  C7  DEN d   1      -1.775   0.889   1.424  0.00  0.00     0.017 A 
ATOM      8  C8  DEN d   1      -2.548  -0.192   1.024  0.00  0.00    -0.094 A 
ATOM      9  C9  DEN d   1      -3.324  -0.889   1.935  0.00  0.00    -0.072 A 
ENDROOT
TORSDOF 0
ENDMDL
