MODEL 1
REMARK minimizedAffinity 20.5944462
REMARK minimizedRMSD -1
REMARK  0 active torsions:
REMARK  status: ('A' for Active; 'I' for Inactive)
ROOT
ATOM      1  C1  DEN d   1      -2.046   0.841   3.842  0.00  0.00     0.130 A 
ATOM      2  C2  DEN d   1      -1.848   1.058   2.412  0.00  0.00    -0.031 A 
ATOM      3  C3  DEN d   1      -3.114   0.738   1.721  0.00  0.00     0.027 A 
ATOM      4  C4  DEN d   1      -5.350  -0.065   2.724  0.00  0.00     0.027 A 
ATOM      5  C5  DEN d   1      -6.000  -0.406   3.890  0.00  0.00    -0.003 A 
ATOM      6  C6  DEN d   1      -5.372  -0.388   5.107  0.00  0.00     0.001 A 
ATOM      7  C7  DEN d   1      -4.068   0.022   5.193  0.00  0.00     0.017 A 
ATOM      8  C8  DEN d   1      -3.405   0.360   4.021  0.00  0.00    -0.094 A 
ATOM      9  C9  DEN d   1      -4.060   0.348   2.801  0.00  0.00    -0.072 A 
ENDROOT
TORSDOF 0
ENDMDL
