MODEL 1
REMARK minimizedAffinity 14.1023245
REMARK minimizedRMSD -1
REMARK  0 active torsions:
REMARK  status: ('A' for Active; 'I' for Inactive)
ROOT
ATOM      1  C1  DEN d   1       1.363  -2.079  -2.532  0.00  0.00     0.130 A 
ATOM      2  C2  DEN d   1       2.259  -2.190  -1.384  0.00  0.00    -0.031 A 
ATOM      3  C3  DEN d   1       3.009  -0.923  -1.266  0.00  0.00     0.027 A 
ATOM      4  C4  DEN d   1       2.866   1.191  -2.738  0.00  0.00     0.027 A 
ATOM      5  C5  DEN d   1       2.257   1.753  -3.838  0.00  0.00    -0.003 A 
ATOM      6  C6  DEN d   1       1.340   1.072  -4.593  0.00  0.00     0.001 A 
ATOM      7  C7  DEN d   1       0.972  -0.197  -4.232  0.00  0.00     0.017 A 
ATOM      8  C8  DEN d   1       1.587  -0.774  -3.129  0.00  0.00    -0.094 A 
ATOM      9  C9  DEN d   1       2.502  -0.064  -2.371  0.00  0.00    -0.072 A 
ENDROOT
TORSDOF 0
ENDMDL
