MODEL 1
REMARK minimizedAffinity 11.3254881
REMARK minimizedRMSD -1
REMARK  0 active torsions:
REMARK  status: ('A' for Active; 'I' for Inactive)
ROOT
ATOM      1  C1  DEN d   1       2.313  -3.904  -0.132  0.00  0.00     0.130 A 
ATOM      2  C2  DEN d   1       1.779  -4.608   1.031  0.00  0.00    -0.031 A 
ATOM      3  C3  DEN d   1       0.306  -4.606   0.929  0.00  0.00     0.027 A 
ATOM      4  C4  DEN d   1      -1.192  -3.593  -0.910  0.00  0.00     0.027 A 
ATOM      5  C5  DEN d   1      -1.195  -2.886  -2.093  0.00  0.00    -0.003 A 
ATOM      6  C6  DEN d   1      -0.040  -2.443  -2.682  0.00  0.00     0.001 A 
ATOM      7  C7  DEN d   1       1.170  -2.742  -2.113  0.00  0.00     0.017 A 
ATOM      8  C8  DEN d   1       1.181  -3.448  -0.917  0.00  0.00    -0.094 A 
ATOM      9  C9  DEN d   1       0.003  -3.897  -0.343  0.00  0.00    -0.072 A 
ENDROOT
TORSDOF 0
ENDMDL
