MODEL 1
REMARK minimizedAffinity -3.13841176
REMARK minimizedRMSD -1
REMARK  0 active torsions:
REMARK  status: ('A' for Active; 'I' for Inactive)
ROOT
ATOM      1  C1  DEN d   1       4.547  -2.118   4.104  0.00  0.00     0.130 A 
ATOM      2  C2  DEN d   1       5.360  -1.368   5.059  0.00  0.00    -0.031 A 
ATOM      3  C3  DEN d   1       6.000  -2.335   5.973  0.00  0.00     0.027 A 
ATOM      4  C4  DEN d   1       5.816  -4.908   6.000  0.00  0.00     0.027 A 
ATOM      5  C5  DEN d   1       5.234  -5.998   5.392  0.00  0.00    -0.003 A 
ATOM      6  C6  DEN d   1       4.363  -5.871   4.343  0.00  0.00     0.001 A 
ATOM      7  C7  DEN d   1       4.084  -4.627   3.840  0.00  0.00     0.017 A 
ATOM      8  C8  DEN d   1       4.661  -3.523   4.452  0.00  0.00    -0.094 A 
ATOM      9  C9  DEN d   1       5.548  -3.673   5.504  0.00  0.00    -0.072 A 
ENDROOT
TORSDOF 0
ENDMDL
