MODEL 1
REMARK minimizedAffinity 9.94122505
REMARK minimizedRMSD -1
REMARK  0 active torsions:
REMARK  status: ('A' for Active; 'I' for Inactive)
ROOT
ATOM      1  C1  DEN d   1      -1.630   0.710   3.420  0.00  0.00     0.130 A 
ATOM      2  C2  DEN d   1      -2.574   0.148   2.457  0.00  0.00    -0.031 A 
ATOM      3  C3  DEN d   1      -3.517   1.214   2.067  0.00  0.00     0.027 A 
ATOM      4  C4  DEN d   1      -3.607   3.669   2.852  0.00  0.00     0.027 A 
ATOM      5  C5  DEN d   1      -3.020   4.607   3.673  0.00  0.00    -0.003 A 
ATOM      6  C6  DEN d   1      -1.960   4.306   4.486  0.00  0.00     0.001 A 
ATOM      7  C7  DEN d   1      -1.423   3.045   4.462  0.00  0.00     0.017 A 
ATOM      8  C8  DEN d   1      -2.014   2.092   3.643  0.00  0.00    -0.094 A 
ATOM      9  C9  DEN d   1      -3.078   2.420   2.819  0.00  0.00    -0.072 A 
ENDROOT
TORSDOF 0
ENDMDL
