MODEL 1
REMARK minimizedAffinity 0.897544205
REMARK minimizedRMSD -1
REMARK  0 active torsions:
REMARK  status: ('A' for Active; 'I' for Inactive)
ROOT
ATOM      1  C1  DEN d   1       0.508   0.434  -2.000  0.00  0.00     0.130 A 
ATOM      2  C2  DEN d   1       0.610  -1.022  -1.952  0.00  0.00    -0.031 A 
ATOM      3  C3  DEN d   1       2.042  -1.378  -1.899  0.00  0.00     0.027 A 
ATOM      4  C4  DEN d   1       4.101   0.176  -1.881  0.00  0.00     0.027 A 
ATOM      5  C5  DEN d   1       4.517   1.488  -1.920  0.00  0.00    -0.003 A 
ATOM      6  C6  DEN d   1       3.635   2.531  -2.022  0.00  0.00     0.001 A 
ATOM      7  C7  DEN d   1       2.288   2.282  -2.043  0.00  0.00     0.017 A 
ATOM      8  C8  DEN d   1       1.861   0.961  -2.011  0.00  0.00    -0.094 A 
ATOM      9  C9  DEN d   1       2.768  -0.079  -1.896  0.00  0.00    -0.072 A 
ENDROOT
TORSDOF 0
ENDMDL
