MODEL 1
REMARK minimizedAffinity 13.1211548
REMARK minimizedRMSD -1
REMARK  0 active torsions:
REMARK  status: ('A' for Active; 'I' for Inactive)
ROOT
ATOM      1  C1  DEN d   1      -0.170  -5.212   1.657  0.00  0.00     0.130 A 
ATOM      2  C2  DEN d   1       1.179  -5.648   2.005  0.00  0.00    -0.031 A 
ATOM      3  C3  DEN d   1       2.125  -4.977   1.091  0.00  0.00     0.027 A 
ATOM      4  C4  DEN d   1       1.634  -3.311  -0.816  0.00  0.00     0.027 A 
ATOM      5  C5  DEN d   1       0.639  -2.646  -1.497  0.00  0.00    -0.003 A 
ATOM      6  C6  DEN d   1      -0.688  -2.814  -1.199  0.00  0.00     0.001 A 
ATOM      7  C7  DEN d   1      -1.052  -3.634  -0.164  0.00  0.00     0.017 A 
ATOM      8  C8  DEN d   1      -0.054  -4.314   0.522  0.00  0.00    -0.094 A 
ATOM      9  C9  DEN d   1       1.282  -4.120   0.214  0.00  0.00    -0.072 A 
ENDROOT
TORSDOF 0
ENDMDL
