MODEL 1
REMARK minimizedAffinity 12.735117
REMARK minimizedRMSD -1
REMARK  0 active torsions:
REMARK  status: ('A' for Active; 'I' for Inactive)
ROOT
ATOM      1  C1  DEN d   1       1.514  -1.391  -2.951  0.00  0.00     0.130 A 
ATOM      2  C2  DEN d   1       1.017  -2.650  -2.402  0.00  0.00    -0.031 A 
ATOM      3  C3  DEN d   1      -0.185  -2.354  -1.596  0.00  0.00     0.027 A 
ATOM      4  C4  DEN d   1      -1.320  -0.081  -1.152  0.00  0.00     0.027 A 
ATOM      5  C5  DEN d   1      -1.255   1.273  -1.395  0.00  0.00    -0.003 A 
ATOM      6  C6  DEN d   1      -0.251   1.834  -2.140  0.00  0.00     0.001 A 
ATOM      7  C7  DEN d   1       0.703   1.031  -2.706  0.00  0.00     0.017 A 
ATOM      8  C8  DEN d   1       0.649  -0.335  -2.459  0.00  0.00    -0.094 A 
ATOM      9  C9  DEN d   1      -0.381  -0.884  -1.713  0.00  0.00    -0.072 A 
ENDROOT
TORSDOF 0
ENDMDL
