MODEL 1
REMARK minimizedAffinity 4.92831612
REMARK minimizedRMSD -1
REMARK  2 active torsions:
REMARK  status: ('A' for Active; 'I' for Inactive)
REMARK    1  A    between atoms: C1_2  and  C2_3 
REMARK    2  A    between atoms: C2_3  and  C3_4 
ROOT
ATOM      1  C3  UNL d   1       1.104   2.003   0.870  0.00  0.00    -0.075 A 
ATOM      2  C4  UNL d   1       1.651   0.825   1.399  0.00  0.00     0.002 A 
ATOM      3  C5  UNL d   1       1.755  -0.323   0.614  0.00  0.00     0.002 A 
ATOM      4  C6  UNL d   1       1.305  -0.312  -0.705  0.00  0.00    -0.004 A 
ATOM      5  C7  UNL d   1       0.745   0.848  -1.236  0.00  0.00     0.002 A 
ATOM      6  C8  UNL d   1       0.644   2.000  -0.454  0.00  0.00     0.002 A 
ENDROOT
BRANCH   1   7
ATOM      7  C2  UNL d   1       1.016   3.258   1.705  0.00  0.00     0.056 C 
BRANCH   7   8
ATOM      8  C1  UNL d   1       2.273   3.545   2.533  0.00  0.00     0.007 C 
ATOM      9  C   UNL d   1       2.123   4.749   3.455  0.00  0.00     0.009 C 
ENDBRANCH   7   8
ENDBRANCH   1   7
TORSDOF 2
ENDMDL
