MODEL 1
REMARK minimizedAffinity 5.64861107
REMARK minimizedRMSD -1
REMARK  2 active torsions:
REMARK  status: ('A' for Active; 'I' for Inactive)
REMARK    1  A    between atoms: C1_2  and  C2_3 
REMARK    2  A    between atoms: C2_3  and  C3_4 
ROOT
ATOM      1  C3  UNL d   1       1.457   1.277  -1.062  0.00  0.00    -0.075 A 
ATOM      2  C4  UNL d   1       1.077   2.214  -2.034  0.00  0.00     0.002 A 
ATOM      3  C5  UNL d   1       0.680   3.499  -1.663  0.00  0.00     0.002 A 
ATOM      4  C6  UNL d   1       0.647   3.860  -0.318  0.00  0.00    -0.004 A 
ATOM      5  C7  UNL d   1       1.005   2.932   0.658  0.00  0.00     0.002 A 
ATOM      6  C8  UNL d   1       1.408   1.647   0.289  0.00  0.00     0.002 A 
ENDROOT
BRANCH   1   7
ATOM      7  C2  UNL d   1       1.916  -0.105  -1.459  0.00  0.00     0.056 C 
BRANCH   7   8
ATOM      8  C1  UNL d   1       2.240  -1.019  -0.272  0.00  0.00     0.007 C 
ATOM      9  C   UNL d   1       3.731  -1.108   0.027  0.00  0.00     0.009 C 
ENDBRANCH   7   8
ENDBRANCH   1   7
TORSDOF 2
ENDMDL
