MODEL 1
REMARK minimizedAffinity -3.03281283
REMARK minimizedRMSD -1
REMARK  2 active torsions:
REMARK  status: ('A' for Active; 'I' for Inactive)
REMARK    1  A    between atoms: C1_2  and  C2_3 
REMARK    2  A    between atoms: C2_3  and  C3_4 
ROOT
ATOM      1  C3  UNL d   1       1.332   0.320  -0.435  0.00  0.00    -0.075 A 
ATOM      2  C4  UNL d   1       0.776   1.179   0.524  0.00  0.00     0.002 A 
ATOM      3  C5  UNL d   1       0.542   2.521   0.223  0.00  0.00     0.002 A 
ATOM      4  C6  UNL d   1       0.868   3.023  -1.035  0.00  0.00    -0.004 A 
ATOM      5  C7  UNL d   1       1.436   2.183  -1.990  0.00  0.00     0.002 A 
ATOM      6  C8  UNL d   1       1.667   0.839  -1.693  0.00  0.00     0.002 A 
ENDROOT
BRANCH   1   7
ATOM      7  C2  UNL d   1       1.560  -1.140  -0.125  0.00  0.00     0.056 C 
BRANCH   7   8
ATOM      8  C1  UNL d   1       1.152  -2.089  -1.256  0.00  0.00     0.007 C 
ATOM      9  C   UNL d   1       0.171  -3.166  -0.811  0.00  0.00     0.009 C 
ENDBRANCH   7   8
ENDBRANCH   1   7
TORSDOF 2
ENDMDL
