MODEL 1
REMARK minimizedAffinity -0.773428202
REMARK minimizedRMSD -1
REMARK  2 active torsions:
REMARK  status: ('A' for Active; 'I' for Inactive)
REMARK    1  A    between atoms: C1_2  and  C2_3 
REMARK    2  A    between atoms: C2_3  and  C3_4 
ROOT
ATOM      1  C3  UNL d   1       1.345   0.065  -1.762  0.00  0.00    -0.075 A 
ATOM      2  C4  UNL d   1       1.138   1.380  -2.204  0.00  0.00     0.002 A 
ATOM      3  C5  UNL d   1       0.893   2.404  -1.288  0.00  0.00     0.002 A 
ATOM      4  C6  UNL d   1       0.842   2.126   0.076  0.00  0.00    -0.004 A 
ATOM      5  C7  UNL d   1       1.030   0.820   0.524  0.00  0.00     0.002 A 
ATOM      6  C8  UNL d   1       1.279  -0.205  -0.389  0.00  0.00     0.002 A 
ENDROOT
BRANCH   1   7
ATOM      7  C2  UNL d   1       1.640  -1.042  -2.746  0.00  0.00     0.056 C 
BRANCH   7   8
ATOM      8  C1  UNL d   1       1.593  -0.602  -4.213  0.00  0.00     0.007 C 
ATOM      9  C   UNL d   1       2.188  -1.629  -5.167  0.00  0.00     0.009 C 
ENDBRANCH   7   8
ENDBRANCH   1   7
TORSDOF 2
ENDMDL
