MODEL 1
REMARK minimizedAffinity -0.899036467
REMARK minimizedRMSD -1
REMARK  2 active torsions:
REMARK  status: ('A' for Active; 'I' for Inactive)
REMARK    1  A    between atoms: C1_2  and  C2_3 
REMARK    2  A    between atoms: C2_3  and  C3_4 
ROOT
ATOM      1  C3  UNL d   1       1.284  -0.695  -0.375  0.00  0.00    -0.075 A 
ATOM      2  C4  UNL d   1       1.659  -0.091   0.834  0.00  0.00     0.002 A 
ATOM      3  C5  UNL d   1       1.410   1.264   1.056  0.00  0.00     0.002 A 
ATOM      4  C6  UNL d   1       0.795   2.033   0.071  0.00  0.00    -0.004 A 
ATOM      5  C7  UNL d   1       0.433   1.447  -1.140  0.00  0.00     0.002 A 
ATOM      6  C8  UNL d   1       0.677   0.091  -1.363  0.00  0.00     0.002 A 
ENDROOT
BRANCH   1   7
ATOM      7  C2  UNL d   1       1.523  -2.167  -0.609  0.00  0.00     0.056 C 
BRANCH   7   8
ATOM      8  C1  UNL d   1       0.707  -2.755  -1.765  0.00  0.00     0.007 C 
ATOM      9  C   UNL d   1      -0.573  -3.442  -1.308  0.00  0.00     0.009 C 
ENDBRANCH   7   8
ENDBRANCH   1   7
TORSDOF 2
ENDMDL
