MODEL 1
REMARK minimizedAffinity -0.764256597
REMARK minimizedRMSD -1
REMARK  2 active torsions:
REMARK  status: ('A' for Active; 'I' for Inactive)
REMARK    1  A    between atoms: C1_2  and  C2_3 
REMARK    2  A    between atoms: C2_3  and  C3_4 
ROOT
ATOM      1  C3  UNL d   1       1.241   2.422  -0.753  0.00  0.00    -0.075 A 
ATOM      2  C4  UNL d   1       0.925   2.471   0.612  0.00  0.00     0.002 A 
ATOM      3  C5  UNL d   1       0.835   1.297   1.361  0.00  0.00     0.002 A 
ATOM      4  C6  UNL d   1       1.047   0.062   0.753  0.00  0.00    -0.004 A 
ATOM      5  C7  UNL d   1       1.345   0.000  -0.606  0.00  0.00     0.002 A 
ATOM      6  C8  UNL d   1       1.441   1.173  -1.357  0.00  0.00     0.002 A 
ENDROOT
BRANCH   1   7
ATOM      7  C2  UNL d   1       1.370   3.690  -1.563  0.00  0.00     0.056 C 
BRANCH   7   8
ATOM      8  C1  UNL d   1       1.637   4.943  -0.721  0.00  0.00     0.007 C 
ATOM      9  C   UNL d   1       2.449   5.999  -1.458  0.00  0.00     0.009 C 
ENDBRANCH   7   8
ENDBRANCH   1   7
TORSDOF 2
ENDMDL
