MODEL 1
REMARK minimizedAffinity 5.37985516
REMARK minimizedRMSD -1
REMARK  2 active torsions:
REMARK  status: ('A' for Active; 'I' for Inactive)
REMARK    1  A    between atoms: C1_2  and  C2_3 
REMARK    2  A    between atoms: C2_3  and  C3_4 
ROOT
ATOM      1  C3  UNL d   1       0.838   2.323  -1.531  0.00  0.00    -0.075 A 
ATOM      2  C4  UNL d   1       1.445   1.866  -0.352  0.00  0.00     0.002 A 
ATOM      3  C5  UNL d   1       1.761   0.517  -0.195  0.00  0.00     0.002 A 
ATOM      4  C6  UNL d   1       1.466  -0.393  -1.208  0.00  0.00    -0.004 A 
ATOM      5  C7  UNL d   1       0.848   0.047  -2.377  0.00  0.00     0.002 A 
ATOM      6  C8  UNL d   1       0.535   1.398  -2.538  0.00  0.00     0.002 A 
ENDROOT
BRANCH   1   7
ATOM      7  C2  UNL d   1       0.520   3.788  -1.719  0.00  0.00     0.056 C 
BRANCH   7   8
ATOM      8  C1  UNL d   1       1.100   4.696  -0.630  0.00  0.00     0.007 C 
ATOM      9  C   UNL d   1       1.676   5.996  -1.176  0.00  0.00     0.009 C 
ENDBRANCH   7   8
ENDBRANCH   1   7
TORSDOF 2
ENDMDL
