MODEL 1
REMARK minimizedAffinity -4.14964247
REMARK minimizedRMSD -1
REMARK  2 active torsions:
REMARK  status: ('A' for Active; 'I' for Inactive)
REMARK    1  A    between atoms: C1_2  and  C2_3 
REMARK    2  A    between atoms: C2_3  and  C3_4 
ROOT
ATOM      1  C3  UNL d   1       0.971   2.434  -1.051  0.00  0.00    -0.075 A 
ATOM      2  C4  UNL d   1       1.275   1.398  -1.946  0.00  0.00     0.002 A 
ATOM      3  C5  UNL d   1       1.294   0.071  -1.514  0.00  0.00     0.002 A 
ATOM      4  C6  UNL d   1       1.021  -0.235  -0.183  0.00  0.00    -0.004 A 
ATOM      5  C7  UNL d   1       0.734   0.788   0.719  0.00  0.00     0.002 A 
ATOM      6  C8  UNL d   1       0.710   2.116   0.288  0.00  0.00     0.002 A 
ENDROOT
BRANCH   1   7
ATOM      7  C2  UNL d   1       0.920   3.869  -1.519  0.00  0.00     0.056 C 
BRANCH   7   8
ATOM      8  C1  UNL d   1       1.234   4.893  -0.424  0.00  0.00     0.007 C 
ATOM      9  C   UNL d   1       2.171   6.000  -0.889  0.00  0.00     0.009 C 
ENDBRANCH   7   8
ENDBRANCH   1   7
TORSDOF 2
ENDMDL
