MODEL 1
REMARK minimizedAffinity -3.84072804
REMARK minimizedRMSD -1
REMARK  2 active torsions:
REMARK  status: ('A' for Active; 'I' for Inactive)
REMARK    1  A    between atoms: C1_2  and  C2_3 
REMARK    2  A    between atoms: C2_3  and  C3_4 
ROOT
ATOM      1  C3  UNL d   1       0.794   1.571  -0.469  0.00  0.00    -0.075 A 
ATOM      2  C4  UNL d   1       0.828   2.696  -1.306  0.00  0.00     0.002 A 
ATOM      3  C5  UNL d   1       0.963   3.976  -0.767  0.00  0.00     0.002 A 
ATOM      4  C6  UNL d   1       1.056   4.148   0.612  0.00  0.00    -0.004 A 
ATOM      5  C7  UNL d   1       1.007   3.039   1.454  0.00  0.00     0.002 A 
ATOM      6  C8  UNL d   1       0.875   1.757   0.917  0.00  0.00     0.002 A 
ENDROOT
BRANCH   1   7
ATOM      7  C2  UNL d   1       0.677   0.182  -1.048  0.00  0.00     0.056 C 
BRANCH   7   8
ATOM      8  C1  UNL d   1       1.465  -0.883  -0.278  0.00  0.00     0.007 C 
ATOM      9  C   UNL d   1       1.195  -2.300  -0.766  0.00  0.00     0.009 C 
ENDBRANCH   7   8
ENDBRANCH   1   7
TORSDOF 2
ENDMDL
