MODEL 1
REMARK minimizedAffinity -1.7963748
REMARK minimizedRMSD -1
REMARK  2 active torsions:
REMARK  status: ('A' for Active; 'I' for Inactive)
REMARK    1  A    between atoms: C1_2  and  C2_3 
REMARK    2  A    between atoms: C2_3  and  C3_4 
ROOT
ATOM      1  C3  UNL d   1      -2.758   2.593   4.802  0.00  0.00    -0.075 A 
ATOM      2  C4  UNL d   1      -4.133   2.591   4.527  0.00  0.00     0.002 A 
ATOM      3  C5  UNL d   1      -4.637   1.885   3.434  0.00  0.00     0.002 A 
ATOM      4  C6  UNL d   1      -3.773   1.182   2.598  0.00  0.00    -0.004 A 
ATOM      5  C7  UNL d   1      -2.403   1.190   2.851  0.00  0.00     0.002 A 
ATOM      6  C8  UNL d   1      -1.897   1.892   3.947  0.00  0.00     0.002 A 
ENDROOT
BRANCH   1   7
ATOM      7  C2  UNL d   1      -2.210   3.331   6.000  0.00  0.00     0.056 C 
BRANCH   7   8
ATOM      8  C1  UNL d   1      -2.283   4.856   5.879  0.00  0.00     0.007 C 
ATOM      9  C   UNL d   1      -1.593   5.393   4.632  0.00  0.00     0.009 C 
ENDBRANCH   7   8
ENDBRANCH   1   7
TORSDOF 2
ENDMDL
