MODEL 1
REMARK minimizedAffinity 0.517443657
REMARK minimizedRMSD -1
REMARK  2 active torsions:
REMARK  status: ('A' for Active; 'I' for Inactive)
REMARK    1  A    between atoms: C1_2  and  C2_3 
REMARK    2  A    between atoms: C2_3  and  C3_4 
ROOT
ATOM      1  C3  UNL d   1       1.106   0.764   0.106  0.00  0.00    -0.075 A 
ATOM      2  C4  UNL d   1       0.510   1.798   0.841  0.00  0.00     0.002 A 
ATOM      3  C5  UNL d   1       0.947   2.092   2.133  0.00  0.00     0.002 A 
ATOM      4  C6  UNL d   1       1.977   1.351   2.709  0.00  0.00    -0.004 A 
ATOM      5  C7  UNL d   1       2.566   0.310   1.993  0.00  0.00     0.002 A 
ATOM      6  C8  UNL d   1       2.133   0.017   0.699  0.00  0.00     0.002 A 
ENDROOT
BRANCH   1   7
ATOM      7  C2  UNL d   1       0.657   0.460  -1.304  0.00  0.00     0.056 C 
BRANCH   7   8
ATOM      8  C1  UNL d   1       1.179   1.450  -2.351  0.00  0.00     0.007 C 
ATOM      9  C   UNL d   1       0.899   2.904  -1.995  0.00  0.00     0.009 C 
ENDBRANCH   7   8
ENDBRANCH   1   7
TORSDOF 2
ENDMDL
