MODEL 1
REMARK minimizedAffinity -2.86101174
REMARK minimizedRMSD -1
REMARK  2 active torsions:
REMARK  status: ('A' for Active; 'I' for Inactive)
REMARK    1  A    between atoms: C1_2  and  C2_3 
REMARK    2  A    between atoms: C2_3  and  C3_4 
ROOT
ATOM      1  C3  UNL d   1       0.802   1.739  -0.644  0.00  0.00    -0.075 A 
ATOM      2  C4  UNL d   1       1.073   2.589  -1.726  0.00  0.00     0.002 A 
ATOM      3  C5  UNL d   1       1.269   2.067  -3.005  0.00  0.00     0.002 A 
ATOM      4  C6  UNL d   1       1.207   0.691  -3.216  0.00  0.00    -0.004 A 
ATOM      5  C7  UNL d   1       0.955  -0.164  -2.146  0.00  0.00     0.002 A 
ATOM      6  C8  UNL d   1       0.754   0.356  -0.866  0.00  0.00     0.002 A 
ENDROOT
BRANCH   1   7
ATOM      7  C2  UNL d   1       0.560   2.300   0.737  0.00  0.00     0.056 C 
BRANCH   7   8
ATOM      8  C1  UNL d   1       1.649   1.944   1.754  0.00  0.00     0.007 C 
ATOM      9  C   UNL d   1       1.760   0.448   2.017  0.00  0.00     0.009 C 
ENDBRANCH   7   8
ENDBRANCH   1   7
TORSDOF 2
ENDMDL
