MODEL 1
REMARK minimizedAffinity -2.94676924
REMARK minimizedRMSD -1
REMARK  2 active torsions:
REMARK  status: ('A' for Active; 'I' for Inactive)
REMARK    1  A    between atoms: C1_2  and  C2_3 
REMARK    2  A    between atoms: C2_3  and  C3_4 
ROOT
ATOM      1  C3  UNL d   1       1.236   0.940  -0.779  0.00  0.00    -0.075 A 
ATOM      2  C4  UNL d   1       2.142   0.141  -1.491  0.00  0.00     0.002 A 
ATOM      3  C5  UNL d   1       1.848  -0.281  -2.788  0.00  0.00     0.002 A 
ATOM      4  C6  UNL d   1       0.642   0.082  -3.385  0.00  0.00    -0.004 A 
ATOM      5  C7  UNL d   1      -0.273   0.862  -2.681  0.00  0.00     0.002 A 
ATOM      6  C8  UNL d   1       0.021   1.289  -1.385  0.00  0.00     0.002 A 
ENDROOT
BRANCH   1   7
ATOM      7  C2  UNL d   1       1.561   1.425   0.614  0.00  0.00     0.056 C 
BRANCH   7   8
ATOM      8  C1  UNL d   1       0.634   2.534   1.121  0.00  0.00     0.007 C 
ATOM      9  C   UNL d   1       1.101   3.931   0.734  0.00  0.00     0.009 C 
ENDBRANCH   7   8
ENDBRANCH   1   7
TORSDOF 2
ENDMDL
