MODEL 1
REMARK minimizedAffinity 1.08391011
REMARK minimizedRMSD -1
REMARK  2 active torsions:
REMARK  status: ('A' for Active; 'I' for Inactive)
REMARK    1  A    between atoms: C1_2  and  C2_3 
REMARK    2  A    between atoms: C2_3  and  C3_4 
ROOT
ATOM      1  C3  UNL d   1       1.066   0.238  -0.348  0.00  0.00    -0.075 A 
ATOM      2  C4  UNL d   1       0.843   0.936   0.848  0.00  0.00     0.002 A 
ATOM      3  C5  UNL d   1       0.895   2.330   0.876  0.00  0.00     0.002 A 
ATOM      4  C6  UNL d   1       1.180   3.042  -0.287  0.00  0.00    -0.004 A 
ATOM      5  C7  UNL d   1       1.419   2.359  -1.477  0.00  0.00     0.002 A 
ATOM      6  C8  UNL d   1       1.364   0.964  -1.509  0.00  0.00     0.002 A 
ENDROOT
BRANCH   1   7
ATOM      7  C2  UNL d   1       0.983  -1.269  -0.390  0.00  0.00     0.056 C 
BRANCH   7   8
ATOM      8  C1  UNL d   1       0.161  -1.815  -1.563  0.00  0.00     0.007 C 
ATOM      9  C   UNL d   1      -0.834  -2.891  -1.149  0.00  0.00     0.009 C 
ENDBRANCH   7   8
ENDBRANCH   1   7
TORSDOF 2
ENDMDL
