MODEL 1
REMARK minimizedAffinity 4.52492094
REMARK minimizedRMSD -1
REMARK  2 active torsions:
REMARK  status: ('A' for Active; 'I' for Inactive)
REMARK    1  A    between atoms: C1_2  and  C2_3 
REMARK    2  A    between atoms: C2_3  and  C3_4 
ROOT
ATOM      1  C3  UNL d   1       1.108   1.963  -1.179  0.00  0.00    -0.075 A 
ATOM      2  C4  UNL d   1       1.473   2.013   0.174  0.00  0.00     0.002 A 
ATOM      3  C5  UNL d   1       1.413   0.866   0.967  0.00  0.00     0.002 A 
ATOM      4  C6  UNL d   1       0.978  -0.340   0.421  0.00  0.00    -0.004 A 
ATOM      5  C7  UNL d   1       0.598  -0.397  -0.918  0.00  0.00     0.002 A 
ATOM      6  C8  UNL d   1       0.661   0.748  -1.715  0.00  0.00     0.002 A 
ENDROOT
BRANCH   1   7
ATOM      7  C2  UNL d   1       1.199   3.193  -2.050  0.00  0.00     0.056 C 
BRANCH   7   8
ATOM      8  C1  UNL d   1       0.757   2.966  -3.499  0.00  0.00     0.007 C 
ATOM      9  C   UNL d   1      -0.476   3.772  -3.884  0.00  0.00     0.009 C 
ENDBRANCH   7   8
ENDBRANCH   1   7
TORSDOF 2
ENDMDL
