MODEL 1
REMARK minimizedAffinity -2.55342269
REMARK minimizedRMSD -1
REMARK  2 active torsions:
REMARK  status: ('A' for Active; 'I' for Inactive)
REMARK    1  A    between atoms: C1_2  and  C2_3 
REMARK    2  A    between atoms: C2_3  and  C3_4 
ROOT
ATOM      1  C3  UNL d   1       1.195   0.163  -0.890  0.00  0.00    -0.075 A 
ATOM      2  C4  UNL d   1       1.488   0.357   0.468  0.00  0.00     0.002 A 
ATOM      3  C5  UNL d   1       1.424   1.632   1.031  0.00  0.00     0.002 A 
ATOM      4  C6  UNL d   1       1.078   2.728   0.243  0.00  0.00    -0.004 A 
ATOM      5  C7  UNL d   1       0.801   2.549  -1.110  0.00  0.00     0.002 A 
ATOM      6  C8  UNL d   1       0.860   1.274  -1.675  0.00  0.00     0.002 A 
ENDROOT
BRANCH   1   7
ATOM      7  C2  UNL d   1       1.234  -1.218  -1.499  0.00  0.00     0.056 C 
BRANCH   7   8
ATOM      8  C1  UNL d   1       0.777  -2.331  -0.550  0.00  0.00     0.007 C 
ATOM      9  C   UNL d   1      -0.210  -3.298  -1.189  0.00  0.00     0.009 C 
ENDBRANCH   7   8
ENDBRANCH   1   7
TORSDOF 2
ENDMDL
