MODEL 1
REMARK minimizedAffinity 2.62531257
REMARK minimizedRMSD -1
REMARK  2 active torsions:
REMARK  status: ('A' for Active; 'I' for Inactive)
REMARK    1  A    between atoms: C1_2  and  C2_3 
REMARK    2  A    between atoms: C2_3  and  C3_4 
ROOT
ATOM      1  C3  UNL d   1       0.923   2.291  -1.114  0.00  0.00    -0.075 A 
ATOM      2  C4  UNL d   1       1.502   1.350  -1.978  0.00  0.00     0.002 A 
ATOM      3  C5  UNL d   1       1.552   0.001  -1.624  0.00  0.00     0.002 A 
ATOM      4  C6  UNL d   1       1.036  -0.422  -0.401  0.00  0.00    -0.004 A 
ATOM      5  C7  UNL d   1       0.474   0.507   0.472  0.00  0.00     0.002 A 
ATOM      6  C8  UNL d   1       0.418   1.857   0.119  0.00  0.00     0.002 A 
ENDROOT
BRANCH   1   7
ATOM      7  C2  UNL d   1       0.839   3.747  -1.503  0.00  0.00     0.056 C 
BRANCH   7   8
ATOM      8  C1  UNL d   1       1.067   4.718  -0.340  0.00  0.00     0.007 C 
ATOM      9  C   UNL d   1       1.779   5.998  -0.757  0.00  0.00     0.009 C 
ENDBRANCH   7   8
ENDBRANCH   1   7
TORSDOF 2
ENDMDL
