MODEL 1
REMARK minimizedAffinity -3.00121856
REMARK minimizedRMSD -1
REMARK  0 active torsions:
REMARK  status: ('A' for Active; 'I' for Inactive)
ROOT
ATOM      1  C2' OXE d   1       2.398   0.995  -0.302  0.00  0.00     0.078 C 
ATOM      2  C1' OXE d   1      -0.406   1.063  -0.426  0.00  0.00     0.078 C 
ATOM      3  C1  OXE d   1       0.245  -0.195   0.091  0.00  0.00    -0.078 A 
ATOM      4  C2  OXE d   1       1.619  -0.237   0.104  0.00  0.00    -0.078 A 
ATOM      5  C3  OXE d   1       2.270  -1.353   0.623  0.00  0.00     0.003 A 
ATOM      6  C4  OXE d   1       1.542  -2.492   0.988  0.00  0.00    -0.002 A 
ATOM      7  C5  OXE d   1       0.144  -2.485   0.944  0.00  0.00    -0.002 A 
ATOM      8  C6  OXE d   1      -0.520  -1.332   0.540  0.00  0.00     0.003 A 
ENDROOT
TORSDOF 0
ENDMDL
