MODEL 1
REMARK minimizedAffinity -4.80210447
REMARK minimizedRMSD -1
REMARK  0 active torsions:
REMARK  status: ('A' for Active; 'I' for Inactive)
ROOT
ATOM      1  C2' OXE d   1       2.355  -0.757  -0.297  0.00  0.00     0.078 C 
ATOM      2  C1' OXE d   1       1.145  -2.997   0.886  0.00  0.00     0.078 C 
ATOM      3  C1  OXE d   1       0.409  -1.682   0.953  0.00  0.00    -0.078 A 
ATOM      4  C2  OXE d   1       1.029  -0.582   0.412  0.00  0.00    -0.078 A 
ATOM      5  C3  OXE d   1       0.369   0.644   0.398  0.00  0.00     0.003 A 
ATOM      6  C4  OXE d   1      -0.852   0.799   1.065  0.00  0.00    -0.002 A 
ATOM      7  C5  OXE d   1      -1.483  -0.300   1.657  0.00  0.00    -0.002 A 
ATOM      8  C6  OXE d   1      -0.887  -1.554   1.573  0.00  0.00     0.003 A 
ENDROOT
TORSDOF 0
ENDMDL
