MODEL 1
REMARK minimizedAffinity -4.61073732
REMARK minimizedRMSD -1
REMARK  0 active torsions:
REMARK  status: ('A' for Active; 'I' for Inactive)
ROOT
ATOM      1  C2' OXE d   1       2.454   0.866  -0.393  0.00  0.00     0.078 C 
ATOM      2  C1' OXE d   1      -0.329   1.166  -0.182  0.00  0.00     0.078 C 
ATOM      3  C1  OXE d   1       0.266  -0.165   0.204  0.00  0.00    -0.078 A 
ATOM      4  C2  OXE d   1       1.623  -0.318   0.053  0.00  0.00    -0.078 A 
ATOM      5  C3  OXE d   1       2.230  -1.507   0.446  0.00  0.00     0.003 A 
ATOM      6  C4  OXE d   1       1.454  -2.601   0.848  0.00  0.00    -0.002 A 
ATOM      7  C5  OXE d   1       0.066  -2.479   0.971  0.00  0.00    -0.002 A 
ATOM      8  C6  OXE d   1      -0.538  -1.257   0.694  0.00  0.00     0.003 A 
ENDROOT
TORSDOF 0
ENDMDL
