MODEL 1
REMARK minimizedAffinity -2.09689856
REMARK minimizedRMSD -1
REMARK  0 active torsions:
REMARK  status: ('A' for Active; 'I' for Inactive)
ROOT
ATOM      1  C2' OXE d   1      -0.606   0.862  -1.205  0.00  0.00     0.078 C 
ATOM      2  C1' OXE d   1       2.197   0.709  -1.236  0.00  0.00     0.078 C 
ATOM      3  C1  OXE d   1       1.446  -0.298  -0.401  0.00  0.00    -0.078 A 
ATOM      4  C2  OXE d   1       0.077  -0.187  -0.355  0.00  0.00    -0.078 A 
ATOM      5  C3  OXE d   1      -0.667  -1.124   0.357  0.00  0.00     0.003 A 
ATOM      6  C4  OXE d   1      -0.026  -2.084   1.149  0.00  0.00    -0.002 A 
ATOM      7  C5  OXE d   1       1.369  -2.190   1.148  0.00  0.00    -0.002 A 
ATOM      8  C6  OXE d   1       2.116  -1.334   0.347  0.00  0.00     0.003 A 
ENDROOT
TORSDOF 0
ENDMDL
