MODEL 1
REMARK minimizedAffinity -6.72207832
REMARK minimizedRMSD -1
REMARK  0 active torsions:
REMARK  status: ('A' for Active; 'I' for Inactive)
ROOT
ATOM      1  C2' OXE d   1       1.993  -0.394  -0.873  0.00  0.00     0.078 C 
ATOM      2  C1' OXE d   1      -0.458   0.750  -0.120  0.00  0.00     0.078 C 
ATOM      3  C1  OXE d   1       0.037  -0.436   0.669  0.00  0.00    -0.078 A 
ATOM      4  C2  OXE d   1       1.214  -1.019   0.264  0.00  0.00    -0.078 A 
ATOM      5  C3  OXE d   1       1.742  -2.082   0.991  0.00  0.00     0.003 A 
ATOM      6  C4  OXE d   1       1.010  -2.660   2.035  0.00  0.00    -0.002 A 
ATOM      7  C5  OXE d   1      -0.210  -2.107   2.438  0.00  0.00    -0.002 A 
ATOM      8  C6  OXE d   1      -0.689  -0.972   1.794  0.00  0.00     0.003 A 
ENDROOT
TORSDOF 0
ENDMDL
