MODEL 1
REMARK minimizedAffinity -5.77361965
REMARK minimizedRMSD -1
REMARK  0 active torsions:
REMARK  status: ('A' for Active; 'I' for Inactive)
ROOT
ATOM      1  C2' OXE d   1       1.526  -2.700   1.143  0.00  0.00     0.078 C 
ATOM      2  C1' OXE d   1      -0.992  -1.604   1.723  0.00  0.00     0.078 C 
ATOM      3  C1  OXE d   1      -0.078  -0.823   0.813  0.00  0.00    -0.078 A 
ATOM      4  C2  OXE d   1       1.170  -1.345   0.571  0.00  0.00    -0.078 A 
ATOM      5  C3  OXE d   1       2.032  -0.692  -0.305  0.00  0.00     0.003 A 
ATOM      6  C4  OXE d   1       1.700   0.566  -0.821  0.00  0.00    -0.002 A 
ATOM      7  C5  OXE d   1       0.449   1.134  -0.556  0.00  0.00    -0.002 A 
ATOM      8  C6  OXE d   1      -0.466   0.435   0.223  0.00  0.00     0.003 A 
ENDROOT
TORSDOF 0
ENDMDL
