MODEL 1
REMARK minimizedAffinity -3.8299377
REMARK minimizedRMSD -1
REMARK  0 active torsions:
REMARK  status: ('A' for Active; 'I' for Inactive)
ROOT
ATOM      1  C2' OXE d   1       2.181   1.400  -0.234  0.00  0.00     0.078 C 
ATOM      2  C1' OXE d   1      -0.499   1.528   0.590  0.00  0.00     0.078 C 
ATOM      3  C1  OXE d   1       0.197   0.192   0.666  0.00  0.00    -0.078 A 
ATOM      4  C2  OXE d   1       1.494   0.129   0.217  0.00  0.00    -0.078 A 
ATOM      5  C3  OXE d   1       2.200  -1.066   0.315  0.00  0.00     0.003 A 
ATOM      6  C4  OXE d   1       1.555  -2.240   0.724  0.00  0.00    -0.002 A 
ATOM      7  C5  OXE d   1       0.222  -2.206   1.148  0.00  0.00    -0.002 A 
ATOM      8  C6  OXE d   1      -0.457  -0.992   1.165  0.00  0.00     0.003 A 
ENDROOT
TORSDOF 0
ENDMDL
