MODEL 1
REMARK minimizedAffinity -5.22693634
REMARK minimizedRMSD -1
REMARK  0 active torsions:
REMARK  status: ('A' for Active; 'I' for Inactive)
ROOT
ATOM      1  C2' OXE d   1      -0.015   0.795  -0.289  0.00  0.00     0.078 C 
ATOM      2  C1' OXE d   1       2.499  -0.282  -0.920  0.00  0.00     0.078 C 
ATOM      3  C1  OXE d   1       1.609  -1.071   0.007  0.00  0.00    -0.078 A 
ATOM      4  C2  OXE d   1       0.399  -0.514   0.348  0.00  0.00    -0.078 A 
ATOM      5  C3  OXE d   1      -0.484  -1.225   1.156  0.00  0.00     0.003 A 
ATOM      6  C4  OXE d   1      -0.088  -2.430   1.748  0.00  0.00    -0.002 A 
ATOM      7  C5  OXE d   1       1.155  -2.995   1.447  0.00  0.00    -0.002 A 
ATOM      8  C6  OXE d   1       1.996  -2.351   0.546  0.00  0.00     0.003 A 
ENDROOT
TORSDOF 0
ENDMDL
