MODEL 1
REMARK minimizedAffinity -3.04533291
REMARK minimizedRMSD -1
REMARK  0 active torsions:
REMARK  status: ('A' for Active; 'I' for Inactive)
ROOT
ATOM      1  C2' OXE d   1      -0.303   1.069  -0.351  0.00  0.00     0.078 C 
ATOM      2  C1' OXE d   1       2.198   0.195  -1.281  0.00  0.00     0.078 C 
ATOM      3  C1  OXE d   1       1.558  -0.576  -0.154  0.00  0.00    -0.078 A 
ATOM      4  C2  OXE d   1       0.356  -0.113   0.326  0.00  0.00    -0.078 A 
ATOM      5  C3  OXE d   1      -0.304  -0.819   1.328  0.00  0.00     0.003 A 
ATOM      6  C4  OXE d   1       0.317  -1.906   1.956  0.00  0.00    -0.002 A 
ATOM      7  C5  OXE d   1       1.559  -2.369   1.509  0.00  0.00    -0.002 A 
ATOM      8  C6  OXE d   1       2.172  -1.743   0.429  0.00  0.00     0.003 A 
ENDROOT
TORSDOF 0
ENDMDL
