MODEL 1
REMARK minimizedAffinity -2.54492903
REMARK minimizedRMSD -1
REMARK  0 active torsions:
REMARK  status: ('A' for Active; 'I' for Inactive)
ROOT
ATOM      1  C2' OXE d   1       2.624  -0.178  -1.278  0.00  0.00     0.078 C 
ATOM      2  C1' OXE d   1       1.878  -2.113   0.614  0.00  0.00     0.078 C 
ATOM      3  C1  OXE d   1       0.909  -0.991   0.336  0.00  0.00    -0.078 A 
ATOM      4  C2  OXE d   1       1.302  -0.023  -0.557  0.00  0.00    -0.078 A 
ATOM      5  C3  OXE d   1       0.424   1.004  -0.891  0.00  0.00     0.003 A 
ATOM      6  C4  OXE d   1      -0.792   1.146  -0.213  0.00  0.00    -0.002 A 
ATOM      7  C5  OXE d   1      -1.194   0.193   0.729  0.00  0.00    -0.002 A 
ATOM      8  C6  OXE d   1      -0.376  -0.902   0.983  0.00  0.00     0.003 A 
ENDROOT
TORSDOF 0
ENDMDL
