MODEL 1
REMARK minimizedAffinity -5.11081505
REMARK minimizedRMSD -1
REMARK  0 active torsions:
REMARK  status: ('A' for Active; 'I' for Inactive)
ROOT
ATOM      1  C2' OXE d   1       2.256   0.705  -0.230  0.00  0.00     0.078 C 
ATOM      2  C1' OXE d   1      -0.519   0.640  -0.650  0.00  0.00     0.078 C 
ATOM      3  C1  OXE d   1       0.135  -0.591  -0.074  0.00  0.00    -0.078 A 
ATOM      4  C2  OXE d   1       1.500  -0.567   0.084  0.00  0.00    -0.078 A 
ATOM      5  C3  OXE d   1       2.146  -1.656   0.662  0.00  0.00     0.003 A 
ATOM      6  C4  OXE d   1       1.440  -2.833   0.941  0.00  0.00    -0.002 A 
ATOM      7  C5  OXE d   1       0.056  -2.893   0.751  0.00  0.00    -0.002 A 
ATOM      8  C6  OXE d   1      -0.617  -1.768   0.285  0.00  0.00     0.003 A 
ENDROOT
TORSDOF 0
ENDMDL
