MODEL 1
REMARK minimizedAffinity -1.62351632
REMARK minimizedRMSD -1
REMARK  0 active torsions:
REMARK  status: ('A' for Active; 'I' for Inactive)
ROOT
ATOM      1  C2' OXE d   1      -1.224  -2.310   0.791  0.00  0.00     0.078 C 
ATOM      2  C1' OXE d   1       1.302  -3.467   0.396  0.00  0.00     0.078 C 
ATOM      3  C1  OXE d   1       1.178  -1.974   0.223  0.00  0.00    -0.078 A 
ATOM      4  C2  OXE d   1      -0.072  -1.422   0.373  0.00  0.00    -0.078 A 
ATOM      5  C3  OXE d   1      -0.232  -0.043   0.279  0.00  0.00     0.003 A 
ATOM      6  C4  OXE d   1       0.837   0.769  -0.118  0.00  0.00    -0.002 A 
ATOM      7  C5  OXE d   1       2.110   0.222  -0.314  0.00  0.00    -0.002 A 
ATOM      8  C6  OXE d   1       2.306  -1.138  -0.107  0.00  0.00     0.003 A 
ENDROOT
TORSDOF 0
ENDMDL
