MODEL 1
REMARK minimizedAffinity -1.05163002
REMARK minimizedRMSD -1
REMARK  0 active torsions:
REMARK  status: ('A' for Active; 'I' for Inactive)
ROOT
ATOM      1  C2' OXE d   1      -3.439   2.088  -3.115  0.00  0.00     0.078 C 
ATOM      2  C1' OXE d   1      -0.737   2.439  -3.791  0.00  0.00     0.078 C 
ATOM      3  C1  OXE d   1      -1.055   1.922  -2.411  0.00  0.00    -0.078 A 
ATOM      4  C2  OXE d   1      -2.381   1.797  -2.072  0.00  0.00    -0.078 A 
ATOM      5  C3  OXE d   1      -2.729   1.273  -0.831  0.00  0.00     0.003 A 
ATOM      6  C4  OXE d   1      -1.745   1.017   0.132  0.00  0.00    -0.002 A 
ATOM      7  C5  OXE d   1      -0.390   1.175  -0.179  0.00  0.00    -0.002 A 
ATOM      8  C6  OXE d   1      -0.027   1.585  -1.457  0.00  0.00     0.003 A 
ENDROOT
TORSDOF 0
ENDMDL
