MODEL 1
REMARK minimizedAffinity -1.81112409
REMARK minimizedRMSD -1
REMARK  0 active torsions:
REMARK  status: ('A' for Active; 'I' for Inactive)
ROOT
ATOM      1  C2' OXE d   1       1.853   1.270   0.009  0.00  0.00     0.078 C 
ATOM      2  C1' OXE d   1      -0.940   1.042   0.170  0.00  0.00     0.078 C 
ATOM      3  C1  OXE d   1      -0.130  -0.230   0.169  0.00  0.00    -0.078 A 
ATOM      4  C2  OXE d   1       1.233  -0.111   0.043  0.00  0.00    -0.078 A 
ATOM      5  C3  OXE d   1       2.032  -1.250   0.092  0.00  0.00     0.003 A 
ATOM      6  C4  OXE d   1       1.451  -2.523   0.114  0.00  0.00    -0.002 A 
ATOM      7  C5  OXE d   1       0.062  -2.668   0.202  0.00  0.00    -0.002 A 
ATOM      8  C6  OXE d   1      -0.738  -1.533   0.274  0.00  0.00     0.003 A 
ENDROOT
TORSDOF 0
ENDMDL
