MODEL 1
REMARK minimizedAffinity -4.69968176
REMARK minimizedRMSD -1
REMARK  0 active torsions:
REMARK  status: ('A' for Active; 'I' for Inactive)
ROOT
ATOM      1  C2' OXE d   1       2.210   0.039  -0.684  0.00  0.00     0.078 C 
ATOM      2  C1' OXE d   1      -0.419   0.816  -0.079  0.00  0.00     0.078 C 
ATOM      3  C1  OXE d   1       0.053  -0.523   0.430  0.00  0.00    -0.078 A 
ATOM      4  C2  OXE d   1       1.326  -0.915   0.090  0.00  0.00    -0.078 A 
ATOM      5  C3  OXE d   1       1.830  -2.117   0.579  0.00  0.00     0.003 A 
ATOM      6  C4  OXE d   1       1.002  -2.998   1.285  0.00  0.00    -0.002 A 
ATOM      7  C5  OXE d   1      -0.309  -2.635   1.608  0.00  0.00    -0.002 A 
ATOM      8  C6  OXE d   1      -0.785  -1.386   1.225  0.00  0.00     0.003 A 
ENDROOT
TORSDOF 0
ENDMDL
