MODEL 1
REMARK minimizedAffinity -4.18826771
REMARK minimizedRMSD -1
REMARK  0 active torsions:
REMARK  status: ('A' for Active; 'I' for Inactive)
ROOT
ATOM      1  C2' OXE d   1       2.750  -0.952  -0.402  0.00  0.00     0.078 C 
ATOM      2  C1' OXE d   1       1.198  -3.082   0.564  0.00  0.00     0.078 C 
ATOM      3  C1  OXE d   1       0.548  -1.724   0.468  0.00  0.00    -0.078 A 
ATOM      4  C2  OXE d   1       1.329  -0.678   0.039  0.00  0.00    -0.078 A 
ATOM      5  C3  OXE d   1       0.764   0.584  -0.120  0.00  0.00     0.003 A 
ATOM      6  C4  OXE d   1      -0.549   0.831   0.299  0.00  0.00    -0.002 A 
ATOM      7  C5  OXE d   1      -1.350  -0.212   0.777  0.00  0.00    -0.002 A 
ATOM      8  C6  OXE d   1      -0.831  -1.501   0.828  0.00  0.00     0.003 A 
ENDROOT
TORSDOF 0
ENDMDL
