MODEL 1
REMARK minimizedAffinity -5.46021128
REMARK minimizedRMSD -1
REMARK  0 active torsions:
REMARK  status: ('A' for Active; 'I' for Inactive)
ROOT
ATOM      1  C2' OXE d   1       0.915  -2.754   0.764  0.00  0.00     0.078 C 
ATOM      2  C1' OXE d   1      -1.527  -1.698   1.660  0.00  0.00     0.078 C 
ATOM      3  C1  OXE d   1      -0.621  -0.796   0.860  0.00  0.00    -0.078 A 
ATOM      4  C2  OXE d   1       0.592  -1.306   0.465  0.00  0.00    -0.078 A 
ATOM      5  C3  OXE d   1       1.441  -0.534  -0.323  0.00  0.00     0.003 A 
ATOM      6  C4  OXE d   1       1.139   0.808  -0.586  0.00  0.00    -0.002 A 
ATOM      7  C5  OXE d   1      -0.074   1.359  -0.159  0.00  0.00    -0.002 A 
ATOM      8  C6  OXE d   1      -0.982   0.560   0.527  0.00  0.00     0.003 A 
ENDROOT
TORSDOF 0
ENDMDL
