MODEL 1
REMARK minimizedAffinity -1.57405794
REMARK minimizedRMSD -1
REMARK  0 active torsions:
REMARK  status: ('A' for Active; 'I' for Inactive)
ROOT
ATOM      1  C2' OXE d   1       1.274  -3.134   0.513  0.00  0.00     0.078 C 
ATOM      2  C1' OXE d   1       3.067  -0.975   0.540  0.00  0.00     0.078 C 
ATOM      3  C1  OXE d   1       1.644  -0.702   0.123  0.00  0.00    -0.078 A 
ATOM      4  C2  OXE d   1       0.785  -1.773   0.068  0.00  0.00    -0.078 A 
ATOM      5  C3  OXE d   1      -0.553  -1.567  -0.257  0.00  0.00     0.003 A 
ATOM      6  C4  OXE d   1      -0.995  -0.307  -0.678  0.00  0.00    -0.002 A 
ATOM      7  C5  OXE d   1      -0.127   0.790  -0.667  0.00  0.00    -0.002 A 
ATOM      8  C6  OXE d   1       1.182   0.618  -0.230  0.00  0.00     0.003 A 
ENDROOT
TORSDOF 0
ENDMDL
