MODEL 1
REMARK minimizedAffinity 3.14895773
REMARK minimizedRMSD -1
REMARK  0 active torsions:
REMARK  status: ('A' for Active; 'I' for Inactive)
ROOT
ATOM      1  C1  DEN d   1      -0.494   1.339  -1.160  0.00  0.00     0.130 A 
ATOM      2  C2  DEN d   1      -1.290   0.338  -1.865  0.00  0.00    -0.031 A 
ATOM      3  C3  DEN d   1      -1.917  -0.540  -0.856  0.00  0.00     0.027 A 
ATOM      4  C4  DEN d   1      -1.737  -0.444   1.715  0.00  0.00     0.027 A 
ATOM      5  C5  DEN d   1      -1.166   0.223   2.776  0.00  0.00    -0.003 A 
ATOM      6  C6  DEN d   1      -0.312   1.279   2.600  0.00  0.00     0.001 A 
ATOM      7  C7  DEN d   1      -0.039   1.728   1.335  0.00  0.00     0.017 A 
ATOM      8  C8  DEN d   1      -0.604   1.056   0.260  0.00  0.00    -0.094 A 
ATOM      9  C9  DEN d   1      -1.475  -0.002   0.459  0.00  0.00    -0.072 A 
ENDROOT
TORSDOF 0
ENDMDL
