MODEL 1
REMARK minimizedAffinity 8.59051418
REMARK minimizedRMSD -1
REMARK  0 active torsions:
REMARK  status: ('A' for Active; 'I' for Inactive)
ROOT
ATOM      1  C1  DEN d   1      -2.650  -3.041   1.131  0.00  0.00     0.130 A 
ATOM      2  C2  DEN d   1      -3.146  -1.687   0.901  0.00  0.00    -0.031 A 
ATOM      3  C3  DEN d   1      -4.547  -1.785   0.445  0.00  0.00     0.027 A 
ATOM      4  C4  DEN d   1      -5.989  -3.892   0.079  0.00  0.00     0.027 A 
ATOM      5  C5  DEN d   1      -6.000  -5.268   0.131  0.00  0.00    -0.003 A 
ATOM      6  C6  DEN d   1      -4.893  -5.994   0.485  0.00  0.00     0.001 A 
ATOM      7  C7  DEN d   1      -3.742  -5.344   0.844  0.00  0.00     0.017 A 
ATOM      8  C8  DEN d   1      -3.721  -3.957   0.786  0.00  0.00    -0.094 A 
ATOM      9  C9  DEN d   1      -4.854  -3.241   0.438  0.00  0.00    -0.072 A 
ENDROOT
TORSDOF 0
ENDMDL
