MODEL 1
REMARK minimizedAffinity 6.11808968
REMARK minimizedRMSD -1
REMARK  0 active torsions:
REMARK  status: ('A' for Active; 'I' for Inactive)
ROOT
ATOM      1  C1  DEN d   1       1.247   2.018  -0.467  0.00  0.00     0.130 A 
ATOM      2  C2  DEN d   1       2.163   2.412   0.600  0.00  0.00    -0.031 A 
ATOM      3  C3  DEN d   1       1.593   1.955   1.883  0.00  0.00     0.027 A 
ATOM      4  C4  DEN d   1      -0.606   0.678   2.319  0.00  0.00     0.027 A 
ATOM      5  C5  DEN d   1      -1.723   0.133   1.727  0.00  0.00    -0.003 A 
ATOM      6  C6  DEN d   1      -1.944   0.207   0.377  0.00  0.00     0.001 A 
ATOM      7  C7  DEN d   1      -1.012   0.801  -0.432  0.00  0.00     0.017 A 
ATOM      8  C8  DEN d   1       0.114   1.360   0.159  0.00  0.00    -0.094 A 
ATOM      9  C9  DEN d   1       0.325   1.264   1.524  0.00  0.00    -0.072 A 
ENDROOT
TORSDOF 0
ENDMDL
