MODEL 1
REMARK minimizedAffinity 10.0060129
REMARK minimizedRMSD -1
REMARK  0 active torsions:
REMARK  status: ('A' for Active; 'I' for Inactive)
ROOT
ATOM      1  C1  DEN d   1      -1.380   2.152   3.203  0.00  0.00     0.130 A 
ATOM      2  C2  DEN d   1      -2.719   1.806   2.736  0.00  0.00    -0.031 A 
ATOM      3  C3  DEN d   1      -2.579   0.924   1.559  0.00  0.00     0.027 A 
ATOM      4  C4  DEN d   1      -0.429   0.062   0.426  0.00  0.00     0.027 A 
ATOM      5  C5  DEN d   1       0.948   0.095   0.457  0.00  0.00    -0.003 A 
ATOM      6  C6  DEN d   1       1.639   0.837   1.378  0.00  0.00     0.001 A 
ATOM      7  C7  DEN d   1       0.956   1.542   2.334  0.00  0.00     0.017 A 
ATOM      8  C8  DEN d   1      -0.433   1.519   2.303  0.00  0.00    -0.094 A 
ATOM      9  C9  DEN d   1      -1.113   0.753   1.372  0.00  0.00    -0.072 A 
ENDROOT
TORSDOF 0
ENDMDL
