MODEL 1
REMARK minimizedAffinity 7.06513882
REMARK minimizedRMSD -1
REMARK  0 active torsions:
REMARK  status: ('A' for Active; 'I' for Inactive)
ROOT
ATOM      1  C1  DEN d   1      -0.568  -5.908   1.535  0.00  0.00     0.130 A 
ATOM      2  C2  DEN d   1      -1.794  -5.933   2.329  0.00  0.00    -0.031 A 
ATOM      3  C3  DEN d   1      -1.413  -5.970   3.756  0.00  0.00     0.027 A 
ATOM      4  C4  DEN d   1       0.942  -5.987   4.806  0.00  0.00     0.027 A 
ATOM      5  C5  DEN d   1       2.293  -5.987   4.535  0.00  0.00    -0.003 A 
ATOM      6  C6  DEN d   1       2.780  -5.996   3.255  0.00  0.00     0.001 A 
ATOM      7  C7  DEN d   1       1.910  -5.958   2.197  0.00  0.00     0.017 A 
ATOM      8  C8  DEN d   1       0.547  -5.965   2.463  0.00  0.00    -0.094 A 
ATOM      9  C9  DEN d   1       0.074  -5.945   3.764  0.00  0.00    -0.072 A 
ENDROOT
TORSDOF 0
ENDMDL
