MODEL 1
REMARK minimizedAffinity 8.56195545
REMARK minimizedRMSD -1
REMARK  0 active torsions:
REMARK  status: ('A' for Active; 'I' for Inactive)
ROOT
ATOM      1  C1  DEN d   1      -1.330  -1.917   1.561  0.00  0.00     0.130 A 
ATOM      2  C2  DEN d   1      -1.875  -1.557   2.867  0.00  0.00    -0.031 A 
ATOM      3  C3  DEN d   1      -1.328  -0.237   3.242  0.00  0.00     0.027 A 
ATOM      4  C4  DEN d   1       0.297   1.278   1.931  0.00  0.00     0.027 A 
ATOM      5  C5  DEN d   1       1.041   1.393   0.778  0.00  0.00    -0.003 A 
ATOM      6  C6  DEN d   1       1.074   0.406  -0.171  0.00  0.00     0.001 A 
ATOM      7  C7  DEN d   1       0.313  -0.721  -0.006  0.00  0.00     0.017 A 
ATOM      8  C8  DEN d   1      -0.435  -0.847   1.158  0.00  0.00    -0.094 A 
ATOM      9  C9  DEN d   1      -0.464   0.167   2.100  0.00  0.00    -0.072 A 
ENDROOT
TORSDOF 0
ENDMDL
