MODEL 1
REMARK minimizedAffinity 5.47551727
REMARK minimizedRMSD -1
REMARK  0 active torsions:
REMARK  status: ('A' for Active; 'I' for Inactive)
ROOT
ATOM      1  C1  DEN d   1      -2.100  -5.961   3.072  0.00  0.00     0.130 A 
ATOM      2  C2  DEN d   1      -2.345  -5.878   1.635  0.00  0.00    -0.031 A 
ATOM      3  C3  DEN d   1      -1.037  -5.807   0.953  0.00  0.00     0.027 A 
ATOM      4  C4  DEN d   1       1.330  -5.822   1.976  0.00  0.00     0.027 A 
ATOM      5  C5  DEN d   1       2.044  -5.867   3.154  0.00  0.00    -0.003 A 
ATOM      6  C6  DEN d   1       1.431  -5.912   4.378  0.00  0.00     0.001 A 
ATOM      7  C7  DEN d   1       0.064  -5.959   4.451  0.00  0.00     0.017 A 
ATOM      8  C8  DEN d   1      -0.663  -5.906   3.269  0.00  0.00    -0.094 A 
ATOM      9  C9  DEN d   1      -0.025  -5.873   2.041  0.00  0.00    -0.072 A 
ENDROOT
TORSDOF 0
ENDMDL
