MODEL 1
REMARK minimizedAffinity 7.18695545
REMARK minimizedRMSD -1
REMARK  0 active torsions:
REMARK  status: ('A' for Active; 'I' for Inactive)
ROOT
ATOM      1  C1  DEN d   1      -0.209   1.334   1.905  0.00  0.00     0.130 A 
ATOM      2  C2  DEN d   1      -0.743   0.016   1.576  0.00  0.00    -0.031 A 
ATOM      3  C3  DEN d   1       0.391  -0.926   1.483  0.00  0.00     0.027 A 
ATOM      4  C4  DEN d   1       2.908  -0.473   1.820  0.00  0.00     0.027 A 
ATOM      5  C5  DEN d   1       3.846   0.494   2.102  0.00  0.00    -0.003 A 
ATOM      6  C6  DEN d   1       3.505   1.806   2.302  0.00  0.00     0.001 A 
ATOM      7  C7  DEN d   1       2.187   2.177   2.269  0.00  0.00     0.017 A 
ATOM      8  C8  DEN d   1       1.236   1.208   1.978  0.00  0.00    -0.094 A 
ATOM      9  C9  DEN d   1       1.599  -0.114   1.790  0.00  0.00    -0.072 A 
ENDROOT
TORSDOF 0
ENDMDL
