MODEL 1
REMARK minimizedAffinity 0.0613911524
REMARK minimizedRMSD -1
REMARK  0 active torsions:
REMARK  status: ('A' for Active; 'I' for Inactive)
ROOT
ATOM      1  C1  DEN d   1      -2.323  -5.998   2.317  0.00  0.00     0.130 A 
ATOM      2  C2  DEN d   1      -2.497  -5.967   0.868  0.00  0.00    -0.031 A 
ATOM      3  C3  DEN d   1      -1.157  -5.952   0.247  0.00  0.00     0.027 A 
ATOM      4  C4  DEN d   1       1.158  -5.980   1.384  0.00  0.00     0.027 A 
ATOM      5  C5  DEN d   1       1.814  -5.995   2.595  0.00  0.00    -0.003 A 
ATOM      6  C6  DEN d   1       1.142  -5.978   3.789  0.00  0.00     0.001 A 
ATOM      7  C7  DEN d   1      -0.227  -5.990   3.798  0.00  0.00     0.017 A 
ATOM      8  C8  DEN d   1      -0.895  -5.968   2.580  0.00  0.00    -0.094 A 
ATOM      9  C9  DEN d   1      -0.199  -5.998   1.384  0.00  0.00    -0.072 A 
ENDROOT
TORSDOF 0
ENDMDL
