MODEL 1
REMARK minimizedAffinity 8.87966156
REMARK minimizedRMSD -1
REMARK  0 active torsions:
REMARK  status: ('A' for Active; 'I' for Inactive)
ROOT
ATOM      1  C1  DEN d   1      -1.438  -3.645  -4.630  0.00  0.00     0.130 A 
ATOM      2  C2  DEN d   1      -0.086  -3.148  -4.386  0.00  0.00    -0.031 A 
ATOM      3  C3  DEN d   1      -0.188  -1.948  -3.531  0.00  0.00     0.027 A 
ATOM      4  C4  DEN d   1      -2.296  -0.820  -2.563  0.00  0.00     0.027 A 
ATOM      5  C5  DEN d   1      -3.672  -0.873  -2.506  0.00  0.00    -0.003 A 
ATOM      6  C6  DEN d   1      -4.395  -1.825  -3.174  0.00  0.00     0.001 A 
ATOM      7  C7  DEN d   1      -3.743  -2.791  -3.894  0.00  0.00     0.017 A 
ATOM      8  C8  DEN d   1      -2.356  -2.740  -3.963  0.00  0.00    -0.094 A 
ATOM      9  C9  DEN d   1      -1.643  -1.777  -3.269  0.00  0.00    -0.072 A 
ENDROOT
TORSDOF 0
ENDMDL
