MODEL 1
REMARK minimizedAffinity 6.3142519
REMARK minimizedRMSD -1
REMARK  0 active torsions:
REMARK  status: ('A' for Active; 'I' for Inactive)
ROOT
ATOM      1  C1  DEN d   1      -0.634  -5.938   2.201  0.00  0.00     0.130 A 
ATOM      2  C2  DEN d   1      -1.862  -5.969   2.990  0.00  0.00    -0.031 A 
ATOM      3  C3  DEN d   1      -1.486  -6.000   4.418  0.00  0.00     0.027 A 
ATOM      4  C4  DEN d   1       0.866  -5.998   5.477  0.00  0.00     0.027 A 
ATOM      5  C5  DEN d   1       2.217  -5.990   5.210  0.00  0.00    -0.003 A 
ATOM      6  C6  DEN d   1       2.709  -5.998   3.931  0.00  0.00     0.001 A 
ATOM      7  C7  DEN d   1       1.843  -5.969   2.871  0.00  0.00     0.017 A 
ATOM      8  C8  DEN d   1       0.479  -5.985   3.132  0.00  0.00    -0.094 A 
ATOM      9  C9  DEN d   1       0.002  -5.965   4.431  0.00  0.00    -0.072 A 
ENDROOT
TORSDOF 0
ENDMDL
