MODEL 1
REMARK minimizedAffinity 12.3031664
REMARK minimizedRMSD -1
REMARK  0 active torsions:
REMARK  status: ('A' for Active; 'I' for Inactive)
ROOT
ATOM      1  C1  DEN d   1      -2.303  -1.734   0.327  0.00  0.00     0.130 A 
ATOM      2  C2  DEN d   1      -2.394  -1.822  -1.128  0.00  0.00    -0.031 A 
ATOM      3  C3  DEN d   1      -1.590  -0.724  -1.703  0.00  0.00     0.027 A 
ATOM      4  C4  DEN d   1      -0.217   1.090  -0.487  0.00  0.00     0.027 A 
ATOM      5  C5  DEN d   1       0.154   1.578   0.746  0.00  0.00    -0.003 A 
ATOM      6  C6  DEN d   1      -0.292   1.023   1.916  0.00  0.00     0.001 A 
ATOM      7  C7  DEN d   1      -1.099  -0.083   1.878  0.00  0.00     0.017 A 
ATOM      8  C8  DEN d   1      -1.483  -0.577   0.639  0.00  0.00    -0.094 A 
ATOM      9  C9  DEN d   1      -1.012  -0.009  -0.533  0.00  0.00    -0.072 A 
ENDROOT
TORSDOF 0
ENDMDL
