MODEL 1
REMARK minimizedAffinity 7.19846249
REMARK minimizedRMSD -1
REMARK  0 active torsions:
REMARK  status: ('A' for Active; 'I' for Inactive)
ROOT
ATOM      1  C1  DEN d   1      -1.045  -6.000   4.335  0.00  0.00     0.130 A 
ATOM      2  C2  DEN d   1      -1.862  -5.964   3.124  0.00  0.00    -0.031 A 
ATOM      3  C3  DEN d   1      -0.953  -5.949   1.961  0.00  0.00     0.027 A 
ATOM      4  C4  DEN d   1       1.626  -5.981   1.916  0.00  0.00     0.027 A 
ATOM      5  C5  DEN d   1       2.762  -6.000   2.695  0.00  0.00    -0.003 A 
ATOM      6  C6  DEN d   1       2.710  -5.986   4.063  0.00  0.00     0.001 A 
ATOM      7  C7  DEN d   1       1.495  -5.997   4.696  0.00  0.00     0.017 A 
ATOM      8  C8  DEN d   1       0.345  -5.971   3.918  0.00  0.00    -0.094 A 
ATOM      9  C9  DEN d   1       0.419  -5.998   2.535  0.00  0.00    -0.072 A 
ENDROOT
TORSDOF 0
ENDMDL
