MODEL 1
REMARK minimizedAffinity 8.2250309
REMARK minimizedRMSD -1
REMARK  0 active torsions:
REMARK  status: ('A' for Active; 'I' for Inactive)
ROOT
ATOM      1  C1  DEN d   1       0.798  -5.962   5.913  0.00  0.00     0.130 A 
ATOM      2  C2  DEN d   1       2.257  -5.973   5.960  0.00  0.00    -0.031 A 
ATOM      3  C3  DEN d   1       2.759  -5.976   4.572  0.00  0.00     0.027 A 
ATOM      4  C4  DEN d   1       1.426  -5.961   2.364  0.00  0.00     0.027 A 
ATOM      5  C5  DEN d   1       0.162  -5.962   1.816  0.00  0.00    -0.003 A 
ATOM      6  C6  DEN d   1      -0.969  -5.998   2.588  0.00  0.00     0.001 A 
ATOM      7  C7  DEN d   1      -0.859  -5.988   3.953  0.00  0.00     0.017 A 
ATOM      8  C8  DEN d   1       0.412  -5.994   4.513  0.00  0.00    -0.094 A 
ATOM      9  C9  DEN d   1       1.543  -5.945   3.716  0.00  0.00    -0.072 A 
ENDROOT
TORSDOF 0
ENDMDL
