MODEL 1
REMARK minimizedAffinity 13.0000858
REMARK minimizedRMSD -1
REMARK  1 active torsions:
REMARK  status: ('A' for Active; 'I' for Inactive)
REMARK    1  A    between atoms: C1_2  and  C2_3 
ROOT
ATOM      1  C2  UNL d   1       1.110   0.877   2.234  0.00  0.00    -0.073 A 
ATOM      2  C3  UNL d   1       0.335  -0.164   2.758  0.00  0.00    -0.002 A 
ATOM      3  C4  UNL d   1       0.664  -1.493   2.487  0.00  0.00     0.004 A 
ATOM      4  C5  UNL d   1       1.774  -1.795   1.697  0.00  0.00    -0.004 A 
ATOM      5  C6  UNL d   1       2.567  -0.769   1.174  0.00  0.00    -0.075 A 
ATOM      6  C7  UNL d   1       3.762  -1.076   0.320  0.00  0.00     0.076 C 
ATOM      7  C8  UNL d   1       2.229   0.563   1.448  0.00  0.00     0.001 A 
ENDROOT
BRANCH   1   8
ATOM      8  C1  UNL d   1       0.762   2.313   2.529  0.00  0.00     0.053 C 
ATOM      9  C   UNL d   1       1.791   2.974   3.432  0.00  0.00     0.018 C 
ENDBRANCH   1   8
TORSDOF 1
ENDMDL
