MODEL 1
REMARK minimizedAffinity 4.72434473
REMARK minimizedRMSD -1
REMARK  1 active torsions:
REMARK  status: ('A' for Active; 'I' for Inactive)
REMARK    1  A    between atoms: C1_2  and  C2_3 
ROOT
ATOM      1  C2  UNL d   1       0.805  -5.103   1.045  0.00  0.00    -0.073 A 
ATOM      2  C3  UNL d   1       1.467  -5.739   2.101  0.00  0.00    -0.002 A 
ATOM      3  C4  UNL d   1       1.901  -5.004   3.205  0.00  0.00     0.004 A 
ATOM      4  C5  UNL d   1       1.672  -3.629   3.267  0.00  0.00    -0.004 A 
ATOM      5  C6  UNL d   1       1.002  -2.978   2.227  0.00  0.00    -0.075 A 
ATOM      6  C7  UNL d   1       0.750  -1.500   2.278  0.00  0.00     0.076 C 
ATOM      7  C8  UNL d   1       0.571  -3.723   1.121  0.00  0.00     0.001 A 
ENDROOT
BRANCH   1   8
ATOM      8  C1  UNL d   1       0.328  -5.894  -0.146  0.00  0.00     0.053 C 
ATOM      9  C   UNL d   1       1.354  -5.906  -1.269  0.00  0.00     0.018 C 
ENDBRANCH   1   8
TORSDOF 1
ENDMDL
