MODEL 1
REMARK minimizedAffinity 17.0456753
REMARK minimizedRMSD -1
REMARK  1 active torsions:
REMARK  status: ('A' for Active; 'I' for Inactive)
REMARK    1  A    between atoms: C1_2  and  C2_3 
ROOT
ATOM      1  C2  UNL d   1      -5.398   1.868  -3.658  0.00  0.00    -0.073 A 
ATOM      2  C3  UNL d   1      -5.995   1.987  -2.398  0.00  0.00    -0.002 A 
ATOM      3  C4  UNL d   1      -5.873   0.961  -1.461  0.00  0.00     0.004 A 
ATOM      4  C5  UNL d   1      -5.149  -0.190  -1.770  0.00  0.00    -0.004 A 
ATOM      5  C6  UNL d   1      -4.535  -0.322  -3.020  0.00  0.00    -0.075 A 
ATOM      6  C7  UNL d   1      -3.754  -1.555  -3.369  0.00  0.00     0.076 C 
ATOM      7  C8  UNL d   1      -4.664   0.712  -3.957  0.00  0.00     0.001 A 
ENDROOT
BRANCH   1   8
ATOM      8  C1  UNL d   1      -5.521   2.977  -4.671  0.00  0.00     0.053 C 
ATOM      9  C   UNL d   1      -4.880   2.609  -6.000  0.00  0.00     0.018 C 
ENDBRANCH   1   8
TORSDOF 1
ENDMDL
