MODEL 1
REMARK minimizedAffinity 16.0600815
REMARK minimizedRMSD -1
REMARK  1 active torsions:
REMARK  status: ('A' for Active; 'I' for Inactive)
REMARK    1  A    between atoms: C1_2  and  C2_3 
ROOT
ATOM      1  C2  UNL d   1       2.250  -3.218   2.888  0.00  0.00    -0.073 A 
ATOM      2  C3  UNL d   1       2.104  -4.584   2.622  0.00  0.00    -0.002 A 
ATOM      3  C4  UNL d   1       3.212  -5.357   2.275  0.00  0.00     0.004 A 
ATOM      4  C5  UNL d   1       4.478  -4.775   2.197  0.00  0.00    -0.004 A 
ATOM      5  C6  UNL d   1       4.646  -3.414   2.471  0.00  0.00    -0.075 A 
ATOM      6  C7  UNL d   1       6.000  -2.772   2.389  0.00  0.00     0.076 C 
ATOM      7  C8  UNL d   1       3.527  -2.644   2.816  0.00  0.00     0.001 A 
ENDROOT
BRANCH   1   8
ATOM      8  C1  UNL d   1       1.056  -2.380   3.269  0.00  0.00     0.053 C 
ATOM      9  C   UNL d   1       0.881  -2.290   4.776  0.00  0.00     0.018 C 
ENDBRANCH   1   8
TORSDOF 1
ENDMDL
