MODEL 1
REMARK minimizedAffinity 14.1891661
REMARK minimizedRMSD -1
REMARK  1 active torsions:
REMARK  status: ('A' for Active; 'I' for Inactive)
REMARK    1  A    between atoms: C1_2  and  C2_3 
ROOT
ATOM      1  C2  UNL d   1       3.228   1.349  -4.152  0.00  0.00    -0.073 A 
ATOM      2  C3  UNL d   1       3.990   1.969  -5.149  0.00  0.00    -0.002 A 
ATOM      3  C4  UNL d   1       4.004   3.360  -5.264  0.00  0.00     0.004 A 
ATOM      4  C5  UNL d   1       3.262   4.144  -4.380  0.00  0.00    -0.004 A 
ATOM      5  C6  UNL d   1       2.504   3.544  -3.370  0.00  0.00    -0.075 A 
ATOM      6  C7  UNL d   1       1.699   4.373  -2.413  0.00  0.00     0.076 C 
ATOM      7  C8  UNL d   1       2.494   2.146  -3.263  0.00  0.00     0.001 A 
ENDROOT
BRANCH   1   8
ATOM      8  C1  UNL d   1       3.216  -0.152  -4.020  0.00  0.00     0.053 C 
ATOM      9  C   UNL d   1       4.574  -0.699  -3.609  0.00  0.00     0.018 C 
ENDBRANCH   1   8
TORSDOF 1
ENDMDL
