MODEL 1
REMARK minimizedAffinity 3.30468297
REMARK minimizedRMSD -1
REMARK  1 active torsions:
REMARK  status: ('A' for Active; 'I' for Inactive)
REMARK    1  A    between atoms: C1_2  and  C2_3 
ROOT
ATOM      1  C2  UNL d   1       1.422  -0.632   1.403  0.00  0.00    -0.073 A 
ATOM      2  C3  UNL d   1       0.072  -0.453   1.083  0.00  0.00    -0.002 A 
ATOM      3  C4  UNL d   1      -0.733  -1.554   0.785  0.00  0.00     0.004 A 
ATOM      4  C5  UNL d   1      -0.199  -2.842   0.809  0.00  0.00    -0.004 A 
ATOM      5  C6  UNL d   1       1.146  -3.041   1.137  0.00  0.00    -0.075 A 
ATOM      6  C7  UNL d   1       1.737  -4.420   1.166  0.00  0.00     0.076 C 
ATOM      7  C8  UNL d   1       1.948  -1.931   1.434  0.00  0.00     0.001 A 
ENDROOT
BRANCH   1   8
ATOM      8  C1  UNL d   1       2.294   0.553   1.733  0.00  0.00     0.053 C 
ATOM      9  C   UNL d   1       3.627   0.499   1.004  0.00  0.00     0.018 C 
ENDBRANCH   1   8
TORSDOF 1
ENDMDL
