MODEL 1
REMARK minimizedAffinity 10.9261589
REMARK minimizedRMSD -1
REMARK  2 active torsions:
REMARK  status: ('A' for Active; 'I' for Inactive)
REMARK    1  A    between atoms: C1_2  and  C2_3 
REMARK    2  A    between atoms: C2_3  and  C3_4 
ROOT
ATOM      1  C3  UNL d   1       2.803  -2.118   1.649  0.00  0.00    -0.075 A 
ATOM      2  C4  UNL d   1       2.078  -0.946   1.392  0.00  0.00     0.002 A 
ATOM      3  C5  UNL d   1       1.005  -0.958   0.501  0.00  0.00     0.002 A 
ATOM      4  C6  UNL d   1       0.649  -2.137  -0.151  0.00  0.00    -0.004 A 
ATOM      5  C7  UNL d   1       1.373  -3.304   0.084  0.00  0.00     0.002 A 
ATOM      6  C8  UNL d   1       2.445  -3.296   0.979  0.00  0.00     0.002 A 
ENDROOT
BRANCH   1   7
ATOM      7  C2  UNL d   1       3.948  -2.119   2.635  0.00  0.00     0.056 C 
BRANCH   7   8
ATOM      8  C1  UNL d   1       3.520  -1.878   4.086  0.00  0.00     0.007 C 
ATOM      9  C   UNL d   1       4.043  -2.936   5.049  0.00  0.00     0.009 C 
ENDBRANCH   7   8
ENDBRANCH   1   7
TORSDOF 2
ENDMDL
