MODEL 1
REMARK minimizedAffinity 8.70495701
REMARK minimizedRMSD -1
REMARK  2 active torsions:
REMARK  status: ('A' for Active; 'I' for Inactive)
REMARK    1  A    between atoms: C1_2  and  C2_3 
REMARK    2  A    between atoms: C2_3  and  C3_4 
ROOT
ATOM      1  C3  UNL d   1      -4.875   2.261  -4.480  0.00  0.00    -0.075 A 
ATOM      2  C4  UNL d   1      -5.177   3.624  -4.614  0.00  0.00     0.002 A 
ATOM      3  C5  UNL d   1      -4.349   4.593  -4.046  0.00  0.00     0.002 A 
ATOM      4  C6  UNL d   1      -3.216   4.212  -3.330  0.00  0.00    -0.004 A 
ATOM      5  C7  UNL d   1      -2.915   2.860  -3.177  0.00  0.00     0.002 A 
ATOM      6  C8  UNL d   1      -3.740   1.889  -3.748  0.00  0.00     0.002 A 
ENDROOT
BRANCH   1   7
ATOM      7  C2  UNL d   1      -5.751   1.210  -5.118  0.00  0.00     0.056 C 
BRANCH   7   8
ATOM      8  C1  UNL d   1      -6.000  -0.016  -4.231  0.00  0.00     0.007 C 
ATOM      9  C   UNL d   1      -5.753  -1.336  -4.949  0.00  0.00     0.009 C 
ENDBRANCH   7   8
ENDBRANCH   1   7
TORSDOF 2
ENDMDL
