MODEL 1
REMARK minimizedAffinity 11.3580322
REMARK minimizedRMSD -1
REMARK  2 active torsions:
REMARK  status: ('A' for Active; 'I' for Inactive)
REMARK    1  A    between atoms: C1_2  and  C2_3 
REMARK    2  A    between atoms: C2_3  and  C3_4 
ROOT
ATOM      1  C3  UNL d   1       3.057  -2.183   2.356  0.00  0.00    -0.075 A 
ATOM      2  C4  UNL d   1       2.065  -1.209   2.537  0.00  0.00     0.002 A 
ATOM      3  C5  UNL d   1       0.934  -1.189   1.720  0.00  0.00     0.002 A 
ATOM      4  C6  UNL d   1       0.786  -2.135   0.708  0.00  0.00    -0.004 A 
ATOM      5  C7  UNL d   1       1.774  -3.097   0.508  0.00  0.00     0.002 A 
ATOM      6  C8  UNL d   1       2.904  -3.121   1.327  0.00  0.00     0.002 A 
ENDROOT
BRANCH   1   7
ATOM      7  C2  UNL d   1       4.269  -2.228   3.256  0.00  0.00     0.056 C 
BRANCH   7   8
ATOM      8  C1  UNL d   1       3.940  -2.150   4.750  0.00  0.00     0.007 C 
ATOM      9  C   UNL d   1       4.482  -3.330   5.546  0.00  0.00     0.009 C 
ENDBRANCH   7   8
ENDBRANCH   1   7
TORSDOF 2
ENDMDL
