MODEL 1
REMARK minimizedAffinity 12.5160036
REMARK minimizedRMSD -1
REMARK  2 active torsions:
REMARK  status: ('A' for Active; 'I' for Inactive)
REMARK    1  A    between atoms: C1_2  and  C2_3 
REMARK    2  A    between atoms: C2_3  and  C3_4 
ROOT
ATOM      1  C3  UNL d   1       3.052  -1.900   3.334  0.00  0.00    -0.075 A 
ATOM      2  C4  UNL d   1       3.791  -2.660   2.415  0.00  0.00     0.002 A 
ATOM      3  C5  UNL d   1       3.302  -2.886   1.128  0.00  0.00     0.002 A 
ATOM      4  C6  UNL d   1       2.067  -2.366   0.747  0.00  0.00    -0.004 A 
ATOM      5  C7  UNL d   1       1.317  -1.624   1.657  0.00  0.00     0.002 A 
ATOM      6  C8  UNL d   1       1.806  -1.392   2.944  0.00  0.00     0.002 A 
ENDROOT
BRANCH   1   7
ATOM      7  C2  UNL d   1       3.589  -1.627   4.719  0.00  0.00     0.056 C 
BRANCH   7   8
ATOM      8  C1  UNL d   1       4.614  -2.657   5.205  0.00  0.00     0.007 C 
ATOM      9  C   UNL d   1       5.962  -2.042   5.559  0.00  0.00     0.009 C 
ENDBRANCH   7   8
ENDBRANCH   1   7
TORSDOF 2
ENDMDL
