MODEL 1
REMARK minimizedAffinity 8.46576881
REMARK minimizedRMSD -1
REMARK  2 active torsions:
REMARK  status: ('A' for Active; 'I' for Inactive)
REMARK    1  A    between atoms: C1_2  and  C2_3 
REMARK    2  A    between atoms: C2_3  and  C3_4 
ROOT
ATOM      1  C3  UNL d   1       6.000   1.281   1.010  0.00  0.00    -0.075 A 
ATOM      2  C4  UNL d   1       5.998   2.370   1.895  0.00  0.00     0.002 A 
ATOM      3  C5  UNL d   1       5.971   3.677   1.409  0.00  0.00     0.002 A 
ATOM      4  C6  UNL d   1       5.957   3.913   0.036  0.00  0.00    -0.004 A 
ATOM      5  C7  UNL d   1       5.976   2.840  -0.852  0.00  0.00     0.002 A 
ATOM      6  C8  UNL d   1       5.998   1.530  -0.369  0.00  0.00     0.002 A 
ENDROOT
BRANCH   1   7
ATOM      7  C2  UNL d   1       5.999  -0.137   1.530  0.00  0.00     0.056 C 
BRANCH   7   8
ATOM      8  C1  UNL d   1       5.926  -1.203   0.432  0.00  0.00     0.007 C 
ATOM      9  C   UNL d   1       5.696  -2.608   0.974  0.00  0.00     0.009 C 
ENDBRANCH   7   8
ENDBRANCH   1   7
TORSDOF 2
ENDMDL
