MODEL 1
REMARK minimizedAffinity -2.00561857
REMARK minimizedRMSD -1
REMARK  3 active torsions:
REMARK  status: ('A' for Active; 'I' for Inactive)
REMARK    1  A    between atoms: C3'_2  and  C2'_3 
REMARK    2  A    between atoms: C2'_3  and  C1'_4 
REMARK    3  A    between atoms: C1'_4  and  C1_5 
ROOT
ATOM      1  C1  N4B d   1      -0.066   0.084  -0.970  0.00  0.00    -0.075 A 
ATOM      2  C2  N4B d   1      -0.160   0.394   0.405  0.00  0.00     0.002 A 
ATOM      3  C3  N4B d   1       0.905   0.153   1.238  0.00  0.00     0.002 A 
ATOM      4  C4  N4B d   1       2.062  -0.413   0.725  0.00  0.00    -0.004 A 
ATOM      5  C5  N4B d   1       2.154  -0.686  -0.609  0.00  0.00     0.002 A 
ATOM      6  C6  N4B d   1       1.093  -0.445  -1.458  0.00  0.00     0.002 A 
ENDROOT
BRANCH   1   7
ATOM      7  C1' N4B d   1      -1.234   0.250  -1.903  0.00  0.00     0.057 C 
BRANCH   7   8
ATOM      8  C2' N4B d   1      -1.448   1.735  -2.178  0.00  0.00     0.009 C 
BRANCH   8   9
ATOM      9  C3' N4B d   1      -2.693   1.985  -3.012  0.00  0.00     0.004 C 
ATOM     10  C4' N4B d   1      -3.563   3.068  -2.447  0.00  0.00     0.003 C 
ENDBRANCH   8   9
ENDBRANCH   7   8
ENDBRANCH   1   7
TORSDOF 3
ENDMDL
