MODEL 1
REMARK minimizedAffinity -5.59810781
REMARK minimizedRMSD -1
REMARK  3 active torsions:
REMARK  status: ('A' for Active; 'I' for Inactive)
REMARK    1  A    between atoms: C3'_2  and  C2'_3 
REMARK    2  A    between atoms: C2'_3  and  C1'_4 
REMARK    3  A    between atoms: C1'_4  and  C1_5 
ROOT
ATOM      1  C1  N4B d   1       0.563  -0.327  -0.151  0.00  0.00    -0.075 A 
ATOM      2  C2  N4B d   1       1.918  -0.571   0.164  0.00  0.00     0.002 A 
ATOM      3  C3  N4B d   1       2.310  -0.668   1.477  0.00  0.00     0.002 A 
ATOM      4  C4  N4B d   1       1.373  -0.507   2.487  0.00  0.00    -0.004 A 
ATOM      5  C5  N4B d   1       0.062  -0.298   2.173  0.00  0.00     0.002 A 
ATOM      6  C6  N4B d   1      -0.347  -0.202   0.858  0.00  0.00     0.002 A 
ENDROOT
BRANCH   1   7
ATOM      7  C1' N4B d   1       0.102  -0.128  -1.569  0.00  0.00     0.057 C 
BRANCH   7   8
ATOM      8  C2' N4B d   1      -1.021   0.905  -1.589  0.00  0.00     0.009 C 
BRANCH   8   9
ATOM      9  C3' N4B d   1      -0.616   2.171  -2.324  0.00  0.00     0.004 C 
ATOM     10  C4' N4B d   1      -1.418   3.367  -1.906  0.00  0.00     0.003 C 
ENDBRANCH   8   9
ENDBRANCH   7   8
ENDBRANCH   1   7
TORSDOF 3
ENDMDL
