MODEL 1
REMARK minimizedAffinity -5.45404148
REMARK minimizedRMSD -1
REMARK  3 active torsions:
REMARK  status: ('A' for Active; 'I' for Inactive)
REMARK    1  A    between atoms: C3'_2  and  C2'_3 
REMARK    2  A    between atoms: C2'_3  and  C1'_4 
REMARK    3  A    between atoms: C1'_4  and  C1_5 
ROOT
ATOM      1  C1  N4B d   1      -0.909  -0.482  -0.607  0.00  0.00    -0.075 A 
ATOM      2  C2  N4B d   1      -1.476  -0.258   0.667  0.00  0.00     0.002 A 
ATOM      3  C3  N4B d   1      -0.663  -0.055   1.755  0.00  0.00     0.002 A 
ATOM      4  C4  N4B d   1       0.715  -0.091   1.597  0.00  0.00    -0.004 A 
ATOM      5  C5  N4B d   1       1.254  -0.283   0.359  0.00  0.00     0.002 A 
ATOM      6  C6  N4B d   1       0.449  -0.484  -0.744  0.00  0.00     0.002 A 
ENDROOT
BRANCH   1   7
ATOM      7  C1' N4B d   1      -1.757  -0.794  -1.809  0.00  0.00     0.057 C 
BRANCH   7   8
ATOM      8  C2' N4B d   1      -3.228  -0.765  -1.406  0.00  0.00     0.009 C 
BRANCH   8   9
ATOM      9  C3' N4B d   1      -3.737  -2.140  -1.009  0.00  0.00     0.004 C 
ATOM     10  C4' N4B d   1      -4.717  -2.091   0.125  0.00  0.00     0.003 C 
ENDBRANCH   8   9
ENDBRANCH   7   8
ENDBRANCH   1   7
TORSDOF 3
ENDMDL
