MODEL 1
REMARK minimizedAffinity -6.75854445
REMARK minimizedRMSD -1
REMARK  3 active torsions:
REMARK  status: ('A' for Active; 'I' for Inactive)
REMARK    1  A    between atoms: C3'_2  and  C2'_3 
REMARK    2  A    between atoms: C2'_3  and  C1'_4 
REMARK    3  A    between atoms: C1'_4  and  C1_5 
ROOT
ATOM      1  C1  N4B d   1      -0.715  -0.515   1.047  0.00  0.00    -0.075 A 
ATOM      2  C2  N4B d   1       0.045   0.550   0.514  0.00  0.00     0.002 A 
ATOM      3  C3  N4B d   1       1.315   0.788   0.980  0.00  0.00     0.002 A 
ATOM      4  C4  N4B d   1       1.837  -0.010   1.987  0.00  0.00    -0.004 A 
ATOM      5  C5  N4B d   1       1.106  -1.052   2.479  0.00  0.00     0.002 A 
ATOM      6  C6  N4B d   1      -0.170  -1.305   2.017  0.00  0.00     0.002 A 
ENDROOT
BRANCH   1   7
ATOM      7  C1' N4B d   1      -2.139  -0.760   0.631  0.00  0.00     0.057 C 
BRANCH   7   8
ATOM      8  C2' N4B d   1      -2.215  -0.802  -0.892  0.00  0.00     0.009 C 
BRANCH   8   9
ATOM      9  C3' N4B d   1      -3.589  -1.227  -1.381  0.00  0.00     0.004 C 
ATOM     10  C4' N4B d   1      -4.377  -1.959  -0.336  0.00  0.00     0.003 C 
ENDBRANCH   8   9
ENDBRANCH   7   8
ENDBRANCH   1   7
TORSDOF 3
ENDMDL
