MODEL 1
REMARK minimizedAffinity -1.2904433
REMARK minimizedRMSD -1
REMARK  3 active torsions:
REMARK  status: ('A' for Active; 'I' for Inactive)
REMARK    1  A    between atoms: C3'_2  and  C2'_3 
REMARK    2  A    between atoms: C2'_3  and  C1'_4 
REMARK    3  A    between atoms: C1'_4  and  C1_5 
ROOT
ATOM      1  C1  N4B d   1       0.302   1.296  -0.419  0.00  0.00    -0.075 A 
ATOM      2  C2  N4B d   1       0.462   0.068  -1.097  0.00  0.00     0.002 A 
ATOM      3  C3  N4B d   1       1.189  -0.944  -0.521  0.00  0.00     0.002 A 
ATOM      4  C4  N4B d   1       1.780  -0.745   0.718  0.00  0.00    -0.004 A 
ATOM      5  C5  N4B d   1       1.599   0.435   1.378  0.00  0.00     0.002 A 
ATOM      6  C6  N4B d   1       0.867   1.460   0.812  0.00  0.00     0.002 A 
ENDROOT
BRANCH   1   7
ATOM      7  C1' N4B d   1      -0.413   2.462  -1.046  0.00  0.00     0.057 C 
BRANCH   7   8
ATOM      8  C2' N4B d   1       0.579   3.267  -1.881  0.00  0.00     0.009 C 
BRANCH   8   9
ATOM      9  C3' N4B d   1       0.157   3.353  -3.337  0.00  0.00     0.004 C 
ATOM     10  C4' N4B d   1       1.324   3.425  -4.277  0.00  0.00     0.003 C 
ENDBRANCH   8   9
ENDBRANCH   7   8
ENDBRANCH   1   7
TORSDOF 3
ENDMDL
