MODEL 1
REMARK minimizedAffinity 14.2282267
REMARK minimizedRMSD -1
REMARK  0 active torsions:
REMARK  status: ('A' for Active; 'I' for Inactive)
ROOT
ATOM      1  C   UNL d   1       1.956  -3.398   4.969  0.00  0.00    -0.002 A 
ATOM      2  C1  UNL d   1       0.913  -2.626   5.461  0.00  0.00     0.010 A 
ATOM      3  C2  UNL d   1       0.334  -1.629   4.673  0.00  0.00     0.041 A 
ATOM      4  C3  UNL d   1       0.825  -1.420   3.369  0.00  0.00    -0.075 A 
ATOM      5  S   UNL d   1       0.271  -0.257   2.223  0.00  0.00     0.015 SA
ATOM      6  C4  UNL d   1       1.404  -0.758   1.054  0.00  0.00     0.022 A 
ATOM      7  C5  UNL d   1       2.195  -1.787   1.509  0.00  0.00     0.026 A 
ATOM      8  C6  UNL d   1       1.874  -2.186   2.851  0.00  0.00    -0.082 A 
ATOM      9  C7  UNL d   1       2.440  -3.188   3.675  0.00  0.00     0.045 A 
ENDROOT
TORSDOF 0
ENDMDL
