MODEL 1
REMARK minimizedAffinity 15.4992342
REMARK minimizedRMSD -1
REMARK  0 active torsions:
REMARK  status: ('A' for Active; 'I' for Inactive)
ROOT
ATOM      1  C   UNL d   1       0.375  -5.419   6.000  0.00  0.00    -0.002 A 
ATOM      2  C1  UNL d   1       0.983  -5.999   4.895  0.00  0.00     0.010 A 
ATOM      3  C2  UNL d   1       1.244  -5.245   3.750  0.00  0.00     0.041 A 
ATOM      4  C3  UNL d   1       0.883  -3.883   3.734  0.00  0.00    -0.075 A 
ATOM      5  S   UNL d   1       1.107  -2.764   2.442  0.00  0.00     0.015 SA
ATOM      6  C4  UNL d   1       0.402  -1.488   3.326  0.00  0.00     0.022 A 
ATOM      7  C5  UNL d   1       0.000  -1.889   4.578  0.00  0.00     0.026 A 
ATOM      8  C6  UNL d   1       0.271  -3.276   4.834  0.00  0.00    -0.082 A 
ATOM      9  C7  UNL d   1       0.019  -4.068   5.980  0.00  0.00     0.045 A 
ENDROOT
TORSDOF 0
ENDMDL
