MODEL 1
REMARK minimizedAffinity 13.1313095
REMARK minimizedRMSD -1
REMARK  0 active torsions:
REMARK  status: ('A' for Active; 'I' for Inactive)
ROOT
ATOM      1  C   UNL d   1      -4.531  -5.995  -5.279  0.00  0.00    -0.002 A 
ATOM      2  C1  UNL d   1      -5.585  -5.452  -6.000  0.00  0.00     0.010 A 
ATOM      3  C2  UNL d   1      -5.967  -4.123  -5.806  0.00  0.00     0.041 A 
ATOM      4  C3  UNL d   1      -5.264  -3.341  -4.869  0.00  0.00    -0.075 A 
ATOM      5  S   UNL d   1      -5.554  -1.690  -4.466  0.00  0.00     0.015 SA
ATOM      6  C4  UNL d   1      -4.285  -1.667  -3.328  0.00  0.00     0.022 A 
ATOM      7  C5  UNL d   1      -3.645  -2.881  -3.245  0.00  0.00     0.026 A 
ATOM      8  C6  UNL d   1      -4.198  -3.866  -4.131  0.00  0.00    -0.082 A 
ATOM      9  C7  UNL d   1      -3.836  -5.217  -4.350  0.00  0.00     0.045 A 
ENDROOT
TORSDOF 0
ENDMDL
