MODEL 1
REMARK minimizedAffinity 19.9148273
REMARK minimizedRMSD -1
REMARK  0 active torsions:
REMARK  status: ('A' for Active; 'I' for Inactive)
ROOT
ATOM      1  C   UNL d   1       2.901   0.098   1.269  0.00  0.00    -0.002 A 
ATOM      2  C1  UNL d   1       1.894  -0.852   1.170  0.00  0.00     0.010 A 
ATOM      3  C2  UNL d   1       1.622  -1.475  -0.049  0.00  0.00     0.041 A 
ATOM      4  C3  UNL d   1       2.388  -1.125  -1.179  0.00  0.00    -0.075 A 
ATOM      5  S   UNL d   1       2.234  -1.758  -2.775  0.00  0.00     0.015 SA
ATOM      6  C4  UNL d   1       3.502  -0.783  -3.364  0.00  0.00     0.022 A 
ATOM      7  C5  UNL d   1       4.040   0.012  -2.381  0.00  0.00     0.026 A 
ATOM      8  C6  UNL d   1       3.408  -0.172  -1.105  0.00  0.00    -0.082 A 
ATOM      9  C7  UNL d   1       3.658   0.442   0.146  0.00  0.00     0.045 A 
ENDROOT
TORSDOF 0
ENDMDL
