MODEL 1
REMARK minimizedAffinity 16.8364677
REMARK minimizedRMSD -1
REMARK  0 active torsions:
REMARK  status: ('A' for Active; 'I' for Inactive)
ROOT
ATOM      1  C   UNL d   1       4.803   5.740  -5.404  0.00  0.00    -0.002 A 
ATOM      2  C1  UNL d   1       5.984   5.975  -4.715  0.00  0.00     0.010 A 
ATOM      3  C2  UNL d   1       5.998   6.000  -3.319  0.00  0.00     0.041 A 
ATOM      4  C3  UNL d   1       4.794   5.781  -2.621  0.00  0.00    -0.075 A 
ATOM      5  S   UNL d   1       4.571   5.765  -0.911  0.00  0.00     0.015 SA
ATOM      6  C4  UNL d   1       2.903   5.445  -1.057  0.00  0.00     0.022 A 
ATOM      7  C5  UNL d   1       2.509   5.350  -2.370  0.00  0.00     0.026 A 
ATOM      8  C6  UNL d   1       3.592   5.541  -3.293  0.00  0.00    -0.082 A 
ATOM      9  C7  UNL d   1       3.611   5.523  -4.709  0.00  0.00     0.045 A 
ENDROOT
TORSDOF 0
ENDMDL
