MODEL 1
REMARK minimizedAffinity 12.7562551
REMARK minimizedRMSD -1
REMARK  0 active torsions:
REMARK  status: ('A' for Active; 'I' for Inactive)
ROOT
ATOM      1  C   UNL d   1      -5.244  -0.160  -1.146  0.00  0.00    -0.002 A 
ATOM      2  C1  UNL d   1      -4.512  -0.742  -2.172  0.00  0.00     0.010 A 
ATOM      3  C2  UNL d   1      -4.293  -0.054  -3.367  0.00  0.00     0.041 A 
ATOM      4  C3  UNL d   1      -4.825   1.242  -3.515  0.00  0.00    -0.075 A 
ATOM      5  S   UNL d   1      -4.682   2.273  -4.889  0.00  0.00     0.015 SA
ATOM      6  C4  UNL d   1      -5.589   3.511  -4.148  0.00  0.00     0.022 A 
ATOM      7  C5  UNL d   1      -5.998   3.163  -2.882  0.00  0.00     0.026 A 
ATOM      8  C6  UNL d   1      -5.564   1.849  -2.496  0.00  0.00    -0.082 A 
ATOM      9  C7  UNL d   1      -5.770   1.126  -1.297  0.00  0.00     0.045 A 
ENDROOT
TORSDOF 0
ENDMDL
