MODEL 1
REMARK minimizedAffinity 5.5159874
REMARK minimizedRMSD -1
REMARK  0 active torsions:
REMARK  status: ('A' for Active; 'I' for Inactive)
ROOT
ATOM      1  C   UNL d   1       1.495  -2.537   3.960  0.00  0.00    -0.002 A 
ATOM      2  C1  UNL d   1       2.076  -2.476   2.701  0.00  0.00     0.010 A 
ATOM      3  C2  UNL d   1       3.464  -2.517   2.557  0.00  0.00     0.041 A 
ATOM      4  C3  UNL d   1       4.266  -2.623   3.710  0.00  0.00    -0.075 A 
ATOM      5  S   UNL d   1       5.987  -2.690   3.776  0.00  0.00     0.015 SA
ATOM      6  C4  UNL d   1       5.992  -2.803   5.477  0.00  0.00     0.022 A 
ATOM      7  C5  UNL d   1       4.720  -2.790   5.998  0.00  0.00     0.026 A 
ATOM      8  C6  UNL d   1       3.704  -2.686   4.989  0.00  0.00    -0.082 A 
ATOM      9  C7  UNL d   1       2.294  -2.642   5.102  0.00  0.00     0.045 A 
ENDROOT
TORSDOF 0
ENDMDL
