MODEL 1
REMARK minimizedAffinity 1.17730618
REMARK minimizedRMSD -1
REMARK  0 active torsions:
REMARK  status: ('A' for Active; 'I' for Inactive)
ROOT
ATOM      1  C1  DEN d   1       2.017  -0.653   0.293  0.00  0.00     0.130 A 
ATOM      2  C2  DEN d   1       1.798   0.490  -0.590  0.00  0.00    -0.031 A 
ATOM      3  C3  DEN d   1       0.362   0.831  -0.546  0.00  0.00     0.027 A 
ATOM      4  C4  DEN d   1      -1.532  -0.290   0.799  0.00  0.00     0.027 A 
ATOM      5  C5  DEN d   1      -1.835  -1.304   1.680  0.00  0.00    -0.003 A 
ATOM      6  C6  DEN d   1      -0.889  -2.187   2.130  0.00  0.00     0.001 A 
ATOM      7  C7  DEN d   1       0.415  -2.043   1.736  0.00  0.00     0.017 A 
ATOM      8  C8  DEN d   1       0.727  -1.027   0.842  0.00  0.00    -0.094 A 
ATOM      9  C9  DEN d   1      -0.242  -0.138   0.408  0.00  0.00    -0.072 A 
ENDROOT
TORSDOF 0
ENDMDL
