MODEL 1
REMARK minimizedAffinity -3.89245152
REMARK minimizedRMSD -1
REMARK  0 active torsions:
REMARK  status: ('A' for Active; 'I' for Inactive)
ROOT
ATOM      1  C1  DEN d   1      -2.456  -1.634   0.806  0.00  0.00     0.130 A 
ATOM      2  C2  DEN d   1      -3.238  -0.907  -0.191  0.00  0.00    -0.031 A 
ATOM      3  C3  DEN d   1      -2.320  -0.020  -0.933  0.00  0.00     0.027 A 
ATOM      4  C4  DEN d   1       0.223   0.295  -0.640  0.00  0.00     0.027 A 
ATOM      5  C5  DEN d   1       1.326  -0.096   0.087  0.00  0.00    -0.003 A 
ATOM      6  C6  DEN d   1       1.241  -0.994   1.118  0.00  0.00     0.001 A 
ATOM      7  C7  DEN d   1       0.034  -1.565   1.422  0.00  0.00     0.017 A 
ATOM      8  C8  DEN d   1      -1.084  -1.171   0.699  0.00  0.00    -0.094 A 
ATOM      9  C9  DEN d   1      -0.976  -0.271  -0.348  0.00  0.00    -0.072 A 
ENDROOT
TORSDOF 0
ENDMDL
