MODEL 1
REMARK minimizedAffinity -0.484247059
REMARK minimizedRMSD -1
REMARK  0 active torsions:
REMARK  status: ('A' for Active; 'I' for Inactive)
ROOT
ATOM      1  C1  DEN d   1       1.553   2.916  -0.284  0.00  0.00     0.130 A 
ATOM      2  C2  DEN d   1       2.520   3.008   0.806  0.00  0.00    -0.031 A 
ATOM      3  C3  DEN d   1       2.475   1.742   1.565  0.00  0.00     0.027 A 
ATOM      4  C4  DEN d   1       1.013  -0.343   1.155  0.00  0.00     0.027 A 
ATOM      5  C5  DEN d   1       0.032  -0.887   0.355  0.00  0.00    -0.003 A 
ATOM      6  C6  DEN d   1      -0.530  -0.194  -0.684  0.00  0.00     0.001 A 
ATOM      7  C7  DEN d   1      -0.083   1.067  -0.980  0.00  0.00     0.017 A 
ATOM      8  C8  DEN d   1       0.901   1.624  -0.174  0.00  0.00    -0.094 A 
ATOM      9  C9  DEN d   1       1.465   0.903   0.865  0.00  0.00    -0.072 A 
ENDROOT
TORSDOF 0
ENDMDL
