MODEL 1
REMARK minimizedAffinity -4.20835924
REMARK minimizedRMSD -1
REMARK  0 active torsions:
REMARK  status: ('A' for Active; 'I' for Inactive)
ROOT
ATOM      1  C1  DEN d   1      -0.566   0.485  -1.624  0.00  0.00     0.130 A 
ATOM      2  C2  DEN d   1      -2.020   0.341  -1.627  0.00  0.00    -0.031 A 
ATOM      3  C3  DEN d   1      -2.397  -0.514  -0.483  0.00  0.00     0.027 A 
ATOM      4  C4  DEN d   1      -0.879  -1.620   1.285  0.00  0.00     0.027 A 
ATOM      5  C5  DEN d   1       0.424  -1.795   1.694  0.00  0.00    -0.003 A 
ATOM      6  C6  DEN d   1       1.483  -1.255   1.012  0.00  0.00     0.001 A 
ATOM      7  C7  DEN d   1       1.253  -0.476  -0.091  0.00  0.00     0.017 A 
ATOM      8  C8  DEN d   1      -0.058  -0.301  -0.514  0.00  0.00    -0.094 A 
ATOM      9  C9  DEN d   1      -1.115  -0.844   0.197  0.00  0.00    -0.072 A 
ENDROOT
TORSDOF 0
ENDMDL
