MODEL 1
REMARK minimizedAffinity -4.1847086
REMARK minimizedRMSD -1
REMARK  0 active torsions:
REMARK  status: ('A' for Active; 'I' for Inactive)
ROOT
ATOM      1  C1  DEN d   1       0.535  -0.263  -1.845  0.00  0.00     0.130 A 
ATOM      2  C2  DEN d   1      -0.199   0.361  -2.943  0.00  0.00    -0.031 A 
ATOM      3  C3  DEN d   1      -1.611   0.491  -2.532  0.00  0.00     0.027 A 
ATOM      4  C4  DEN d   1      -2.727  -0.203  -0.313  0.00  0.00     0.027 A 
ATOM      5  C5  DEN d   1      -2.512  -0.783   0.918  0.00  0.00    -0.003 A 
ATOM      6  C6  DEN d   1      -1.285  -1.257   1.298  0.00  0.00     0.001 A 
ATOM      7  C7  DEN d   1      -0.213  -1.119   0.455  0.00  0.00     0.017 A 
ATOM      8  C8  DEN d   1      -0.423  -0.542  -0.790  0.00  0.00    -0.094 A 
ATOM      9  C9  DEN d   1      -1.669  -0.058  -1.151  0.00  0.00    -0.072 A 
ENDROOT
TORSDOF 0
ENDMDL
