MODEL 1
REMARK minimizedAffinity -3.56995869
REMARK minimizedRMSD -1
REMARK  0 active torsions:
REMARK  status: ('A' for Active; 'I' for Inactive)
ROOT
ATOM      1  C1  DEN d   1       1.304   0.222  -0.421  0.00  0.00     0.130 A 
ATOM      2  C2  DEN d   1       1.504   1.271   0.576  0.00  0.00    -0.031 A 
ATOM      3  C3  DEN d   1       0.176   1.707   1.053  0.00  0.00     0.027 A 
ATOM      4  C4  DEN d   1      -2.157   0.860   0.352  0.00  0.00     0.027 A 
ATOM      5  C5  DEN d   1      -2.835  -0.013  -0.471  0.00  0.00    -0.003 A 
ATOM      6  C6  DEN d   1      -2.186  -0.838  -1.351  0.00  0.00     0.001 A 
ATOM      7  C7  DEN d   1      -0.817  -0.839  -1.398  0.00  0.00     0.017 A 
ATOM      8  C8  DEN d   1      -0.128   0.044  -0.577  0.00  0.00    -0.094 A 
ATOM      9  C9  DEN d   1      -0.801   0.861   0.315  0.00  0.00    -0.072 A 
ENDROOT
TORSDOF 0
ENDMDL
