MODEL 1
REMARK minimizedAffinity -4.35418177
REMARK minimizedRMSD -1
REMARK  0 active torsions:
REMARK  status: ('A' for Active; 'I' for Inactive)
ROOT
ATOM      1  C1  DEN d   1      -2.246  -1.490   1.119  0.00  0.00     0.130 A 
ATOM      2  C2  DEN d   1      -3.277  -1.567   0.088  0.00  0.00    -0.031 A 
ATOM      3  C3  DEN d   1      -2.739  -0.955  -1.143  0.00  0.00     0.027 A 
ATOM      4  C4  DEN d   1      -0.419   0.095  -1.552  0.00  0.00     0.027 A 
ATOM      5  C5  DEN d   1       0.792   0.402  -0.973  0.00  0.00    -0.003 A 
ATOM      6  C6  DEN d   1       1.061   0.134   0.343  0.00  0.00     0.001 A 
ATOM      7  C7  DEN d   1       0.122  -0.501   1.112  0.00  0.00     0.017 A 
ATOM      8  C8  DEN d   1      -1.105  -0.808   0.537  0.00  0.00    -0.094 A 
ATOM      9  C9  DEN d   1      -1.353  -0.539  -0.799  0.00  0.00    -0.072 A 
ENDROOT
TORSDOF 0
ENDMDL
