MODEL 1
REMARK minimizedAffinity -4.75062323
REMARK minimizedRMSD -1
REMARK  0 active torsions:
REMARK  status: ('A' for Active; 'I' for Inactive)
ROOT
ATOM      1  C1  DEN d   1      -2.124   0.630   0.641  0.00  0.00     0.130 A 
ATOM      2  C2  DEN d   1      -2.639  -0.305  -0.356  0.00  0.00    -0.031 A 
ATOM      3  C3  DEN d   1      -1.486  -0.934  -1.030  0.00  0.00     0.027 A 
ATOM      4  C4  DEN d   1       1.033  -0.558  -0.626  0.00  0.00     0.027 A 
ATOM      5  C5  DEN d   1       1.959   0.148   0.110  0.00  0.00    -0.003 A 
ATOM      6  C6  DEN d   1       1.592   1.081   1.043  0.00  0.00     0.001 A 
ATOM      7  C7  DEN d   1       0.264   1.301   1.297  0.00  0.00     0.017 A 
ATOM      8  C8  DEN d   1      -0.675   0.599   0.554  0.00  0.00    -0.094 A 
ATOM      9  C9  DEN d   1      -0.284  -0.349  -0.377  0.00  0.00    -0.072 A 
ENDROOT
TORSDOF 0
ENDMDL
