MODEL 1
REMARK minimizedAffinity -3.4826169
REMARK minimizedRMSD -1
REMARK  0 active torsions:
REMARK  status: ('A' for Active; 'I' for Inactive)
ROOT
ATOM      1  C1  DEN d   1       1.983   0.344  -0.149  0.00  0.00     0.130 A 
ATOM      2  C2  DEN d   1       2.759  -0.225   0.950  0.00  0.00    -0.031 A 
ATOM      3  C3  DEN d   1       1.823  -0.911   1.863  0.00  0.00     0.027 A 
ATOM      4  C4  DEN d   1      -0.738  -1.153   1.680  0.00  0.00     0.027 A 
ATOM      5  C5  DEN d   1      -1.845  -0.829   0.928  0.00  0.00    -0.003 A 
ATOM      6  C6  DEN d   1      -1.759  -0.069  -0.209  0.00  0.00     0.001 A 
ATOM      7  C7  DEN d   1      -0.533   0.355  -0.650  0.00  0.00     0.017 A 
ATOM      8  C8  DEN d   1       0.587   0.038   0.107  0.00  0.00    -0.094 A 
ATOM      9  C9  DEN d   1       0.480  -0.741   1.246  0.00  0.00    -0.072 A 
ENDROOT
TORSDOF 0
ENDMDL
