MODEL 1
REMARK minimizedAffinity -3.94670296
REMARK minimizedRMSD -1
REMARK  0 active torsions:
REMARK  status: ('A' for Active; 'I' for Inactive)
ROOT
ATOM      1  C1  DEN d   1       0.041   0.772   1.326  0.00  0.00     0.130 A 
ATOM      2  C2  DEN d   1       1.323   1.134   0.727  0.00  0.00    -0.031 A 
ATOM      3  C3  DEN d   1       1.288   0.742  -0.697  0.00  0.00     0.027 A 
ATOM      4  C4  DEN d   1      -0.617  -0.380  -2.025  0.00  0.00     0.027 A 
ATOM      5  C5  DEN d   1      -1.894  -0.890  -1.942  0.00  0.00    -0.003 A 
ATOM      6  C6  DEN d   1      -2.597  -0.912  -0.767  0.00  0.00     0.001 A 
ATOM      7  C7  DEN d   1      -2.044  -0.374   0.365  0.00  0.00     0.017 A 
ATOM      8  C8  DEN d   1      -0.754   0.135   0.291  0.00  0.00    -0.094 A 
ATOM      9  C9  DEN d   1      -0.064   0.160  -0.909  0.00  0.00    -0.072 A 
ENDROOT
TORSDOF 0
ENDMDL
