MODEL 1
REMARK minimizedAffinity -4.9713912
REMARK minimizedRMSD -1
REMARK  0 active torsions:
REMARK  status: ('A' for Active; 'I' for Inactive)
ROOT
ATOM      1  C1  DEN d   1       0.384  -0.436   1.440  0.00  0.00     0.130 A 
ATOM      2  C2  DEN d   1       1.492   0.213   0.744  0.00  0.00    -0.031 A 
ATOM      3  C3  DEN d   1       1.008   0.642  -0.584  0.00  0.00     0.027 A 
ATOM      4  C4  DEN d   1      -1.337   0.371  -1.621  0.00  0.00     0.027 A 
ATOM      5  C5  DEN d   1      -2.605  -0.126  -1.416  0.00  0.00    -0.003 A 
ATOM      6  C6  DEN d   1      -2.953  -0.786  -0.267  0.00  0.00     0.001 A 
ATOM      7  C7  DEN d   1      -2.035  -0.927   0.740  0.00  0.00     0.017 A 
ATOM      8  C8  DEN d   1      -0.752  -0.435   0.536  0.00  0.00    -0.094 A 
ATOM      9  C9  DEN d   1      -0.424   0.240  -0.627  0.00  0.00    -0.072 A 
ENDROOT
TORSDOF 0
ENDMDL
