MODEL 1
REMARK minimizedAffinity -4.37689638
REMARK minimizedRMSD -1
REMARK  0 active torsions:
REMARK  status: ('A' for Active; 'I' for Inactive)
ROOT
ATOM      1  C1  DEN d   1      -1.799   0.841   1.149  0.00  0.00     0.130 A 
ATOM      2  C2  DEN d   1      -2.337  -0.361   0.519  0.00  0.00    -0.031 A 
ATOM      3  C3  DEN d   1      -1.210  -1.109  -0.074  0.00  0.00     0.027 A 
ATOM      4  C4  DEN d   1       1.303  -0.528  -0.073  0.00  0.00     0.027 A 
ATOM      5  C5  DEN d   1       2.240   0.398   0.328  0.00  0.00    -0.003 A 
ATOM      6  C6  DEN d   1       1.897   1.544   0.995  0.00  0.00     0.001 A 
ATOM      7  C7  DEN d   1       0.586   1.772   1.322  0.00  0.00     0.017 A 
ATOM      8  C8  DEN d   1      -0.366   0.847   0.915  0.00  0.00    -0.094 A 
ATOM      9  C9  DEN d   1       0.003  -0.312   0.252  0.00  0.00    -0.072 A 
ENDROOT
TORSDOF 0
ENDMDL
