MODEL 1
REMARK minimizedAffinity -3.25419641
REMARK minimizedRMSD -1
REMARK  0 active torsions:
REMARK  status: ('A' for Active; 'I' for Inactive)
ROOT
ATOM      1  C1  DEN d   1       0.147   1.121   0.891  0.00  0.00     0.130 A 
ATOM      2  C2  DEN d   1       1.474   0.772   0.393  0.00  0.00    -0.031 A 
ATOM      3  C3  DEN d   1       1.307  -0.171  -0.731  0.00  0.00     0.027 A 
ATOM      4  C4  DEN d   1      -0.868  -1.115  -1.746  0.00  0.00     0.027 A 
ATOM      5  C5  DEN d   1      -2.242  -1.118  -1.652  0.00  0.00    -0.003 A 
ATOM      6  C6  DEN d   1      -2.909  -0.407  -0.690  0.00  0.00     0.001 A 
ATOM      7  C7  DEN d   1      -2.205   0.373   0.188  0.00  0.00     0.017 A 
ATOM      8  C8  DEN d   1      -0.819   0.375   0.104  0.00  0.00    -0.094 A 
ATOM      9  C9  DEN d   1      -0.163  -0.341  -0.883  0.00  0.00    -0.072 A 
ENDROOT
TORSDOF 0
ENDMDL
