MODEL 1
REMARK minimizedAffinity -3.68172264
REMARK minimizedRMSD -1
REMARK  0 active torsions:
REMARK  status: ('A' for Active; 'I' for Inactive)
ROOT
ATOM      1  C1  DEN d   1      -2.568  -0.731   0.880  0.00  0.00     0.130 A 
ATOM      2  C2  DEN d   1      -3.325  -0.973  -0.344  0.00  0.00    -0.031 A 
ATOM      3  C3  DEN d   1      -2.487  -0.563  -1.488  0.00  0.00     0.027 A 
ATOM      4  C4  DEN d   1      -0.100   0.414  -1.482  0.00  0.00     0.027 A 
ATOM      5  C5  DEN d   1       0.948   0.812  -0.682  0.00  0.00    -0.003 A 
ATOM      6  C6  DEN d   1       0.885   0.756   0.685  0.00  0.00     0.001 A 
ATOM      7  C7  DEN d   1      -0.233   0.248   1.293  0.00  0.00     0.017 A 
ATOM      8  C8  DEN d   1      -1.296  -0.148   0.493  0.00  0.00    -0.094 A 
ATOM      9  C9  DEN d   1      -1.209  -0.094  -0.888  0.00  0.00    -0.072 A 
ENDROOT
TORSDOF 0
ENDMDL
