MODEL 1
REMARK minimizedAffinity -4.93772984
REMARK minimizedRMSD -1
REMARK  2 active torsions:
REMARK  status: ('A' for Active; 'I' for Inactive)
REMARK    1  A    between atoms: C1_2  and  C2_3 
REMARK    2  A    between atoms: C2_3  and  C3_4 
ROOT
ATOM      1  C3  UNL d   1      -0.076  -0.139   0.291  0.00  0.00    -0.075 A 
ATOM      2  C4  UNL d   1      -0.533  -1.114   1.190  0.00  0.00     0.002 A 
ATOM      3  C5  UNL d   1      -0.150  -1.075   2.531  0.00  0.00     0.002 A 
ATOM      4  C6  UNL d   1       0.701  -0.070   2.987  0.00  0.00    -0.004 A 
ATOM      5  C7  UNL d   1       1.174   0.893   2.099  0.00  0.00     0.002 A 
ATOM      6  C8  UNL d   1       0.789   0.859   0.757  0.00  0.00     0.002 A 
ENDROOT
BRANCH   1   7
ATOM      7  C2  UNL d   1      -0.511  -0.159  -1.155  0.00  0.00     0.056 C 
BRANCH   7   8
ATOM      8  C1  UNL d   1      -0.583   1.228  -1.803  0.00  0.00     0.007 C 
ATOM      9  C   UNL d   1      -1.991   1.618  -2.232  0.00  0.00     0.009 C 
ENDBRANCH   7   8
ENDBRANCH   1   7
TORSDOF 2
ENDMDL
