MODEL 1
REMARK minimizedAffinity -5.91517591
REMARK minimizedRMSD -1
REMARK  2 active torsions:
REMARK  status: ('A' for Active; 'I' for Inactive)
REMARK    1  A    between atoms: C1_2  and  C2_3 
REMARK    2  A    between atoms: C2_3  and  C3_4 
ROOT
ATOM      1  C3  UNL d   1       0.649  -0.270   0.354  0.00  0.00    -0.075 A 
ATOM      2  C4  UNL d   1       1.866  -0.959   0.456  0.00  0.00     0.002 A 
ATOM      3  C5  UNL d   1       2.263  -1.521   1.670  0.00  0.00     0.002 A 
ATOM      4  C6  UNL d   1       1.455  -1.392   2.797  0.00  0.00    -0.004 A 
ATOM      5  C7  UNL d   1       0.252  -0.695   2.712  0.00  0.00     0.002 A 
ATOM      6  C8  UNL d   1      -0.150  -0.135   1.497  0.00  0.00     0.002 A 
ENDROOT
BRANCH   1   7
ATOM      7  C2  UNL d   1       0.200   0.315  -0.964  0.00  0.00     0.056 C 
BRANCH   7   8
ATOM      8  C1  UNL d   1      -1.315   0.259  -1.187  0.00  0.00     0.007 C 
ATOM      9  C   UNL d   1      -1.888   1.554  -1.745  0.00  0.00     0.009 C 
ENDBRANCH   7   8
ENDBRANCH   1   7
TORSDOF 2
ENDMDL
