MODEL 1
REMARK minimizedAffinity -2.82524371
REMARK minimizedRMSD -1
REMARK  2 active torsions:
REMARK  status: ('A' for Active; 'I' for Inactive)
REMARK    1  A    between atoms: C1_2  and  C2_3 
REMARK    2  A    between atoms: C2_3  and  C3_4 
ROOT
ATOM      1  C3  UNL d   1      -0.359   0.747  -1.445  0.00  0.00    -0.075 A 
ATOM      2  C4  UNL d   1       0.710   1.492  -1.964  0.00  0.00     0.002 A 
ATOM      3  C5  UNL d   1       0.486   2.479  -2.925  0.00  0.00     0.002 A 
ATOM      4  C6  UNL d   1      -0.805   2.726  -3.385  0.00  0.00    -0.004 A 
ATOM      5  C7  UNL d   1      -1.873   1.981  -2.889  0.00  0.00     0.002 A 
ATOM      6  C8  UNL d   1      -1.652   0.996  -1.925  0.00  0.00     0.002 A 
ENDROOT
BRANCH   1   7
ATOM      7  C2  UNL d   1      -0.126  -0.301  -0.384  0.00  0.00     0.056 C 
BRANCH   7   8
ATOM      8  C1  UNL d   1      -0.830  -0.010   0.945  0.00  0.00     0.007 C 
ATOM      9  C   UNL d   1      -0.336  -0.884   2.091  0.00  0.00     0.009 C 
ENDBRANCH   7   8
ENDBRANCH   1   7
TORSDOF 2
ENDMDL
