MODEL 1
REMARK minimizedAffinity -5.23257208
REMARK minimizedRMSD -1
REMARK  2 active torsions:
REMARK  status: ('A' for Active; 'I' for Inactive)
REMARK    1  A    between atoms: C1_2  and  C2_3 
REMARK    2  A    between atoms: C2_3  and  C3_4 
ROOT
ATOM      1  C3  UNL d   1      -0.176  -0.216  -0.394  0.00  0.00    -0.075 A 
ATOM      2  C4  UNL d   1      -1.106  -0.027   0.639  0.00  0.00     0.002 A 
ATOM      3  C5  UNL d   1      -0.843  -0.502   1.925  0.00  0.00     0.002 A 
ATOM      4  C6  UNL d   1       0.345  -1.179   2.191  0.00  0.00    -0.004 A 
ATOM      5  C7  UNL d   1       1.268  -1.387   1.168  0.00  0.00     0.002 A 
ATOM      6  C8  UNL d   1       1.010  -0.909  -0.118  0.00  0.00     0.002 A 
ENDROOT
BRANCH   1   7
ATOM      7  C2  UNL d   1      -0.442   0.321  -1.780  0.00  0.00     0.056 C 
BRANCH   7   8
ATOM      8  C1  UNL d   1      -1.472   1.455  -1.822  0.00  0.00     0.007 C 
ATOM      9  C   UNL d   1      -1.054   2.612  -2.720  0.00  0.00     0.009 C 
ENDBRANCH   7   8
ENDBRANCH   1   7
TORSDOF 2
ENDMDL
