MODEL 1
REMARK minimizedAffinity -3.41808462
REMARK minimizedRMSD -1
REMARK  2 active torsions:
REMARK  status: ('A' for Active; 'I' for Inactive)
REMARK    1  A    between atoms: C1_2  and  C2_3 
REMARK    2  A    between atoms: C2_3  and  C3_4 
ROOT
ATOM      1  C3  UNL d   1      -3.570   2.416  -2.615  0.00  0.00    -0.075 A 
ATOM      2  C4  UNL d   1      -3.431   3.798  -2.808  0.00  0.00     0.002 A 
ATOM      3  C5  UNL d   1      -2.192   4.346  -3.140  0.00  0.00     0.002 A 
ATOM      4  C6  UNL d   1      -1.076   3.523  -3.273  0.00  0.00    -0.004 A 
ATOM      5  C7  UNL d   1      -1.199   2.150  -3.067  0.00  0.00     0.002 A 
ATOM      6  C8  UNL d   1      -2.439   1.599  -2.740  0.00  0.00     0.002 A 
ENDROOT
BRANCH   1   7
ATOM      7  C2  UNL d   1      -4.915   1.813  -2.285  0.00  0.00     0.056 C 
BRANCH   7   8
ATOM      8  C1  UNL d   1      -5.999   2.098  -3.330  0.00  0.00     0.007 C 
ATOM      9  C   UNL d   1      -5.587   1.713  -4.744  0.00  0.00     0.009 C 
ENDBRANCH   7   8
ENDBRANCH   1   7
TORSDOF 2
ENDMDL
