MODEL 1
REMARK minimizedAffinity -3.75209785
REMARK minimizedRMSD -1
REMARK  2 active torsions:
REMARK  status: ('A' for Active; 'I' for Inactive)
REMARK    1  A    between atoms: C1_2  and  C2_3 
REMARK    2  A    between atoms: C2_3  and  C3_4 
ROOT
ATOM      1  C3  UNL d   1       0.556  -0.889   0.651  0.00  0.00    -0.075 A 
ATOM      2  C4  UNL d   1       1.508  -1.618  -0.076  0.00  0.00     0.002 A 
ATOM      3  C5  UNL d   1       2.234  -2.641   0.536  0.00  0.00     0.002 A 
ATOM      4  C6  UNL d   1       2.024  -2.940   1.880  0.00  0.00    -0.004 A 
ATOM      5  C7  UNL d   1       1.093  -2.211   2.616  0.00  0.00     0.002 A 
ATOM      6  C8  UNL d   1       0.362  -1.190   2.005  0.00  0.00     0.002 A 
ENDROOT
BRANCH   1   7
ATOM      7  C2  UNL d   1      -0.253   0.200  -0.013  0.00  0.00     0.056 C 
BRANCH   7   8
ATOM      8  C1  UNL d   1      -0.415   0.023  -1.526  0.00  0.00     0.007 C 
ATOM      9  C   UNL d   1      -0.793   1.311  -2.245  0.00  0.00     0.009 C 
ENDBRANCH   7   8
ENDBRANCH   1   7
TORSDOF 2
ENDMDL
