MODEL 1
REMARK minimizedAffinity -5.65421247
REMARK minimizedRMSD -1
REMARK  2 active torsions:
REMARK  status: ('A' for Active; 'I' for Inactive)
REMARK    1  A    between atoms: C1_2  and  C2_3 
REMARK    2  A    between atoms: C2_3  and  C3_4 
ROOT
ATOM      1  C3  UNL d   1       0.082   0.728   0.094  0.00  0.00    -0.075 A 
ATOM      2  C4  UNL d   1      -0.602  -0.491   0.216  0.00  0.00     0.002 A 
ATOM      3  C5  UNL d   1      -0.551  -1.214   1.408  0.00  0.00     0.002 A 
ATOM      4  C6  UNL d   1       0.189  -0.736   2.486  0.00  0.00    -0.004 A 
ATOM      5  C7  UNL d   1       0.886   0.465   2.370  0.00  0.00     0.002 A 
ATOM      6  C8  UNL d   1       0.834   1.194   1.181  0.00  0.00     0.002 A 
ENDROOT
BRANCH   1   7
ATOM      7  C2  UNL d   1       0.008   1.530  -1.183  0.00  0.00     0.056 C 
BRANCH   7   8
ATOM      8  C1  UNL d   1      -1.421   1.825  -1.653  0.00  0.00     0.007 C 
ATOM      9  C   UNL d   1      -1.892   3.229  -1.298  0.00  0.00     0.009 C 
ENDBRANCH   7   8
ENDBRANCH   1   7
TORSDOF 2
ENDMDL
