MODEL 1
REMARK minimizedAffinity -1.2035563
REMARK minimizedRMSD -1
REMARK  2 active torsions:
REMARK  status: ('A' for Active; 'I' for Inactive)
REMARK    1  A    between atoms: C1_2  and  C2_3 
REMARK    2  A    between atoms: C2_3  and  C3_4 
ROOT
ATOM      1  C3  UNL d   1       0.310   0.274  -0.816  0.00  0.00    -0.075 A 
ATOM      2  C4  UNL d   1      -0.374   0.391   0.403  0.00  0.00     0.002 A 
ATOM      3  C5  UNL d   1      -0.236  -0.587   1.389  0.00  0.00     0.002 A 
ATOM      4  C6  UNL d   1       0.578  -1.696   1.166  0.00  0.00    -0.004 A 
ATOM      5  C7  UNL d   1       1.249  -1.830  -0.048  0.00  0.00     0.002 A 
ATOM      6  C8  UNL d   1       1.116  -0.851  -1.034  0.00  0.00     0.002 A 
ENDROOT
BRANCH   1   7
ATOM      7  C2  UNL d   1       0.188   1.343  -1.875  0.00  0.00     0.056 C 
BRANCH   7   8
ATOM      8  C1  UNL d   1      -1.226   1.913  -2.026  0.00  0.00     0.007 C 
ATOM      9  C   UNL d   1      -1.242   3.388  -2.404  0.00  0.00     0.009 C 
ENDBRANCH   7   8
ENDBRANCH   1   7
TORSDOF 2
ENDMDL
