MODEL 1
REMARK minimizedAffinity -3.09059644
REMARK minimizedRMSD -1
REMARK  2 active torsions:
REMARK  status: ('A' for Active; 'I' for Inactive)
REMARK    1  A    between atoms: C2'_3  and  C1'_4 
REMARK    2  A    between atoms: C1'_4  and  C1_5 
ROOT
ATOM      1  C1  I4B d   1      -0.917   0.049   0.557  0.00  0.00    -0.075 A 
ATOM      2  C2  I4B d   1      -0.646   0.939  -0.452  0.00  0.00     0.003 A 
ATOM      3  C3  I4B d   1       0.378   0.662  -1.391  0.00  0.00     0.002 A 
ATOM      4  C4  I4B d   1       1.133  -0.485  -1.254  0.00  0.00    -0.004 A 
ATOM      5  C5  I4B d   1       0.842  -1.397  -0.244  0.00  0.00     0.002 A 
ATOM      6  C6  I4B d   1      -0.198  -1.135   0.660  0.00  0.00     0.003 A 
ENDROOT
BRANCH   1   7
ATOM      7  C1' I4B d   1      -1.982   0.389   1.551  0.00  0.00     0.060 C 
BRANCH   7   8
ATOM      8  C2' I4B d   1      -1.307   0.959   2.782  0.00  0.00    -0.013 C 
ATOM      9  C4' I4B d   1      -1.741   2.380   3.032  0.00  0.00     0.013 C 
ATOM     10  C3' I4B d   1      -1.645   0.077   3.946  0.00  0.00     0.013 C 
ENDBRANCH   7   8
ENDBRANCH   1   7
TORSDOF 2
ENDMDL
