MODEL 1
REMARK minimizedAffinity -2.42108679
REMARK minimizedRMSD -1
REMARK  2 active torsions:
REMARK  status: ('A' for Active; 'I' for Inactive)
REMARK    1  A    between atoms: C2'_3  and  C1'_4 
REMARK    2  A    between atoms: C1'_4  and  C1_5 
ROOT
ATOM      1  C1  I4B d   1      -0.406  -0.011   0.454  0.00  0.00    -0.075 A 
ATOM      2  C2  I4B d   1       0.207   0.485  -0.670  0.00  0.00     0.003 A 
ATOM      3  C3  I4B d   1       1.154  -0.300  -1.371  0.00  0.00     0.002 A 
ATOM      4  C4  I4B d   1       1.494  -1.547  -0.888  0.00  0.00    -0.004 A 
ATOM      5  C5  I4B d   1       0.855  -2.058   0.238  0.00  0.00     0.002 A 
ATOM      6  C6  I4B d   1      -0.110  -1.291   0.906  0.00  0.00     0.003 A 
ENDROOT
BRANCH   1   7
ATOM      7  C1' I4B d   1      -1.377   0.857   1.188  0.00  0.00     0.060 C 
BRANCH   7   8
ATOM      8  C2' I4B d   1      -1.646   0.220   2.536  0.00  0.00    -0.013 C 
ATOM      9  C4' I4B d   1      -1.394   1.191   3.659  0.00  0.00     0.013 C 
ATOM     10  C3' I4B d   1      -3.066  -0.262   2.545  0.00  0.00     0.013 C 
ENDBRANCH   7   8
ENDBRANCH   1   7
TORSDOF 2
ENDMDL
