MODEL 1
REMARK minimizedAffinity -1.88731933
REMARK minimizedRMSD -1
REMARK  2 active torsions:
REMARK  status: ('A' for Active; 'I' for Inactive)
REMARK    1  A    between atoms: C2'_3  and  C1'_4 
REMARK    2  A    between atoms: C1'_4  and  C1_5 
ROOT
ATOM      1  C1  I4B d   1      -0.028  -0.200   0.313  0.00  0.00    -0.075 A 
ATOM      2  C2  I4B d   1       0.290  -0.212  -1.023  0.00  0.00     0.003 A 
ATOM      3  C3  I4B d   1       1.123  -1.230  -1.547  0.00  0.00     0.002 A 
ATOM      4  C4  I4B d   1       1.655  -2.178  -0.698  0.00  0.00    -0.004 A 
ATOM      5  C5  I4B d   1       1.313  -2.177   0.651  0.00  0.00     0.002 A 
ATOM      6  C6  I4B d   1       0.457  -1.189   1.158  0.00  0.00     0.003 A 
ENDROOT
BRANCH   1   7
ATOM      7  C1' I4B d   1      -0.884   0.908   0.839  0.00  0.00     0.060 C 
BRANCH   7   8
ATOM      8  C2' I4B d   1      -1.257   0.571   2.269  0.00  0.00    -0.013 C 
ATOM      9  C4' I4B d   1      -1.071   1.759   3.175  0.00  0.00     0.013 C 
ATOM     10  C3' I4B d   1      -2.680   0.100   2.277  0.00  0.00     0.013 C 
ENDBRANCH   7   8
ENDBRANCH   1   7
TORSDOF 2
ENDMDL
