MODEL 1
REMARK minimizedAffinity -3.85843801
REMARK minimizedRMSD -1
REMARK  2 active torsions:
REMARK  status: ('A' for Active; 'I' for Inactive)
REMARK    1  A    between atoms: C2'_3  and  C1'_4 
REMARK    2  A    between atoms: C1'_4  and  C1_5 
ROOT
ATOM      1  C1  I4B d   1      -0.466   0.106   0.327  0.00  0.00    -0.075 A 
ATOM      2  C2  I4B d   1       0.302   0.841  -0.541  0.00  0.00     0.003 A 
ATOM      3  C3  I4B d   1       1.433   0.257  -1.162  0.00  0.00     0.002 A 
ATOM      4  C4  I4B d   1       1.785  -1.040  -0.852  0.00  0.00    -0.004 A 
ATOM      5  C5  I4B d   1       0.991  -1.792   0.010  0.00  0.00     0.002 A 
ATOM      6  C6  I4B d   1      -0.148  -1.220   0.594  0.00  0.00     0.003 A 
ENDROOT
BRANCH   1   7
ATOM      7  C1' I4B d   1      -1.634   0.764   0.991  0.00  0.00     0.060 C 
BRANCH   7   8
ATOM      8  C2' I4B d   1      -1.853   0.086   2.328  0.00  0.00    -0.013 C 
ATOM      9  C4' I4B d   1      -1.603   1.037   3.469  0.00  0.00     0.013 C 
ATOM     10  C3' I4B d   1      -3.258  -0.436   2.357  0.00  0.00     0.013 C 
ENDBRANCH   7   8
ENDBRANCH   1   7
TORSDOF 2
ENDMDL
