MODEL 1
REMARK minimizedAffinity -4.74563885
REMARK minimizedRMSD -1
REMARK  2 active torsions:
REMARK  status: ('A' for Active; 'I' for Inactive)
REMARK    1  A    between atoms: C2'_3  and  C1'_4 
REMARK    2  A    between atoms: C1'_4  and  C1_5 
ROOT
ATOM      1  C1  I4B d   1       1.420  -0.489  -0.574  0.00  0.00    -0.075 A 
ATOM      2  C2  I4B d   1       2.215  -1.453  -1.142  0.00  0.00     0.003 A 
ATOM      3  C3  I4B d   1       2.649  -1.320  -2.482  0.00  0.00     0.002 A 
ATOM      4  C4  I4B d   1       2.228  -0.239  -3.229  0.00  0.00    -0.004 A 
ATOM      5  C5  I4B d   1       1.441   0.750  -2.645  0.00  0.00     0.002 A 
ATOM      6  C6  I4B d   1       1.045   0.631  -1.305  0.00  0.00     0.003 A 
ENDROOT
BRANCH   1   7
ATOM      7  C1' I4B d   1       0.952  -0.678   0.834  0.00  0.00     0.060 C 
BRANCH   7   8
ATOM      8  C2' I4B d   1      -0.501  -1.105   0.790  0.00  0.00    -0.013 C 
ATOM      9  C4' I4B d   1      -1.366  -0.034   0.178  0.00  0.00     0.013 C 
ATOM     10  C3' I4B d   1      -0.584  -2.381   0.007  0.00  0.00     0.013 C 
ENDBRANCH   7   8
ENDBRANCH   1   7
TORSDOF 2
ENDMDL
