MODEL 1
REMARK minimizedAffinity 0.57116425
REMARK minimizedRMSD -1
REMARK  2 active torsions:
REMARK  status: ('A' for Active; 'I' for Inactive)
REMARK    1  A    between atoms: C2'_3  and  C1'_4 
REMARK    2  A    between atoms: C1'_4  and  C1_5 
ROOT
ATOM      1  C1  I4B d   1       1.383   0.088  -2.189  0.00  0.00    -0.075 A 
ATOM      2  C2  I4B d   1       0.425   0.366  -1.247  0.00  0.00     0.003 A 
ATOM      3  C3  I4B d   1       0.216  -0.518  -0.161  0.00  0.00     0.002 A 
ATOM      4  C4  I4B d   1       0.948  -1.686  -0.084  0.00  0.00    -0.004 A 
ATOM      5  C5  I4B d   1       1.935  -1.954  -1.028  0.00  0.00     0.002 A 
ATOM      6  C6  I4B d   1       2.163  -1.056  -2.081  0.00  0.00     0.003 A 
ENDROOT
BRANCH   1   7
ATOM      7  C1' I4B d   1       1.555   1.027  -3.341  0.00  0.00     0.060 C 
BRANCH   7   8
ATOM      8  C2' I4B d   1       2.002   0.217  -4.541  0.00  0.00    -0.013 C 
ATOM      9  C4' I4B d   1       1.152   0.515  -5.748  0.00  0.00     0.013 C 
ATOM     10  C3' I4B d   1       3.444   0.534  -4.803  0.00  0.00     0.013 C 
ENDBRANCH   7   8
ENDBRANCH   1   7
TORSDOF 2
ENDMDL
