MODEL 1
REMARK minimizedAffinity -3.66272354
REMARK minimizedRMSD -1
REMARK  2 active torsions:
REMARK  status: ('A' for Active; 'I' for Inactive)
REMARK    1  A    between atoms: C2'_3  and  C1'_4 
REMARK    2  A    between atoms: C1'_4  and  C1_5 
ROOT
ATOM      1  C1  I4B d   1       1.199  -0.190  -1.077  0.00  0.00    -0.075 A 
ATOM      2  C2  I4B d   1       2.083  -0.348  -2.114  0.00  0.00     0.003 A 
ATOM      3  C3  I4B d   1       2.171   0.632  -3.132  0.00  0.00     0.002 A 
ATOM      4  C4  I4B d   1       1.326   1.722  -3.100  0.00  0.00    -0.004 A 
ATOM      5  C5  I4B d   1       0.446   1.893  -2.035  0.00  0.00     0.002 A 
ATOM      6  C6  I4B d   1       0.390   0.938  -1.010  0.00  0.00     0.003 A 
ENDROOT
BRANCH   1   7
ATOM      7  C1' I4B d   1       1.109  -1.260  -0.036  0.00  0.00     0.060 C 
BRANCH   7   8
ATOM      8  C2' I4B d   1      -0.346  -1.663   0.095  0.00  0.00    -0.013 C 
ATOM      9  C4' I4B d   1      -0.478  -3.123   0.439  0.00  0.00     0.013 C 
ATOM     10  C3' I4B d   1      -0.972  -0.800   1.149  0.00  0.00     0.013 C 
ENDBRANCH   7   8
ENDBRANCH   1   7
TORSDOF 2
ENDMDL
