MODEL 1
REMARK minimizedAffinity 0.565432847
REMARK minimizedRMSD -1
REMARK  2 active torsions:
REMARK  status: ('A' for Active; 'I' for Inactive)
REMARK    1  A    between atoms: C2'_3  and  C1'_4 
REMARK    2  A    between atoms: C1'_4  and  C1_5 
ROOT
ATOM      1  C1  I4B d   1      -1.060   0.383   0.622  0.00  0.00    -0.075 A 
ATOM      2  C2  I4B d   1      -1.062   1.510  -0.162  0.00  0.00     0.003 A 
ATOM      3  C3  I4B d   1      -0.047   1.707  -1.129  0.00  0.00     0.002 A 
ATOM      4  C4  I4B d   1       0.972   0.784  -1.243  0.00  0.00    -0.004 A 
ATOM      5  C5  I4B d   1       0.960  -0.369  -0.463  0.00  0.00     0.002 A 
ATOM      6  C6  I4B d   1      -0.069  -0.578   0.467  0.00  0.00     0.003 A 
ENDROOT
BRANCH   1   7
ATOM      7  C1' I4B d   1      -2.129   0.222   1.656  0.00  0.00     0.060 C 
BRANCH   7   8
ATOM      8  C2' I4B d   1      -1.696   0.978   2.896  0.00  0.00    -0.013 C 
ATOM      9  C4' I4B d   1      -2.508   2.233   3.081  0.00  0.00     0.013 C 
ATOM     10  C3' I4B d   1      -1.843   0.059   4.072  0.00  0.00     0.013 C 
ENDBRANCH   7   8
ENDBRANCH   1   7
TORSDOF 2
ENDMDL
