MODEL 1
REMARK minimizedAffinity -1.66017056
REMARK minimizedRMSD -1
REMARK  2 active torsions:
REMARK  status: ('A' for Active; 'I' for Inactive)
REMARK    1  A    between atoms: C2'_3  and  C1'_4 
REMARK    2  A    between atoms: C1'_4  and  C1_5 
ROOT
ATOM      1  C1  I4B d   1      -0.391  -0.295   0.422  0.00  0.00    -0.075 A 
ATOM      2  C2  I4B d   1       0.200  -1.506   0.678  0.00  0.00     0.003 A 
ATOM      3  C3  I4B d   1       1.202  -2.008  -0.187  0.00  0.00     0.002 A 
ATOM      4  C4  I4B d   1       1.545  -1.293  -1.317  0.00  0.00    -0.004 A 
ATOM      5  C5  I4B d   1       0.960  -0.053  -1.563  0.00  0.00     0.002 A 
ATOM      6  C6  I4B d   1      -0.005   0.455  -0.682  0.00  0.00     0.003 A 
ENDROOT
BRANCH   1   7
ATOM      7  C1' I4B d   1      -1.470   0.189   1.338  0.00  0.00     0.060 C 
BRANCH   7   8
ATOM      8  C2' I4B d   1      -0.816   0.656   2.623  0.00  0.00    -0.013 C 
ATOM      9  C4' I4B d   1      -0.497   2.126   2.570  0.00  0.00     0.013 C 
ATOM     10  C3' I4B d   1      -1.748   0.345   3.756  0.00  0.00     0.013 C 
ENDBRANCH   7   8
ENDBRANCH   1   7
TORSDOF 2
ENDMDL
