MODEL 1
REMARK minimizedAffinity -4.53029871
REMARK minimizedRMSD -1
REMARK  2 active torsions:
REMARK  status: ('A' for Active; 'I' for Inactive)
REMARK    1  A    between atoms: C2'_3  and  C1'_4 
REMARK    2  A    between atoms: C1'_4  and  C1_5 
ROOT
ATOM      1  C1  I4B d   1      -0.408   0.049   0.261  0.00  0.00    -0.075 A 
ATOM      2  C2  I4B d   1       0.030  -1.241   0.090  0.00  0.00     0.003 A 
ATOM      3  C3  I4B d   1       1.195  -1.504  -0.670  0.00  0.00     0.002 A 
ATOM      4  C4  I4B d   1       1.859  -0.459  -1.279  0.00  0.00    -0.004 A 
ATOM      5  C5  I4B d   1       1.427   0.850  -1.087  0.00  0.00     0.002 A 
ATOM      6  C6  I4B d   1       0.293   1.107  -0.302  0.00  0.00     0.003 A 
ENDROOT
BRANCH   1   7
ATOM      7  C1' I4B d   1      -1.661   0.287   1.042  0.00  0.00     0.060 C 
BRANCH   7   8
ATOM      8  C2' I4B d   1      -1.290   1.047   2.299  0.00  0.00    -0.013 C 
ATOM      9  C4' I4B d   1      -1.902   2.423   2.305  0.00  0.00     0.013 C 
ATOM     10  C3' I4B d   1      -1.752   0.244   3.478  0.00  0.00     0.013 C 
ENDBRANCH   7   8
ENDBRANCH   1   7
TORSDOF 2
ENDMDL
