MODEL 1
REMARK minimizedAffinity -1.50296247
REMARK minimizedRMSD -1
REMARK  1 active torsions:
REMARK  status: ('A' for Active; 'I' for Inactive)
REMARK    1  A    between atoms: C1_2  and  C2_3 
ROOT
ATOM      1  C2  UNL d   1       0.405   0.136  -0.773  0.00  0.00    -0.081 A 
ATOM      2  C3  UNL d   1       1.152   0.346   0.392  0.00  0.00     0.006 A 
ATOM      3  C4  UNL d   1       0.620   0.022   1.642  0.00  0.00     0.002 A 
ATOM      4  C5  UNL d   1      -0.664  -0.524   1.748  0.00  0.00    -0.080 A 
ATOM      5  C6  UNL d   1      -1.235  -0.903   3.082  0.00  0.00     0.076 C 
ATOM      6  C7  UNL d   1      -1.417  -0.717   0.585  0.00  0.00     0.002 A 
ATOM      7  C8  UNL d   1      -0.886  -0.393  -0.665  0.00  0.00     0.006 A 
ENDROOT
BRANCH   1   8
ATOM      8  C1  UNL d   1       1.000   0.423  -2.128  0.00  0.00     0.054 C 
ATOM      9  C   UNL d   1       1.122  -0.846  -2.959  0.00  0.00     0.018 C 
ENDBRANCH   1   8
TORSDOF 1
ENDMDL
