MODEL 1
REMARK minimizedAffinity -4.60534668
REMARK minimizedRMSD -1
REMARK  1 active torsions:
REMARK  status: ('A' for Active; 'I' for Inactive)
REMARK    1  A    between atoms: C1_2  and  C2_3 
ROOT
ATOM      1  C2  UNL d   1       0.435   0.355  -0.828  0.00  0.00    -0.081 A 
ATOM      2  C3  UNL d   1       1.394   0.417   0.190  0.00  0.00     0.006 A 
ATOM      3  C4  UNL d   1       1.052   0.097   1.506  0.00  0.00     0.002 A 
ATOM      4  C5  UNL d   1      -0.252  -0.299   1.824  0.00  0.00    -0.080 A 
ATOM      5  C6  UNL d   1      -0.625  -0.675   3.227  0.00  0.00     0.076 C 
ATOM      6  C7  UNL d   1      -1.215  -0.344   0.810  0.00  0.00     0.002 A 
ATOM      7  C8  UNL d   1      -0.873  -0.023  -0.506  0.00  0.00     0.006 A 
ENDROOT
BRANCH   1   8
ATOM      8  C1  UNL d   1       0.816   0.638  -2.259  0.00  0.00     0.054 C 
ATOM      9  C   UNL d   1       0.899  -0.645  -3.074  0.00  0.00     0.018 C 
ENDBRANCH   1   8
TORSDOF 1
ENDMDL
