MODEL 1
REMARK minimizedAffinity -3.7063024
REMARK minimizedRMSD -1
REMARK  1 active torsions:
REMARK  status: ('A' for Active; 'I' for Inactive)
REMARK    1  A    between atoms: C1_2  and  C2_3 
ROOT
ATOM      1  C2  UNL d   1       0.267  -0.134  -0.431  0.00  0.00    -0.081 A 
ATOM      2  C3  UNL d   1      -1.059  -0.536  -0.228  0.00  0.00     0.006 A 
ATOM      3  C4  UNL d   1      -1.558  -0.704   1.066  0.00  0.00     0.002 A 
ATOM      4  C5  UNL d   1      -0.743  -0.465   2.177  0.00  0.00    -0.080 A 
ATOM      5  C6  UNL d   1      -1.275  -0.612   3.572  0.00  0.00     0.076 C 
ATOM      6  C7  UNL d   1       0.587  -0.080   1.975  0.00  0.00     0.002 A 
ATOM      7  C8  UNL d   1       1.087   0.087   0.681  0.00  0.00     0.006 A 
ENDROOT
BRANCH   1   8
ATOM      8  C1  UNL d   1       0.789   0.110  -1.824  0.00  0.00     0.054 C 
ATOM      9  C   UNL d   1       0.217  -0.894  -2.813  0.00  0.00     0.018 C 
ENDBRANCH   1   8
TORSDOF 1
ENDMDL
