MODEL 1
REMARK minimizedAffinity -2.41772604
REMARK minimizedRMSD -1
REMARK  1 active torsions:
REMARK  status: ('A' for Active; 'I' for Inactive)
REMARK    1  A    between atoms: C1_2  and  C2_3 
ROOT
ATOM      1  C2  UNL d   1       0.239  -0.042  -1.374  0.00  0.00    -0.081 A 
ATOM      2  C3  UNL d   1       1.340   0.049  -0.513  0.00  0.00     0.006 A 
ATOM      3  C4  UNL d   1       1.158   0.057   0.872  0.00  0.00     0.002 A 
ATOM      4  C5  UNL d   1      -0.127  -0.035   1.419  0.00  0.00    -0.080 A 
ATOM      5  C6  UNL d   1      -0.334  -0.059   2.904  0.00  0.00     0.076 C 
ATOM      6  C7  UNL d   1      -1.228  -0.108   0.559  0.00  0.00     0.002 A 
ATOM      7  C8  UNL d   1      -1.046  -0.115  -0.826  0.00  0.00     0.006 A 
ENDROOT
BRANCH   1   8
ATOM      8  C1  UNL d   1       0.437  -0.115  -2.866  0.00  0.00     0.054 C 
ATOM      9  C   UNL d   1       0.002  -1.466  -3.416  0.00  0.00     0.018 C 
ENDBRANCH   1   8
TORSDOF 1
ENDMDL
