MODEL 1
REMARK minimizedAffinity -5.17358971
REMARK minimizedRMSD -1
REMARK  1 active torsions:
REMARK  status: ('A' for Active; 'I' for Inactive)
REMARK    1  A    between atoms: C1_2  and  C2_3 
ROOT
ATOM      1  C2  UNL d   1       0.310   0.216  -0.615  0.00  0.00    -0.081 A 
ATOM      2  C3  UNL d   1      -0.997  -0.230  -0.381  0.00  0.00     0.006 A 
ATOM      3  C4  UNL d   1      -1.369  -0.703   0.879  0.00  0.00     0.002 A 
ATOM      4  C5  UNL d   1      -0.444  -0.729   1.929  0.00  0.00    -0.080 A 
ATOM      5  C6  UNL d   1      -0.838  -1.206   3.295  0.00  0.00     0.076 C 
ATOM      6  C7  UNL d   1       0.866  -0.300   1.690  0.00  0.00     0.002 A 
ATOM      7  C8  UNL d   1       1.239   0.172   0.430  0.00  0.00     0.006 A 
ENDROOT
BRANCH   1   8
ATOM      8  C1  UNL d   1       0.696   0.786  -1.956  0.00  0.00     0.054 C 
ATOM      9  C   UNL d   1       1.401  -0.252  -2.817  0.00  0.00     0.018 C 
ENDBRANCH   1   8
TORSDOF 1
ENDMDL
