MODEL 1
REMARK minimizedAffinity -4.41761732
REMARK minimizedRMSD -1
REMARK  1 active torsions:
REMARK  status: ('A' for Active; 'I' for Inactive)
REMARK    1  A    between atoms: C1_2  and  C2_3 
ROOT
ATOM      1  C2  UNL d   1      -0.082  -0.009  -0.331  0.00  0.00    -0.081 A 
ATOM      2  C3  UNL d   1      -1.453   0.058  -0.053  0.00  0.00     0.006 A 
ATOM      3  C4  UNL d   1      -1.922  -0.147   1.247  0.00  0.00     0.002 A 
ATOM      4  C5  UNL d   1      -1.030  -0.414   2.290  0.00  0.00    -0.080 A 
ATOM      5  C6  UNL d   1      -1.518  -0.606   3.695  0.00  0.00     0.076 C 
ATOM      6  C7  UNL d   1       0.338  -0.498   2.009  0.00  0.00     0.002 A 
ATOM      7  C8  UNL d   1       0.808  -0.294   0.710  0.00  0.00     0.006 A 
ENDROOT
BRANCH   1   8
ATOM      8  C1  UNL d   1       0.433   0.276  -1.719  0.00  0.00     0.054 C 
ATOM      9  C   UNL d   1       0.603  -1.007  -2.520  0.00  0.00     0.018 C 
ENDBRANCH   1   8
TORSDOF 1
ENDMDL
