MODEL 1
REMARK minimizedAffinity -5.64450693
REMARK minimizedRMSD -1
REMARK  1 active torsions:
REMARK  status: ('A' for Active; 'I' for Inactive)
REMARK    1  A    between atoms: C1_2  and  C2_3 
ROOT
ATOM      1  C2  UNL d   1      -0.017   0.164  -1.118  0.00  0.00    -0.081 A 
ATOM      2  C3  UNL d   1       1.002   0.300  -0.168  0.00  0.00     0.006 A 
ATOM      3  C4  UNL d   1       0.742   0.082   1.187  0.00  0.00     0.002 A 
ATOM      4  C5  UNL d   1      -0.539  -0.285   1.613  0.00  0.00    -0.080 A 
ATOM      5  C6  UNL d   1      -0.825  -0.552   3.061  0.00  0.00     0.076 C 
ATOM      6  C7  UNL d   1      -1.562  -0.404   0.666  0.00  0.00     0.002 A 
ATOM      7  C8  UNL d   1      -1.302  -0.185  -0.689  0.00  0.00     0.006 A 
ENDROOT
BRANCH   1   8
ATOM      8  C1  UNL d   1       0.276   0.336  -2.587  0.00  0.00     0.054 C 
ATOM      9  C   UNL d   1       0.441  -1.009  -3.279  0.00  0.00     0.018 C 
ENDBRANCH   1   8
TORSDOF 1
ENDMDL
