MODEL 1
REMARK minimizedAffinity -1.9867568
REMARK minimizedRMSD -1
REMARK  1 active torsions:
REMARK  status: ('A' for Active; 'I' for Inactive)
REMARK    1  A    between atoms: C1_2  and  C2_3 
ROOT
ATOM      1  C2  UNL d   1       0.326   0.333  -0.624  0.00  0.00    -0.081 A 
ATOM      2  C3  UNL d   1       1.179   0.436   0.482  0.00  0.00     0.006 A 
ATOM      3  C4  UNL d   1       0.741   0.051   1.751  0.00  0.00     0.002 A 
ATOM      4  C5  UNL d   1      -0.553  -0.450   1.934  0.00  0.00    -0.080 A 
ATOM      5  C6  UNL d   1      -1.025  -0.895   3.287  0.00  0.00     0.076 C 
ATOM      6  C7  UNL d   1      -1.410  -0.536   0.832  0.00  0.00     0.002 A 
ATOM      7  C8  UNL d   1      -0.973  -0.151  -0.437  0.00  0.00     0.006 A 
ENDROOT
BRANCH   1   8
ATOM      8  C1  UNL d   1       0.817   0.687  -2.005  0.00  0.00     0.054 C 
ATOM      9  C   UNL d   1       1.455  -0.514  -2.690  0.00  0.00     0.018 C 
ENDBRANCH   1   8
TORSDOF 1
ENDMDL
