MODEL 1
REMARK minimizedAffinity -4.58840704
REMARK minimizedRMSD -1
REMARK  1 active torsions:
REMARK  status: ('A' for Active; 'I' for Inactive)
REMARK    1  A    between atoms: C1_2  and  C2_3 
ROOT
ATOM      1  C2  UNL d   1       0.118  -0.324  -0.537  0.00  0.00    -0.081 A 
ATOM      2  C3  UNL d   1       1.059   0.058   0.428  0.00  0.00     0.006 A 
ATOM      3  C4  UNL d   1       0.727   0.044   1.784  0.00  0.00     0.002 A 
ATOM      4  C5  UNL d   1      -0.547  -0.359   2.199  0.00  0.00    -0.080 A 
ATOM      5  C6  UNL d   1      -0.906  -0.408   3.655  0.00  0.00     0.076 C 
ATOM      6  C7  UNL d   1      -1.492  -0.723   1.235  0.00  0.00     0.002 A 
ATOM      7  C8  UNL d   1      -1.161  -0.709  -0.122  0.00  0.00     0.006 A 
ENDROOT
BRANCH   1   8
ATOM      8  C1  UNL d   1       0.494  -0.371  -1.996  0.00  0.00     0.054 C 
ATOM      9  C   UNL d   1       0.552  -1.804  -2.506  0.00  0.00     0.018 C 
ENDBRANCH   1   8
TORSDOF 1
ENDMDL
