MODEL 1
REMARK minimizedAffinity -3.89738727
REMARK minimizedRMSD -1
REMARK  1 active torsions:
REMARK  status: ('A' for Active; 'I' for Inactive)
REMARK    1  A    between atoms: C1_2  and  C2_3 
ROOT
ATOM      1  C2  UNL d   1       0.279  -0.154  -0.896  0.00  0.00    -0.081 A 
ATOM      2  C3  UNL d   1       1.056   0.657  -0.060  0.00  0.00     0.006 A 
ATOM      3  C4  UNL d   1       0.828   0.677   1.318  0.00  0.00     0.002 A 
ATOM      4  C5  UNL d   1      -0.175  -0.118   1.883  0.00  0.00    -0.080 A 
ATOM      5  C6  UNL d   1      -0.410  -0.129   3.365  0.00  0.00     0.076 C 
ATOM      6  C7  UNL d   1      -0.963  -0.915   1.046  0.00  0.00     0.002 A 
ATOM      7  C8  UNL d   1      -0.735  -0.936  -0.332  0.00  0.00     0.006 A 
ENDROOT
BRANCH   1   8
ATOM      8  C1  UNL d   1       0.566  -0.227  -2.374  0.00  0.00     0.054 C 
ATOM      9  C   UNL d   1       0.470  -1.657  -2.886  0.00  0.00     0.018 C 
ENDBRANCH   1   8
TORSDOF 1
ENDMDL
