MODEL 1
REMARK minimizedAffinity 0.96850127
REMARK minimizedRMSD -1
REMARK  1 active torsions:
REMARK  status: ('A' for Active; 'I' for Inactive)
REMARK    1  A    between atoms: C1_2  and  C2_3 
ROOT
ATOM      1  C2  UNL d   1      -0.429  -0.113   1.638  0.00  0.00    -0.081 A 
ATOM      2  C3  UNL d   1       0.547  -1.057   1.296  0.00  0.00     0.006 A 
ATOM      3  C4  UNL d   1       0.815  -1.344  -0.044  0.00  0.00     0.002 A 
ATOM      4  C5  UNL d   1       0.119  -0.687  -1.065  0.00  0.00    -0.080 A 
ATOM      5  C6  UNL d   1       0.419  -0.964  -2.508  0.00  0.00     0.076 C 
ATOM      6  C7  UNL d   1      -0.868   0.243  -0.723  0.00  0.00     0.002 A 
ATOM      7  C8  UNL d   1      -1.138   0.531   0.617  0.00  0.00     0.006 A 
ENDROOT
BRANCH   1   8
ATOM      8  C1  UNL d   1      -0.676   0.247   3.081  0.00  0.00     0.054 C 
ATOM      9  C   UNL d   1       0.058   1.523   3.467  0.00  0.00     0.018 C 
ENDBRANCH   1   8
TORSDOF 1
ENDMDL
