MODEL 1
REMARK minimizedAffinity 6.95496702
REMARK minimizedRMSD -1
REMARK  0 active torsions:
REMARK  status: ('A' for Active; 'I' for Inactive)
ROOT
ATOM      1  C   UNL d   1       5.144   2.481   4.366  0.00  0.00     0.172 C 
ATOM      2  N   UNL d   1       5.353   3.875   4.053  0.00  0.00    -0.070 N 
ATOM      3  C1  UNL d   1       5.997   4.784   4.849  0.00  0.00    -0.004 A 
ATOM      4  C2  UNL d   1       5.986   5.998   4.197  0.00  0.00    -0.047 A 
ATOM      5  C3  UNL d   1       5.312   5.812   2.967  0.00  0.00    -0.047 A 
ATOM      6  C4  UNL d   1       4.931   4.489   2.903  0.00  0.00    -0.004 A 
ENDROOT
TORSDOF 0
ENDMDL
