MODEL 1
REMARK minimizedAffinity 4.4532094
REMARK minimizedRMSD -1
REMARK  0 active torsions:
REMARK  status: ('A' for Active; 'I' for Inactive)
ROOT
ATOM      1  C   UNL d   1       4.194  -0.268  -5.961  0.00  0.00     0.172 C 
ATOM      2  N   UNL d   1       2.958  -1.014  -5.976  0.00  0.00    -0.070 N 
ATOM      3  C1  UNL d   1       2.849  -2.379  -5.980  0.00  0.00    -0.004 A 
ATOM      4  C2  UNL d   1       1.508  -2.695  -5.994  0.00  0.00    -0.047 A 
ATOM      5  C3  UNL d   1       0.786  -1.478  -5.999  0.00  0.00    -0.047 A 
ATOM      6  C4  UNL d   1       1.708  -0.453  -5.987  0.00  0.00    -0.004 A 
ENDROOT
TORSDOF 0
ENDMDL
