MODEL 1
REMARK minimizedAffinity 10.9314423
REMARK minimizedRMSD -1
REMARK  0 active torsions:
REMARK  status: ('A' for Active; 'I' for Inactive)
ROOT
ATOM      1  C   UNL d   1       1.361  -2.035   4.152  0.00  0.00     0.172 C 
ATOM      2  N   UNL d   1       0.692  -1.136   3.242  0.00  0.00    -0.070 N 
ATOM      3  C1  UNL d   1      -0.234  -1.497   2.300  0.00  0.00    -0.004 A 
ATOM      4  C2  UNL d   1      -0.632  -0.354   1.640  0.00  0.00    -0.047 A 
ATOM      5  C3  UNL d   1       0.080   0.731   2.204  0.00  0.00    -0.047 A 
ATOM      6  C4  UNL d   1       0.893   0.218   3.194  0.00  0.00    -0.004 A 
ENDROOT
TORSDOF 0
ENDMDL
