MODEL 1
REMARK minimizedAffinity 4.63677025
REMARK minimizedRMSD -1
REMARK  0 active torsions:
REMARK  status: ('A' for Active; 'I' for Inactive)
ROOT
ATOM      1  C   UNL d   1       1.798  -1.584   4.529  0.00  0.00     0.172 C 
ATOM      2  N   UNL d   1       1.105  -0.638   3.686  0.00  0.00    -0.070 N 
ATOM      3  C1  UNL d   1       0.666  -0.877   2.411  0.00  0.00    -0.004 A 
ATOM      4  C2  UNL d   1       0.057   0.271   1.952  0.00  0.00    -0.047 A 
ATOM      5  C3  UNL d   1       0.134   1.234   2.987  0.00  0.00    -0.047 A 
ATOM      6  C4  UNL d   1       0.787   0.644   4.049  0.00  0.00    -0.004 A 
ENDROOT
TORSDOF 0
ENDMDL
