MODEL 1
REMARK minimizedAffinity 0.322138131
REMARK minimizedRMSD -1
REMARK  0 active torsions:
REMARK  status: ('A' for Active; 'I' for Inactive)
ROOT
ATOM      1  C   UNL d   1       2.947   1.829   2.972  0.00  0.00     0.172 C 
ATOM      2  N   UNL d   1       1.834   0.920   3.119  0.00  0.00    -0.070 N 
ATOM      3  C1  UNL d   1       0.519   1.224   2.888  0.00  0.00    -0.004 A 
ATOM      4  C2  UNL d   1      -0.226   0.093   3.140  0.00  0.00    -0.047 A 
ATOM      5  C3  UNL d   1       0.672  -0.926   3.537  0.00  0.00    -0.047 A 
ATOM      6  C4  UNL d   1       1.941  -0.387   3.516  0.00  0.00    -0.004 A 
ENDROOT
TORSDOF 0
ENDMDL
