MODEL 1
REMARK minimizedAffinity 7.86941433
REMARK minimizedRMSD -1
REMARK  0 active torsions:
REMARK  status: ('A' for Active; 'I' for Inactive)
ROOT
ATOM      1  C   UNL d   1      -1.633  -0.225   2.544  0.00  0.00     0.172 C 
ATOM      2  N   UNL d   1      -0.232  -0.390   2.854  0.00  0.00    -0.070 N 
ATOM      3  C1  UNL d   1       0.290  -1.312   3.722  0.00  0.00    -0.004 A 
ATOM      4  C2  UNL d   1       1.658  -1.147   3.740  0.00  0.00    -0.047 A 
ATOM      5  C3  UNL d   1       1.969  -0.089   2.853  0.00  0.00    -0.047 A 
ATOM      6  C4  UNL d   1       0.780   0.362   2.319  0.00  0.00    -0.004 A 
ENDROOT
TORSDOF 0
ENDMDL
