MODEL 1
REMARK minimizedAffinity 8.99870968
REMARK minimizedRMSD -1
REMARK  0 active torsions:
REMARK  status: ('A' for Active; 'I' for Inactive)
ROOT
ATOM      1  C   UNL d   1      -1.105  -4.110  -5.987  0.00  0.00     0.172 C 
ATOM      2  N   UNL d   1      -0.846  -2.875  -5.285  0.00  0.00    -0.070 N 
ATOM      3  C1  UNL d   1      -1.199  -2.604  -3.990  0.00  0.00    -0.004 A 
ATOM      4  C2  UNL d   1      -0.774  -1.326  -3.695  0.00  0.00    -0.047 A 
ATOM      5  C3  UNL d   1      -0.146  -0.811  -4.854  0.00  0.00    -0.047 A 
ATOM      6  C4  UNL d   1      -0.204  -1.791  -5.823  0.00  0.00    -0.004 A 
ENDROOT
TORSDOF 0
ENDMDL
