MODEL 1
REMARK minimizedAffinity 2.40361047
REMARK minimizedRMSD -1
REMARK  0 active torsions:
REMARK  status: ('A' for Active; 'I' for Inactive)
ROOT
ATOM      1  C   UNL d   1      -2.457  -0.858   2.644  0.00  0.00     0.172 C 
ATOM      2  N   UNL d   1      -1.061  -0.644   2.947  0.00  0.00    -0.070 N 
ATOM      3  C1  UNL d   1      -0.217  -1.564   3.509  0.00  0.00    -0.004 A 
ATOM      4  C2  UNL d   1       1.024  -0.976   3.634  0.00  0.00    -0.047 A 
ATOM      5  C3  UNL d   1       0.921   0.342   3.131  0.00  0.00    -0.047 A 
ATOM      6  C4  UNL d   1      -0.381   0.521   2.712  0.00  0.00    -0.004 A 
ENDROOT
TORSDOF 0
ENDMDL
