MODEL 1
REMARK minimizedAffinity 6.3636055
REMARK minimizedRMSD -1
REMARK  0 active torsions:
REMARK  status: ('A' for Active; 'I' for Inactive)
ROOT
ATOM      1  C   UNL d   1      -1.020  -1.442  -3.327  0.00  0.00     0.172 C 
ATOM      2  N   UNL d   1      -0.005  -1.193  -4.324  0.00  0.00    -0.070 N 
ATOM      3  C1  UNL d   1       0.538   0.028  -4.622  0.00  0.00    -0.004 A 
ATOM      4  C2  UNL d   1       1.467  -0.156  -5.623  0.00  0.00    -0.047 A 
ATOM      5  C3  UNL d   1       1.481  -1.536  -5.938  0.00  0.00    -0.047 A 
ATOM      6  C4  UNL d   1       0.561  -2.154  -5.119  0.00  0.00    -0.004 A 
ENDROOT
TORSDOF 0
ENDMDL
