MODEL 1
REMARK minimizedAffinity 7.15069675
REMARK minimizedRMSD -1
REMARK  0 active torsions:
REMARK  status: ('A' for Active; 'I' for Inactive)
ROOT
ATOM      1  C   UNL d   1       5.827  -5.065   5.953  0.00  0.00     0.172 C 
ATOM      2  N   UNL d   1       5.267  -3.734   5.961  0.00  0.00    -0.070 N 
ATOM      3  C1  UNL d   1       5.984  -2.567   5.986  0.00  0.00    -0.004 A 
ATOM      4  C2  UNL d   1       5.087  -1.521   5.984  0.00  0.00    -0.047 A 
ATOM      5  C3  UNL d   1       3.786  -2.078   5.959  0.00  0.00    -0.047 A 
ATOM      6  C4  UNL d   1       3.927  -3.450   5.945  0.00  0.00    -0.004 A 
ENDROOT
TORSDOF 0
ENDMDL
