MODEL 1
REMARK minimizedAffinity 4.54187965
REMARK minimizedRMSD -1
REMARK  0 active torsions:
REMARK  status: ('A' for Active; 'I' for Inactive)
ROOT
ATOM      1  C   UNL d   1      -3.713  -1.447   3.059  0.00  0.00     0.172 C 
ATOM      2  N   UNL d   1      -2.769  -0.357   2.977  0.00  0.00    -0.070 N 
ATOM      3  C1  UNL d   1      -2.993   0.850   2.370  0.00  0.00    -0.004 A 
ATOM      4  C2  UNL d   1      -1.853   1.610   2.508  0.00  0.00    -0.047 A 
ATOM      5  C3  UNL d   1      -0.910   0.834   3.222  0.00  0.00    -0.047 A 
ATOM      6  C4  UNL d   1      -1.503  -0.380   3.500  0.00  0.00    -0.004 A 
ENDROOT
TORSDOF 0
ENDMDL
