MODEL 1
REMARK minimizedAffinity 4.15651989
REMARK minimizedRMSD -1
REMARK  0 active torsions:
REMARK  status: ('A' for Active; 'I' for Inactive)
ROOT
ATOM      1  C   UNL d   1       3.475   0.008  -5.274  0.00  0.00     0.172 C 
ATOM      2  N   UNL d   1       2.111  -0.464  -5.271  0.00  0.00    -0.070 N 
ATOM      3  C1  UNL d   1       1.629  -1.520  -5.999  0.00  0.00    -0.004 A 
ATOM      4  C2  UNL d   1       0.286  -1.647  -5.719  0.00  0.00    -0.047 A 
ATOM      5  C3  UNL d   1      -0.052  -0.633  -4.792  0.00  0.00    -0.047 A 
ATOM      6  C4  UNL d   1       1.096   0.085  -4.532  0.00  0.00    -0.004 A 
ENDROOT
TORSDOF 0
ENDMDL
