MODEL 1
REMARK minimizedAffinity -0.152636945
REMARK minimizedRMSD -1
REMARK  1 active torsions:
REMARK  status: ('A' for Active; 'I' for Inactive)
REMARK    1  A    between atoms: C1_2  and  C2_3 
ROOT
ATOM      1  C2  UNL d   1       3.158   1.919   0.166  0.00  0.00    -0.081 A 
ATOM      2  C3  UNL d   1       3.761   2.678   1.177  0.00  0.00     0.006 A 
ATOM      3  C4  UNL d   1       3.031   3.062   2.305  0.00  0.00     0.002 A 
ATOM      4  C5  UNL d   1       1.690   2.689   2.444  0.00  0.00    -0.080 A 
ATOM      5  C6  UNL d   1       0.904   3.069   3.663  0.00  0.00     0.076 C 
ATOM      6  C7  UNL d   1       1.083   1.946   1.426  0.00  0.00     0.002 A 
ATOM      7  C8  UNL d   1       1.812   1.561   0.298  0.00  0.00     0.006 A 
ENDROOT
BRANCH   1   8
ATOM      8  C1  UNL d   1       3.960   1.448  -1.020  0.00  0.00     0.054 C 
ATOM      9  C   UNL d   1       5.411   1.896  -0.920  0.00  0.00     0.018 C 
ENDBRANCH   1   8
TORSDOF 1
ENDMDL
