MODEL 1
REMARK minimizedAffinity 10.6965847
REMARK minimizedRMSD -1
REMARK  1 active torsions:
REMARK  status: ('A' for Active; 'I' for Inactive)
REMARK    1  A    between atoms: C1_2  and  C2_3 
ROOT
ATOM      1  C2  UNL d   1      -3.949  -4.971  -3.791  0.00  0.00    -0.081 A 
ATOM      2  C3  UNL d   1      -2.959  -5.961  -3.819  0.00  0.00     0.006 A 
ATOM      3  C4  UNL d   1      -1.967  -5.999  -2.836  0.00  0.00     0.002 A 
ATOM      4  C5  UNL d   1      -1.954  -5.055  -1.804  0.00  0.00    -0.080 A 
ATOM      5  C6  UNL d   1      -0.913  -5.103  -0.725  0.00  0.00     0.076 C 
ATOM      6  C7  UNL d   1      -2.932  -4.055  -1.785  0.00  0.00     0.002 A 
ATOM      7  C8  UNL d   1      -3.924  -4.016  -2.768  0.00  0.00     0.006 A 
ENDROOT
BRANCH   1   8
ATOM      8  C1  UNL d   1      -5.057  -4.965  -4.813  0.00  0.00     0.054 C 
ATOM      9  C   UNL d   1      -4.810  -5.999  -5.902  0.00  0.00     0.018 C 
ENDBRANCH   1   8
TORSDOF 1
ENDMDL
