MODEL 1
REMARK minimizedAffinity 5.22665644
REMARK minimizedRMSD -1
REMARK  1 active torsions:
REMARK  status: ('A' for Active; 'I' for Inactive)
REMARK    1  A    between atoms: C1_2  and  C2_3 
ROOT
ATOM      1  C2  UNL d   1       0.738   0.144  -0.459  0.00  0.00    -0.081 A 
ATOM      2  C3  UNL d   1      -0.580  -0.278  -0.677  0.00  0.00     0.006 A 
ATOM      3  C4  UNL d   1      -0.864  -1.627  -0.898  0.00  0.00     0.002 A 
ATOM      4  C5  UNL d   1       0.162  -2.578  -0.898  0.00  0.00    -0.080 A 
ATOM      5  C6  UNL d   1      -0.134  -4.034  -1.104  0.00  0.00     0.076 C 
ATOM      6  C7  UNL d   1       1.480  -2.155  -0.698  0.00  0.00     0.002 A 
ATOM      7  C8  UNL d   1       1.765  -0.806  -0.477  0.00  0.00     0.006 A 
ENDROOT
BRANCH   1   8
ATOM      8  C1  UNL d   1       1.040   1.589  -0.156  0.00  0.00     0.054 C 
ATOM      9  C   UNL d   1       0.784   1.912   1.309  0.00  0.00     0.018 C 
ENDBRANCH   1   8
TORSDOF 1
ENDMDL
