MODEL 1
REMARK minimizedAffinity 1.40483236
REMARK minimizedRMSD -1
REMARK  1 active torsions:
REMARK  status: ('A' for Active; 'I' for Inactive)
REMARK    1  A    between atoms: C1_2  and  C2_3 
ROOT
ATOM      1  C2  UNL d   1       0.653  -1.453  -0.468  0.00  0.00    -0.081 A 
ATOM      2  C3  UNL d   1       0.647  -0.058  -0.356  0.00  0.00     0.006 A 
ATOM      3  C4  UNL d   1       1.822   0.673  -0.543  0.00  0.00     0.002 A 
ATOM      4  C5  UNL d   1       3.021   0.022  -0.854  0.00  0.00    -0.080 A 
ATOM      5  C6  UNL d   1       4.284   0.797  -1.088  0.00  0.00     0.076 C 
ATOM      6  C7  UNL d   1       3.031  -1.374  -0.949  0.00  0.00     0.002 A 
ATOM      7  C8  UNL d   1       1.856  -2.105  -0.761  0.00  0.00     0.006 A 
ENDROOT
BRANCH   1   8
ATOM      8  C1  UNL d   1      -0.626  -2.239  -0.330  0.00  0.00     0.054 C 
ATOM      9  C   UNL d   1      -1.182  -2.634  -1.690  0.00  0.00     0.018 C 
ENDBRANCH   1   8
TORSDOF 1
ENDMDL
