MODEL 1
REMARK minimizedAffinity 4.72980356
REMARK minimizedRMSD -1
REMARK  1 active torsions:
REMARK  status: ('A' for Active; 'I' for Inactive)
REMARK    1  A    between atoms: C1_2  and  C2_3 
ROOT
ATOM      1  C2  UNL d   1      -0.661   1.666  -0.945  0.00  0.00    -0.081 A 
ATOM      2  C3  UNL d   1      -1.752   0.941  -1.439  0.00  0.00     0.006 A 
ATOM      3  C4  UNL d   1      -1.680   0.316  -2.686  0.00  0.00     0.002 A 
ATOM      4  C5  UNL d   1      -0.515   0.399  -3.457  0.00  0.00    -0.080 A 
ATOM      5  C6  UNL d   1      -0.415  -0.293  -4.784  0.00  0.00     0.076 C 
ATOM      6  C7  UNL d   1       0.568   1.139  -2.971  0.00  0.00     0.002 A 
ATOM      7  C8  UNL d   1       0.497   1.764  -1.725  0.00  0.00     0.006 A 
ENDROOT
BRANCH   1   8
ATOM      8  C1  UNL d   1      -0.711   2.287   0.427  0.00  0.00     0.054 C 
ATOM      9  C   UNL d   1      -1.910   1.784   1.218  0.00  0.00     0.018 C 
ENDBRANCH   1   8
TORSDOF 1
ENDMDL
