MODEL 1
REMARK minimizedAffinity 7.44391346
REMARK minimizedRMSD -1
REMARK  1 active torsions:
REMARK  status: ('A' for Active; 'I' for Inactive)
REMARK    1  A    between atoms: C1_2  and  C2_3 
ROOT
ATOM      1  C2  UNL d   1      -0.295   2.578   0.295  0.00  0.00    -0.081 A 
ATOM      2  C3  UNL d   1      -0.456   3.432  -0.803  0.00  0.00     0.006 A 
ATOM      3  C4  UNL d   1      -0.026   3.040  -2.074  0.00  0.00     0.002 A 
ATOM      4  C5  UNL d   1       0.562   1.786  -2.269  0.00  0.00    -0.080 A 
ATOM      5  C6  UNL d   1       1.000   1.341  -3.633  0.00  0.00     0.076 C 
ATOM      6  C7  UNL d   1       0.739   0.940  -1.169  0.00  0.00     0.002 A 
ATOM      7  C8  UNL d   1       0.310   1.331   0.102  0.00  0.00     0.006 A 
ENDROOT
BRANCH   1   8
ATOM      8  C1  UNL d   1      -0.815   2.971   1.654  0.00  0.00     0.054 C 
ATOM      9  C   UNL d   1      -1.430   1.781   2.376  0.00  0.00     0.018 C 
ENDBRANCH   1   8
TORSDOF 1
ENDMDL
