MODEL 1
REMARK minimizedAffinity 3.75311565
REMARK minimizedRMSD -1
REMARK  1 active torsions:
REMARK  status: ('A' for Active; 'I' for Inactive)
REMARK    1  A    between atoms: C1_2  and  C2_3 
ROOT
ATOM      1  C2  UNL d   1      -0.711   1.500  -0.872  0.00  0.00    -0.081 A 
ATOM      2  C3  UNL d   1       0.368   2.172  -1.460  0.00  0.00     0.006 A 
ATOM      3  C4  UNL d   1       0.913   1.719  -2.664  0.00  0.00     0.002 A 
ATOM      4  C5  UNL d   1       0.384   0.592  -3.302  0.00  0.00    -0.080 A 
ATOM      5  C6  UNL d   1       0.941   0.112  -4.610  0.00  0.00     0.076 C 
ATOM      6  C7  UNL d   1      -0.682  -0.090  -2.706  0.00  0.00     0.002 A 
ATOM      7  C8  UNL d   1      -1.227   0.363  -1.502  0.00  0.00     0.006 A 
ENDROOT
BRANCH   1   8
ATOM      8  C1  UNL d   1      -1.343   2.025   0.392  0.00  0.00     0.054 C 
ATOM      9  C   UNL d   1      -0.309   2.205   1.494  0.00  0.00     0.018 C 
ENDBRANCH   1   8
TORSDOF 1
ENDMDL
