MODEL 1
REMARK minimizedAffinity 12.8202219
REMARK minimizedRMSD -1
REMARK  1 active torsions:
REMARK  status: ('A' for Active; 'I' for Inactive)
REMARK    1  A    between atoms: C1_2  and  C2_3 
ROOT
ATOM      1  C2  UNL d   1       1.548  -3.881  -3.839  0.00  0.00    -0.081 A 
ATOM      2  C3  UNL d   1       1.193  -2.664  -3.246  0.00  0.00     0.006 A 
ATOM      3  C4  UNL d   1       1.193  -2.527  -1.855  0.00  0.00     0.002 A 
ATOM      4  C5  UNL d   1       1.557  -3.601  -1.036  0.00  0.00    -0.080 A 
ATOM      5  C6  UNL d   1       1.591  -3.458   0.456  0.00  0.00     0.076 C 
ATOM      6  C7  UNL d   1       1.895  -4.823  -1.628  0.00  0.00     0.002 A 
ATOM      7  C8  UNL d   1       1.894  -4.961  -3.018  0.00  0.00     0.006 A 
ENDROOT
BRANCH   1   8
ATOM      8  C1  UNL d   1       1.611  -4.013  -5.339  0.00  0.00     0.054 C 
ATOM      9  C   UNL d   1       0.382  -3.405  -6.000  0.00  0.00     0.018 C 
ENDBRANCH   1   8
TORSDOF 1
ENDMDL
