MODEL 1
REMARK minimizedAffinity 7.94292736
REMARK minimizedRMSD -1
REMARK  1 active torsions:
REMARK  status: ('A' for Active; 'I' for Inactive)
REMARK    1  A    between atoms: C1_2  and  C2_3 
ROOT
ATOM      1  C2  UNL d   1      -0.254   3.082   0.532  0.00  0.00    -0.081 A 
ATOM      2  C3  UNL d   1      -1.566   2.680   0.808  0.00  0.00     0.006 A 
ATOM      3  C4  UNL d   1      -1.875   2.052   2.017  0.00  0.00     0.002 A 
ATOM      4  C5  UNL d   1      -0.879   1.823   2.973  0.00  0.00    -0.080 A 
ATOM      5  C6  UNL d   1      -1.203   1.177   4.287  0.00  0.00     0.076 C 
ATOM      6  C7  UNL d   1       0.436   2.209   2.689  0.00  0.00     0.002 A 
ATOM      7  C8  UNL d   1       0.745   2.836   1.480  0.00  0.00     0.006 A 
ENDROOT
BRANCH   1   8
ATOM      8  C1  UNL d   1       0.070   3.817  -0.744  0.00  0.00     0.054 C 
ATOM      9  C   UNL d   1      -0.703   3.245  -1.923  0.00  0.00     0.018 C 
ENDBRANCH   1   8
TORSDOF 1
ENDMDL
