MODEL 1
REMARK minimizedAffinity 3.85174799
REMARK minimizedRMSD -1
REMARK  1 active torsions:
REMARK  status: ('A' for Active; 'I' for Inactive)
REMARK    1  A    between atoms: C1_2  and  C2_3 
ROOT
ATOM      1  C2  UNL d   1      -0.551   2.204   2.029  0.00  0.00    -0.081 A 
ATOM      2  C3  UNL d   1      -1.805   2.585   1.534  0.00  0.00     0.006 A 
ATOM      3  C4  UNL d   1      -1.934   3.070   0.231  0.00  0.00     0.002 A 
ATOM      4  C5  UNL d   1      -0.815   3.175  -0.602  0.00  0.00    -0.080 A 
ATOM      5  C6  UNL d   1      -0.945   3.665  -2.014  0.00  0.00     0.076 C 
ATOM      6  C7  UNL d   1       0.440   2.811  -0.103  0.00  0.00     0.002 A 
ATOM      7  C8  UNL d   1       0.570   2.327   1.201  0.00  0.00     0.006 A 
ENDROOT
BRANCH   1   8
ATOM      8  C1  UNL d   1      -0.418   1.620   3.412  0.00  0.00     0.054 C 
ATOM      9  C   UNL d   1       0.755   2.235   4.162  0.00  0.00     0.018 C 
ENDBRANCH   1   8
TORSDOF 1
ENDMDL
