MODEL 1
REMARK minimizedAffinity 7.81307697
REMARK minimizedRMSD -1
REMARK  1 active torsions:
REMARK  status: ('A' for Active; 'I' for Inactive)
REMARK    1  A    between atoms: C1_2  and  C2_3 
ROOT
ATOM      1  C2  UNL d   1      -0.589   3.998  -0.820  0.00  0.00    -0.081 A 
ATOM      2  C3  UNL d   1       0.385   3.023  -0.572  0.00  0.00     0.006 A 
ATOM      3  C4  UNL d   1       0.330   2.246   0.587  0.00  0.00     0.002 A 
ATOM      4  C5  UNL d   1      -0.703   2.426   1.514  0.00  0.00    -0.080 A 
ATOM      5  C6  UNL d   1      -0.791   1.578   2.748  0.00  0.00     0.076 C 
ATOM      6  C7  UNL d   1      -1.666   3.412   1.275  0.00  0.00     0.002 A 
ATOM      7  C8  UNL d   1      -1.611   4.189   0.116  0.00  0.00     0.006 A 
ENDROOT
BRANCH   1   8
ATOM      8  C1  UNL d   1      -0.569   4.793  -2.101  0.00  0.00     0.054 C 
ATOM      9  C   UNL d   1      -1.243   4.034  -3.234  0.00  0.00     0.018 C 
ENDBRANCH   1   8
TORSDOF 1
ENDMDL
