MODEL 1
REMARK minimizedAffinity 18.9232578
REMARK minimizedRMSD -1
REMARK  1 active torsions:
REMARK  status: ('A' for Active; 'I' for Inactive)
REMARK    1  A    between atoms: C1_2  and  C2_3 
ROOT
ATOM      1  C2  UNL d   1       2.044  -4.468  -1.025  0.00  0.00    -0.081 A 
ATOM      2  C3  UNL d   1       1.041  -4.097  -0.120  0.00  0.00     0.006 A 
ATOM      3  C4  UNL d   1       1.249  -3.046   0.776  0.00  0.00     0.002 A 
ATOM      4  C5  UNL d   1       2.459  -2.343   0.777  0.00  0.00    -0.080 A 
ATOM      5  C6  UNL d   1       2.684  -1.193   1.713  0.00  0.00     0.076 C 
ATOM      6  C7  UNL d   1       3.467  -2.725  -0.115  0.00  0.00     0.002 A 
ATOM      7  C8  UNL d   1       3.260  -3.776  -1.010  0.00  0.00     0.006 A 
ENDROOT
BRANCH   1   8
ATOM      8  C1  UNL d   1       1.799  -5.559  -2.036  0.00  0.00     0.054 C 
ATOM      9  C   UNL d   1       3.096  -5.999  -2.700  0.00  0.00     0.018 C 
ENDBRANCH   1   8
TORSDOF 1
ENDMDL
