MODEL 1
REMARK minimizedAffinity 15.3928013
REMARK minimizedRMSD -1
REMARK  1 active torsions:
REMARK  status: ('A' for Active; 'I' for Inactive)
REMARK    1  A    between atoms: C1_2  and  C2_3 
ROOT
ATOM      1  C2  UNL d   1      -1.574   1.782  -1.826  0.00  0.00    -0.081 A 
ATOM      2  C3  UNL d   1      -1.511   1.543  -0.448  0.00  0.00     0.006 A 
ATOM      3  C4  UNL d   1      -0.518   2.142   0.331  0.00  0.00     0.002 A 
ATOM      4  C5  UNL d   1       0.422   2.998  -0.254  0.00  0.00    -0.080 A 
ATOM      5  C6  UNL d   1       1.474   3.672   0.576  0.00  0.00     0.076 C 
ATOM      6  C7  UNL d   1       0.370   3.224  -1.633  0.00  0.00     0.002 A 
ATOM      7  C8  UNL d   1      -0.622   2.624  -2.412  0.00  0.00     0.006 A 
ENDROOT
BRANCH   1   8
ATOM      8  C1  UNL d   1      -2.682   1.188  -2.657  0.00  0.00     0.054 C 
ATOM      9  C   UNL d   1      -3.479   0.162  -1.865  0.00  0.00     0.018 C 
ENDBRANCH   1   8
TORSDOF 1
ENDMDL
