MODEL 1
REMARK minimizedAffinity -3.91376877
REMARK minimizedRMSD -1
REMARK  1 active torsions:
REMARK  status: ('A' for Active; 'I' for Inactive)
REMARK    1  A    between atoms: C1_2  and  C2_3 
ROOT
ATOM      1  C2  UNL d   1      -1.193   1.855   1.387  0.00  0.00    -0.081 A 
ATOM      2  C3  UNL d   1      -0.684   3.001   2.010  0.00  0.00     0.006 A 
ATOM      3  C4  UNL d   1       0.027   3.951   1.273  0.00  0.00     0.002 A 
ATOM      4  C5  UNL d   1       0.233   3.776  -0.100  0.00  0.00    -0.080 A 
ATOM      5  C6  UNL d   1       0.968   4.803  -0.909  0.00  0.00     0.076 C 
ATOM      6  C7  UNL d   1      -0.260   2.622  -0.719  0.00  0.00     0.002 A 
ATOM      7  C8  UNL d   1      -0.970   1.671   0.018  0.00  0.00     0.006 A 
ENDROOT
BRANCH   1   8
ATOM      8  C1  UNL d   1      -2.015   0.860   2.166  0.00  0.00     0.054 C 
ATOM      9  C   UNL d   1      -1.253   0.341   3.377  0.00  0.00     0.018 C 
ENDBRANCH   1   8
TORSDOF 1
ENDMDL
