MODEL 1
REMARK minimizedAffinity 16.7093811
REMARK minimizedRMSD -1
REMARK  1 active torsions:
REMARK  status: ('A' for Active; 'I' for Inactive)
REMARK    1  A    between atoms: C1_2  and  C2_3 
ROOT
ATOM      1  C2  UNL d   1       1.881  -3.999  -1.406  0.00  0.00    -0.081 A 
ATOM      2  C3  UNL d   1       2.985  -3.169  -1.178  0.00  0.00     0.006 A 
ATOM      3  C4  UNL d   1       2.944  -2.196  -0.176  0.00  0.00     0.002 A 
ATOM      4  C5  UNL d   1       1.803  -2.044   0.619  0.00  0.00    -0.080 A 
ATOM      5  C6  UNL d   1       1.758  -1.024   1.718  0.00  0.00     0.076 C 
ATOM      6  C7  UNL d   1       0.694  -2.862   0.380  0.00  0.00     0.002 A 
ATOM      7  C8  UNL d   1       0.734  -3.834  -0.622  0.00  0.00     0.006 A 
ENDROOT
BRANCH   1   8
ATOM      8  C1  UNL d   1       1.945  -5.092  -2.443  0.00  0.00     0.054 C 
ATOM      9  C   UNL d   1       3.146  -5.999  -2.217  0.00  0.00     0.018 C 
ENDBRANCH   1   8
TORSDOF 1
ENDMDL
