MODEL 1
REMARK minimizedAffinity 6.22684479
REMARK minimizedRMSD -1
REMARK  1 active torsions:
REMARK  status: ('A' for Active; 'I' for Inactive)
REMARK    1  A    between atoms: C1_2  and  C2_3 
ROOT
ATOM      1  C2  UNL d   1      -1.392   1.900  -0.487  0.00  0.00    -0.081 A 
ATOM      2  C3  UNL d   1      -2.112   2.037   0.706  0.00  0.00     0.006 A 
ATOM      3  C4  UNL d   1      -1.452   2.314   1.905  0.00  0.00     0.002 A 
ATOM      4  C5  UNL d   1      -0.061   2.468   1.930  0.00  0.00    -0.080 A 
ATOM      5  C6  UNL d   1       0.657   2.796   3.205  0.00  0.00     0.076 C 
ATOM      6  C7  UNL d   1       0.661   2.314   0.742  0.00  0.00     0.002 A 
ATOM      7  C8  UNL d   1       0.001   2.036  -0.457  0.00  0.00     0.006 A 
ENDROOT
BRANCH   1   8
ATOM      8  C1  UNL d   1      -2.108   1.665  -1.792  0.00  0.00     0.054 C 
ATOM      9  C   UNL d   1      -1.534   2.534  -2.902  0.00  0.00     0.018 C 
ENDBRANCH   1   8
TORSDOF 1
ENDMDL
