MODEL 1
REMARK minimizedAffinity 8.99342632
REMARK minimizedRMSD -1
REMARK  1 active torsions:
REMARK  status: ('A' for Active; 'I' for Inactive)
REMARK    1  A    between atoms: C1_2  and  C2_3 
ROOT
ATOM      1  C2  UNL d   1      -1.519   2.273  -1.781  0.00  0.00    -0.081 A 
ATOM      2  C3  UNL d   1      -0.585   3.008  -2.522  0.00  0.00     0.006 A 
ATOM      3  C4  UNL d   1       0.447   3.694  -1.878  0.00  0.00     0.002 A 
ATOM      4  C5  UNL d   1       0.567   3.651  -0.485  0.00  0.00    -0.080 A 
ATOM      5  C6  UNL d   1       1.688   4.358   0.217  0.00  0.00     0.076 C 
ATOM      6  C7  UNL d   1      -0.376   2.930   0.257  0.00  0.00     0.002 A 
ATOM      7  C8  UNL d   1      -1.408   2.244  -0.387  0.00  0.00     0.006 A 
ENDROOT
BRANCH   1   8
ATOM      8  C1  UNL d   1      -2.595   1.479  -2.477  0.00  0.00     0.054 C 
ATOM      9  C   UNL d   1      -3.061   0.310  -1.621  0.00  0.00     0.018 C 
ENDBRANCH   1   8
TORSDOF 1
ENDMDL
