MODEL 1
REMARK minimizedAffinity 16.9027252
REMARK minimizedRMSD -1
REMARK  3 active torsions:
REMARK  status: ('A' for Active; 'I' for Inactive)
REMARK    1  A    between atoms: C3'_2  and  C2'_3 
REMARK    2  A    between atoms: C2'_3  and  C1'_4 
REMARK    3  A    between atoms: C1'_4  and  C1_5 
ROOT
ATOM      1  C1  N4B d   1       3.279   4.524   2.072  0.00  0.00    -0.075 A 
ATOM      2  C2  N4B d   1       3.141   4.163   0.713  0.00  0.00     0.002 A 
ATOM      3  C3  N4B d   1       3.955   4.732  -0.235  0.00  0.00     0.002 A 
ATOM      4  C4  N4B d   1       4.897   5.675   0.147  0.00  0.00    -0.004 A 
ATOM      5  C5  N4B d   1       5.042   6.000   1.464  0.00  0.00     0.002 A 
ATOM      6  C6  N4B d   1       4.233   5.433   2.429  0.00  0.00     0.002 A 
ENDROOT
BRANCH   1   7
ATOM      7  C1' N4B d   1       2.355   3.993   3.133  0.00  0.00     0.057 C 
BRANCH   7   8
ATOM      8  C2' N4B d   1       2.294   2.472   3.027  0.00  0.00     0.009 C 
BRANCH   8   9
ATOM      9  C3' N4B d   1       1.435   1.861   4.121  0.00  0.00     0.004 C 
ATOM     10  C4' N4B d   1       0.649   0.674   3.648  0.00  0.00     0.003 C 
ENDBRANCH   8   9
ENDBRANCH   7   8
ENDBRANCH   1   7
TORSDOF 3
ENDMDL
