MODEL 1
REMARK minimizedAffinity 0.89934814
REMARK minimizedRMSD -1
REMARK  3 active torsions:
REMARK  status: ('A' for Active; 'I' for Inactive)
REMARK    1  A    between atoms: C3'_2  and  C2'_3 
REMARK    2  A    between atoms: C2'_3  and  C1'_4 
REMARK    3  A    between atoms: C1'_4  and  C1_5 
ROOT
ATOM      1  C1  N4B d   1       1.784  -1.184   0.245  0.00  0.00    -0.075 A 
ATOM      2  C2  N4B d   1       2.100   0.183   0.086  0.00  0.00     0.002 A 
ATOM      3  C3  N4B d   1       3.104   0.560  -0.772  0.00  0.00     0.002 A 
ATOM      4  C4  N4B d   1       3.816  -0.409  -1.463  0.00  0.00    -0.004 A 
ATOM      5  C5  N4B d   1       3.487  -1.726  -1.323  0.00  0.00     0.002 A 
ATOM      6  C6  N4B d   1       2.478  -2.119  -0.468  0.00  0.00     0.002 A 
ENDROOT
BRANCH   1   7
ATOM      7  C1' N4B d   1       0.752  -1.651   1.235  0.00  0.00     0.057 C 
BRANCH   7   8
ATOM      8  C2' N4B d   1       1.280  -1.430   2.650  0.00  0.00     0.009 C 
BRANCH   8   9
ATOM      9  C3' N4B d   1       0.194  -0.935   3.590  0.00  0.00     0.004 C 
ATOM     10  C4' N4B d   1       0.644   0.212   4.445  0.00  0.00     0.003 C 
ENDBRANCH   8   9
ENDBRANCH   7   8
ENDBRANCH   1   7
TORSDOF 3
ENDMDL
