MODEL 1
REMARK minimizedAffinity 14.4335098
REMARK minimizedRMSD -1
REMARK  3 active torsions:
REMARK  status: ('A' for Active; 'I' for Inactive)
REMARK    1  A    between atoms: C3'_2  and  C2'_3 
REMARK    2  A    between atoms: C2'_3  and  C1'_4 
REMARK    3  A    between atoms: C1'_4  and  C1_5 
ROOT
ATOM      1  C1  N4B d   1       4.584   0.386   0.303  0.00  0.00    -0.075 A 
ATOM      2  C2  N4B d   1       4.195   1.329  -0.673  0.00  0.00     0.002 A 
ATOM      3  C3  N4B d   1       2.930   1.283  -1.207  0.00  0.00     0.002 A 
ATOM      4  C4  N4B d   1       2.048   0.295  -0.796  0.00  0.00    -0.004 A 
ATOM      5  C5  N4B d   1       2.423  -0.597   0.166  0.00  0.00     0.002 A 
ATOM      6  C6  N4B d   1       3.689  -0.560   0.714  0.00  0.00     0.002 A 
ENDROOT
BRANCH   1   7
ATOM      7  C1' N4B d   1       5.983   0.343   0.853  0.00  0.00     0.057 C 
BRANCH   7   8
ATOM      8  C2' N4B d   1       5.998  -0.507   2.120  0.00  0.00     0.009 C 
BRANCH   8   9
ATOM      9  C3' N4B d   1       5.991   0.347   3.377  0.00  0.00     0.004 C 
ATOM     10  C4' N4B d   1       5.610   1.772   3.109  0.00  0.00     0.003 C 
ENDBRANCH   8   9
ENDBRANCH   7   8
ENDBRANCH   1   7
TORSDOF 3
ENDMDL
