MODEL 1
REMARK minimizedAffinity 6.25857115
REMARK minimizedRMSD -1
REMARK  3 active torsions:
REMARK  status: ('A' for Active; 'I' for Inactive)
REMARK    1  A    between atoms: C3'_2  and  C2'_3 
REMARK    2  A    between atoms: C2'_3  and  C1'_4 
REMARK    3  A    between atoms: C1'_4  and  C1_5 
ROOT
ATOM      1  C1  N4B d   1      -3.592   0.582  -3.042  0.00  0.00    -0.075 A 
ATOM      2  C2  N4B d   1      -4.937   0.653  -3.465  0.00  0.00     0.002 A 
ATOM      3  C3  N4B d   1      -5.234   1.044  -4.748  0.00  0.00     0.002 A 
ATOM      4  C4  N4B d   1      -4.207   1.386  -5.615  0.00  0.00    -0.004 A 
ATOM      5  C5  N4B d   1      -2.909   1.291  -5.206  0.00  0.00     0.002 A 
ATOM      6  C6  N4B d   1      -2.596   0.896  -3.921  0.00  0.00     0.002 A 
ENDROOT
BRANCH   1   7
ATOM      7  C1' N4B d   1      -3.222   0.243  -1.624  0.00  0.00     0.057 C 
BRANCH   7   8
ATOM      8  C2' N4B d   1      -4.428  -0.380  -0.928  0.00  0.00     0.009 C 
BRANCH   8   9
ATOM      9  C3' N4B d   1      -5.377   0.674  -0.383  0.00  0.00     0.004 C 
ATOM     10  C4' N4B d   1      -4.800   1.433   0.774  0.00  0.00     0.003 C 
ENDBRANCH   8   9
ENDBRANCH   7   8
ENDBRANCH   1   7
TORSDOF 3
ENDMDL
