MODEL 1
REMARK minimizedAffinity -4.28966808
REMARK minimizedRMSD -1
REMARK  1 active torsions:
REMARK  status: ('A' for Active; 'I' for Inactive)
REMARK    1  A    between atoms: C1_2  and  C2_3 
ROOT
ATOM      1  C2  UNL d   1      -0.210   0.080  -0.194  0.00  0.00    -0.077 A 
ATOM      2  C3  UNL d   1       0.658   0.431   0.849  0.00  0.00     0.002 A 
ATOM      3  C4  UNL d   1       0.154   0.963   2.038  0.00  0.00     0.002 A 
ATOM      4  C5  UNL d   1      -1.218   1.143   2.196  0.00  0.00    -0.004 A 
ATOM      5  C6  UNL d   1      -2.089   0.798   1.164  0.00  0.00     0.002 A 
ATOM      6  C7  UNL d   1      -1.588   0.268  -0.026  0.00  0.00     0.002 A 
ENDROOT
BRANCH   1   7
ATOM      7  C1  UNL d   1       0.327  -0.540  -1.458  0.00  0.00     0.055 C 
ATOM      8  C   UNL d   1       0.752   0.525  -2.459  0.00  0.00     0.019 C 
ENDBRANCH   1   7
TORSDOF 1
ENDMDL
