MODEL 1
REMARK minimizedAffinity -4.78066444
REMARK minimizedRMSD -1
REMARK  1 active torsions:
REMARK  status: ('A' for Active; 'I' for Inactive)
REMARK    1  A    between atoms: C1_2  and  C2_3 
ROOT
ATOM      1  C2  UNL d   1       0.198   0.103   0.314  0.00  0.00    -0.077 A 
ATOM      2  C3  UNL d   1       1.009   0.459   1.401  0.00  0.00     0.002 A 
ATOM      3  C4  UNL d   1       0.437   0.913   2.591  0.00  0.00     0.002 A 
ATOM      4  C5  UNL d   1      -0.948   1.010   2.707  0.00  0.00    -0.004 A 
ATOM      5  C6  UNL d   1      -1.763   0.661   1.631  0.00  0.00     0.002 A 
ATOM      6  C7  UNL d   1      -1.193   0.208   0.440  0.00  0.00     0.002 A 
ENDROOT
BRANCH   1   7
ATOM      7  C1  UNL d   1       0.811  -0.432  -0.953  0.00  0.00     0.055 C 
ATOM      8  C   UNL d   1       0.269   0.289  -2.179  0.00  0.00     0.019 C 
ENDBRANCH   1   7
TORSDOF 1
ENDMDL
