MODEL 1
REMARK minimizedAffinity -5.45642042
REMARK minimizedRMSD -1
REMARK  1 active torsions:
REMARK  status: ('A' for Active; 'I' for Inactive)
REMARK    1  A    between atoms: C1_2  and  C2_3 
ROOT
ATOM      1  C2  UNL d   1      -0.124  -0.009   0.525  0.00  0.00    -0.077 A 
ATOM      2  C3  UNL d   1      -1.512   0.137   0.394  0.00  0.00     0.002 A 
ATOM      3  C4  UNL d   1      -2.217   0.982   1.254  0.00  0.00     0.002 A 
ATOM      4  C5  UNL d   1      -1.542   1.690   2.246  0.00  0.00    -0.004 A 
ATOM      5  C6  UNL d   1      -0.162   1.550   2.385  0.00  0.00     0.002 A 
ATOM      6  C7  UNL d   1       0.544   0.704   1.528  0.00  0.00     0.002 A 
ENDROOT
BRANCH   1   7
ATOM      7  C1  UNL d   1       0.645  -0.882  -0.432  0.00  0.00     0.055 C 
ATOM      8  C   UNL d   1       0.647  -0.296  -1.837  0.00  0.00     0.019 C 
ENDBRANCH   1   7
TORSDOF 1
ENDMDL
