MODEL 1
REMARK minimizedAffinity 8.37112331
REMARK minimizedRMSD -1
REMARK  1 active torsions:
REMARK  status: ('A' for Active; 'I' for Inactive)
REMARK    1  A    between atoms: N_2  and  C1_3 
ROOT
ATOM      1  C1  UNL d   1      -2.261   0.620   1.876  0.00  0.00     0.143 A 
ATOM      2  C2  UNL d   1      -3.173   0.652   0.816  0.00  0.00    -0.057 A 
ATOM      3  C3  UNL d   1      -4.547   0.795   1.043  0.00  0.00     0.033 A 
ATOM      4  C4  UNL d   1      -5.038   0.879   2.342  0.00  0.00    -0.042 A 
ATOM      5  C5  UNL d   1      -4.153   0.824   3.413  0.00  0.00     0.033 A 
ATOM      6  C6  UNL d   1      -2.781   0.688   3.179  0.00  0.00    -0.057 A 
ENDROOT
BRANCH   1   7
ATOM      7  N   UNL d   1      -0.894   0.381   1.720  0.00  0.00    -0.732 N 
ATOM      8  C   UNL d   1      -0.010   0.380   2.866  0.00  0.00     0.284 C 
ATOM      9  H3  UNL d   1      -0.703  -0.358   1.047  0.00  0.00     0.395 HD
ENDBRANCH   1   7
TORSDOF 1
ENDMDL
