MODEL 1
REMARK minimizedAffinity -0.0217267983
REMARK minimizedRMSD -1
REMARK  1 active torsions:
REMARK  status: ('A' for Active; 'I' for Inactive)
REMARK    1  A    between atoms: N_2  and  C1_3 
ROOT
ATOM      1  C1  UNL d   1      -3.748   0.398   3.519  0.00  0.00     0.143 A 
ATOM      2  C2  UNL d   1      -2.384   0.089   3.556  0.00  0.00    -0.057 A 
ATOM      3  C3  UNL d   1      -1.563   0.295   2.442  0.00  0.00     0.033 A 
ATOM      4  C4  UNL d   1      -2.098   0.789   1.257  0.00  0.00    -0.042 A 
ATOM      5  C5  UNL d   1      -3.456   1.079   1.189  0.00  0.00     0.033 A 
ATOM      6  C6  UNL d   1      -4.271   0.877   2.308  0.00  0.00    -0.057 A 
ENDROOT
BRANCH   1   7
ATOM      7  N   UNL d   1      -4.637   0.123   4.562  0.00  0.00    -0.732 N 
ATOM      8  C   UNL d   1      -4.338  -0.908   5.533  0.00  0.00     0.284 C 
ATOM      9  H3  UNL d   1      -5.038   0.967   4.963  0.00  0.00     0.395 HD
ENDBRANCH   1   7
TORSDOF 1
ENDMDL
