MODEL 1
REMARK minimizedAffinity 7.64419699
REMARK minimizedRMSD -1
REMARK  1 active torsions:
REMARK  status: ('A' for Active; 'I' for Inactive)
REMARK    1  A    between atoms: N_2  and  C1_3 
ROOT
ATOM      1  C1  UNL d   1       3.357  -5.748   2.278  0.00  0.00     0.143 A 
ATOM      2  C2  UNL d   1       4.383  -5.306   1.436  0.00  0.00    -0.057 A 
ATOM      3  C3  UNL d   1       5.696  -5.164   1.904  0.00  0.00     0.033 A 
ATOM      4  C4  UNL d   1       6.000  -5.437   3.233  0.00  0.00    -0.042 A 
ATOM      5  C5  UNL d   1       4.991  -5.854   4.094  0.00  0.00     0.033 A 
ATOM      6  C6  UNL d   1       3.683  -6.000   3.619  0.00  0.00    -0.057 A 
ENDROOT
BRANCH   1   7
ATOM      7  N   UNL d   1       2.014  -5.814   1.898  0.00  0.00    -0.732 N 
ATOM      8  C   UNL d   1       0.975  -5.977   2.892  0.00  0.00     0.284 C 
ATOM      9  H3  UNL d   1       1.785  -5.150   1.162  0.00  0.00     0.395 HD
ENDBRANCH   1   7
TORSDOF 1
ENDMDL
