MODEL 1
REMARK minimizedAffinity 1.55180621
REMARK minimizedRMSD -1
REMARK  1 active torsions:
REMARK  status: ('A' for Active; 'I' for Inactive)
REMARK    1  A    between atoms: N_2  and  C1_3 
ROOT
ATOM      1  C1  UNL d   1      -1.445   0.226   2.669  0.00  0.00     0.143 A 
ATOM      2  C2  UNL d   1      -1.464   0.037   1.283  0.00  0.00    -0.057 A 
ATOM      3  C3  UNL d   1      -2.663   0.073   0.561  0.00  0.00     0.033 A 
ATOM      4  C4  UNL d   1      -3.872   0.270   1.219  0.00  0.00    -0.042 A 
ATOM      5  C5  UNL d   1      -3.880   0.436   2.600  0.00  0.00     0.033 A 
ATOM      6  C6  UNL d   1      -2.679   0.406   3.314  0.00  0.00    -0.057 A 
ENDROOT
BRANCH   1   7
ATOM      7  N   UNL d   1      -0.297   0.104   3.456  0.00  0.00    -0.732 N 
ATOM      8  C   UNL d   1       0.628   1.209   3.586  0.00  0.00     0.284 C 
ATOM      9  H3  UNL d   1      -0.473  -0.396   4.324  0.00  0.00     0.395 HD
ENDBRANCH   1   7
TORSDOF 1
ENDMDL
