MODEL 1
REMARK minimizedAffinity 7.47904873
REMARK minimizedRMSD -1
REMARK  1 active torsions:
REMARK  status: ('A' for Active; 'I' for Inactive)
REMARK    1  A    between atoms: N_2  and  C1_3 
ROOT
ATOM      1  C1  UNL d   1      -2.290  -2.199  -5.915  0.00  0.00     0.143 A 
ATOM      2  C2  UNL d   1      -3.004  -0.996  -5.928  0.00  0.00    -0.057 A 
ATOM      3  C3  UNL d   1      -4.404  -0.983  -5.947  0.00  0.00     0.033 A 
ATOM      4  C4  UNL d   1      -5.116  -2.178  -5.982  0.00  0.00    -0.042 A 
ATOM      5  C5  UNL d   1      -4.427  -3.385  -5.994  0.00  0.00     0.033 A 
ATOM      6  C6  UNL d   1      -3.029  -3.391  -5.969  0.00  0.00    -0.057 A 
ENDROOT
BRANCH   1   7
ATOM      7  N   UNL d   1      -0.897  -2.277  -5.995  0.00  0.00    -0.732 N 
ATOM      8  C   UNL d   1      -0.227  -3.559  -5.947  0.00  0.00     0.284 C 
ATOM      9  H3  UNL d   1      -0.511  -1.632  -6.680  0.00  0.00     0.395 HD
ENDBRANCH   1   7
TORSDOF 1
ENDMDL
