MODEL 1
REMARK minimizedAffinity 0.880564153
REMARK minimizedRMSD -1
REMARK  1 active torsions:
REMARK  status: ('A' for Active; 'I' for Inactive)
REMARK    1  A    between atoms: N_2  and  C1_3 
ROOT
ATOM      1  C1  UNL d   1       3.448  -5.639   2.337  0.00  0.00     0.143 A 
ATOM      2  C2  UNL d   1       2.766  -5.993   3.506  0.00  0.00    -0.057 A 
ATOM      3  C3  UNL d   1       1.456  -5.557   3.742  0.00  0.00     0.033 A 
ATOM      4  C4  UNL d   1       0.814  -4.734   2.824  0.00  0.00    -0.042 A 
ATOM      5  C5  UNL d   1       1.482  -4.349   1.666  0.00  0.00     0.033 A 
ATOM      6  C6  UNL d   1       2.787  -4.793   1.433  0.00  0.00    -0.057 A 
ENDROOT
BRANCH   1   7
ATOM      7  N   UNL d   1       4.785  -5.959   2.090  0.00  0.00    -0.732 N 
ATOM      8  C   UNL d   1       5.845  -5.331   2.849  0.00  0.00     0.284 C 
ATOM      9  H3  UNL d   1       4.923  -6.954   1.927  0.00  0.00     0.395 HD
ENDBRANCH   1   7
TORSDOF 1
ENDMDL
