MODEL 1
REMARK minimizedAffinity 3.11434317
REMARK minimizedRMSD -1
REMARK  1 active torsions:
REMARK  status: ('A' for Active; 'I' for Inactive)
REMARK    1  A    between atoms: N_2  and  C1_3 
ROOT
ATOM      1  C1  UNL d   1      -2.516   0.538   2.744  0.00  0.00     0.143 A 
ATOM      2  C2  UNL d   1      -2.227   1.846   2.339  0.00  0.00    -0.057 A 
ATOM      3  C3  UNL d   1      -0.908   2.269   2.136  0.00  0.00     0.033 A 
ATOM      4  C4  UNL d   1       0.151   1.397   2.364  0.00  0.00    -0.042 A 
ATOM      5  C5  UNL d   1      -0.111   0.100   2.791  0.00  0.00     0.033 A 
ATOM      6  C6  UNL d   1      -1.430  -0.319   2.985  0.00  0.00    -0.057 A 
ENDROOT
BRANCH   1   7
ATOM      7  N   UNL d   1      -3.800   0.087   3.057  0.00  0.00    -0.732 N 
ATOM      8  C   UNL d   1      -4.857   0.126   2.069  0.00  0.00     0.284 C 
ATOM      9  H3  UNL d   1      -3.787  -0.762   3.619  0.00  0.00     0.395 HD
ENDBRANCH   1   7
TORSDOF 1
ENDMDL
