MODEL 1
REMARK minimizedAffinity 0.276113629
REMARK minimizedRMSD -1
REMARK  1 active torsions:
REMARK  status: ('A' for Active; 'I' for Inactive)
REMARK    1  A    between atoms: N_2  and  C1_3 
ROOT
ATOM      1  C1  UNL d   1      -2.107   1.053   2.727  0.00  0.00     0.143 A 
ATOM      2  C2  UNL d   1      -1.699   2.356   3.031  0.00  0.00    -0.057 A 
ATOM      3  C3  UNL d   1      -0.411   2.619   3.514  0.00  0.00     0.033 A 
ATOM      4  C4  UNL d   1       0.484   1.577   3.730  0.00  0.00    -0.042 A 
ATOM      5  C5  UNL d   1       0.091   0.271   3.458  0.00  0.00     0.033 A 
ATOM      6  C6  UNL d   1      -1.194   0.015   2.970  0.00  0.00    -0.057 A 
ENDROOT
BRANCH   1   7
ATOM      7  N   UNL d   1      -3.406   0.716   2.338  0.00  0.00    -0.732 N 
ATOM      8  C   UNL d   1      -3.678   0.269   0.989  0.00  0.00     0.284 C 
ATOM      9  H3  UNL d   1      -3.905   0.197   3.057  0.00  0.00     0.395 HD
ENDBRANCH   1   7
TORSDOF 1
ENDMDL
