MODEL 1
REMARK minimizedAffinity 3.76530099
REMARK minimizedRMSD -1
REMARK  1 active torsions:
REMARK  status: ('A' for Active; 'I' for Inactive)
REMARK    1  A    between atoms: N_2  and  C1_3 
ROOT
ATOM      1  C1  UNL d   1      -3.038   0.827   1.779  0.00  0.00     0.143 A 
ATOM      2  C2  UNL d   1      -4.096   0.389   0.974  0.00  0.00    -0.057 A 
ATOM      3  C3  UNL d   1      -5.424   0.704   1.286  0.00  0.00     0.033 A 
ATOM      4  C4  UNL d   1      -5.721   1.441   2.427  0.00  0.00    -0.042 A 
ATOM      5  C5  UNL d   1      -4.688   1.866   3.255  0.00  0.00     0.033 A 
ATOM      6  C6  UNL d   1      -3.363   1.554   2.935  0.00  0.00    -0.057 A 
ENDROOT
BRANCH   1   7
ATOM      7  N   UNL d   1      -1.705   0.463   1.576  0.00  0.00    -0.732 N 
ATOM      8  C   UNL d   1      -0.755   0.510   2.667  0.00  0.00     0.284 C 
ATOM      9  H3  UNL d   1      -1.612  -0.355   0.979  0.00  0.00     0.395 HD
ENDBRANCH   1   7
TORSDOF 1
ENDMDL
