MODEL 1
REMARK minimizedAffinity -0.481463075
REMARK minimizedRMSD -1
REMARK  1 active torsions:
REMARK  status: ('A' for Active; 'I' for Inactive)
REMARK    1  A    between atoms: N_2  and  C1_3 
ROOT
ATOM      1  C1  UNL d   1       4.189  -5.854   2.833  0.00  0.00     0.143 A 
ATOM      2  C2  UNL d   1       3.017  -6.000   3.584  0.00  0.00    -0.057 A 
ATOM      3  C3  UNL d   1       1.760  -5.743   3.025  0.00  0.00     0.033 A 
ATOM      4  C4  UNL d   1       1.653  -5.306   1.709  0.00  0.00    -0.042 A 
ATOM      5  C5  UNL d   1       2.806  -5.130   0.951  0.00  0.00     0.033 A 
ATOM      6  C6  UNL d   1       4.058  -5.395   1.513  0.00  0.00    -0.057 A 
ENDROOT
BRANCH   1   7
ATOM      7  N   UNL d   1       5.474  -6.000   3.361  0.00  0.00    -0.732 N 
ATOM      8  C   UNL d   1       5.690  -5.979   4.792  0.00  0.00     0.284 C 
ATOM      9  H3  UNL d   1       6.019  -6.704   2.869  0.00  0.00     0.395 HD
ENDBRANCH   1   7
TORSDOF 1
ENDMDL
