MODEL 1
REMARK minimizedAffinity -2.35681844
REMARK minimizedRMSD -1
REMARK  1 active torsions:
REMARK  status: ('A' for Active; 'I' for Inactive)
REMARK    1  A    between atoms: N_2  and  C1_3 
ROOT
ATOM      1  C1  UNL d   1      -0.154  -5.270   0.785  0.00  0.00     0.143 A 
ATOM      2  C2  UNL d   1      -0.246  -3.874   0.757  0.00  0.00    -0.057 A 
ATOM      3  C3  UNL d   1      -1.488  -3.228   0.754  0.00  0.00     0.033 A 
ATOM      4  C4  UNL d   1      -2.664  -3.970   0.750  0.00  0.00    -0.042 A 
ATOM      5  C5  UNL d   1      -2.597  -5.359   0.754  0.00  0.00     0.033 A 
ATOM      6  C6  UNL d   1      -1.354  -5.998   0.763  0.00  0.00    -0.057 A 
ENDROOT
BRANCH   1   7
ATOM      7  N   UNL d   1       1.050  -5.973   0.690  0.00  0.00    -0.732 N 
ATOM      8  C   UNL d   1       1.977  -6.000   1.801  0.00  0.00     0.284 C 
ATOM      9  H3  UNL d   1       0.941  -6.867   0.217  0.00  0.00     0.395 HD
ENDBRANCH   1   7
TORSDOF 1
ENDMDL
