MODEL 1
REMARK minimizedAffinity 3.24131775
REMARK minimizedRMSD -1
REMARK  1 active torsions:
REMARK  status: ('A' for Active; 'I' for Inactive)
REMARK    1  A    between atoms: N_2  and  C1_3 
ROOT
ATOM      1  C1  UNL d   1       3.487  -0.018   1.622  0.00  0.00     0.143 A 
ATOM      2  C2  UNL d   1       2.574   0.268   0.601  0.00  0.00    -0.057 A 
ATOM      3  C3  UNL d   1       1.218   0.479   0.878  0.00  0.00     0.033 A 
ATOM      4  C4  UNL d   1       0.744   0.379   2.181  0.00  0.00    -0.042 A 
ATOM      5  C5  UNL d   1       1.629   0.071   3.209  0.00  0.00     0.033 A 
ATOM      6  C6  UNL d   1       2.983  -0.132   2.927  0.00  0.00    -0.057 A 
ENDROOT
BRANCH   1   7
ATOM      7  N   UNL d   1       4.829  -0.335   1.399  0.00  0.00    -0.732 N 
ATOM      8  C   UNL d   1       5.838  -0.007   2.383  0.00  0.00     0.284 C 
ATOM      9  H3  UNL d   1       4.946  -1.252   0.973  0.00  0.00     0.395 HD
ENDBRANCH   1   7
TORSDOF 1
ENDMDL
