MODEL 1
REMARK minimizedAffinity 9.00782776
REMARK minimizedRMSD -1
REMARK  1 active torsions:
REMARK  status: ('A' for Active; 'I' for Inactive)
REMARK    1  A    between atoms: N_2  and  C1_3 
ROOT
ATOM      1  C1  UNL d   1      -4.237   1.486   1.388  0.00  0.00     0.143 A 
ATOM      2  C2  UNL d   1      -2.961   1.053   1.761  0.00  0.00    -0.057 A 
ATOM      3  C3  UNL d   1      -2.467  -0.191   1.349  0.00  0.00     0.033 A 
ATOM      4  C4  UNL d   1      -3.257  -1.039   0.579  0.00  0.00    -0.042 A 
ATOM      5  C5  UNL d   1      -4.539  -0.639   0.218  0.00  0.00     0.033 A 
ATOM      6  C6  UNL d   1      -5.023   0.607   0.626  0.00  0.00    -0.057 A 
ENDROOT
BRANCH   1   7
ATOM      7  N   UNL d   1      -4.822   2.669   1.847  0.00  0.00    -0.732 N 
ATOM      8  C   UNL d   1      -5.424   2.732   3.162  0.00  0.00     0.284 C 
ATOM      9  H3  UNL d   1      -4.278   3.493   1.599  0.00  0.00     0.395 HD
ENDBRANCH   1   7
TORSDOF 1
ENDMDL
