MODEL 1
REMARK minimizedAffinity -2.88990617
REMARK minimizedRMSD -1
REMARK  0 active torsions:
REMARK  status: ('A' for Active; 'I' for Inactive)
ROOT
ATOM      1  C   UNL d   1      -0.812   1.799   0.588  0.00  0.00     0.124 A 
ATOM      2  C1  UNL d   1      -0.994   0.739   1.464  0.00  0.00     0.062 A 
ATOM      3  C2  UNL d   1      -0.877  -0.572   1.011  0.00  0.00     0.162 A 
ATOM      4  C3  UNL d   1      -0.575  -0.830  -0.327  0.00  0.00    -0.034 A 
ATOM      5  C4  UNL d   1      -0.395   0.242  -1.202  0.00  0.00     0.162 A 
ATOM      6  C5  UNL d   1      -0.512   1.550  -0.744  0.00  0.00     0.062 A 
ATOM      7  F   UNL d   1      -0.336   2.574  -1.593  0.00  0.00    -0.097 F 
ATOM      8  F1  UNL d   1      -0.104   0.030  -2.494  0.00  0.00    -0.096 F 
ATOM      9  I   UNL d   1      -0.400  -2.788  -1.008  0.00  0.00    -0.060 I 
ATOM     10  F2  UNL d   1      -1.058  -1.577   1.880  0.00  0.00    -0.096 F 
ATOM     11  F3  UNL d   1      -1.284   0.977   2.751  0.00  0.00    -0.097 F 
ATOM     12  F4  UNL d   1      -0.925   3.060   1.026  0.00  0.00    -0.092 F 
ENDROOT
TORSDOF 0
ENDMDL
