MODEL 1
REMARK minimizedAffinity -2.65267634
REMARK minimizedRMSD -1
REMARK  0 active torsions:
REMARK  status: ('A' for Active; 'I' for Inactive)
ROOT
ATOM      1  C   UNL d   1       0.289   1.988   0.691  0.00  0.00     0.124 A 
ATOM      2  C1  UNL d   1       0.467   1.759  -0.666  0.00  0.00     0.062 A 
ATOM      3  C2  UNL d   1       0.417   0.463  -1.171  0.00  0.00     0.162 A 
ATOM      4  C3  UNL d   1       0.186  -0.616  -0.317  0.00  0.00    -0.034 A 
ATOM      5  C4  UNL d   1       0.009  -0.378   1.047  0.00  0.00     0.162 A 
ATOM      6  C5  UNL d   1       0.060   0.919   1.546  0.00  0.00     0.062 A 
ATOM      7  F   UNL d   1      -0.111   1.138   2.858  0.00  0.00    -0.097 F 
ATOM      8  F1  UNL d   1      -0.214  -1.393   1.896  0.00  0.00    -0.096 F 
ATOM      9  I   UNL d   1       0.111  -2.556  -1.067  0.00  0.00    -0.060 I 
ATOM     10  F2  UNL d   1       0.592   0.272  -2.487  0.00  0.00    -0.096 F 
ATOM     11  F3  UNL d   1       0.688   2.790  -1.495  0.00  0.00    -0.097 F 
ATOM     12  F4  UNL d   1       0.339   3.236   1.174  0.00  0.00    -0.092 F 
ENDROOT
TORSDOF 0
ENDMDL
