MODEL 1
REMARK minimizedAffinity -0.17551212
REMARK minimizedRMSD -1
REMARK  0 active torsions:
REMARK  status: ('A' for Active; 'I' for Inactive)
ROOT
ATOM      1  C   UNL d   1      -1.063   2.082   0.505  0.00  0.00     0.124 A 
ATOM      2  C1  UNL d   1      -0.994   1.078   1.461  0.00  0.00     0.062 A 
ATOM      3  C2  UNL d   1      -0.433  -0.155   1.141  0.00  0.00     0.162 A 
ATOM      4  C3  UNL d   1       0.065  -0.391  -0.140  0.00  0.00    -0.034 A 
ATOM      5  C4  UNL d   1      -0.008   0.624  -1.096  0.00  0.00     0.162 A 
ATOM      6  C5  UNL d   1      -0.570   1.855  -0.772  0.00  0.00     0.062 A 
ATOM      7  F   UNL d   1      -0.635   2.824  -1.696  0.00  0.00    -0.097 F 
ATOM      8  F1  UNL d   1       0.462   0.432  -2.338  0.00  0.00    -0.096 F 
ATOM      9  I   UNL d   1       0.905  -2.233  -0.622  0.00  0.00    -0.060 I 
ATOM     10  F2  UNL d   1      -0.380  -1.108   2.084  0.00  0.00    -0.096 F 
ATOM     11  F3  UNL d   1      -1.471   1.295   2.695  0.00  0.00    -0.097 F 
ATOM     12  F4  UNL d   1      -1.604   3.267   0.815  0.00  0.00    -0.092 F 
ENDROOT
TORSDOF 0
ENDMDL
