MODEL 1
REMARK minimizedAffinity -2.96157122
REMARK minimizedRMSD -1
REMARK  0 active torsions:
REMARK  status: ('A' for Active; 'I' for Inactive)
ROOT
ATOM      1  C   UNL d   1      -0.232   1.842   0.560  0.00  0.00     0.124 A 
ATOM      2  C1  UNL d   1      -0.538   0.806   1.432  0.00  0.00     0.062 A 
ATOM      3  C2  UNL d   1      -0.629  -0.500   0.962  0.00  0.00     0.162 A 
ATOM      4  C3  UNL d   1      -0.413  -0.780  -0.388  0.00  0.00    -0.034 A 
ATOM      5  C4  UNL d   1      -0.106   0.268  -1.259  0.00  0.00     0.162 A 
ATOM      6  C5  UNL d   1      -0.016   1.572  -0.784  0.00  0.00     0.062 A 
ATOM      7  F   UNL d   1       0.279   2.571  -1.628  0.00  0.00    -0.097 F 
ATOM      8  F1  UNL d   1       0.108   0.035  -2.562  0.00  0.00    -0.096 F 
ATOM      9  I   UNL d   1      -0.548  -2.732  -1.095  0.00  0.00    -0.060 I 
ATOM     10  F2  UNL d   1      -0.926  -1.482   1.826  0.00  0.00    -0.096 F 
ATOM     11  F3  UNL d   1      -0.748   1.065   2.731  0.00  0.00    -0.097 F 
ATOM     12  F4  UNL d   1      -0.146   3.099   1.015  0.00  0.00    -0.092 F 
ENDROOT
TORSDOF 0
ENDMDL
