MODEL 1
REMARK minimizedAffinity 3.92378473
REMARK minimizedRMSD -1
REMARK  0 active torsions:
REMARK  status: ('A' for Active; 'I' for Inactive)
ROOT
ATOM      1  C   UNL d   1      -0.117   1.833   1.051  0.00  0.00     0.124 A 
ATOM      2  C1  UNL d   1      -0.038   1.572  -0.310  0.00  0.00     0.062 A 
ATOM      3  C2  UNL d   1       0.173   0.273  -0.763  0.00  0.00     0.162 A 
ATOM      4  C3  UNL d   1       0.305  -0.776   0.147  0.00  0.00    -0.034 A 
ATOM      5  C4  UNL d   1       0.226  -0.506   1.514  0.00  0.00     0.162 A 
ATOM      6  C5  UNL d   1       0.015   0.794   1.962  0.00  0.00     0.062 A 
ATOM      7  F   UNL d   1      -0.060   1.044   3.277  0.00  0.00    -0.097 F 
ATOM      8  F1  UNL d   1       0.349  -1.491   2.416  0.00  0.00    -0.096 F 
ATOM      9  I   UNL d   1       0.621  -2.720  -0.526  0.00  0.00    -0.060 I 
ATOM     10  F2  UNL d   1       0.244   0.051  -2.083  0.00  0.00    -0.096 F 
ATOM     11  F3  UNL d   1      -0.165   2.575  -1.191  0.00  0.00    -0.097 F 
ATOM     12  F4  UNL d   1      -0.319   3.084   1.484  0.00  0.00    -0.092 F 
ENDROOT
TORSDOF 0
ENDMDL
