MODEL 1
REMARK minimizedAffinity 16.1720467
REMARK minimizedRMSD -1
REMARK  0 active torsions:
REMARK  status: ('A' for Active; 'I' for Inactive)
ROOT
ATOM      1  C   UNL d   1       0.145  -0.182   1.764  0.00  0.00     0.124 A 
ATOM      2  C1  UNL d   1      -0.036   0.206   0.444  0.00  0.00     0.062 A 
ATOM      3  C2  UNL d   1       0.125   1.539   0.078  0.00  0.00     0.162 A 
ATOM      4  C3  UNL d   1       0.469   2.495   1.034  0.00  0.00    -0.034 A 
ATOM      5  C4  UNL d   1       0.649   2.097   2.360  0.00  0.00     0.162 A 
ATOM      6  C5  UNL d   1       0.487   0.763   2.721  0.00  0.00     0.062 A 
ATOM      7  F   UNL d   1       0.662   0.390   3.997  0.00  0.00    -0.097 F 
ATOM      8  F1  UNL d   1       0.980   2.990   3.305  0.00  0.00    -0.096 F 
ATOM      9  I   UNL d   1       0.711   4.490   0.491  0.00  0.00    -0.060 I 
ATOM     10  F2  UNL d   1      -0.056   1.886  -1.205  0.00  0.00    -0.096 F 
ATOM     11  F3  UNL d   1      -0.367  -0.705  -0.482  0.00  0.00    -0.097 F 
ATOM     12  F4  UNL d   1      -0.011  -1.465   2.113  0.00  0.00    -0.092 F 
ENDROOT
TORSDOF 0
ENDMDL
