MODEL 1
REMARK minimizedAffinity -3.63748646
REMARK minimizedRMSD -1
REMARK  0 active torsions:
REMARK  status: ('A' for Active; 'I' for Inactive)
ROOT
ATOM      1  C   UNL d   1      -0.768   0.919   2.439  0.00  0.00     0.023 A 
ATOM      2  C1  UNL d   1      -1.715   0.343   1.591  0.00  0.00     0.003 A 
ATOM      3  C2  UNL d   1      -1.348  -0.068   0.308  0.00  0.00     0.048 A 
ATOM      4  C3  UNL d   1      -0.031   0.098  -0.120  0.00  0.00     0.023 A 
ATOM      5  C4  UNL d   1       0.920   0.672   0.725  0.00  0.00     0.048 A 
ATOM      6  C5  UNL d   1       0.548   1.083   2.006  0.00  0.00     0.003 A 
ATOM      7  I   UNL d   1       0.518  -0.513  -2.029  0.00  0.00    -0.146 I 
ENDROOT
TORSDOF 0
ENDMDL
