MODEL 1
REMARK minimizedAffinity -4.37804413
REMARK minimizedRMSD -1
REMARK  0 active torsions:
REMARK  status: ('A' for Active; 'I' for Inactive)
ROOT
ATOM      1  C   UNL d   1      -0.571   1.089   2.900  0.00  0.00     0.023 A 
ATOM      2  C1  UNL d   1      -1.591   0.776   2.001  0.00  0.00     0.003 A 
ATOM      3  C2  UNL d   1      -1.278   0.315   0.721  0.00  0.00     0.048 A 
ATOM      4  C3  UNL d   1       0.057   0.168   0.346  0.00  0.00     0.023 A 
ATOM      5  C4  UNL d   1       1.081   0.479   1.242  0.00  0.00     0.048 A 
ATOM      6  C5  UNL d   1       0.763   0.941   2.521  0.00  0.00     0.003 A 
ATOM      7  I   UNL d   1       0.525  -0.519  -1.559  0.00  0.00    -0.146 I 
ENDROOT
TORSDOF 0
ENDMDL
