MODEL 1
REMARK minimizedAffinity -4.09745216
REMARK minimizedRMSD -1
REMARK  0 active torsions:
REMARK  status: ('A' for Active; 'I' for Inactive)
ROOT
ATOM      1  C   UNL d   1      -1.345   0.730   2.987  0.00  0.00     0.023 A 
ATOM      2  C1  UNL d   1       0.002   0.368   2.985  0.00  0.00     0.003 A 
ATOM      3  C2  UNL d   1       0.641   0.057   1.783  0.00  0.00     0.048 A 
ATOM      4  C3  UNL d   1      -0.074   0.110   0.586  0.00  0.00     0.023 A 
ATOM      5  C4  UNL d   1      -1.422   0.472   0.583  0.00  0.00     0.048 A 
ATOM      6  C5  UNL d   1      -2.056   0.782   1.788  0.00  0.00     0.003 A 
ATOM      7  I   UNL d   1       0.875  -0.352  -1.204  0.00  0.00    -0.146 I 
ENDROOT
TORSDOF 0
ENDMDL
