MODEL 1
REMARK minimizedAffinity -4.38832283
REMARK minimizedRMSD -1
REMARK  0 active torsions:
REMARK  status: ('A' for Active; 'I' for Inactive)
ROOT
ATOM      1  C   UNL d   1      -1.370   1.396   2.491  0.00  0.00     0.023 A 
ATOM      2  C1  UNL d   1      -2.150   0.640   1.617  0.00  0.00     0.003 A 
ATOM      3  C2  UNL d   1      -1.582   0.098   0.462  0.00  0.00     0.048 A 
ATOM      4  C3  UNL d   1      -0.233   0.316   0.187  0.00  0.00     0.023 A 
ATOM      5  C4  UNL d   1       0.553   1.072   1.060  0.00  0.00     0.048 A 
ATOM      6  C5  UNL d   1      -0.020   1.612   2.213  0.00  0.00     0.003 A 
ATOM      7  I   UNL d   1       0.615  -0.489  -1.531  0.00  0.00    -0.146 I 
ENDROOT
TORSDOF 0
ENDMDL
