MODEL 1
REMARK minimizedAffinity -4.54021835
REMARK minimizedRMSD -1
REMARK  0 active torsions:
REMARK  status: ('A' for Active; 'I' for Inactive)
ROOT
ATOM      1  C   UNL d   1      -1.018   1.088   2.062  0.00  0.00     0.023 A 
ATOM      2  C1  UNL d   1       0.342   0.802   1.942  0.00  0.00     0.003 A 
ATOM      3  C2  UNL d   1       0.886   0.500   0.692  0.00  0.00     0.048 A 
ATOM      4  C3  UNL d   1       0.064   0.487  -0.434  0.00  0.00     0.023 A 
ATOM      5  C4  UNL d   1      -1.297   0.774  -0.319  0.00  0.00     0.048 A 
ATOM      6  C5  UNL d   1      -1.836   1.074   0.933  0.00  0.00     0.003 A 
ATOM      7  I   UNL d   1       0.871   0.039  -2.297  0.00  0.00    -0.146 I 
ENDROOT
TORSDOF 0
ENDMDL
