MODEL 1
REMARK minimizedAffinity -2.05680084
REMARK minimizedRMSD -1
REMARK  0 active torsions:
REMARK  status: ('A' for Active; 'I' for Inactive)
ROOT
ATOM      1  C   UNL d   1      -0.697   0.461   1.565  0.00  0.00     0.023 A 
ATOM      2  C1  UNL d   1      -1.689   0.327   0.594  0.00  0.00     0.003 A 
ATOM      3  C2  UNL d   1      -1.337   0.087  -0.736  0.00  0.00     0.048 A 
ATOM      4  C3  UNL d   1       0.008  -0.019  -1.088  0.00  0.00     0.023 A 
ATOM      5  C4  UNL d   1       1.004   0.113  -0.119  0.00  0.00     0.048 A 
ATOM      6  C5  UNL d   1       0.648   0.355   1.210  0.00  0.00     0.003 A 
ATOM      7  I   UNL d   1       0.533  -0.377  -3.066  0.00  0.00    -0.146 I 
ENDROOT
TORSDOF 0
ENDMDL
