MODEL 1
REMARK minimizedAffinity -3.9194746
REMARK minimizedRMSD -1
REMARK  0 active torsions:
REMARK  status: ('A' for Active; 'I' for Inactive)
ROOT
ATOM      1  C   UNL d   1      -0.920   1.166   3.165  0.00  0.00     0.023 A 
ATOM      2  C1  UNL d   1       0.431   1.172   2.818  0.00  0.00     0.003 A 
ATOM      3  C2  UNL d   1       0.834   0.695   1.568  0.00  0.00     0.048 A 
ATOM      4  C3  UNL d   1      -0.119   0.215   0.671  0.00  0.00     0.023 A 
ATOM      5  C4  UNL d   1      -1.472   0.208   1.014  0.00  0.00     0.048 A 
ATOM      6  C5  UNL d   1      -1.871   0.685   2.264  0.00  0.00     0.003 A 
ATOM      7  I   UNL d   1       0.478  -0.494  -1.189  0.00  0.00    -0.146 I 
ENDROOT
TORSDOF 0
ENDMDL
