MODEL 1
REMARK minimizedAffinity -1.01483488
REMARK minimizedRMSD -1
REMARK  0 active torsions:
REMARK  status: ('A' for Active; 'I' for Inactive)
ROOT
ATOM      1  C   UNL d   1      -0.373  -0.499   1.265  0.00  0.00     0.023 A 
ATOM      2  C1  UNL d   1      -1.278  -0.689   0.220  0.00  0.00     0.003 A 
ATOM      3  C2  UNL d   1      -0.899  -0.405  -1.094  0.00  0.00     0.048 A 
ATOM      4  C3  UNL d   1       0.386   0.069  -1.356  0.00  0.00     0.023 A 
ATOM      5  C4  UNL d   1       1.295   0.260  -0.314  0.00  0.00     0.048 A 
ATOM      6  C5  UNL d   1       0.911  -0.024   0.998  0.00  0.00     0.003 A 
ATOM      7  I   UNL d   1       0.952   0.493  -3.310  0.00  0.00    -0.146 I 
ENDROOT
TORSDOF 0
ENDMDL
