MODEL 1
REMARK minimizedAffinity -1.93951046
REMARK minimizedRMSD -1
REMARK  0 active torsions:
REMARK  status: ('A' for Active; 'I' for Inactive)
ROOT
ATOM      1  C   UNL d   1      -0.349  -1.492  -0.990  0.00  0.00     0.023 A 
ATOM      2  C1  UNL d   1       0.701  -1.147  -0.139  0.00  0.00     0.003 A 
ATOM      3  C2  UNL d   1       0.476  -0.283   0.935  0.00  0.00     0.048 A 
ATOM      4  C3  UNL d   1      -0.802   0.231   1.152  0.00  0.00     0.023 A 
ATOM      5  C4  UNL d   1      -1.856  -0.112   0.304  0.00  0.00     0.048 A 
ATOM      6  C5  UNL d   1      -1.626  -0.976  -0.769  0.00  0.00     0.003 A 
ATOM      7  I   UNL d   1      -1.139   1.517   2.750  0.00  0.00    -0.146 I 
ENDROOT
TORSDOF 0
ENDMDL
