MODEL 1
REMARK minimizedAffinity -2.63568211
REMARK minimizedRMSD -1
REMARK  0 active torsions:
REMARK  status: ('A' for Active; 'I' for Inactive)
ROOT
ATOM      1  C   UNL d   1       0.835  -1.130  -0.793  0.00  0.00     0.023 A 
ATOM      2  C1  UNL d   1       1.601  -0.874   0.345  0.00  0.00     0.003 A 
ATOM      3  C2  UNL d   1       1.065  -0.128   1.396  0.00  0.00     0.048 A 
ATOM      4  C3  UNL d   1      -0.238   0.359   1.304  0.00  0.00     0.023 A 
ATOM      5  C4  UNL d   1      -1.009   0.105   0.168  0.00  0.00     0.048 A 
ATOM      6  C5  UNL d   1      -0.468  -0.641  -0.881  0.00  0.00     0.003 A 
ATOM      7  I   UNL d   1      -1.039   1.470   2.868  0.00  0.00    -0.146 I 
ENDROOT
TORSDOF 0
ENDMDL
