MODEL 1
REMARK minimizedAffinity -1.51723945
REMARK minimizedRMSD -1
REMARK  0 active torsions:
REMARK  status: ('A' for Active; 'I' for Inactive)
ROOT
ATOM      1  C   UNL d   1       0.509   0.832   0.569  0.00  0.00     0.023 A 
ATOM      2  C1  UNL d   1       0.317   1.046   1.934  0.00  0.00     0.003 A 
ATOM      3  C2  UNL d   1      -0.734   0.412   2.601  0.00  0.00     0.048 A 
ATOM      4  C3  UNL d   1      -1.588  -0.436   1.896  0.00  0.00     0.023 A 
ATOM      5  C4  UNL d   1      -1.399  -0.654   0.531  0.00  0.00     0.048 A 
ATOM      6  C5  UNL d   1      -0.348  -0.017  -0.132  0.00  0.00     0.003 A 
ATOM      7  I   UNL d   1      -3.152  -1.381   2.886  0.00  0.00    -0.146 I 
ENDROOT
TORSDOF 0
ENDMDL
