MODEL 1
REMARK minimizedAffinity -2.3074441
REMARK minimizedRMSD -1
REMARK  0 active torsions:
REMARK  status: ('A' for Active; 'I' for Inactive)
ROOT
ATOM      1  C   UNL d   1      -0.923  -0.052   0.984  0.00  0.00     0.023 A 
ATOM      2  C1  UNL d   1      -1.676  -0.181  -0.182  0.00  0.00     0.003 A 
ATOM      3  C2  UNL d   1      -1.045  -0.165  -1.428  0.00  0.00     0.048 A 
ATOM      4  C3  UNL d   1       0.340  -0.020  -1.499  0.00  0.00     0.023 A 
ATOM      5  C4  UNL d   1       1.098   0.110  -0.334  0.00  0.00     0.048 A 
ATOM      6  C5  UNL d   1       0.462   0.094   0.909  0.00  0.00     0.003 A 
ATOM      7  I   UNL d   1       1.282   0.005  -3.352  0.00  0.00    -0.146 I 
ENDROOT
TORSDOF 0
ENDMDL
