MODEL 1
REMARK minimizedAffinity -1.82941675
REMARK minimizedRMSD -1
REMARK  0 active torsions:
REMARK  status: ('A' for Active; 'I' for Inactive)
ROOT
ATOM      1  C   UNL d   1       0.874  -0.751  -1.411  0.00  0.00     0.023 A 
ATOM      2  C1  UNL d   1      -0.480  -0.424  -1.328  0.00  0.00     0.003 A 
ATOM      3  C2  UNL d   1      -0.978   0.206  -0.185  0.00  0.00     0.048 A 
ATOM      4  C3  UNL d   1      -0.117   0.507   0.870  0.00  0.00     0.023 A 
ATOM      5  C4  UNL d   1       1.238   0.182   0.790  0.00  0.00     0.048 A 
ATOM      6  C5  UNL d   1       1.732  -0.448  -0.353  0.00  0.00     0.003 A 
ATOM      7  I   UNL d   1      -0.857   1.444   2.571  0.00  0.00    -0.146 I 
ENDROOT
TORSDOF 0
ENDMDL
