MODEL 1
REMARK minimizedAffinity -2.97829628
REMARK minimizedRMSD -1
REMARK  0 active torsions:
REMARK  status: ('A' for Active; 'I' for Inactive)
ROOT
ATOM      1  C   UNL d   1      -2.117   0.527   2.105  0.00  0.00     0.023 A 
ATOM      2  C1  UNL d   1      -0.729   0.420   2.194  0.00  0.00     0.003 A 
ATOM      3  C2  UNL d   1       0.035   0.245   1.038  0.00  0.00     0.048 A 
ATOM      4  C3  UNL d   1      -0.596   0.178  -0.204  0.00  0.00     0.023 A 
ATOM      5  C4  UNL d   1      -1.984   0.286  -0.298  0.00  0.00     0.048 A 
ATOM      6  C5  UNL d   1      -2.744   0.460   0.861  0.00  0.00     0.003 A 
ATOM      7  I   UNL d   1       0.539  -0.082  -1.925  0.00  0.00    -0.146 I 
ENDROOT
TORSDOF 0
ENDMDL
