MODEL 1
REMARK minimizedAffinity -1.65635955
REMARK minimizedRMSD -1
REMARK  0 active torsions:
REMARK  status: ('A' for Active; 'I' for Inactive)
ROOT
ATOM      1  C   UNL d   1       0.696   1.449   1.307  0.00  0.00     0.023 A 
ATOM      2  C1  UNL d   1       0.289   1.566   2.636  0.00  0.00     0.003 A 
ATOM      3  C2  UNL d   1      -0.745   0.765   3.124  0.00  0.00     0.048 A 
ATOM      4  C3  UNL d   1      -1.369  -0.151   2.277  0.00  0.00     0.023 A 
ATOM      5  C4  UNL d   1      -0.965  -0.272   0.947  0.00  0.00     0.048 A 
ATOM      6  C5  UNL d   1       0.070   0.532   0.463  0.00  0.00     0.003 A 
ATOM      7  I   UNL d   1      -2.909  -1.344   3.001  0.00  0.00    -0.146 I 
ENDROOT
TORSDOF 0
ENDMDL
