MODEL 1
REMARK minimizedAffinity -2.49183035
REMARK minimizedRMSD -1
REMARK  1 active torsions:
REMARK  status: ('A' for Active; 'I' for Inactive)
REMARK    1  A    between atoms: C1_2  and  C2_3 
ROOT
ATOM      1  C2  UNL d   1      -1.130   1.822  -1.908  0.00  0.00    -0.073 A 
ATOM      2  C3  UNL d   1      -2.029   1.265  -2.825  0.00  0.00    -0.002 A 
ATOM      3  C4  UNL d   1      -2.222   1.859  -4.072  0.00  0.00     0.004 A 
ATOM      4  C5  UNL d   1      -1.515   3.011  -4.419  0.00  0.00    -0.004 A 
ATOM      5  C6  UNL d   1      -0.604   3.576  -3.521  0.00  0.00    -0.075 A 
ATOM      6  C7  UNL d   1       0.162   4.816  -3.877  0.00  0.00     0.076 C 
ATOM      7  C8  UNL d   1      -0.417   2.974  -2.269  0.00  0.00     0.001 A 
ENDROOT
BRANCH   1   8
ATOM      8  C1  UNL d   1      -0.913   1.180  -0.562  0.00  0.00     0.053 C 
ATOM      9  C   UNL d   1       0.486   0.601  -0.426  0.00  0.00     0.018 C 
ENDBRANCH   1   8
TORSDOF 1
ENDMDL
