MODEL 1
REMARK minimizedAffinity -2.47987485
REMARK minimizedRMSD -1
REMARK  1 active torsions:
REMARK  status: ('A' for Active; 'I' for Inactive)
REMARK    1  A    between atoms: C1_2  and  C2_3 
ROOT
ATOM      1  C2  UNL d   1       0.075   0.677  -0.553  0.00  0.00    -0.073 A 
ATOM      2  C3  UNL d   1       1.218   1.316  -1.045  0.00  0.00    -0.002 A 
ATOM      3  C4  UNL d   1       2.483   0.769  -0.822  0.00  0.00     0.004 A 
ATOM      4  C5  UNL d   1       2.617  -0.423  -0.112  0.00  0.00    -0.004 A 
ATOM      5  C6  UNL d   1       1.485  -1.083   0.378  0.00  0.00    -0.075 A 
ATOM      6  C7  UNL d   1       1.612  -2.366   1.146  0.00  0.00     0.076 C 
ATOM      7  C8  UNL d   1       0.219  -0.527   0.153  0.00  0.00     0.001 A 
ENDROOT
BRANCH   1   8
ATOM      8  C1  UNL d   1      -1.293   1.260  -0.796  0.00  0.00     0.053 C 
ATOM      9  C   UNL d   1      -1.334   2.111  -2.055  0.00  0.00     0.018 C 
ENDBRANCH   1   8
TORSDOF 1
ENDMDL
