MODEL 1
REMARK minimizedAffinity -4.15032291
REMARK minimizedRMSD -1
REMARK  1 active torsions:
REMARK  status: ('A' for Active; 'I' for Inactive)
REMARK    1  A    between atoms: C1_2  and  C2_3 
ROOT
ATOM      1  C2  UNL d   1      -0.110   0.302   0.953  0.00  0.00    -0.073 A 
ATOM      2  C3  UNL d   1       1.077   0.950   0.590  0.00  0.00    -0.002 A 
ATOM      3  C4  UNL d   1       2.202   0.208   0.228  0.00  0.00     0.004 A 
ATOM      4  C5  UNL d   1       2.151  -1.185   0.217  0.00  0.00    -0.004 A 
ATOM      5  C6  UNL d   1       0.971  -1.851   0.564  0.00  0.00    -0.075 A 
ATOM      6  C7  UNL d   1       0.900  -3.350   0.560  0.00  0.00     0.076 C 
ATOM      7  C8  UNL d   1      -0.154  -1.100   0.930  0.00  0.00     0.001 A 
ENDROOT
BRANCH   1   8
ATOM      8  C1  UNL d   1      -1.330   1.098   1.339  0.00  0.00     0.053 C 
ATOM      9  C   UNL d   1      -1.971   0.575   2.614  0.00  0.00     0.018 C 
ENDBRANCH   1   8
TORSDOF 1
ENDMDL
