MODEL 1
REMARK minimizedAffinity 0.237474695
REMARK minimizedRMSD -1
REMARK  1 active torsions:
REMARK  status: ('A' for Active; 'I' for Inactive)
REMARK    1  A    between atoms: C1_2  and  C2_3 
ROOT
ATOM      1  C2  UNL d   1       0.987  -0.040   0.261  0.00  0.00    -0.073 A 
ATOM      2  C3  UNL d   1       1.636  -0.996   1.050  0.00  0.00    -0.002 A 
ATOM      3  C4  UNL d   1       3.023  -0.966   1.195  0.00  0.00     0.004 A 
ATOM      4  C5  UNL d   1       3.774   0.022   0.559  0.00  0.00    -0.004 A 
ATOM      5  C6  UNL d   1       3.143   0.994  -0.224  0.00  0.00    -0.075 A 
ATOM      6  C7  UNL d   1       3.936   2.062  -0.916  0.00  0.00     0.076 C 
ATOM      7  C8  UNL d   1       1.749   0.955  -0.366  0.00  0.00     0.001 A 
ENDROOT
BRANCH   1   8
ATOM      8  C1  UNL d   1      -0.512  -0.064   0.108  0.00  0.00     0.053 C 
ATOM      9  C   UNL d   1      -1.081  -1.463   0.284  0.00  0.00     0.018 C 
ENDBRANCH   1   8
TORSDOF 1
ENDMDL
