MODEL 1
REMARK minimizedAffinity -0.940495789
REMARK minimizedRMSD -1
REMARK  0 active torsions:
REMARK  status: ('A' for Active; 'I' for Inactive)
ROOT
ATOM      1  C   UNL d   1      -1.193   1.708   2.402  0.00  0.00     0.077 C 
ATOM      2  C1  UNL d   1      -0.527   1.325   1.114  0.00  0.00    -0.074 A 
ATOM      3  C2  UNL d   1      -0.258   2.282   0.131  0.00  0.00    -0.005 A 
ATOM      4  C3  UNL d   1       0.370   1.912  -1.058  0.00  0.00     0.006 A 
ATOM      5  C4  UNL d   1       0.735   0.583  -1.276  0.00  0.00    -0.005 A 
ATOM      6  C5  UNL d   1       0.475  -0.388  -0.304  0.00  0.00    -0.074 A 
ATOM      7  C6  UNL d   1       0.869  -1.819  -0.518  0.00  0.00     0.077 C 
ATOM      8  C7  UNL d   1      -0.151  -0.007   0.891  0.00  0.00    -0.001 A 
ENDROOT
TORSDOF 0
ENDMDL
