MODEL 1
REMARK minimizedAffinity -0.141029373
REMARK minimizedRMSD -1
REMARK  0 active torsions:
REMARK  status: ('A' for Active; 'I' for Inactive)
ROOT
ATOM      1  C   UNL d   1      -1.014   0.424   2.500  0.00  0.00     0.077 C 
ATOM      2  C1  UNL d   1      -0.446   0.375   1.112  0.00  0.00    -0.074 A 
ATOM      3  C2  UNL d   1      -0.120   1.549   0.427  0.00  0.00    -0.005 A 
ATOM      4  C3  UNL d   1       0.416   1.487  -0.860  0.00  0.00     0.006 A 
ATOM      5  C4  UNL d   1       0.630   0.252  -1.473  0.00  0.00    -0.005 A 
ATOM      6  C5  UNL d   1       0.310  -0.933  -0.803  0.00  0.00    -0.074 A 
ATOM      7  C6  UNL d   1       0.543  -2.269  -1.443  0.00  0.00     0.077 C 
ATOM      8  C7  UNL d   1      -0.221  -0.863   0.492  0.00  0.00    -0.001 A 
ENDROOT
TORSDOF 0
ENDMDL
