MODEL 1
REMARK minimizedAffinity -3.75173211
REMARK minimizedRMSD -1
REMARK  0 active torsions:
REMARK  status: ('A' for Active; 'I' for Inactive)
ROOT
ATOM      1  C   UNL d   1      -0.308   0.447   0.264  0.00  0.00     0.077 C 
ATOM      2  C1  UNL d   1       0.325  -0.777  -0.330  0.00  0.00    -0.074 A 
ATOM      3  C2  UNL d   1       1.549  -1.256   0.146  0.00  0.00    -0.005 A 
ATOM      4  C3  UNL d   1       2.120  -2.401  -0.409  0.00  0.00     0.006 A 
ATOM      5  C4  UNL d   1       1.474  -3.078  -1.444  0.00  0.00    -0.005 A 
ATOM      6  C5  UNL d   1       0.248  -2.614  -1.932  0.00  0.00    -0.074 A 
ATOM      7  C6  UNL d   1      -0.465  -3.335  -3.038  0.00  0.00     0.077 C 
ATOM      8  C7  UNL d   1      -0.323  -1.467  -1.364  0.00  0.00    -0.001 A 
ENDROOT
TORSDOF 0
ENDMDL
