MODEL 1
REMARK minimizedAffinity -2.41079378
REMARK minimizedRMSD -1
REMARK  0 active torsions:
REMARK  status: ('A' for Active; 'I' for Inactive)
ROOT
ATOM      1  C   UNL d   1       0.778  -2.092  -1.367  0.00  0.00     0.077 C 
ATOM      2  C1  UNL d   1       0.412  -0.784  -0.731  0.00  0.00    -0.074 A 
ATOM      3  C2  UNL d   1       0.756   0.430  -1.334  0.00  0.00    -0.005 A 
ATOM      4  C3  UNL d   1       0.401   1.638  -0.735  0.00  0.00     0.006 A 
ATOM      5  C4  UNL d   1      -0.301   1.645   0.471  0.00  0.00    -0.005 A 
ATOM      6  C5  UNL d   1      -0.654   0.441   1.088  0.00  0.00    -0.074 A 
ATOM      7  C6  UNL d   1      -1.417   0.431   2.379  0.00  0.00     0.077 C 
ATOM      8  C7  UNL d   1      -0.300  -0.769   0.477  0.00  0.00    -0.001 A 
ENDROOT
TORSDOF 0
ENDMDL
