MODEL 1
REMARK minimizedAffinity -3.93731809
REMARK minimizedRMSD -1
REMARK  0 active torsions:
REMARK  status: ('A' for Active; 'I' for Inactive)
ROOT
ATOM      1  C   UNL d   1       1.575  -0.612  -0.879  0.00  0.00     0.077 C 
ATOM      2  C1  UNL d   1       0.654   0.078   0.084  0.00  0.00    -0.074 A 
ATOM      3  C2  UNL d   1       0.259   1.403  -0.124  0.00  0.00    -0.005 A 
ATOM      4  C3  UNL d   1      -0.606   2.028   0.774  0.00  0.00     0.006 A 
ATOM      5  C4  UNL d   1      -1.084   1.335   1.887  0.00  0.00    -0.005 A 
ATOM      6  C5  UNL d   1      -0.700   0.009   2.111  0.00  0.00    -0.074 A 
ATOM      7  C6  UNL d   1      -1.213  -0.753   3.297  0.00  0.00     0.077 C 
ATOM      8  C7  UNL d   1       0.163  -0.614   1.200  0.00  0.00    -0.001 A 
ENDROOT
TORSDOF 0
ENDMDL
