MODEL 1
REMARK minimizedAffinity -4.26238728
REMARK minimizedRMSD -1
REMARK  0 active torsions:
REMARK  status: ('A' for Active; 'I' for Inactive)
ROOT
ATOM      1  C   UNL d   1      -0.191   3.417   0.143  0.00  0.00     0.077 C 
ATOM      2  C1  UNL d   1      -0.400   1.983   0.529  0.00  0.00    -0.074 A 
ATOM      3  C2  UNL d   1      -1.303   1.635   1.539  0.00  0.00    -0.005 A 
ATOM      4  C3  UNL d   1      -1.494   0.296   1.881  0.00  0.00     0.006 A 
ATOM      5  C4  UNL d   1      -0.785  -0.706   1.218  0.00  0.00    -0.005 A 
ATOM      6  C5  UNL d   1       0.121  -0.377   0.205  0.00  0.00    -0.074 A 
ATOM      7  C6  UNL d   1       0.883  -1.443  -0.525  0.00  0.00     0.077 C 
ATOM      8  C7  UNL d   1       0.302   0.970  -0.138  0.00  0.00    -0.001 A 
ENDROOT
TORSDOF 0
ENDMDL
