MODEL 1
REMARK minimizedAffinity -3.59162736
REMARK minimizedRMSD -1
REMARK  0 active torsions:
REMARK  status: ('A' for Active; 'I' for Inactive)
ROOT
ATOM      1  C   UNL d   1       0.732  -2.708  -1.485  0.00  0.00     0.077 C 
ATOM      2  C1  UNL d   1       0.507  -1.306  -1.003  0.00  0.00    -0.074 A 
ATOM      3  C2  UNL d   1       1.023  -0.212  -1.706  0.00  0.00    -0.005 A 
ATOM      4  C3  UNL d   1       0.797   1.087  -1.251  0.00  0.00     0.006 A 
ATOM      5  C4  UNL d   1       0.055   1.305  -0.089  0.00  0.00    -0.005 A 
ATOM      6  C5  UNL d   1      -0.469   0.224   0.627  0.00  0.00    -0.074 A 
ATOM      7  C6  UNL d   1      -1.277   0.442   1.872  0.00  0.00     0.077 C 
ATOM      8  C7  UNL d   1      -0.244  -1.078   0.159  0.00  0.00    -0.001 A 
ENDROOT
TORSDOF 0
ENDMDL
