MODEL 1
REMARK minimizedAffinity -0.166786477
REMARK minimizedRMSD -1
REMARK  0 active torsions:
REMARK  status: ('A' for Active; 'I' for Inactive)
ROOT
ATOM      1  C   UNL d   1       1.952  -4.961  -0.330  0.00  0.00     0.077 C 
ATOM      2  C1  UNL d   1       1.381  -3.885  -1.204  0.00  0.00    -0.074 A 
ATOM      3  C2  UNL d   1       0.845  -4.188  -2.460  0.00  0.00    -0.005 A 
ATOM      4  C3  UNL d   1       0.308  -3.177  -3.258  0.00  0.00     0.006 A 
ATOM      5  C4  UNL d   1       0.302  -1.856  -2.809  0.00  0.00    -0.005 A 
ATOM      6  C5  UNL d   1       0.833  -1.534  -1.556  0.00  0.00    -0.074 A 
ATOM      7  C6  UNL d   1       0.826  -0.121  -1.054  0.00  0.00     0.077 C 
ATOM      8  C7  UNL d   1       1.364  -2.556  -0.757  0.00  0.00    -0.001 A 
ENDROOT
TORSDOF 0
ENDMDL
