MODEL 1
REMARK minimizedAffinity -4.03578377
REMARK minimizedRMSD -1
REMARK  0 active torsions:
REMARK  status: ('A' for Active; 'I' for Inactive)
ROOT
ATOM      1  C   UNL d   1       1.103   2.237  -1.507  0.00  0.00     0.077 C 
ATOM      2  C1  UNL d   1       0.222   2.102  -0.301  0.00  0.00    -0.074 A 
ATOM      3  C2  UNL d   1      -0.220   3.231   0.396  0.00  0.00    -0.005 A 
ATOM      4  C3  UNL d   1      -1.047   3.090   1.510  0.00  0.00     0.006 A 
ATOM      5  C4  UNL d   1      -1.439   1.822   1.939  0.00  0.00    -0.005 A 
ATOM      6  C5  UNL d   1      -1.007   0.681   1.254  0.00  0.00    -0.074 A 
ATOM      7  C6  UNL d   1      -1.427  -0.689   1.695  0.00  0.00     0.077 C 
ATOM      8  C7  UNL d   1      -0.182   0.831   0.131  0.00  0.00    -0.001 A 
ENDROOT
TORSDOF 0
ENDMDL
