MODEL 1
REMARK minimizedAffinity -4.46174526
REMARK minimizedRMSD -1
REMARK  0 active torsions:
REMARK  status: ('A' for Active; 'I' for Inactive)
ROOT
ATOM      1  C   UNL d   1      -1.093   2.764   1.534  0.00  0.00     0.077 C 
ATOM      2  C1  UNL d   1      -0.817   1.305   1.321  0.00  0.00    -0.074 A 
ATOM      3  C2  UNL d   1      -1.087   0.369   2.324  0.00  0.00    -0.005 A 
ATOM      4  C3  UNL d   1      -0.834  -0.986   2.108  0.00  0.00     0.006 A 
ATOM      5  C4  UNL d   1      -0.310  -1.417   0.889  0.00  0.00    -0.005 A 
ATOM      6  C5  UNL d   1      -0.035  -0.495  -0.127  0.00  0.00    -0.074 A 
ATOM      7  C6  UNL d   1       0.519  -0.943  -1.446  0.00  0.00     0.077 C 
ATOM      8  C7  UNL d   1      -0.298   0.863   0.096  0.00  0.00    -0.001 A 
ENDROOT
TORSDOF 0
ENDMDL
