MODEL 1
REMARK minimizedAffinity -2.98212457
REMARK minimizedRMSD -1
REMARK  0 active torsions:
REMARK  status: ('A' for Active; 'I' for Inactive)
ROOT
ATOM      1  C   UNL d   1      -1.781  -0.051   1.179  0.00  0.00     0.077 C 
ATOM      2  C1  UNL d   1      -0.622  -0.402   0.293  0.00  0.00    -0.074 A 
ATOM      3  C2  UNL d   1       0.631   0.190   0.480  0.00  0.00    -0.005 A 
ATOM      4  C3  UNL d   1       1.702  -0.153  -0.345  0.00  0.00     0.006 A 
ATOM      5  C4  UNL d   1       1.531  -1.091  -1.364  0.00  0.00    -0.005 A 
ATOM      6  C5  UNL d   1       0.285  -1.694  -1.566  0.00  0.00    -0.074 A 
ATOM      7  C6  UNL d   1       0.087  -2.711  -2.650  0.00  0.00     0.077 C 
ATOM      8  C7  UNL d   1      -0.784  -1.349  -0.728  0.00  0.00    -0.001 A 
ENDROOT
TORSDOF 0
ENDMDL
