MODEL 1
REMARK minimizedAffinity -4.15570974
REMARK minimizedRMSD -1
REMARK  0 active torsions:
REMARK  status: ('A' for Active; 'I' for Inactive)
ROOT
ATOM      1  C   UNL d   1       1.113  -1.240  -0.364  0.00  0.00     0.077 C 
ATOM      2  C1  UNL d   1       0.426   0.038   0.014  0.00  0.00    -0.074 A 
ATOM      3  C2  UNL d   1      -0.390   0.108   1.148  0.00  0.00    -0.005 A 
ATOM      4  C3  UNL d   1      -1.014   1.306   1.492  0.00  0.00     0.006 A 
ATOM      5  C4  UNL d   1      -0.829   2.446   0.708  0.00  0.00    -0.005 A 
ATOM      6  C5  UNL d   1      -0.016   2.396  -0.428  0.00  0.00    -0.074 A 
ATOM      7  C6  UNL d   1       0.201   3.614  -1.276  0.00  0.00     0.077 C 
ATOM      8  C7  UNL d   1       0.614   1.189  -0.764  0.00  0.00    -0.001 A 
ENDROOT
TORSDOF 0
ENDMDL
