MODEL 1
REMARK minimizedAffinity -0.229358166
REMARK minimizedRMSD -1
REMARK  0 active torsions:
REMARK  status: ('A' for Active; 'I' for Inactive)
ROOT
ATOM      1  C   UNL d   1       5.436   5.995   3.219  0.00  0.00     0.020 A 
ATOM      2  C1  UNL d   1       4.050   6.000   3.368  0.00  0.00     0.020 A 
ATOM      3  C2  UNL d   1       3.226   5.998   2.240  0.00  0.00     0.034 A 
ATOM      4  C3  UNL d   1       3.789   5.992   0.958  0.00  0.00     0.017 A 
ATOM      5  C4  UNL d   1       5.180   5.987   0.810  0.00  0.00     0.017 A 
ATOM      6  C5  UNL d   1       6.000   5.988   1.943  0.00  0.00     0.034 A 
ATOM      7 Cl   UNL d   1       5.948   5.979  -0.739  0.00  0.00    -0.070 Cl
ATOM      8 Cl1  UNL d   1       2.711   5.990  -0.392  0.00  0.00    -0.070 Cl
ENDROOT
TORSDOF 0
ENDMDL
