MODEL 1
REMARK minimizedAffinity 18.1841393
REMARK minimizedRMSD -1
REMARK  0 active torsions:
REMARK  status: ('A' for Active; 'I' for Inactive)
ROOT
ATOM      1  C   UNL d   1       1.592  -0.784  -2.642  0.00  0.00     0.020 A 
ATOM      2  C1  UNL d   1       0.672  -1.831  -2.672  0.00  0.00     0.020 A 
ATOM      3  C2  UNL d   1       0.868  -2.956  -1.868  0.00  0.00     0.034 A 
ATOM      4  C3  UNL d   1       1.987  -3.037  -1.031  0.00  0.00     0.017 A 
ATOM      5  C4  UNL d   1       2.910  -1.985  -1.002  0.00  0.00     0.017 A 
ATOM      6  C5  UNL d   1       2.709  -0.861  -1.808  0.00  0.00     0.034 A 
ATOM      7 Cl   UNL d   1       4.315  -2.013   0.005  0.00  0.00    -0.070 Cl
ATOM      8 Cl1  UNL d   1       2.166  -4.458  -0.065  0.00  0.00    -0.070 Cl
ENDROOT
TORSDOF 0
ENDMDL
