MODEL 1
REMARK minimizedAffinity 4.43927813
REMARK minimizedRMSD -1
REMARK  0 active torsions:
REMARK  status: ('A' for Active; 'I' for Inactive)
ROOT
ATOM      1  C   UNL d   1       5.292   5.689   1.632  0.00  0.00     0.020 A 
ATOM      2  C1  UNL d   1       5.993   5.093   0.585  0.00  0.00     0.020 A 
ATOM      3  C2  UNL d   1       5.330   4.759  -0.598  0.00  0.00     0.034 A 
ATOM      4  C3  UNL d   1       3.962   5.021  -0.737  0.00  0.00     0.017 A 
ATOM      5  C4  UNL d   1       3.259   5.619   0.315  0.00  0.00     0.017 A 
ATOM      6  C5  UNL d   1       3.928   5.951   1.498  0.00  0.00     0.034 A 
ATOM      7 Cl   UNL d   1       1.570   5.973   0.219  0.00  0.00    -0.070 Cl
ATOM      8 Cl1  UNL d   1       3.207   4.582  -2.227  0.00  0.00    -0.070 Cl
ENDROOT
TORSDOF 0
ENDMDL
