MODEL 1
REMARK minimizedAffinity 12.6413126
REMARK minimizedRMSD -1
REMARK  0 active torsions:
REMARK  status: ('A' for Active; 'I' for Inactive)
ROOT
ATOM      1  C   UNL d   1       1.962  -5.427   1.636  0.00  0.00     0.020 A 
ATOM      2  C1  UNL d   1       0.602  -5.563   1.912  0.00  0.00     0.020 A 
ATOM      3  C2  UNL d   1      -0.326  -4.736   1.275  0.00  0.00     0.034 A 
ATOM      4  C3  UNL d   1       0.105  -3.770   0.359  0.00  0.00     0.017 A 
ATOM      5  C4  UNL d   1       1.470  -3.634   0.082  0.00  0.00     0.017 A 
ATOM      6  C5  UNL d   1       2.395  -4.465   0.723  0.00  0.00     0.034 A 
ATOM      7 Cl   UNL d   1       2.077  -2.465  -1.037  0.00  0.00    -0.070 Cl
ATOM      8 Cl1  UNL d   1      -1.098  -2.782  -0.392  0.00  0.00    -0.070 Cl
ENDROOT
TORSDOF 0
ENDMDL
