MODEL 1
REMARK minimizedAffinity 1.05526412
REMARK minimizedRMSD -1
REMARK  0 active torsions:
REMARK  status: ('A' for Active; 'I' for Inactive)
ROOT
ATOM      1  C   UNL d   1       5.433   5.857  -0.536  0.00  0.00     0.020 A 
ATOM      2  C1  UNL d   1       4.048   5.913  -0.685  0.00  0.00     0.020 A 
ATOM      3  C2  UNL d   1       3.226   5.957   0.444  0.00  0.00     0.034 A 
ATOM      4  C3  UNL d   1       3.788   5.944   1.725  0.00  0.00     0.017 A 
ATOM      5  C4  UNL d   1       5.179   5.887   1.873  0.00  0.00     0.017 A 
ATOM      6  C5  UNL d   1       5.997   5.844   0.740  0.00  0.00     0.034 A 
ATOM      7 Cl   UNL d   1       5.946   5.868   3.422  0.00  0.00    -0.070 Cl
ATOM      8 Cl1  UNL d   1       2.712   6.000   3.076  0.00  0.00    -0.070 Cl
ENDROOT
TORSDOF 0
ENDMDL
