MODEL 1
REMARK minimizedAffinity 4.66247845
REMARK minimizedRMSD -1
REMARK  0 active torsions:
REMARK  status: ('A' for Active; 'I' for Inactive)
ROOT
ATOM      1  C   UNL d   1      -2.822   0.278   3.835  0.00  0.00     0.020 A 
ATOM      2  C1  UNL d   1      -1.946   1.267   3.387  0.00  0.00     0.020 A 
ATOM      3  C2  UNL d   1      -1.575   1.313   2.041  0.00  0.00     0.034 A 
ATOM      4  C3  UNL d   1      -2.079   0.369   1.139  0.00  0.00     0.017 A 
ATOM      5  C4  UNL d   1      -2.958  -0.623   1.590  0.00  0.00     0.017 A 
ATOM      6  C5  UNL d   1      -3.327  -0.664   2.938  0.00  0.00     0.034 A 
ATOM      7 Cl   UNL d   1      -3.622  -1.822   0.537  0.00  0.00    -0.070 Cl
ATOM      8 Cl1  UNL d   1      -1.578   0.485  -0.510  0.00  0.00    -0.070 Cl
ENDROOT
TORSDOF 0
ENDMDL
