MODEL 1
REMARK minimizedAffinity 9.29644299
REMARK minimizedRMSD -1
REMARK  0 active torsions:
REMARK  status: ('A' for Active; 'I' for Inactive)
ROOT
ATOM      1  C   UNL d   1      -1.434  -3.114  -1.930  0.00  0.00     0.020 A 
ATOM      2  C1  UNL d   1      -0.462  -2.537  -2.746  0.00  0.00     0.020 A 
ATOM      3  C2  UNL d   1       0.885  -2.600  -2.380  0.00  0.00     0.034 A 
ATOM      4  C3  UNL d   1       1.263  -3.242  -1.195  0.00  0.00     0.017 A 
ATOM      5  C4  UNL d   1       0.286  -3.821  -0.377  0.00  0.00     0.017 A 
ATOM      6  C5  UNL d   1      -1.060  -3.755  -0.748  0.00  0.00     0.034 A 
ATOM      7 Cl   UNL d   1       0.675  -4.630   1.100  0.00  0.00    -0.070 Cl
ATOM      8 Cl1  UNL d   1       2.945  -3.283  -0.805  0.00  0.00    -0.070 Cl
ENDROOT
TORSDOF 0
ENDMDL
