MODEL 1
REMARK minimizedAffinity 10.972167
REMARK minimizedRMSD -1
REMARK  0 active torsions:
REMARK  status: ('A' for Active; 'I' for Inactive)
ROOT
ATOM      1  C   UNL d   1       1.248   0.469  -2.155  0.00  0.00     0.020 A 
ATOM      2  C1  UNL d   1       2.523   0.092  -1.737  0.00  0.00     0.020 A 
ATOM      3  C2  UNL d   1       2.727  -1.166  -1.165  0.00  0.00     0.034 A 
ATOM      4  C3  UNL d   1       1.654  -2.051  -1.009  0.00  0.00     0.017 A 
ATOM      5  C4  UNL d   1       0.374  -1.671  -1.429  0.00  0.00     0.017 A 
ATOM      6  C5  UNL d   1       0.175  -0.411  -2.001  0.00  0.00     0.034 A 
ATOM      7 Cl   UNL d   1      -0.999  -2.708  -1.269  0.00  0.00    -0.070 Cl
ATOM      8 Cl1  UNL d   1       1.979  -3.590  -0.294  0.00  0.00    -0.070 Cl
ENDROOT
TORSDOF 0
ENDMDL
