MODEL 1
REMARK minimizedAffinity 8.40408516
REMARK minimizedRMSD -1
REMARK  0 active torsions:
REMARK  status: ('A' for Active; 'I' for Inactive)
ROOT
ATOM      1  C   UNL d   1      -2.279   1.021   3.199  0.00  0.00     0.020 A 
ATOM      2  C1  UNL d   1      -3.315   1.447   2.370  0.00  0.00     0.020 A 
ATOM      3  C2  UNL d   1      -3.747   2.774   2.418  0.00  0.00     0.034 A 
ATOM      4  C3  UNL d   1      -3.143   3.680   3.298  0.00  0.00     0.017 A 
ATOM      5  C4  UNL d   1      -2.103   3.251   4.130  0.00  0.00     0.017 A 
ATOM      6  C5  UNL d   1      -1.674   1.921   4.077  0.00  0.00     0.034 A 
ATOM      7 Cl   UNL d   1      -1.308   4.310   5.241  0.00  0.00    -0.070 Cl
ATOM      8 Cl1  UNL d   1      -3.728   5.306   3.304  0.00  0.00    -0.070 Cl
ENDROOT
TORSDOF 0
ENDMDL
