MODEL 1
REMARK minimizedAffinity 6.79296923
REMARK minimizedRMSD -1
REMARK  0 active torsions:
REMARK  status: ('A' for Active; 'I' for Inactive)
ROOT
ATOM      1  C   UNL d   1       2.483  -0.432  -1.961  0.00  0.00     0.020 A 
ATOM      2  C1  UNL d   1       2.415   0.831  -2.548  0.00  0.00     0.020 A 
ATOM      3  C2  UNL d   1       1.181   1.467  -2.697  0.00  0.00     0.034 A 
ATOM      4  C3  UNL d   1       0.009   0.840  -2.258  0.00  0.00     0.017 A 
ATOM      5  C4  UNL d   1       0.077  -0.428  -1.669  0.00  0.00     0.017 A 
ATOM      6  C5  UNL d   1       1.316  -1.059  -1.522  0.00  0.00     0.034 A 
ATOM      7 Cl   UNL d   1      -1.325  -1.264  -1.103  0.00  0.00    -0.070 Cl
ATOM      8 Cl1  UNL d   1      -1.483   1.684  -2.474  0.00  0.00    -0.070 Cl
ENDROOT
TORSDOF 0
ENDMDL
