MODEL 1
REMARK minimizedAffinity 8.05739117
REMARK minimizedRMSD -1
REMARK  0 active torsions:
REMARK  status: ('A' for Active; 'I' for Inactive)
ROOT
ATOM      1  C   UNL d   1       3.140  -2.028  -0.290  0.00  0.00     0.020 A 
ATOM      2  C1  UNL d   1       2.701  -3.326  -0.544  0.00  0.00     0.020 A 
ATOM      3  C2  UNL d   1       1.610  -3.542  -1.389  0.00  0.00     0.034 A 
ATOM      4  C3  UNL d   1       0.955  -2.457  -1.982  0.00  0.00     0.017 A 
ATOM      5  C4  UNL d   1       1.397  -1.154  -1.727  0.00  0.00     0.017 A 
ATOM      6  C5  UNL d   1       2.490  -0.944  -0.880  0.00  0.00     0.034 A 
ATOM      7 Cl   UNL d   1       0.639   0.235  -2.424  0.00  0.00    -0.070 Cl
ATOM      8 Cl1  UNL d   1      -0.387  -2.797  -3.017  0.00  0.00    -0.070 Cl
ENDROOT
TORSDOF 0
ENDMDL
