MODEL 1
REMARK minimizedAffinity -0.476188302
REMARK minimizedRMSD -1
REMARK  0 active torsions:
REMARK  status: ('A' for Active; 'I' for Inactive)
ROOT
ATOM      1  C   UNL d   1       5.253  -3.679   5.993  0.00  0.00     0.020 A 
ATOM      2  C1  UNL d   1       5.253  -4.464   4.840  0.00  0.00     0.020 A 
ATOM      3  C2  UNL d   1       5.486  -3.876   3.595  0.00  0.00     0.034 A 
ATOM      4  C3  UNL d   1       5.719  -2.499   3.499  0.00  0.00     0.017 A 
ATOM      5  C4  UNL d   1       5.718  -1.712   4.657  0.00  0.00     0.017 A 
ATOM      6  C5  UNL d   1       5.485  -2.306   5.901  0.00  0.00     0.034 A 
ATOM      7 Cl   UNL d   1       5.998  -0.007   4.618  0.00  0.00    -0.070 Cl
ATOM      8 Cl1  UNL d   1       5.999  -1.840   1.927  0.00  0.00    -0.070 Cl
ENDROOT
TORSDOF 0
ENDMDL
