MODEL 1
REMARK minimizedAffinity 7.42843676
REMARK minimizedRMSD -1
REMARK  0 active torsions:
REMARK  status: ('A' for Active; 'I' for Inactive)
ROOT
ATOM      1  C   UNL d   1       1.933   0.581  -2.487  0.00  0.00     0.020 A 
ATOM      2  C1  UNL d   1       0.581   0.917  -2.538  0.00  0.00     0.020 A 
ATOM      3  C2  UNL d   1      -0.377   0.040  -2.025  0.00  0.00     0.034 A 
ATOM      4  C3  UNL d   1       0.016  -1.179  -1.460  0.00  0.00     0.017 A 
ATOM      5  C4  UNL d   1       1.374  -1.516  -1.409  0.00  0.00     0.017 A 
ATOM      6  C5  UNL d   1       2.329  -0.633  -1.924  0.00  0.00     0.034 A 
ATOM      7 Cl   UNL d   1       1.935  -3.001  -0.726  0.00  0.00    -0.070 Cl
ATOM      8 Cl1  UNL d   1      -1.222  -2.215  -0.845  0.00  0.00    -0.070 Cl
ENDROOT
TORSDOF 0
ENDMDL
