MODEL 1
REMARK minimizedAffinity 7.29543686
REMARK minimizedRMSD -1
REMARK  0 active torsions:
REMARK  status: ('A' for Active; 'I' for Inactive)
ROOT
ATOM      1  C   UNL d   1       6.000  -0.228  -3.643  0.00  0.00     0.020 A 
ATOM      2  C1  UNL d   1       4.989   0.447  -4.326  0.00  0.00     0.020 A 
ATOM      3  C2  UNL d   1       3.694   0.476  -3.804  0.00  0.00     0.034 A 
ATOM      4  C3  UNL d   1       3.406  -0.171  -2.597  0.00  0.00     0.017 A 
ATOM      5  C4  UNL d   1       4.422  -0.849  -1.913  0.00  0.00     0.017 A 
ATOM      6  C5  UNL d   1       5.717  -0.874  -2.440  0.00  0.00     0.034 A 
ATOM      7 Cl   UNL d   1       4.144  -1.671  -0.418  0.00  0.00    -0.070 Cl
ATOM      8 Cl1  UNL d   1       1.783  -0.094  -2.011  0.00  0.00    -0.070 Cl
ENDROOT
TORSDOF 0
ENDMDL
