MODEL 1
REMARK minimizedAffinity 10.6219826
REMARK minimizedRMSD -1
REMARK  0 active torsions:
REMARK  status: ('A' for Active; 'I' for Inactive)
ROOT
ATOM      1  C   UNL d   1      -1.613   1.133   3.003  0.00  0.00     0.020 A 
ATOM      2  C1  UNL d   1      -2.045  -0.126   3.418  0.00  0.00     0.020 A 
ATOM      3  C2  UNL d   1      -3.404  -0.446   3.378  0.00  0.00     0.034 A 
ATOM      4  C3  UNL d   1      -4.335   0.495   2.922  0.00  0.00     0.017 A 
ATOM      5  C4  UNL d   1      -3.900   1.758   2.505  0.00  0.00     0.017 A 
ATOM      6  C5  UNL d   1      -2.538   2.073   2.548  0.00  0.00     0.034 A 
ATOM      7 Cl   UNL d   1      -4.989   2.970   1.930  0.00  0.00    -0.070 Cl
ATOM      8 Cl1  UNL d   1      -6.000   0.031   2.899  0.00  0.00    -0.070 Cl
ENDROOT
TORSDOF 0
ENDMDL
