MODEL 1
REMARK minimizedAffinity -0.486156344
REMARK minimizedRMSD -1
REMARK  0 active torsions:
REMARK  status: ('A' for Active; 'I' for Inactive)
ROOT
ATOM      1  C   UNL d   1       2.066  -1.755  -1.569  0.00  0.00     0.020 A 
ATOM      2  C1  UNL d   1       3.331  -1.255  -1.259  0.00  0.00     0.020 A 
ATOM      3  C2  UNL d   1       3.585   0.114  -1.363  0.00  0.00     0.034 A 
ATOM      4  C3  UNL d   1       2.574   0.988  -1.778  0.00  0.00     0.017 A 
ATOM      5  C4  UNL d   1       1.305   0.486  -2.088  0.00  0.00     0.017 A 
ATOM      6  C5  UNL d   1       1.056  -0.886  -1.982  0.00  0.00     0.034 A 
ATOM      7 Cl   UNL d   1       0.007   1.503  -2.607  0.00  0.00    -0.070 Cl
ATOM      8 Cl1  UNL d   1       2.958   2.670  -1.884  0.00  0.00    -0.070 Cl
ENDROOT
TORSDOF 0
ENDMDL
