MODEL 1
REMARK minimizedAffinity 10.7462721
REMARK minimizedRMSD -1
REMARK  0 active torsions:
REMARK  status: ('A' for Active; 'I' for Inactive)
ROOT
ATOM      1  C   UNL d   1      -0.786   2.305  -2.142  0.00  0.00     0.020 A 
ATOM      2  C1  UNL d   1       0.375   2.045  -2.870  0.00  0.00     0.020 A 
ATOM      3  C2  UNL d   1       0.906   0.753  -2.899  0.00  0.00     0.034 A 
ATOM      4  C3  UNL d   1       0.276  -0.282  -2.199  0.00  0.00     0.017 A 
ATOM      5  C4  UNL d   1      -0.889  -0.020  -1.470  0.00  0.00     0.017 A 
ATOM      6  C5  UNL d   1      -1.417   1.274  -1.444  0.00  0.00     0.034 A 
ATOM      7 Cl   UNL d   1      -1.723  -1.247  -0.582  0.00  0.00    -0.070 Cl
ATOM      8 Cl1  UNL d   1       0.988  -1.855  -2.280  0.00  0.00    -0.070 Cl
ENDROOT
TORSDOF 0
ENDMDL
