MODEL 1
REMARK minimizedAffinity -2.07002544
REMARK minimizedRMSD -1
REMARK  0 active torsions:
REMARK  status: ('A' for Active; 'I' for Inactive)
ROOT
ATOM      1  C   UNL d   1      -4.591   0.788  -1.392  0.00  0.00     0.077 C 
ATOM      2  C1  UNL d   1      -3.580   0.793  -0.284  0.00  0.00    -0.074 A 
ATOM      3  C2  UNL d   1      -3.936   1.177   1.013  0.00  0.00    -0.005 A 
ATOM      4  C3  UNL d   1      -2.988   1.167   2.035  0.00  0.00     0.006 A 
ATOM      5  C4  UNL d   1      -1.675   0.774   1.771  0.00  0.00    -0.005 A 
ATOM      6  C5  UNL d   1      -1.300   0.386   0.481  0.00  0.00    -0.074 A 
ATOM      7  C6  UNL d   1       0.104  -0.048   0.183  0.00  0.00     0.077 C 
ATOM      8  C7  UNL d   1      -2.261   0.392  -0.539  0.00  0.00    -0.001 A 
ENDROOT
TORSDOF 0
ENDMDL
