MODEL 1
REMARK minimizedAffinity -3.57799482
REMARK minimizedRMSD -1
REMARK  0 active torsions:
REMARK  status: ('A' for Active; 'I' for Inactive)
ROOT
ATOM      1  C   UNL d   1       2.750   1.495   1.150  0.00  0.00     0.077 C 
ATOM      2  C1  UNL d   1       1.703   0.512   0.718  0.00  0.00    -0.074 A 
ATOM      3  C2  UNL d   1       2.011  -0.843   0.559  0.00  0.00    -0.005 A 
ATOM      4  C3  UNL d   1       1.024  -1.747   0.166  0.00  0.00     0.006 A 
ATOM      5  C4  UNL d   1      -0.278  -1.306  -0.073  0.00  0.00    -0.005 A 
ATOM      6  C5  UNL d   1      -0.605   0.046   0.081  0.00  0.00    -0.074 A 
ATOM      7  C6  UNL d   1      -2.002   0.535  -0.162  0.00  0.00     0.077 C 
ATOM      8  C7  UNL d   1       0.391   0.946   0.484  0.00  0.00    -0.001 A 
ENDROOT
TORSDOF 0
ENDMDL
