MODEL 1
REMARK minimizedAffinity -1.16546035
REMARK minimizedRMSD -1
REMARK  0 active torsions:
REMARK  status: ('A' for Active; 'I' for Inactive)
ROOT
ATOM      1  C   UNL d   1      -1.329   0.990  -0.726  0.00  0.00     0.077 C 
ATOM      2  C1  UNL d   1      -0.406   0.146   0.102  0.00  0.00    -0.074 A 
ATOM      3  C2  UNL d   1      -0.674  -0.100   1.452  0.00  0.00    -0.005 A 
ATOM      4  C3  UNL d   1       0.188  -0.896   2.207  0.00  0.00     0.006 A 
ATOM      5  C4  UNL d   1       1.325  -1.452   1.620  0.00  0.00    -0.005 A 
ATOM      6  C5  UNL d   1       1.609  -1.218   0.270  0.00  0.00    -0.074 A 
ATOM      7  C6  UNL d   1       2.821  -1.817  -0.379  0.00  0.00     0.077 C 
ATOM      8  C7  UNL d   1       0.734  -0.424  -0.483  0.00  0.00    -0.001 A 
ENDROOT
TORSDOF 0
ENDMDL
