MODEL 1
REMARK minimizedAffinity -4.08195162
REMARK minimizedRMSD -1
REMARK  0 active torsions:
REMARK  status: ('A' for Active; 'I' for Inactive)
ROOT
ATOM      1  C   UNL d   1      -2.879   1.264   2.514  0.00  0.00     0.077 C 
ATOM      2  C1  UNL d   1      -2.102   0.912   1.280  0.00  0.00    -0.074 A 
ATOM      3  C2  UNL d   1      -2.549   1.303   0.014  0.00  0.00    -0.005 A 
ATOM      4  C3  UNL d   1      -1.811   0.977  -1.124  0.00  0.00     0.006 A 
ATOM      5  C4  UNL d   1      -0.620   0.259  -1.007  0.00  0.00    -0.005 A 
ATOM      6  C5  UNL d   1      -0.157  -0.139   0.251  0.00  0.00    -0.074 A 
ATOM      7  C6  UNL d   1       1.126  -0.903   0.395  0.00  0.00     0.077 C 
ATOM      8  C7  UNL d   1      -0.901   0.198   1.390  0.00  0.00    -0.001 A 
ENDROOT
TORSDOF 0
ENDMDL
