MODEL 1
REMARK minimizedAffinity -3.11570621
REMARK minimizedRMSD -1
REMARK  0 active torsions:
REMARK  status: ('A' for Active; 'I' for Inactive)
ROOT
ATOM      1  C   UNL d   1      -0.007   1.994  -0.008  0.00  0.00     0.077 C 
ATOM      2  C1  UNL d   1       0.313   0.529   0.018  0.00  0.00    -0.074 A 
ATOM      3  C2  UNL d   1      -0.589  -0.412  -0.489  0.00  0.00    -0.005 A 
ATOM      4  C3  UNL d   1      -0.274  -1.771  -0.467  0.00  0.00     0.006 A 
ATOM      5  C4  UNL d   1       0.943  -2.201   0.062  0.00  0.00    -0.005 A 
ATOM      6  C5  UNL d   1       1.857  -1.275   0.573  0.00  0.00    -0.074 A 
ATOM      7  C6  UNL d   1       3.174  -1.720   1.137  0.00  0.00     0.077 C 
ATOM      8  C7  UNL d   1       1.537   0.089   0.541  0.00  0.00    -0.001 A 
ENDROOT
TORSDOF 0
ENDMDL
