MODEL 1
REMARK minimizedAffinity -5.09714222
REMARK minimizedRMSD -1
REMARK  0 active torsions:
REMARK  status: ('A' for Active; 'I' for Inactive)
ROOT
ATOM      1  C   UNL d   1      -0.513  -2.557  -1.120  0.00  0.00     0.077 C 
ATOM      2  C1  UNL d   1       0.207  -1.408  -0.479  0.00  0.00    -0.074 A 
ATOM      3  C2  UNL d   1      -0.355  -0.128  -0.462  0.00  0.00    -0.005 A 
ATOM      4  C3  UNL d   1       0.323   0.929   0.146  0.00  0.00     0.006 A 
ATOM      5  C4  UNL d   1       1.567   0.717   0.742  0.00  0.00    -0.005 A 
ATOM      6  C5  UNL d   1       2.144  -0.557   0.735  0.00  0.00    -0.074 A 
ATOM      7  C6  UNL d   1       3.475  -0.805   1.380  0.00  0.00     0.077 C 
ATOM      8  C7  UNL d   1       1.454  -1.615   0.128  0.00  0.00    -0.001 A 
ENDROOT
TORSDOF 0
ENDMDL
