MODEL 1
REMARK minimizedAffinity -4.76514816
REMARK minimizedRMSD -1
REMARK  0 active torsions:
REMARK  status: ('A' for Active; 'I' for Inactive)
ROOT
ATOM      1  C   UNL d   1      -1.104   0.449  -0.103  0.00  0.00     0.077 C 
ATOM      2  C1  UNL d   1       0.330   0.010  -0.088  0.00  0.00    -0.074 A 
ATOM      3  C2  UNL d   1       0.668  -1.345  -0.166  0.00  0.00    -0.005 A 
ATOM      4  C3  UNL d   1       2.007  -1.738  -0.161  0.00  0.00     0.006 A 
ATOM      5  C4  UNL d   1       3.019  -0.781  -0.076  0.00  0.00    -0.005 A 
ATOM      6  C5  UNL d   1       2.700   0.578   0.002  0.00  0.00    -0.074 A 
ATOM      7  C6  UNL d   1       3.776   1.620   0.083  0.00  0.00     0.077 C 
ATOM      8  C7  UNL d   1       1.353   0.965  -0.011  0.00  0.00    -0.001 A 
ENDROOT
TORSDOF 0
ENDMDL
