MODEL 1
REMARK minimizedAffinity -4.8795414
REMARK minimizedRMSD -1
REMARK  0 active torsions:
REMARK  status: ('A' for Active; 'I' for Inactive)
ROOT
ATOM      1  C   UNL d   1       2.942  -1.564   1.106  0.00  0.00     0.077 C 
ATOM      2  C1  UNL d   1       1.667  -1.006   0.546  0.00  0.00    -0.074 A 
ATOM      3  C2  UNL d   1       1.141   0.200   1.020  0.00  0.00    -0.005 A 
ATOM      4  C3  UNL d   1      -0.040   0.711   0.482  0.00  0.00     0.006 A 
ATOM      5  C4  UNL d   1      -0.706   0.023  -0.533  0.00  0.00    -0.005 A 
ATOM      6  C5  UNL d   1      -0.194  -1.184  -1.020  0.00  0.00    -0.074 A 
ATOM      7  C6  UNL d   1      -0.892  -1.932  -2.118  0.00  0.00     0.077 C 
ATOM      8  C7  UNL d   1       0.997  -1.688  -0.480  0.00  0.00    -0.001 A 
ENDROOT
TORSDOF 0
ENDMDL
