MODEL 1
REMARK minimizedAffinity -3.07338834
REMARK minimizedRMSD -1
REMARK  0 active torsions:
REMARK  status: ('A' for Active; 'I' for Inactive)
ROOT
ATOM      1  N1  IND d   1       1.219  -0.621   0.199  0.00  0.00    -0.196 N 
ATOM      2  C2  IND d   1       0.362  -0.946  -0.816  0.00  0.00     0.054 A 
ATOM      3  C3  IND d   1      -0.774  -0.220  -0.723  0.00  0.00    -0.031 A 
ATOM      4  C4  IND d   1      -1.398   1.632   0.953  0.00  0.00     0.051 A 
ATOM      5  C5  IND d   1      -0.953   2.256   2.084  0.00  0.00    -0.031 A 
ATOM      6  C6  IND d   1       0.265   1.949   2.655  0.00  0.00     0.015 A 
ATOM      7  C7  IND d   1       1.092   1.009   2.106  0.00  0.00    -0.016 A 
ATOM      8  C8  IND d   1       0.640   0.369   0.961  0.00  0.00    -0.047 A 
ATOM      9  C9  IND d   1      -0.614   0.646   0.402  0.00  0.00    -0.096 A 
ATOM     10  HN1 IND d   1       1.990  -0.976   0.337  0.00  0.00     0.298 HD
ENDROOT
TORSDOF 0
ENDMDL
