MODEL 1
REMARK minimizedAffinity -2.69375873
REMARK minimizedRMSD -1
REMARK  0 active torsions:
REMARK  status: ('A' for Active; 'I' for Inactive)
ROOT
ATOM      1  N1  IND d   1      -0.918   2.308   2.195  0.00  0.00    -0.196 N 
ATOM      2  C2  IND d   1      -1.869   2.138   1.227  0.00  0.00     0.054 A 
ATOM      3  C3  IND d   1      -1.590   1.045   0.482  0.00  0.00    -0.031 A 
ATOM      4  C4  IND d   1       0.315  -0.667   0.737  0.00  0.00     0.051 A 
ATOM      5  C5  IND d   1       1.452  -0.914   1.454  0.00  0.00    -0.031 A 
ATOM      6  C6  IND d   1       1.864  -0.085   2.477  0.00  0.00     0.015 A 
ATOM      7  C7  IND d   1       1.145   1.022   2.830  0.00  0.00    -0.016 A 
ATOM      8  C8  IND d   1      -0.006   1.280   2.100  0.00  0.00    -0.047 A 
ATOM      9  C9  IND d   1      -0.407   0.465   1.033  0.00  0.00    -0.096 A 
ATOM     10  HN1 IND d   1      -0.894   2.950   2.767  0.00  0.00     0.298 HD
ENDROOT
TORSDOF 0
ENDMDL
