MODEL 1
REMARK minimizedAffinity -2.91335869
REMARK minimizedRMSD -1
REMARK  0 active torsions:
REMARK  status: ('A' for Active; 'I' for Inactive)
ROOT
ATOM      1  N1  IND d   1      -0.769  -0.441  -0.779  0.00  0.00    -0.196 N 
ATOM      2  C2  IND d   1       0.048  -1.534  -0.857  0.00  0.00     0.054 A 
ATOM      3  C3  IND d   1       0.933  -1.535   0.165  0.00  0.00    -0.031 A 
ATOM      4  C4  IND d   1       1.155   0.105   2.137  0.00  0.00     0.051 A 
ATOM      5  C5  IND d   1       0.656   1.282   2.621  0.00  0.00    -0.031 A 
ATOM      6  C6  IND d   1      -0.366   1.957   1.985  0.00  0.00     0.015 A 
ATOM      7  C7  IND d   1      -0.938   1.472   0.842  0.00  0.00    -0.016 A 
ATOM      8  C8  IND d   1      -0.428   0.281   0.344  0.00  0.00    -0.047 A 
ATOM      9  C9  IND d   1       0.637  -0.387   0.962  0.00  0.00    -0.096 A 
ATOM     10  HN1 IND d   1      -1.391  -0.238  -1.337  0.00  0.00     0.298 HD
ENDROOT
TORSDOF 0
ENDMDL
