MODEL 1
REMARK minimizedAffinity -6.14447403
REMARK minimizedRMSD -1
REMARK  0 active torsions:
REMARK  status: ('A' for Active; 'I' for Inactive)
ROOT
ATOM      1  N1  IND d   1       0.182   0.768  -1.391  0.00  0.00    -0.196 N 
ATOM      2  C2  IND d   1       0.691  -0.467  -1.100  0.00  0.00     0.054 A 
ATOM      3  C3  IND d   1       0.653  -0.688   0.233  0.00  0.00    -0.031 A 
ATOM      4  C4  IND d   1      -0.294   0.795   2.112  0.00  0.00     0.051 A 
ATOM      5  C5  IND d   1      -0.831   2.031   2.341  0.00  0.00    -0.031 A 
ATOM      6  C6  IND d   1      -1.065   2.926   1.317  0.00  0.00     0.015 A 
ATOM      7  C7  IND d   1      -0.780   2.613   0.018  0.00  0.00    -0.016 A 
ATOM      8  C8  IND d   1      -0.228   1.362  -0.218  0.00  0.00    -0.047 A 
ATOM      9  C9  IND d   1       0.051   0.465   0.822  0.00  0.00    -0.096 A 
ATOM     10  HN1 IND d   1       0.127   1.116  -2.176  0.00  0.00     0.298 HD
ENDROOT
TORSDOF 0
ENDMDL
