MODEL 1
REMARK minimizedAffinity -3.61052275
REMARK minimizedRMSD -1
REMARK  0 active torsions:
REMARK  status: ('A' for Active; 'I' for Inactive)
ROOT
ATOM      1  N1  IND d   1      -0.881  -0.481  -0.999  0.00  0.00    -0.196 N 
ATOM      2  C2  IND d   1       0.115  -1.417  -0.988  0.00  0.00     0.054 A 
ATOM      3  C3  IND d   1       0.935  -1.218   0.069  0.00  0.00    -0.031 A 
ATOM      4  C4  IND d   1       0.770   0.518   1.962  0.00  0.00     0.051 A 
ATOM      5  C5  IND d   1       0.051   1.609   2.364  0.00  0.00    -0.031 A 
ATOM      6  C6  IND d   1      -1.039   2.066   1.652  0.00  0.00     0.015 A 
ATOM      7  C7  IND d   1      -1.460   1.440   0.513  0.00  0.00    -0.016 A 
ATOM      8  C8  IND d   1      -0.728   0.336   0.098  0.00  0.00    -0.047 A 
ATOM      9  C9  IND d   1       0.405  -0.107   0.793  0.00  0.00    -0.096 A 
ATOM     10  HN1 IND d   1      -1.500  -0.415  -1.593  0.00  0.00     0.298 HD
ENDROOT
TORSDOF 0
ENDMDL
