MODEL 1
REMARK minimizedAffinity -3.96669436
REMARK minimizedRMSD -1
REMARK  0 active torsions:
REMARK  status: ('A' for Active; 'I' for Inactive)
ROOT
ATOM      1  N1  IND d   1       0.015   1.731  -1.593  0.00  0.00    -0.196 N 
ATOM      2  C2  IND d   1       0.702   0.580  -1.859  0.00  0.00     0.054 A 
ATOM      3  C3  IND d   1       0.970  -0.084  -0.712  0.00  0.00    -0.031 A 
ATOM      4  C4  IND d   1       0.285   0.484   1.704  0.00  0.00     0.051 A 
ATOM      5  C5  IND d   1      -0.321   1.454   2.452  0.00  0.00    -0.031 A 
ATOM      6  C6  IND d   1      -0.859   2.588   1.878  0.00  0.00     0.015 A 
ATOM      7  C7  IND d   1      -0.821   2.789   0.527  0.00  0.00    -0.016 A 
ATOM      8  C8  IND d   1      -0.201   1.809  -0.235  0.00  0.00    -0.047 A 
ATOM      9  C9  IND d   1       0.385   0.677   0.346  0.00  0.00    -0.096 A 
ATOM     10  HN1 IND d   1      -0.241   2.309  -2.177  0.00  0.00     0.298 HD
ENDROOT
TORSDOF 0
ENDMDL
