MODEL 1
REMARK minimizedAffinity 7.33050108
REMARK minimizedRMSD -1
REMARK  0 active torsions:
REMARK  status: ('A' for Active; 'I' for Inactive)
ROOT
ATOM      1  N1  IND d   1      -2.327   3.717  -0.734  0.00  0.00    -0.196 N 
ATOM      2  C2  IND d   1      -3.513   3.184  -1.158  0.00  0.00     0.054 A 
ATOM      3  C3  IND d   1      -3.351   1.885  -1.494  0.00  0.00    -0.031 A 
ATOM      4  C4  IND d   1      -1.254   0.401  -1.332  0.00  0.00     0.051 A 
ATOM      5  C5  IND d   1       0.080   0.450  -1.036  0.00  0.00    -0.031 A 
ATOM      6  C6  IND d   1       0.691   1.613  -0.614  0.00  0.00     0.015 A 
ATOM      7  C7  IND d   1      -0.014   2.773  -0.460  0.00  0.00    -0.016 A 
ATOM      8  C8  IND d   1      -1.367   2.729  -0.766  0.00  0.00    -0.047 A 
ATOM      9  C9  IND d   1      -1.984   1.562  -1.235  0.00  0.00    -0.096 A 
ATOM     10  HN1 IND d   1      -2.201   4.531  -0.489  0.00  0.00     0.298 HD
ENDROOT
TORSDOF 0
ENDMDL
