MODEL 1
REMARK minimizedAffinity 6.05191517
REMARK minimizedRMSD -1
REMARK  0 active torsions:
REMARK  status: ('A' for Active; 'I' for Inactive)
ROOT
ATOM      1  N1  IND d   1       5.101  -0.411  -2.011  0.00  0.00    -0.196 N 
ATOM      2  C2  IND d   1       5.999  -1.414  -2.250  0.00  0.00     0.054 A 
ATOM      3  C3  IND d   1       5.679  -2.513  -1.530  0.00  0.00    -0.031 A 
ATOM      4  C4  IND d   1       3.670  -2.921   0.027  0.00  0.00     0.051 A 
ATOM      5  C5  IND d   1       2.597  -2.288   0.589  0.00  0.00    -0.031 A 
ATOM      6  C6  IND d   1       2.296  -0.972   0.305  0.00  0.00     0.015 A 
ATOM      7  C7  IND d   1       3.054  -0.239  -0.564  0.00  0.00    -0.016 A 
ATOM      8  C8  IND d   1       4.148  -0.876  -1.131  0.00  0.00    -0.047 A 
ATOM      9  C9  IND d   1       4.483  -2.199  -0.814  0.00  0.00    -0.096 A 
ATOM     10  HN1 IND d   1       5.127   0.377  -2.353  0.00  0.00     0.298 HD
ENDROOT
TORSDOF 0
ENDMDL
