MODEL 1
REMARK minimizedAffinity -2.11590385
REMARK minimizedRMSD -1
REMARK  2 active torsions:
REMARK  status: ('A' for Active; 'I' for Inactive)
REMARK    1  A    between atoms: C1_2  and  C2_3 
REMARK    2  A    between atoms: C2_3  and  C3_4 
ROOT
ATOM      1  C3  UNL d   1       0.092   0.096  -0.083  0.00  0.00    -0.075 A 
ATOM      2  C4  UNL d   1      -0.109   1.479   0.039  0.00  0.00     0.002 A 
ATOM      3  C5  UNL d   1       0.974   2.338   0.227  0.00  0.00     0.002 A 
ATOM      4  C6  UNL d   1       2.267   1.827   0.305  0.00  0.00    -0.004 A 
ATOM      5  C7  UNL d   1       2.477   0.454   0.203  0.00  0.00     0.002 A 
ATOM      6  C8  UNL d   1       1.396  -0.408   0.010  0.00  0.00     0.002 A 
ENDROOT
BRANCH   1   7
ATOM      7  C2  UNL d   1      -1.073  -0.836  -0.316  0.00  0.00     0.056 C 
BRANCH   7   8
ATOM      8  C1  UNL d   1      -1.477  -0.973  -1.787  0.00  0.00     0.007 C 
ATOM      9  C   UNL d   1      -2.716  -1.836  -1.992  0.00  0.00     0.009 C 
ENDBRANCH   7   8
ENDBRANCH   1   7
TORSDOF 2
ENDMDL
