MODEL 1
REMARK minimizedAffinity -0.97394973
REMARK minimizedRMSD -1
REMARK  2 active torsions:
REMARK  status: ('A' for Active; 'I' for Inactive)
REMARK    1  A    between atoms: C1_2  and  C2_3 
REMARK    2  A    between atoms: C2_3  and  C3_4 
ROOT
ATOM      1  C3  UNL d   1       0.831   5.275  -5.027  0.00  0.00    -0.075 A 
ATOM      2  C4  UNL d   1       0.529   5.646  -3.708  0.00  0.00     0.002 A 
ATOM      3  C5  UNL d   1      -0.773   5.999  -3.353  0.00  0.00     0.002 A 
ATOM      4  C6  UNL d   1      -1.785   5.997  -4.310  0.00  0.00    -0.004 A 
ATOM      5  C7  UNL d   1      -1.493   5.647  -5.627  0.00  0.00     0.002 A 
ATOM      6  C8  UNL d   1      -0.192   5.288  -5.984  0.00  0.00     0.002 A 
ENDROOT
BRANCH   1   7
ATOM      7  C2  UNL d   1       2.232   4.863  -5.412  0.00  0.00     0.056 C 
BRANCH   7   8
ATOM      8  C1  UNL d   1       3.331   5.727  -4.784  0.00  0.00     0.007 C 
ATOM      9  C   UNL d   1       4.526   5.940  -5.703  0.00  0.00     0.009 C 
ENDBRANCH   7   8
ENDBRANCH   1   7
TORSDOF 2
ENDMDL
