MODEL 1
REMARK minimizedAffinity 6.42342615
REMARK minimizedRMSD -1
REMARK  2 active torsions:
REMARK  status: ('A' for Active; 'I' for Inactive)
REMARK    1  A    between atoms: C1_2  and  C2_3 
REMARK    2  A    between atoms: C2_3  and  C3_4 
ROOT
ATOM      1  C3  UNL d   1       0.147   5.846  -4.788  0.00  0.00    -0.075 A 
ATOM      2  C4  UNL d   1       0.612   5.711  -3.472  0.00  0.00     0.002 A 
ATOM      3  C5  UNL d   1      -0.283   5.707  -2.402  0.00  0.00     0.002 A 
ATOM      4  C6  UNL d   1      -1.650   5.847  -2.632  0.00  0.00    -0.004 A 
ATOM      5  C7  UNL d   1      -2.122   5.997  -3.934  0.00  0.00     0.002 A 
ATOM      6  C8  UNL d   1      -1.229   5.998  -5.007  0.00  0.00     0.002 A 
ENDROOT
BRANCH   1   7
ATOM      7  C2  UNL d   1       1.107   5.822  -5.953  0.00  0.00     0.056 C 
BRANCH   7   8
ATOM      8  C1  UNL d   1       2.295   4.872  -5.763  0.00  0.00     0.007 C 
ATOM      9  C   UNL d   1       3.637   5.590  -5.726  0.00  0.00     0.009 C 
ENDBRANCH   7   8
ENDBRANCH   1   7
TORSDOF 2
ENDMDL
