MODEL 1
REMARK minimizedAffinity 7.31277561
REMARK minimizedRMSD -1
REMARK  2 active torsions:
REMARK  status: ('A' for Active; 'I' for Inactive)
REMARK    1  A    between atoms: C1_2  and  C2_3 
REMARK    2  A    between atoms: C2_3  and  C3_4 
ROOT
ATOM      1  C3  UNL d   1       1.101   0.402  -1.078  0.00  0.00    -0.075 A 
ATOM      2  C4  UNL d   1       1.505   1.590  -0.452  0.00  0.00     0.002 A 
ATOM      3  C5  UNL d   1       1.201   1.823   0.890  0.00  0.00     0.002 A 
ATOM      4  C6  UNL d   1       0.482   0.878   1.618  0.00  0.00    -0.004 A 
ATOM      5  C7  UNL d   1       0.060  -0.298   1.002  0.00  0.00     0.002 A 
ATOM      6  C8  UNL d   1       0.367  -0.536  -0.339  0.00  0.00     0.002 A 
ENDROOT
BRANCH   1   7
ATOM      7  C2  UNL d   1       1.452   0.131  -2.521  0.00  0.00     0.056 C 
BRANCH   7   8
ATOM      8  C1  UNL d   1       1.780  -1.336  -2.818  0.00  0.00     0.007 C 
ATOM      9  C   UNL d   1       2.899  -1.507  -3.837  0.00  0.00     0.009 C 
ENDBRANCH   7   8
ENDBRANCH   1   7
TORSDOF 2
ENDMDL
