MODEL 1
REMARK minimizedAffinity 3.46887398
REMARK minimizedRMSD -1
REMARK  2 active torsions:
REMARK  status: ('A' for Active; 'I' for Inactive)
REMARK    1  A    between atoms: C1_2  and  C2_3 
REMARK    2  A    between atoms: C2_3  and  C3_4 
ROOT
ATOM      1  C3  UNL d   1      -1.058   5.895  -4.142  0.00  0.00    -0.075 A 
ATOM      2  C4  UNL d   1      -2.444   5.922  -4.357  0.00  0.00     0.002 A 
ATOM      3  C5  UNL d   1      -3.327   5.978  -3.278  0.00  0.00     0.002 A 
ATOM      4  C6  UNL d   1      -2.837   5.997  -1.974  0.00  0.00    -0.004 A 
ATOM      5  C7  UNL d   1      -1.463   5.954  -1.748  0.00  0.00     0.002 A 
ATOM      6  C8  UNL d   1      -0.577   5.902  -2.826  0.00  0.00     0.002 A 
ENDROOT
BRANCH   1   7
ATOM      7  C2  UNL d   1      -0.097   5.864  -5.306  0.00  0.00     0.056 C 
BRANCH   7   8
ATOM      8  C1  UNL d   1       1.071   4.888  -5.125  0.00  0.00     0.007 C 
ATOM      9  C   UNL d   1       2.382   5.406  -5.701  0.00  0.00     0.009 C 
ENDBRANCH   7   8
ENDBRANCH   1   7
TORSDOF 2
ENDMDL
