MODEL 1
REMARK minimizedAffinity 4.59657097
REMARK minimizedRMSD -1
REMARK  2 active torsions:
REMARK  status: ('A' for Active; 'I' for Inactive)
REMARK    1  A    between atoms: C1_2  and  C2_3 
REMARK    2  A    between atoms: C2_3  and  C3_4 
ROOT
ATOM      1  C3  UNL d   1      -2.467   5.984  -1.844  0.00  0.00    -0.075 A 
ATOM      2  C4  UNL d   1      -3.466   5.998  -0.860  0.00  0.00     0.002 A 
ATOM      3  C5  UNL d   1      -4.814   6.000  -1.219  0.00  0.00     0.002 A 
ATOM      4  C6  UNL d   1      -5.180   5.996  -2.564  0.00  0.00    -0.004 A 
ATOM      5  C7  UNL d   1      -4.196   5.999  -3.550  0.00  0.00     0.002 A 
ATOM      6  C8  UNL d   1      -2.846   5.993  -3.193  0.00  0.00     0.002 A 
ENDROOT
BRANCH   1   7
ATOM      7  C2  UNL d   1      -1.006   5.953  -1.462  0.00  0.00     0.056 C 
BRANCH   7   8
ATOM      8  C1  UNL d   1      -0.648   4.852  -0.458  0.00  0.00     0.007 C 
ATOM      9  C   UNL d   1       0.460   3.929  -0.949  0.00  0.00     0.009 C 
ENDBRANCH   7   8
ENDBRANCH   1   7
TORSDOF 2
ENDMDL
