MODEL 1
REMARK minimizedAffinity 3.44216394
REMARK minimizedRMSD -1
REMARK  2 active torsions:
REMARK  status: ('A' for Active; 'I' for Inactive)
REMARK    1  A    between atoms: C1_2  and  C2_3 
REMARK    2  A    between atoms: C2_3  and  C3_4 
ROOT
ATOM      1  C3  UNL d   1       2.000   5.915  -4.630  0.00  0.00    -0.075 A 
ATOM      2  C4  UNL d   1       1.380   5.936  -5.888  0.00  0.00     0.002 A 
ATOM      3  C5  UNL d   1      -0.010   5.983  -5.993  0.00  0.00     0.002 A 
ATOM      4  C6  UNL d   1      -0.798   6.000  -4.844  0.00  0.00    -0.004 A 
ATOM      5  C7  UNL d   1      -0.194   5.963  -3.589  0.00  0.00     0.002 A 
ATOM      6  C8  UNL d   1       1.197   5.920  -3.482  0.00  0.00     0.002 A 
ENDROOT
BRANCH   1   7
ATOM      7  C2  UNL d   1       3.505   5.894  -4.510  0.00  0.00     0.056 C 
BRANCH   7   8
ATOM      8  C1  UNL d   1       4.235   5.757  -5.850  0.00  0.00     0.007 C 
ATOM      9  C   UNL d   1       5.647   5.203  -5.711  0.00  0.00     0.009 C 
ENDBRANCH   7   8
ENDBRANCH   1   7
TORSDOF 2
ENDMDL
