MODEL 1
REMARK minimizedAffinity -0.0185620915
REMARK minimizedRMSD -1
REMARK  2 active torsions:
REMARK  status: ('A' for Active; 'I' for Inactive)
REMARK    1  A    between atoms: C1_2  and  C2_3 
REMARK    2  A    between atoms: C2_3  and  C3_4 
ROOT
ATOM      1  C3  UNL d   1      -1.207   0.561   2.222  0.00  0.00    -0.075 A 
ATOM      2  C4  UNL d   1      -0.891   0.068   0.947  0.00  0.00     0.002 A 
ATOM      3  C5  UNL d   1       0.236   0.533   0.268  0.00  0.00     0.002 A 
ATOM      4  C6  UNL d   1       1.053   1.501   0.848  0.00  0.00    -0.004 A 
ATOM      5  C7  UNL d   1       0.739   2.009   2.106  0.00  0.00     0.002 A 
ATOM      6  C8  UNL d   1      -0.385   1.543   2.790  0.00  0.00     0.002 A 
ENDROOT
BRANCH   1   7
ATOM      7  C2  UNL d   1      -2.408   0.041   2.975  0.00  0.00     0.056 C 
BRANCH   7   8
ATOM      8  C1  UNL d   1      -2.285  -1.423   3.411  0.00  0.00     0.007 C 
ATOM      9  C   UNL d   1      -3.334  -1.834   4.436  0.00  0.00     0.009 C 
ENDBRANCH   7   8
ENDBRANCH   1   7
TORSDOF 2
ENDMDL
