MODEL 1
REMARK minimizedAffinity 5.31380272
REMARK minimizedRMSD -1
REMARK  2 active torsions:
REMARK  status: ('A' for Active; 'I' for Inactive)
REMARK    1  A    between atoms: C1_2  and  C2_3 
REMARK    2  A    between atoms: C2_3  and  C3_4 
ROOT
ATOM      1  C3  UNL d   1      -4.170  -2.377  -0.514  0.00  0.00    -0.075 A 
ATOM      2  C4  UNL d   1      -4.465  -1.694  -1.703  0.00  0.00     0.002 A 
ATOM      3  C5  UNL d   1      -4.248  -0.319  -1.802  0.00  0.00     0.002 A 
ATOM      4  C6  UNL d   1      -3.745   0.390  -0.714  0.00  0.00    -0.004 A 
ATOM      5  C7  UNL d   1      -3.463  -0.275   0.477  0.00  0.00     0.002 A 
ATOM      6  C8  UNL d   1      -3.675  -1.651   0.578  0.00  0.00     0.002 A 
ENDROOT
BRANCH   1   7
ATOM      7  C2  UNL d   1      -4.374  -3.869  -0.410  0.00  0.00     0.056 C 
BRANCH   7   8
ATOM      8  C1  UNL d   1      -3.336  -4.696  -1.176  0.00  0.00     0.007 C 
ATOM      9  C   UNL d   1      -2.971  -5.999  -0.476  0.00  0.00     0.009 C 
ENDBRANCH   7   8
ENDBRANCH   1   7
TORSDOF 2
ENDMDL
