MODEL 1
REMARK minimizedAffinity 3.12632394
REMARK minimizedRMSD -1
REMARK  0 active torsions:
REMARK  status: ('A' for Active; 'I' for Inactive)
ROOT
ATOM      1  C   UNL d   1       1.844  -3.363  -0.574  0.00  0.00     0.020 A 
ATOM      2  C1  UNL d   1       2.991  -2.939   0.096  0.00  0.00     0.020 A 
ATOM      3  C2  UNL d   1       2.882  -2.082   1.193  0.00  0.00     0.034 A 
ATOM      4  C3  UNL d   1       1.624  -1.646   1.623  0.00  0.00     0.017 A 
ATOM      5  C4  UNL d   1       0.473  -2.072   0.950  0.00  0.00     0.017 A 
ATOM      6  C5  UNL d   1       0.588  -2.930  -0.148  0.00  0.00     0.034 A 
ATOM      7 Cl   UNL d   1      -1.114  -1.577   1.422  0.00  0.00    -0.070 Cl
ATOM      8 Cl1  UNL d   1       1.563  -0.586   2.987  0.00  0.00    -0.070 Cl
ENDROOT
TORSDOF 0
ENDMDL
