MODEL 1
REMARK minimizedAffinity -0.978993118
REMARK minimizedRMSD -1
REMARK  0 active torsions:
REMARK  status: ('A' for Active; 'I' for Inactive)
ROOT
ATOM      1  C   UNL d   1       0.191  -1.020   0.375  0.00  0.00     0.020 A 
ATOM      2  C1  UNL d   1       1.447  -0.814   0.944  0.00  0.00     0.020 A 
ATOM      3  C2  UNL d   1       2.427  -1.804   0.850  0.00  0.00     0.034 A 
ATOM      4  C3  UNL d   1       2.152  -3.006   0.187  0.00  0.00     0.017 A 
ATOM      5  C4  UNL d   1       0.891  -3.212  -0.384  0.00  0.00     0.017 A 
ATOM      6  C5  UNL d   1      -0.086  -2.217  -0.287  0.00  0.00     0.034 A 
ATOM      7 Cl   UNL d   1       0.478  -4.668  -1.218  0.00  0.00    -0.070 Cl
ATOM      8 Cl1  UNL d   1       3.411  -4.187   0.109  0.00  0.00    -0.070 Cl
ENDROOT
TORSDOF 0
ENDMDL
