MODEL 1
REMARK minimizedAffinity 0.958335042
REMARK minimizedRMSD -1
REMARK  0 active torsions:
REMARK  status: ('A' for Active; 'I' for Inactive)
ROOT
ATOM      1  C   UNL d   1       0.021  -0.971   2.026  0.00  0.00     0.020 A 
ATOM      2  C1  UNL d   1      -0.091  -1.675   0.828  0.00  0.00     0.020 A 
ATOM      3  C2  UNL d   1       0.685  -1.307  -0.274  0.00  0.00     0.034 A 
ATOM      4  C3  UNL d   1       1.575  -0.231  -0.180  0.00  0.00     0.017 A 
ATOM      5  C4  UNL d   1       1.687   0.475   1.024  0.00  0.00     0.017 A 
ATOM      6  C5  UNL d   1       0.908   0.102   2.123  0.00  0.00     0.034 A 
ATOM      7 Cl   UNL d   1       2.764   1.813   1.216  0.00  0.00    -0.070 Cl
ATOM      8 Cl1  UNL d   1       2.503   0.169  -1.581  0.00  0.00    -0.070 Cl
ENDROOT
TORSDOF 0
ENDMDL
