MODEL 1
REMARK minimizedAffinity 0.0436580814
REMARK minimizedRMSD -1
REMARK  0 active torsions:
REMARK  status: ('A' for Active; 'I' for Inactive)
ROOT
ATOM      1  C   UNL d   1      -0.329  -0.802   0.924  0.00  0.00     0.020 A 
ATOM      2  C1  UNL d   1      -0.656  -2.157   0.900  0.00  0.00     0.020 A 
ATOM      3  C2  UNL d   1       0.309  -3.103   0.550  0.00  0.00     0.034 A 
ATOM      4  C3  UNL d   1       1.608  -2.695   0.222  0.00  0.00     0.017 A 
ATOM      5  C4  UNL d   1       1.936  -1.334   0.246  0.00  0.00     0.017 A 
ATOM      6  C5  UNL d   1       0.964  -0.392   0.597  0.00  0.00     0.034 A 
ATOM      7 Cl   UNL d   1       3.516  -0.755  -0.146  0.00  0.00    -0.070 Cl
ATOM      8 Cl1  UNL d   1       2.752  -3.919  -0.201  0.00  0.00    -0.070 Cl
ENDROOT
TORSDOF 0
ENDMDL
