MODEL 1
REMARK minimizedAffinity -0.808869958
REMARK minimizedRMSD -1
REMARK  0 active torsions:
REMARK  status: ('A' for Active; 'I' for Inactive)
ROOT
ATOM      1  C   UNL d   1      -0.193  -2.488   0.218  0.00  0.00     0.020 A 
ATOM      2  C1  UNL d   1       0.118  -1.151   0.463  0.00  0.00     0.020 A 
ATOM      3  C2  UNL d   1       1.452  -0.751   0.564  0.00  0.00     0.034 A 
ATOM      4  C3  UNL d   1       2.481  -1.690   0.420  0.00  0.00     0.017 A 
ATOM      5  C4  UNL d   1       2.167  -3.031   0.174  0.00  0.00     0.017 A 
ATOM      6  C5  UNL d   1       0.830  -3.426   0.074  0.00  0.00     0.034 A 
ATOM      7 Cl   UNL d   1       3.382  -4.247  -0.015  0.00  0.00    -0.070 Cl
ATOM      8 Cl1  UNL d   1       4.108  -1.125   0.556  0.00  0.00    -0.070 Cl
ENDROOT
TORSDOF 0
ENDMDL
