MODEL 1
REMARK minimizedAffinity 4.38171291
REMARK minimizedRMSD -1
REMARK  0 active torsions:
REMARK  status: ('A' for Active; 'I' for Inactive)
ROOT
ATOM      1  C   UNL d   1      -0.455  -2.314  -0.101  0.00  0.00     0.020 A 
ATOM      2  C1  UNL d   1      -0.207  -3.601  -0.577  0.00  0.00     0.020 A 
ATOM      3  C2  UNL d   1       1.070  -4.155  -0.460  0.00  0.00     0.034 A 
ATOM      4  C3  UNL d   1       2.103  -3.423   0.134  0.00  0.00     0.017 A 
ATOM      5  C4  UNL d   1       1.854  -2.131   0.612  0.00  0.00     0.017 A 
ATOM      6  C5  UNL d   1       0.574  -1.581   0.492  0.00  0.00     0.034 A 
ATOM      7 Cl   UNL d   1       3.078  -1.166   1.358  0.00  0.00    -0.070 Cl
ATOM      8 Cl1  UNL d   1       3.657  -4.170   0.247  0.00  0.00    -0.070 Cl
ENDROOT
TORSDOF 0
ENDMDL
