MODEL 1
REMARK minimizedAffinity -0.326604307
REMARK minimizedRMSD -1
REMARK  0 active torsions:
REMARK  status: ('A' for Active; 'I' for Inactive)
ROOT
ATOM      1  C   UNL d   1      -0.509  -0.235   1.053  0.00  0.00     0.020 A 
ATOM      2  C1  UNL d   1      -1.141  -1.463   0.863  0.00  0.00     0.020 A 
ATOM      3  C2  UNL d   1      -0.382  -2.605   0.598  0.00  0.00     0.034 A 
ATOM      4  C3  UNL d   1       1.013  -2.521   0.524  0.00  0.00     0.017 A 
ATOM      5  C4  UNL d   1       1.646  -1.288   0.715  0.00  0.00     0.017 A 
ATOM      6  C5  UNL d   1       0.881  -0.148   0.980  0.00  0.00     0.034 A 
ATOM      7 Cl   UNL d   1       3.363  -1.106   0.638  0.00  0.00    -0.070 Cl
ATOM      8 Cl1  UNL d   1       1.888  -3.974   0.193  0.00  0.00    -0.070 Cl
ENDROOT
TORSDOF 0
ENDMDL
