MODEL 1
REMARK minimizedAffinity 0.161768451
REMARK minimizedRMSD -1
REMARK  0 active torsions:
REMARK  status: ('A' for Active; 'I' for Inactive)
ROOT
ATOM      1  C   UNL d   1       0.433  -0.207   1.257  0.00  0.00     0.020 A 
ATOM      2  C1  UNL d   1      -0.306  -1.347   0.944  0.00  0.00     0.020 A 
ATOM      3  C2  UNL d   1       0.348  -2.551   0.676  0.00  0.00     0.034 A 
ATOM      4  C3  UNL d   1       1.745  -2.618   0.720  0.00  0.00     0.017 A 
ATOM      5  C4  UNL d   1       2.486  -1.473   1.035  0.00  0.00     0.017 A 
ATOM      6  C5  UNL d   1       1.826  -0.270   1.303  0.00  0.00     0.034 A 
ATOM      7 Cl   UNL d   1       4.213  -1.478   1.109  0.00  0.00    -0.070 Cl
ATOM      8 Cl1  UNL d   1       2.488  -4.140   0.378  0.00  0.00    -0.070 Cl
ENDROOT
TORSDOF 0
ENDMDL
