MODEL 1
REMARK minimizedAffinity 3.49783158
REMARK minimizedRMSD -1
REMARK  0 active torsions:
REMARK  status: ('A' for Active; 'I' for Inactive)
ROOT
ATOM      1  C   UNL d   1       4.276  -6.000  -0.021  0.00  0.00     0.020 A 
ATOM      2  C1  UNL d   1       5.278  -5.122  -0.434  0.00  0.00     0.020 A 
ATOM      3  C2  UNL d   1       5.022  -3.750  -0.495  0.00  0.00     0.034 A 
ATOM      4  C3  UNL d   1       3.762  -3.253  -0.143  0.00  0.00     0.017 A 
ATOM      5  C4  UNL d   1       2.757  -4.135   0.271  0.00  0.00     0.017 A 
ATOM      6  C5  UNL d   1       3.019  -5.507   0.331  0.00  0.00     0.034 A 
ATOM      7 Cl   UNL d   1       1.178  -3.596   0.721  0.00  0.00    -0.070 Cl
ATOM      8 Cl1  UNL d   1       3.516  -1.546  -0.243  0.00  0.00    -0.070 Cl
ENDROOT
TORSDOF 0
ENDMDL
