MODEL 1
REMARK minimizedAffinity -1.01844072
REMARK minimizedRMSD -1
REMARK  0 active torsions:
REMARK  status: ('A' for Active; 'I' for Inactive)
ROOT
ATOM      1  C   UNL d   1       0.305  -2.660   0.166  0.00  0.00     0.020 A 
ATOM      2  C1  UNL d   1       0.736  -1.339   0.275  0.00  0.00     0.020 A 
ATOM      3  C2  UNL d   1       2.099  -1.056   0.385  0.00  0.00     0.034 A 
ATOM      4  C3  UNL d   1       3.036  -2.095   0.387  0.00  0.00     0.017 A 
ATOM      5  C4  UNL d   1       2.603  -3.422   0.277  0.00  0.00     0.017 A 
ATOM      6  C5  UNL d   1       1.237  -3.699   0.167  0.00  0.00     0.034 A 
ATOM      7 Cl   UNL d   1       3.699  -4.758   0.272  0.00  0.00    -0.070 Cl
ATOM      8 Cl1  UNL d   1       4.706  -1.672   0.526  0.00  0.00    -0.070 Cl
ENDROOT
TORSDOF 0
ENDMDL
