MODEL 1
REMARK minimizedAffinity -3.8420589
REMARK minimizedRMSD -1
REMARK  0 active torsions:
REMARK  status: ('A' for Active; 'I' for Inactive)
ROOT
ATOM      1  C   UNL d   1      -1.113  -2.264   0.047  0.00  0.00     0.020 A 
ATOM      2  C1  UNL d   1      -0.612  -0.978   0.244  0.00  0.00     0.020 A 
ATOM      3  C2  UNL d   1       0.767  -0.772   0.334  0.00  0.00     0.034 A 
ATOM      4  C3  UNL d   1       1.649  -1.853   0.227  0.00  0.00     0.017 A 
ATOM      5  C4  UNL d   1       1.144  -3.144   0.029  0.00  0.00     0.017 A 
ATOM      6  C5  UNL d   1      -0.237  -3.345  -0.060  0.00  0.00     0.034 A 
ATOM      7 Cl   UNL d   1       2.170  -4.528  -0.113  0.00  0.00    -0.070 Cl
ATOM      8 Cl1  UNL d   1       3.341  -1.525   0.347  0.00  0.00    -0.070 Cl
ENDROOT
TORSDOF 0
ENDMDL
