MODEL 1
REMARK minimizedAffinity -1.53684759
REMARK minimizedRMSD -1
REMARK  0 active torsions:
REMARK  status: ('A' for Active; 'I' for Inactive)
ROOT
ATOM      1  C   UNL d   1      -0.157  -0.728   1.172  0.00  0.00     0.020 A 
ATOM      2  C1  UNL d   1       1.172  -0.531   1.544  0.00  0.00     0.020 A 
ATOM      3  C2  UNL d   1       2.149  -1.449   1.155  0.00  0.00     0.034 A 
ATOM      4  C3  UNL d   1       1.799  -2.569   0.392  0.00  0.00     0.017 A 
ATOM      5  C4  UNL d   1       0.465  -2.766   0.019  0.00  0.00     0.017 A 
ATOM      6  C5  UNL d   1      -0.510  -1.843   0.411  0.00  0.00     0.034 A 
ATOM      7 Cl   UNL d   1      -0.044  -4.123  -0.923  0.00  0.00    -0.070 Cl
ATOM      8 Cl1  UNL d   1       3.060  -3.663  -0.054  0.00  0.00    -0.070 Cl
ENDROOT
TORSDOF 0
ENDMDL
