MODEL 1
REMARK minimizedAffinity -3.58741784
REMARK minimizedRMSD -1
REMARK  0 active torsions:
REMARK  status: ('A' for Active; 'I' for Inactive)
ROOT
ATOM      1  C   UNL d   1       0.136  -0.296   1.048  0.00  0.00     0.020 A 
ATOM      2  C1  UNL d   1      -0.545  -1.512   1.011  0.00  0.00     0.020 A 
ATOM      3  C2  UNL d   1       0.130  -2.680   0.652  0.00  0.00     0.034 A 
ATOM      4  C3  UNL d   1       1.491  -2.635   0.328  0.00  0.00     0.017 A 
ATOM      5  C4  UNL d   1       2.174  -1.414   0.364  0.00  0.00     0.017 A 
ATOM      6  C5  UNL d   1       1.493  -0.247   0.725  0.00  0.00     0.034 A 
ATOM      7 Cl   UNL d   1       3.853  -1.279  -0.022  0.00  0.00    -0.070 Cl
ATOM      8 Cl1  UNL d   1       2.263  -4.119  -0.107  0.00  0.00    -0.070 Cl
ENDROOT
TORSDOF 0
ENDMDL
