MODEL 1
REMARK minimizedAffinity 0.191146046
REMARK minimizedRMSD -1
REMARK  0 active torsions:
REMARK  status: ('A' for Active; 'I' for Inactive)
ROOT
ATOM      1  C   UNL d   1       1.532  -4.064  -0.051  0.00  0.00     0.020 A 
ATOM      2  C1  UNL d   1       2.805  -3.508  -0.168  0.00  0.00     0.020 A 
ATOM      3  C2  UNL d   1       2.999  -2.148   0.083  0.00  0.00     0.034 A 
ATOM      4  C3  UNL d   1       1.918  -1.340   0.452  0.00  0.00     0.017 A 
ATOM      5  C4  UNL d   1       0.640  -1.899   0.569  0.00  0.00     0.017 A 
ATOM      6  C5  UNL d   1       0.452  -3.261   0.317  0.00  0.00     0.034 A 
ATOM      7 Cl   UNL d   1      -0.742  -0.965   1.021  0.00  0.00    -0.070 Cl
ATOM      8 Cl1  UNL d   1       2.230   0.334   0.748  0.00  0.00    -0.070 Cl
ENDROOT
TORSDOF 0
ENDMDL
