MODEL 1
REMARK minimizedAffinity 8.49269962
REMARK minimizedRMSD -1
REMARK  0 active torsions:
REMARK  status: ('A' for Active; 'I' for Inactive)
ROOT
ATOM      1  C   UNL d   1      -3.838   1.061  -0.400  0.00  0.00     0.020 A 
ATOM      2  C1  UNL d   1      -3.529  -0.170   0.175  0.00  0.00     0.020 A 
ATOM      3  C2  UNL d   1      -2.615  -0.239   1.229  0.00  0.00     0.034 A 
ATOM      4  C3  UNL d   1      -2.006   0.926   1.709  0.00  0.00     0.017 A 
ATOM      5  C4  UNL d   1      -2.317   2.162   1.131  0.00  0.00     0.017 A 
ATOM      6  C5  UNL d   1      -3.234   2.225   0.076  0.00  0.00     0.034 A 
ATOM      7 Cl   UNL d   1      -1.607   3.643   1.670  0.00  0.00    -0.070 Cl
ATOM      8 Cl1  UNL d   1      -0.886   0.767   3.015  0.00  0.00    -0.070 Cl
ENDROOT
TORSDOF 0
ENDMDL
