MODEL 1
REMARK minimizedAffinity -4.33099985
REMARK minimizedRMSD -1
REMARK  0 active torsions:
REMARK  status: ('A' for Active; 'I' for Inactive)
ROOT
ATOM      1  C   UNL d   1      -1.020  -1.421   0.658  0.00  0.00     0.020 A 
ATOM      2  C1  UNL d   1      -1.067  -2.776   0.334  0.00  0.00     0.020 A 
ATOM      3  C2  UNL d   1       0.117  -3.482   0.113  0.00  0.00     0.034 A 
ATOM      4  C3  UNL d   1       1.353  -2.834   0.217  0.00  0.00     0.017 A 
ATOM      5  C4  UNL d   1       1.399  -1.474   0.543  0.00  0.00     0.017 A 
ATOM      6  C5  UNL d   1       0.211  -0.771   0.763  0.00  0.00     0.034 A 
ATOM      7 Cl   UNL d   1       2.887  -0.606   0.689  0.00  0.00    -0.070 Cl
ATOM      8 Cl1  UNL d   1       2.778  -3.770  -0.068  0.00  0.00    -0.070 Cl
ENDROOT
TORSDOF 0
ENDMDL
