MODEL 1
REMARK minimizedAffinity -1.36663163
REMARK minimizedRMSD -1
REMARK  0 active torsions:
REMARK  status: ('A' for Active; 'I' for Inactive)
ROOT
ATOM      1  C   UNL d   1      -0.417  -0.279   0.833  0.00  0.00     0.020 A 
ATOM      2  C1  UNL d   1      -0.976  -1.557   0.854  0.00  0.00     0.020 A 
ATOM      3  C2  UNL d   1      -0.201  -2.663   0.499  0.00  0.00     0.034 A 
ATOM      4  C3  UNL d   1       1.136  -2.495   0.122  0.00  0.00     0.017 A 
ATOM      5  C4  UNL d   1       1.696  -1.212   0.101  0.00  0.00     0.017 A 
ATOM      6  C5  UNL d   1       0.915  -0.108   0.457  0.00  0.00     0.034 A 
ATOM      7 Cl   UNL d   1       3.338  -0.925  -0.353  0.00  0.00    -0.070 Cl
ATOM      8 Cl1  UNL d   1       2.035  -3.908  -0.303  0.00  0.00    -0.070 Cl
ENDROOT
TORSDOF 0
ENDMDL
