MODEL 1
REMARK minimizedAffinity -2.18731833
REMARK minimizedRMSD -1
REMARK  0 active torsions:
REMARK  status: ('A' for Active; 'I' for Inactive)
ROOT
ATOM      1  C   UNL d   1       0.018  -0.159   1.373  0.00  0.00     0.020 A 
ATOM      2  C1  UNL d   1      -0.974  -1.128   1.228  0.00  0.00     0.020 A 
ATOM      3  C2  UNL d   1      -0.661  -2.370   0.670  0.00  0.00     0.034 A 
ATOM      4  C3  UNL d   1       0.646  -2.645   0.255  0.00  0.00     0.017 A 
ATOM      5  C4  UNL d   1       1.641  -1.672   0.400  0.00  0.00     0.017 A 
ATOM      6  C5  UNL d   1       1.323  -0.431   0.960  0.00  0.00     0.034 A 
ATOM      7 Cl   UNL d   1       3.278  -1.939  -0.089  0.00  0.00    -0.070 Cl
ATOM      8 Cl1  UNL d   1       0.962  -4.201  -0.427  0.00  0.00    -0.070 Cl
ENDROOT
TORSDOF 0
ENDMDL
