MODEL 1
REMARK minimizedAffinity 4.05795574
REMARK minimizedRMSD -1
REMARK  0 active torsions:
REMARK  status: ('A' for Active; 'I' for Inactive)
ROOT
ATOM      1  C   UNL d   1      -0.367  -0.550   0.698  0.00  0.00     0.020 A 
ATOM      2  C1  UNL d   1      -0.859  -1.850   0.590  0.00  0.00     0.020 A 
ATOM      3  C2  UNL d   1       0.025  -2.929   0.544  0.00  0.00     0.034 A 
ATOM      4  C3  UNL d   1       1.407  -2.711   0.607  0.00  0.00     0.017 A 
ATOM      5  C4  UNL d   1       1.900  -1.406   0.716  0.00  0.00     0.017 A 
ATOM      6  C5  UNL d   1       1.010  -0.328   0.761  0.00  0.00     0.034 A 
ATOM      7 Cl   UNL d   1       3.591  -1.058   0.799  0.00  0.00    -0.070 Cl
ATOM      8 Cl1  UNL d   1       2.442  -4.093   0.546  0.00  0.00    -0.070 Cl
ENDROOT
TORSDOF 0
ENDMDL
