MODEL 1
REMARK minimizedAffinity -4.73028231
REMARK minimizedRMSD -1
REMARK  0 active torsions:
REMARK  status: ('A' for Active; 'I' for Inactive)
ROOT
ATOM      1  C   UNL d   1      -0.108   2.649   0.712  0.00  0.00     0.020 A 
ATOM      2  C1  UNL d   1       0.853   1.946  -0.013  0.00  0.00     0.020 A 
ATOM      3  C2  UNL d   1       0.704   0.574  -0.224  0.00  0.00     0.034 A 
ATOM      4  C3  UNL d   1      -0.409  -0.100   0.292  0.00  0.00     0.017 A 
ATOM      5  C4  UNL d   1      -1.374   0.606   1.020  0.00  0.00     0.017 A 
ATOM      6  C5  UNL d   1      -1.219   1.980   1.228  0.00  0.00     0.034 A 
ATOM      7 Cl   UNL d   1      -2.774  -0.156   1.687  0.00  0.00    -0.070 Cl
ATOM      8 Cl1  UNL d   1      -0.530  -1.798  -0.007  0.00  0.00    -0.070 Cl
ENDROOT
TORSDOF 0
ENDMDL
