MODEL 1
REMARK minimizedAffinity -4.61132288
REMARK minimizedRMSD -1
REMARK  0 active torsions:
REMARK  status: ('A' for Active; 'I' for Inactive)
ROOT
ATOM      1  C   UNL d   1       0.627  -1.439   0.141  0.00  0.00     0.020 A 
ATOM      2  C1  UNL d   1       1.643  -0.512   0.371  0.00  0.00     0.020 A 
ATOM      3  C2  UNL d   1       1.331   0.838   0.543  0.00  0.00     0.034 A 
ATOM      4  C3  UNL d   1      -0.000   1.266   0.486  0.00  0.00     0.017 A 
ATOM      5  C4  UNL d   1      -1.020   0.335   0.255  0.00  0.00     0.017 A 
ATOM      6  C5  UNL d   1      -0.702  -1.016   0.084  0.00  0.00     0.034 A 
ATOM      7 Cl   UNL d   1      -2.686   0.787   0.172  0.00  0.00    -0.070 Cl
ATOM      8 Cl1  UNL d   1      -0.313   2.950   0.708  0.00  0.00    -0.070 Cl
ENDROOT
TORSDOF 0
ENDMDL
