MODEL 1
REMARK minimizedAffinity -0.972695827
REMARK minimizedRMSD -1
REMARK  0 active torsions:
REMARK  status: ('A' for Active; 'I' for Inactive)
ROOT
ATOM      1  C   UNL d   1       2.201   1.176   0.046  0.00  0.00     0.020 A 
ATOM      2  C1  UNL d   1       1.218   2.152   0.208  0.00  0.00     0.020 A 
ATOM      3  C2  UNL d   1      -0.132   1.796   0.176  0.00  0.00     0.034 A 
ATOM      4  C3  UNL d   1      -0.503   0.461  -0.019  0.00  0.00     0.017 A 
ATOM      5  C4  UNL d   1       0.484  -0.518  -0.182  0.00  0.00     0.017 A 
ATOM      6  C5  UNL d   1       1.834  -0.156  -0.149  0.00  0.00     0.034 A 
ATOM      7 Cl   UNL d   1       0.103  -2.186  -0.427  0.00  0.00    -0.070 Cl
ATOM      8 Cl1  UNL d   1      -2.191   0.092  -0.047  0.00  0.00    -0.070 Cl
ENDROOT
TORSDOF 0
ENDMDL
