MODEL 1
REMARK minimizedAffinity -5.66864443
REMARK minimizedRMSD -1
REMARK  0 active torsions:
REMARK  status: ('A' for Active; 'I' for Inactive)
ROOT
ATOM      1  C   UNL d   1       1.709   3.292   0.726  0.00  0.00     0.020 A 
ATOM      2  C1  UNL d   1       2.544   2.175   0.762  0.00  0.00     0.020 A 
ATOM      3  C2  UNL d   1       2.010   0.899   0.571  0.00  0.00     0.034 A 
ATOM      4  C3  UNL d   1       0.639   0.735   0.344  0.00  0.00     0.017 A 
ATOM      5  C4  UNL d   1      -0.198   1.857   0.309  0.00  0.00     0.017 A 
ATOM      6  C5  UNL d   1       0.341   3.133   0.500  0.00  0.00     0.034 A 
ATOM      7 Cl   UNL d   1      -1.900   1.735   0.034  0.00  0.00    -0.070 Cl
ATOM      8 Cl1  UNL d   1       0.048  -0.872   0.116  0.00  0.00    -0.070 Cl
ENDROOT
TORSDOF 0
ENDMDL
