MODEL 1
REMARK minimizedAffinity -3.49160576
REMARK minimizedRMSD -1
REMARK  0 active torsions:
REMARK  status: ('A' for Active; 'I' for Inactive)
ROOT
ATOM      1  C   UNL d   1      -1.975   1.528   0.439  0.00  0.00     0.020 A 
ATOM      2  C1  UNL d   1      -1.125   2.615   0.240  0.00  0.00     0.020 A 
ATOM      3  C2  UNL d   1       0.245   2.406   0.067  0.00  0.00     0.034 A 
ATOM      4  C3  UNL d   1       0.769   1.109   0.094  0.00  0.00     0.017 A 
ATOM      5  C4  UNL d   1      -0.086   0.018   0.294  0.00  0.00     0.017 A 
ATOM      6  C5  UNL d   1      -1.457   0.233   0.466  0.00  0.00     0.034 A 
ATOM      7 Cl   UNL d   1       0.487  -1.612   0.338  0.00  0.00    -0.070 Cl
ATOM      8 Cl1  UNL d   1       2.473   0.925  -0.127  0.00  0.00    -0.070 Cl
ENDROOT
TORSDOF 0
ENDMDL
