MODEL 1
REMARK minimizedAffinity -3.05458522
REMARK minimizedRMSD -1
REMARK  0 active torsions:
REMARK  status: ('A' for Active; 'I' for Inactive)
ROOT
ATOM      1  C   UNL d   1       2.470   2.310   1.512  0.00  0.00     0.020 A 
ATOM      2  C1  UNL d   1       1.452   3.226   1.777  0.00  0.00     0.020 A 
ATOM      3  C2  UNL d   1       0.125   2.897   1.493  0.00  0.00     0.034 A 
ATOM      4  C3  UNL d   1      -0.188   1.649   0.942  0.00  0.00     0.017 A 
ATOM      5  C4  UNL d   1       0.834   0.730   0.676  0.00  0.00     0.017 A 
ATOM      6  C5  UNL d   1       2.161   1.065   0.962  0.00  0.00     0.034 A 
ATOM      7 Cl   UNL d   1       0.525  -0.829  -0.004  0.00  0.00    -0.070 Cl
ATOM      8 Cl1  UNL d   1      -1.851   1.309   0.616  0.00  0.00    -0.070 Cl
ENDROOT
TORSDOF 0
ENDMDL
