MODEL 1
REMARK minimizedAffinity -4.64278889
REMARK minimizedRMSD -1
REMARK  0 active torsions:
REMARK  status: ('A' for Active; 'I' for Inactive)
ROOT
ATOM      1  C   UNL d   1       0.582   2.775  -0.856  0.00  0.00     0.020 A 
ATOM      2  C1  UNL d   1      -0.759   2.654  -0.498  0.00  0.00     0.020 A 
ATOM      3  C2  UNL d   1      -1.209   1.498   0.145  0.00  0.00     0.034 A 
ATOM      4  C3  UNL d   1      -0.315   0.460   0.432  0.00  0.00     0.017 A 
ATOM      5  C4  UNL d   1       1.032   0.583   0.071  0.00  0.00     0.017 A 
ATOM      6  C5  UNL d   1       1.476   1.742  -0.572  0.00  0.00     0.034 A 
ATOM      7 Cl   UNL d   1       2.194  -0.656   0.392  0.00  0.00    -0.070 Cl
ATOM      8 Cl1  UNL d   1      -0.939  -0.941   1.229  0.00  0.00    -0.070 Cl
ENDROOT
TORSDOF 0
ENDMDL
