MODEL 1
REMARK minimizedAffinity -4.5812149
REMARK minimizedRMSD -1
REMARK  0 active torsions:
REMARK  status: ('A' for Active; 'I' for Inactive)
ROOT
ATOM      1  C   UNL d   1      -1.431   1.695   0.279  0.00  0.00     0.020 A 
ATOM      2  C1  UNL d   1      -0.383   2.605   0.153  0.00  0.00     0.020 A 
ATOM      3  C2  UNL d   1       0.935   2.147   0.089  0.00  0.00     0.034 A 
ATOM      4  C3  UNL d   1       1.208   0.776   0.151  0.00  0.00     0.017 A 
ATOM      5  C4  UNL d   1       0.155  -0.137   0.278  0.00  0.00     0.017 A 
ATOM      6  C5  UNL d   1      -1.163   0.327   0.342  0.00  0.00     0.034 A 
ATOM      7 Cl   UNL d   1       0.413  -1.844   0.361  0.00  0.00    -0.070 Cl
ATOM      8 Cl1  UNL d   1       2.861   0.281   0.066  0.00  0.00    -0.070 Cl
ENDROOT
TORSDOF 0
ENDMDL
