MODEL 1
REMARK minimizedAffinity -3.54018402
REMARK minimizedRMSD -1
REMARK  0 active torsions:
REMARK  status: ('A' for Active; 'I' for Inactive)
ROOT
ATOM      1  C   UNL d   1       1.138  -0.684  -0.361  0.00  0.00     0.020 A 
ATOM      2  C1  UNL d   1      -0.002  -1.457  -0.141  0.00  0.00     0.020 A 
ATOM      3  C2  UNL d   1      -1.245  -0.840   0.010  0.00  0.00     0.034 A 
ATOM      4  C3  UNL d   1      -1.353   0.554  -0.058  0.00  0.00     0.017 A 
ATOM      5  C4  UNL d   1      -0.209   1.329  -0.279  0.00  0.00     0.017 A 
ATOM      6  C5  UNL d   1       1.034   0.706  -0.430  0.00  0.00     0.034 A 
ATOM      7 Cl   UNL d   1      -0.262   3.054  -0.375  0.00  0.00    -0.070 Cl
ATOM      8 Cl1  UNL d   1      -2.923   1.249   0.138  0.00  0.00    -0.070 Cl
ENDROOT
TORSDOF 0
ENDMDL
