MODEL 1
REMARK minimizedAffinity -2.73083138
REMARK minimizedRMSD -1
REMARK  0 active torsions:
REMARK  status: ('A' for Active; 'I' for Inactive)
ROOT
ATOM      1  C   UNL d   1      -0.599  -0.976   0.334  0.00  0.00     0.020 A 
ATOM      2  C1  UNL d   1      -1.632  -0.041   0.386  0.00  0.00     0.020 A 
ATOM      3  C2  UNL d   1      -1.343   1.324   0.310  0.00  0.00     0.034 A 
ATOM      4  C3  UNL d   1      -0.018   1.757   0.182  0.00  0.00     0.017 A 
ATOM      5  C4  UNL d   1       1.018   0.817   0.130  0.00  0.00     0.017 A 
ATOM      6  C5  UNL d   1       0.723  -0.548   0.206  0.00  0.00     0.034 A 
ATOM      7 Cl   UNL d   1       2.677   1.275  -0.028  0.00  0.00    -0.070 Cl
ATOM      8 Cl1  UNL d   1       0.266   3.459   0.094  0.00  0.00    -0.070 Cl
ENDROOT
TORSDOF 0
ENDMDL
