MODEL 1
REMARK minimizedAffinity -3.11149597
REMARK minimizedRMSD -1
REMARK  0 active torsions:
REMARK  status: ('A' for Active; 'I' for Inactive)
ROOT
ATOM      1  C   UNL d   1       0.749   2.941   0.396  0.00  0.00     0.020 A 
ATOM      2  C1  UNL d   1       1.426   2.403  -0.698  0.00  0.00     0.020 A 
ATOM      3  C2  UNL d   1       1.184   1.085  -1.090  0.00  0.00     0.034 A 
ATOM      4  C3  UNL d   1       0.263   0.300  -0.387  0.00  0.00     0.017 A 
ATOM      5  C4  UNL d   1      -0.416   0.840   0.711  0.00  0.00     0.017 A 
ATOM      6  C5  UNL d   1      -0.170   2.161   1.099  0.00  0.00     0.034 A 
ATOM      7 Cl   UNL d   1      -1.567  -0.067   1.627  0.00  0.00    -0.070 Cl
ATOM      8 Cl1  UNL d   1       0.012  -1.323  -0.928  0.00  0.00    -0.070 Cl
ENDROOT
TORSDOF 0
ENDMDL
