MODEL 1
REMARK minimizedAffinity -2.33163381
REMARK minimizedRMSD -1
REMARK  0 active torsions:
REMARK  status: ('A' for Active; 'I' for Inactive)
ROOT
ATOM      1  C   UNL d   1      -1.905   0.438   1.012  0.00  0.00     0.020 A 
ATOM      2  C1  UNL d   1      -0.965  -0.592   1.024  0.00  0.00     0.020 A 
ATOM      3  C2  UNL d   1       0.287  -0.402   0.435  0.00  0.00     0.034 A 
ATOM      4  C3  UNL d   1       0.603   0.820  -0.169  0.00  0.00     0.017 A 
ATOM      5  C4  UNL d   1      -0.342   1.853  -0.181  0.00  0.00     0.017 A 
ATOM      6  C5  UNL d   1      -1.593   1.658   0.411  0.00  0.00     0.034 A 
ATOM      7 Cl   UNL d   1      -0.025   3.390  -0.907  0.00  0.00    -0.070 Cl
ATOM      8 Cl1  UNL d   1       2.170   0.986  -0.877  0.00  0.00    -0.070 Cl
ENDROOT
TORSDOF 0
ENDMDL
