MODEL 1
REMARK minimizedAffinity -5.34950018
REMARK minimizedRMSD -1
REMARK  0 active torsions:
REMARK  status: ('A' for Active; 'I' for Inactive)
ROOT
ATOM      1  C   UNL d   1       1.107   2.034  -0.241  0.00  0.00     0.020 A 
ATOM      2  C1  UNL d   1       0.108   2.999  -0.127  0.00  0.00     0.020 A 
ATOM      3  C2  UNL d   1      -1.209   2.614   0.129  0.00  0.00     0.034 A 
ATOM      4  C3  UNL d   1      -1.532   1.260   0.272  0.00  0.00     0.017 A 
ATOM      5  C4  UNL d   1      -0.528   0.291   0.158  0.00  0.00     0.017 A 
ATOM      6  C5  UNL d   1       0.790   0.682  -0.099  0.00  0.00     0.034 A 
ATOM      7 Cl   UNL d   1      -0.848  -1.399   0.322  0.00  0.00    -0.070 Cl
ATOM      8 Cl1  UNL d   1      -3.181   0.855   0.589  0.00  0.00    -0.070 Cl
ENDROOT
TORSDOF 0
ENDMDL
