MODEL 1
REMARK minimizedAffinity -3.97452593
REMARK minimizedRMSD -1
REMARK  0 active torsions:
REMARK  status: ('A' for Active; 'I' for Inactive)
ROOT
ATOM      1  C   UNL d   1      -0.807   2.274   0.610  0.00  0.00     0.020 A 
ATOM      2  C1  UNL d   1      -0.930   0.947   0.201  0.00  0.00     0.020 A 
ATOM      3  C2  UNL d   1       0.152   0.074   0.329  0.00  0.00     0.034 A 
ATOM      4  C3  UNL d   1       1.363   0.527   0.866  0.00  0.00     0.017 A 
ATOM      5  C4  UNL d   1       1.485   1.860   1.276  0.00  0.00     0.017 A 
ATOM      6  C5  UNL d   1       0.398   2.730   1.146  0.00  0.00     0.034 A 
ATOM      7 Cl   UNL d   1       2.946   2.492   1.948  0.00  0.00    -0.070 Cl
ATOM      8 Cl1  UNL d   1       2.659  -0.607   0.995  0.00  0.00    -0.070 Cl
ENDROOT
TORSDOF 0
ENDMDL
