MODEL 1
REMARK minimizedAffinity -0.396762133
REMARK minimizedRMSD -1
REMARK  1 active torsions:
REMARK  status: ('A' for Active; 'I' for Inactive)
REMARK    1  A    between atoms: C1_2  and  C2_3 
ROOT
ATOM      1  C2  UNL d   1      -3.418   0.578  -4.561  0.00  0.00    -0.076 A 
ATOM      2  C3  UNL d   1      -4.565   0.609  -3.749  0.00  0.00     0.004 A 
ATOM      3  C4  UNL d   1      -5.320  -0.542  -3.530  0.00  0.00    -0.003 A 
ATOM      4  C5  UNL d   1      -4.940  -1.743  -4.118  0.00  0.00     0.000 A 
ATOM      5  C6  UNL d   1      -3.795  -1.796  -4.912  0.00  0.00     0.000 A 
ATOM      6  C7  UNL d   1      -3.013  -0.649  -5.130  0.00  0.00    -0.073 A 
ATOM      7  C8  UNL d   1      -1.791  -0.762  -6.000  0.00  0.00     0.078 C 
ENDROOT
BRANCH   1   8
ATOM      8  C1  UNL d   1      -2.653   1.863  -4.784  0.00  0.00     0.053 C 
ATOM      9  C   UNL d   1      -2.978   2.923  -3.742  0.00  0.00     0.018 C 
ENDBRANCH   1   8
TORSDOF 1
ENDMDL
