MODEL 1
REMARK minimizedAffinity 3.13824344
REMARK minimizedRMSD -1
REMARK  1 active torsions:
REMARK  status: ('A' for Active; 'I' for Inactive)
REMARK    1  A    between atoms: C1_2  and  C2_3 
ROOT
ATOM      1  C2  UNL d   1       4.360  -3.802   3.365  0.00  0.00    -0.076 A 
ATOM      2  C3  UNL d   1       3.380  -2.794   3.387  0.00  0.00     0.004 A 
ATOM      3  C4  UNL d   1       2.577  -2.551   2.275  0.00  0.00    -0.003 A 
ATOM      4  C5  UNL d   1       2.740  -3.311   1.122  0.00  0.00     0.000 A 
ATOM      5  C6  UNL d   1       3.695  -4.326   1.088  0.00  0.00     0.000 A 
ATOM      6  C7  UNL d   1       4.502  -4.596   2.207  0.00  0.00    -0.073 A 
ATOM      7  C8  UNL d   1       5.521  -5.698   2.113  0.00  0.00     0.078 C 
ENDROOT
BRANCH   1   8
ATOM      8  C1  UNL d   1       5.221  -4.003   4.592  0.00  0.00     0.053 C 
ATOM      9  C   UNL d   1       5.998  -2.751   4.970  0.00  0.00     0.018 C 
ENDBRANCH   1   8
TORSDOF 1
ENDMDL
