MODEL 1
REMARK minimizedAffinity 9.81044197
REMARK minimizedRMSD -1
REMARK  1 active torsions:
REMARK  status: ('A' for Active; 'I' for Inactive)
REMARK    1  A    between atoms: C1_2  and  C2_3 
ROOT
ATOM      1  C2  UNL d   1      -3.627   1.861  -4.185  0.00  0.00    -0.076 A 
ATOM      2  C3  UNL d   1      -3.660   1.524  -5.550  0.00  0.00     0.004 A 
ATOM      3  C4  UNL d   1      -3.725   0.193  -5.959  0.00  0.00    -0.003 A 
ATOM      4  C5  UNL d   1      -3.760  -0.823  -5.010  0.00  0.00     0.000 A 
ATOM      5  C6  UNL d   1      -3.746  -0.506  -3.652  0.00  0.00     0.000 A 
ATOM      6  C7  UNL d   1      -3.697   0.831  -3.222  0.00  0.00    -0.073 A 
ATOM      7  C8  UNL d   1      -3.678   1.115  -1.745  0.00  0.00     0.078 C 
ENDROOT
BRANCH   1   8
ATOM      8  C1  UNL d   1      -3.528   3.320  -3.802  0.00  0.00     0.053 C 
ATOM      9  C   UNL d   1      -2.162   3.684  -3.241  0.00  0.00     0.018 C 
ENDBRANCH   1   8
TORSDOF 1
ENDMDL
