MODEL 1
REMARK minimizedAffinity 1.80750477
REMARK minimizedRMSD -1
REMARK  1 active torsions:
REMARK  status: ('A' for Active; 'I' for Inactive)
REMARK    1  A    between atoms: C1_2  and  C2_3 
ROOT
ATOM      1  C2  UNL d   1      -4.230  -0.539  -3.779  0.00  0.00    -0.076 A 
ATOM      2  C3  UNL d   1      -5.545  -0.044  -3.826  0.00  0.00     0.004 A 
ATOM      3  C4  UNL d   1      -5.999   0.680  -4.927  0.00  0.00    -0.003 A 
ATOM      4  C5  UNL d   1      -5.147   0.920  -5.999  0.00  0.00     0.000 A 
ATOM      5  C6  UNL d   1      -3.845   0.422  -5.976  0.00  0.00     0.000 A 
ATOM      6  C7  UNL d   1      -3.376  -0.324  -4.881  0.00  0.00    -0.073 A 
ATOM      7  C8  UNL d   1      -1.960  -0.833  -4.907  0.00  0.00     0.078 C 
ENDROOT
BRANCH   1   8
ATOM      8  C1  UNL d   1      -3.785  -1.294  -2.547  0.00  0.00     0.053 C 
ATOM      9  C   UNL d   1      -3.230  -0.376  -1.469  0.00  0.00     0.018 C 
ENDBRANCH   1   8
TORSDOF 1
ENDMDL
