MODEL 1
REMARK minimizedAffinity 1.88943207
REMARK minimizedRMSD -1
REMARK  1 active torsions:
REMARK  status: ('A' for Active; 'I' for Inactive)
REMARK    1  A    between atoms: C1_2  and  C2_3 
ROOT
ATOM      1  C2  UNL d   1      -4.332  -1.108  -3.763  0.00  0.00    -0.076 A 
ATOM      2  C3  UNL d   1      -5.567  -0.593  -4.192  0.00  0.00     0.004 A 
ATOM      3  C4  UNL d   1      -5.636   0.342  -5.223  0.00  0.00    -0.003 A 
ATOM      4  C5  UNL d   1      -4.469   0.778  -5.842  0.00  0.00     0.000 A 
ATOM      5  C6  UNL d   1      -3.236   0.265  -5.441  0.00  0.00     0.000 A 
ATOM      6  C7  UNL d   1      -3.151  -0.691  -4.414  0.00  0.00    -0.073 A 
ATOM      7  C8  UNL d   1      -1.795  -1.206  -4.018  0.00  0.00     0.078 C 
ENDROOT
BRANCH   1   8
ATOM      8  C1  UNL d   1      -4.317  -2.099  -2.621  0.00  0.00     0.053 C 
ATOM      9  C   UNL d   1      -3.499  -1.612  -1.436  0.00  0.00     0.018 C 
ENDBRANCH   1   8
TORSDOF 1
ENDMDL
