MODEL 1
REMARK minimizedAffinity 1.42879546
REMARK minimizedRMSD -1
REMARK  1 active torsions:
REMARK  status: ('A' for Active; 'I' for Inactive)
REMARK    1  A    between atoms: C1_2  and  C2_3 
ROOT
ATOM      1  C2  UNL d   1      -3.376  -0.575  -4.490  0.00  0.00    -0.076 A 
ATOM      2  C3  UNL d   1      -4.686  -1.030  -4.261  0.00  0.00     0.004 A 
ATOM      3  C4  UNL d   1      -5.788  -0.294  -4.693  0.00  0.00    -0.003 A 
ATOM      4  C5  UNL d   1      -5.597   0.910  -5.363  0.00  0.00     0.000 A 
ATOM      5  C6  UNL d   1      -4.305   1.368  -5.615  0.00  0.00     0.000 A 
ATOM      6  C7  UNL d   1      -3.183   0.630  -5.200  0.00  0.00    -0.073 A 
ATOM      7  C8  UNL d   1      -1.812   1.174  -5.493  0.00  0.00     0.078 C 
ENDROOT
BRANCH   1   8
ATOM      8  C1  UNL d   1      -2.221  -1.402  -3.974  0.00  0.00     0.053 C 
ATOM      9  C   UNL d   1      -1.799  -2.488  -4.952  0.00  0.00     0.018 C 
ENDBRANCH   1   8
TORSDOF 1
ENDMDL
