MODEL 1
REMARK minimizedAffinity -1.69112003
REMARK minimizedRMSD -1
REMARK  0 active torsions:
REMARK  status: ('A' for Active; 'I' for Inactive)
ROOT
ATOM      1  C   UNL d   1      -1.574  -1.643   2.234  0.00  0.00     0.020 A 
ATOM      2  C1  UNL d   1      -1.605  -2.655   1.276  0.00  0.00     0.020 A 
ATOM      3  C2  UNL d   1      -1.043  -2.440   0.015  0.00  0.00     0.034 A 
ATOM      4  C3  UNL d   1      -0.449  -1.210  -0.290  0.00  0.00     0.017 A 
ATOM      5  C4  UNL d   1      -0.419  -0.195   0.673  0.00  0.00     0.017 A 
ATOM      6  C5  UNL d   1      -0.983  -0.415   1.933  0.00  0.00     0.034 A 
ATOM      7 Cl   UNL d   1       0.297   1.349   0.370  0.00  0.00    -0.070 Cl
ATOM      8 Cl1  UNL d   1       0.227  -1.014  -1.868  0.00  0.00    -0.070 Cl
ENDROOT
TORSDOF 0
ENDMDL
