MODEL 1
REMARK minimizedAffinity -2.16985512
REMARK minimizedRMSD -1
REMARK  0 active torsions:
REMARK  status: ('A' for Active; 'I' for Inactive)
ROOT
ATOM      1  C   UNL d   1      -0.028  -3.265   0.318  0.00  0.00     0.020 A 
ATOM      2  C1  UNL d   1       1.120  -2.633  -0.158  0.00  0.00     0.020 A 
ATOM      3  C2  UNL d   1       1.191  -1.239  -0.183  0.00  0.00     0.034 A 
ATOM      4  C3  UNL d   1       0.111  -0.471   0.269  0.00  0.00     0.017 A 
ATOM      5  C4  UNL d   1      -1.041  -1.106   0.747  0.00  0.00     0.017 A 
ATOM      6  C5  UNL d   1      -1.106  -2.503   0.770  0.00  0.00     0.034 A 
ATOM      7 Cl   UNL d   1      -2.413  -0.226   1.322  0.00  0.00    -0.070 Cl
ATOM      8 Cl1  UNL d   1       0.268   1.248   0.210  0.00  0.00    -0.070 Cl
ENDROOT
TORSDOF 0
ENDMDL
