MODEL 1
REMARK minimizedAffinity -0.842714369
REMARK minimizedRMSD -1
REMARK  0 active torsions:
REMARK  status: ('A' for Active; 'I' for Inactive)
ROOT
ATOM      1  C   UNL d   1      -0.899   1.533   0.031  0.00  0.00     0.020 A 
ATOM      2  C1  UNL d   1       0.229   0.820  -0.373  0.00  0.00     0.020 A 
ATOM      3  C2  UNL d   1       1.505   1.326  -0.112  0.00  0.00     0.034 A 
ATOM      4  C3  UNL d   1       1.655   2.548   0.553  0.00  0.00     0.017 A 
ATOM      5  C4  UNL d   1       0.521   3.263   0.958  0.00  0.00     0.017 A 
ATOM      6  C5  UNL d   1      -0.753   2.751   0.695  0.00  0.00     0.034 A 
ATOM      7 Cl   UNL d   1       0.627   4.777   1.785  0.00  0.00    -0.070 Cl
ATOM      8 Cl1  UNL d   1       3.262   3.114   0.842  0.00  0.00    -0.070 Cl
ENDROOT
TORSDOF 0
ENDMDL
