MODEL 1
REMARK minimizedAffinity -4.02191782
REMARK minimizedRMSD -1
REMARK  0 active torsions:
REMARK  status: ('A' for Active; 'I' for Inactive)
ROOT
ATOM      1  C   UNL d   1      -0.089  -2.824   0.471  0.00  0.00     0.020 A 
ATOM      2  C1  UNL d   1       0.726  -2.155  -0.441  0.00  0.00     0.020 A 
ATOM      3  C2  UNL d   1       0.632  -0.768  -0.576  0.00  0.00     0.034 A 
ATOM      4  C3  UNL d   1      -0.278  -0.046   0.203  0.00  0.00     0.017 A 
ATOM      5  C4  UNL d   1      -1.096  -0.717   1.119  0.00  0.00     0.017 A 
ATOM      6  C5  UNL d   1      -0.998  -2.106   1.250  0.00  0.00     0.034 A 
ATOM      7 Cl   UNL d   1      -2.243   0.106   2.116  0.00  0.00    -0.070 Cl
ATOM      8 Cl1  UNL d   1      -0.340   1.667  -0.015  0.00  0.00    -0.070 Cl
ENDROOT
TORSDOF 0
ENDMDL
