MODEL 1
REMARK minimizedAffinity -2.3106184
REMARK minimizedRMSD -1
REMARK  0 active torsions:
REMARK  status: ('A' for Active; 'I' for Inactive)
ROOT
ATOM      1  C   UNL d   1       0.387   0.388  -1.040  0.00  0.00     0.020 A 
ATOM      2  C1  UNL d   1      -0.331   1.250  -0.212  0.00  0.00     0.020 A 
ATOM      3  C2  UNL d   1      -0.922   0.765   0.957  0.00  0.00     0.034 A 
ATOM      4  C3  UNL d   1      -0.796  -0.586   1.300  0.00  0.00     0.017 A 
ATOM      5  C4  UNL d   1      -0.076  -1.451   0.468  0.00  0.00     0.017 A 
ATOM      6  C5  UNL d   1       0.514  -0.960  -0.701  0.00  0.00     0.034 A 
ATOM      7 Cl   UNL d   1       0.123  -3.130   0.825  0.00  0.00    -0.070 Cl
ATOM      8 Cl1  UNL d   1      -1.552  -1.118   2.760  0.00  0.00    -0.070 Cl
ENDROOT
TORSDOF 0
ENDMDL
