MODEL 1
REMARK minimizedAffinity -4.01162624
REMARK minimizedRMSD -1
REMARK  0 active torsions:
REMARK  status: ('A' for Active; 'I' for Inactive)
ROOT
ATOM      1  C   UNL d   1      -0.730  -3.240   1.023  0.00  0.00     0.020 A 
ATOM      2  C1  UNL d   1      -1.128  -2.120   1.753  0.00  0.00     0.020 A 
ATOM      3  C2  UNL d   1      -0.867  -0.839   1.263  0.00  0.00     0.034 A 
ATOM      4  C3  UNL d   1      -0.207  -0.674   0.040  0.00  0.00     0.017 A 
ATOM      5  C4  UNL d   1       0.192  -1.798  -0.692  0.00  0.00     0.017 A 
ATOM      6  C5  UNL d   1      -0.072  -3.079  -0.197  0.00  0.00     0.034 A 
ATOM      7 Cl   UNL d   1       1.010  -1.674  -2.209  0.00  0.00    -0.070 Cl
ATOM      8 Cl1  UNL d   1       0.082   0.940  -0.506  0.00  0.00    -0.070 Cl
ENDROOT
TORSDOF 0
ENDMDL
