MODEL 1
REMARK minimizedAffinity -3.97260427
REMARK minimizedRMSD -1
REMARK  0 active torsions:
REMARK  status: ('A' for Active; 'I' for Inactive)
ROOT
ATOM      1  C   UNL d   1      -1.283  -2.465   1.259  0.00  0.00     0.020 A 
ATOM      2  C1  UNL d   1      -1.265  -1.252   1.948  0.00  0.00     0.020 A 
ATOM      3  C2  UNL d   1      -0.531  -0.175   1.447  0.00  0.00     0.034 A 
ATOM      4  C3  UNL d   1       0.188  -0.308   0.254  0.00  0.00     0.017 A 
ATOM      5  C4  UNL d   1       0.170  -1.526  -0.437  0.00  0.00     0.017 A 
ATOM      6  C5  UNL d   1      -0.567  -2.601   0.070  0.00  0.00     0.034 A 
ATOM      7 Cl   UNL d   1       1.033  -1.766  -1.915  0.00  0.00    -0.070 Cl
ATOM      8 Cl1  UNL d   1       1.074   1.065  -0.308  0.00  0.00    -0.070 Cl
ENDROOT
TORSDOF 0
ENDMDL
