MODEL 1
REMARK minimizedAffinity -3.09050536
REMARK minimizedRMSD -1
REMARK  0 active torsions:
REMARK  status: ('A' for Active; 'I' for Inactive)
ROOT
ATOM      1  C   UNL d   1      -0.441   0.411   0.222  0.00  0.00     0.020 A 
ATOM      2  C1  UNL d   1       0.595  -0.221  -0.465  0.00  0.00     0.020 A 
ATOM      3  C2  UNL d   1       0.628  -1.614  -0.551  0.00  0.00     0.034 A 
ATOM      4  C3  UNL d   1      -0.377  -2.381   0.050  0.00  0.00     0.017 A 
ATOM      5  C4  UNL d   1      -1.417  -1.746   0.740  0.00  0.00     0.017 A 
ATOM      6  C5  UNL d   1      -1.445  -0.351   0.823  0.00  0.00     0.034 A 
ATOM      7 Cl   UNL d   1      -2.692  -2.625   1.507  0.00  0.00    -0.070 Cl
ATOM      8 Cl1  UNL d   1      -0.274  -4.099  -0.097  0.00  0.00    -0.070 Cl
ENDROOT
TORSDOF 0
ENDMDL
