MODEL 1
REMARK minimizedAffinity -3.48796606
REMARK minimizedRMSD -1
REMARK  0 active torsions:
REMARK  status: ('A' for Active; 'I' for Inactive)
ROOT
ATOM      1  C   UNL d   1       0.635  -2.649  -0.151  0.00  0.00     0.020 A 
ATOM      2  C1  UNL d   1      -0.443  -3.139   0.585  0.00  0.00     0.020 A 
ATOM      3  C2  UNL d   1      -1.391  -2.257   1.106  0.00  0.00     0.034 A 
ATOM      4  C3  UNL d   1      -1.264  -0.880   0.893  0.00  0.00     0.017 A 
ATOM      5  C4  UNL d   1      -0.182  -0.388   0.154  0.00  0.00     0.017 A 
ATOM      6  C5  UNL d   1       0.765  -1.276  -0.366  0.00  0.00     0.034 A 
ATOM      7 Cl   UNL d   1       0.042   1.298  -0.151  0.00  0.00    -0.070 Cl
ATOM      8 Cl1  UNL d   1      -2.474   0.153   1.567  0.00  0.00    -0.070 Cl
ENDROOT
TORSDOF 0
ENDMDL
