MODEL 1
REMARK minimizedAffinity -4.13278723
REMARK minimizedRMSD -1
REMARK  0 active torsions:
REMARK  status: ('A' for Active; 'I' for Inactive)
ROOT
ATOM      1  C   UNL d   1       0.589  -2.623  -1.491  0.00  0.00     0.020 A 
ATOM      2  C1  UNL d   1      -0.191  -3.392  -0.628  0.00  0.00     0.020 A 
ATOM      3  C2  UNL d   1      -0.827  -2.791   0.459  0.00  0.00     0.034 A 
ATOM      4  C3  UNL d   1      -0.685  -1.417   0.687  0.00  0.00     0.017 A 
ATOM      5  C4  UNL d   1       0.098  -0.646  -0.180  0.00  0.00     0.017 A 
ATOM      6  C5  UNL d   1       0.733  -1.253  -1.267  0.00  0.00     0.034 A 
ATOM      7 Cl   UNL d   1       0.320   1.054   0.036  0.00  0.00    -0.070 Cl
ATOM      8 Cl1  UNL d   1      -1.501  -0.740   2.051  0.00  0.00    -0.070 Cl
ENDROOT
TORSDOF 0
ENDMDL
