MODEL 1
REMARK minimizedAffinity -4.10175943
REMARK minimizedRMSD -1
REMARK  0 active torsions:
REMARK  status: ('A' for Active; 'I' for Inactive)
ROOT
ATOM      1  C   UNL d   1      -1.059  -3.346   0.344  0.00  0.00     0.020 A 
ATOM      2  C1  UNL d   1       0.062  -3.007  -0.413  0.00  0.00     0.020 A 
ATOM      3  C2  UNL d   1       0.456  -1.671  -0.517  0.00  0.00     0.034 A 
ATOM      4  C3  UNL d   1      -0.270  -0.670   0.138  0.00  0.00     0.017 A 
ATOM      5  C4  UNL d   1      -1.395  -1.011   0.898  0.00  0.00     0.017 A 
ATOM      6  C5  UNL d   1      -1.785  -2.350   0.999  0.00  0.00     0.034 A 
ATOM      7 Cl   UNL d   1      -2.341   0.168   1.735  0.00  0.00    -0.070 Cl
ATOM      8 Cl1  UNL d   1       0.275   0.961  -0.033  0.00  0.00    -0.070 Cl
ENDROOT
TORSDOF 0
ENDMDL
