MODEL 1
REMARK minimizedAffinity -2.69974303
REMARK minimizedRMSD -1
REMARK  0 active torsions:
REMARK  status: ('A' for Active; 'I' for Inactive)
ROOT
ATOM      1  C   UNL d   1      -0.873  -2.979  -0.221  0.00  0.00     0.020 A 
ATOM      2  C1  UNL d   1       0.381  -2.550  -0.653  0.00  0.00     0.020 A 
ATOM      3  C2  UNL d   1       0.742  -1.207  -0.527  0.00  0.00     0.034 A 
ATOM      4  C3  UNL d   1      -0.152  -0.288   0.033  0.00  0.00     0.017 A 
ATOM      5  C4  UNL d   1      -1.411  -0.719   0.468  0.00  0.00     0.017 A 
ATOM      6  C5  UNL d   1      -1.767  -2.065   0.339  0.00  0.00     0.034 A 
ATOM      7 Cl   UNL d   1      -2.567   0.357   1.169  0.00  0.00    -0.070 Cl
ATOM      8 Cl1  UNL d   1       0.361   1.358   0.159  0.00  0.00    -0.070 Cl
ENDROOT
TORSDOF 0
ENDMDL
