MODEL 1
REMARK minimizedAffinity -5.00260162
REMARK minimizedRMSD -1
REMARK  0 active torsions:
REMARK  status: ('A' for Active; 'I' for Inactive)
ROOT
ATOM      1  C   UNL d   1      -0.020  -3.300  -0.294  0.00  0.00     0.020 A 
ATOM      2  C1  UNL d   1      -0.356  -2.667   0.902  0.00  0.00     0.020 A 
ATOM      3  C2  UNL d   1      -0.427  -1.273   0.959  0.00  0.00     0.034 A 
ATOM      4  C3  UNL d   1      -0.162  -0.508  -0.183  0.00  0.00     0.017 A 
ATOM      5  C4  UNL d   1       0.175  -1.144  -1.383  0.00  0.00     0.017 A 
ATOM      6  C5  UNL d   1       0.245  -2.540  -1.434  0.00  0.00     0.034 A 
ATOM      7 Cl   UNL d   1       0.516  -0.268  -2.833  0.00  0.00    -0.070 Cl
ATOM      8 Cl1  UNL d   1      -0.268   1.211  -0.041  0.00  0.00    -0.070 Cl
ENDROOT
TORSDOF 0
ENDMDL
