MODEL 1
REMARK minimizedAffinity -4.20512724
REMARK minimizedRMSD -1
REMARK  0 active torsions:
REMARK  status: ('A' for Active; 'I' for Inactive)
ROOT
ATOM      1  C   UNL d   1      -0.843  -3.915   0.102  0.00  0.00     0.020 A 
ATOM      2  C1  UNL d   1      -0.976  -3.069   1.202  0.00  0.00     0.020 A 
ATOM      3  C2  UNL d   1      -0.610  -1.725   1.098  0.00  0.00     0.034 A 
ATOM      4  C3  UNL d   1      -0.110  -1.224  -0.110  0.00  0.00     0.017 A 
ATOM      5  C4  UNL d   1       0.023  -2.074  -1.213  0.00  0.00     0.017 A 
ATOM      6  C5  UNL d   1      -0.345  -3.419  -1.103  0.00  0.00     0.034 A 
ATOM      7 Cl   UNL d   1       0.632  -1.528  -2.736  0.00  0.00    -0.070 Cl
ATOM      8 Cl1  UNL d   1       0.322   0.448  -0.168  0.00  0.00    -0.070 Cl
ENDROOT
TORSDOF 0
ENDMDL
