MODEL 1
REMARK minimizedAffinity -3.74913406
REMARK minimizedRMSD -1
REMARK  0 active torsions:
REMARK  status: ('A' for Active; 'I' for Inactive)
ROOT
ATOM      1  C   UNL d   1      -0.240  -2.930   0.299  0.00  0.00     0.020 A 
ATOM      2  C1  UNL d   1       0.798  -2.369  -0.443  0.00  0.00     0.020 A 
ATOM      3  C2  UNL d   1       0.939  -0.981  -0.509  0.00  0.00     0.034 A 
ATOM      4  C3  UNL d   1       0.040  -0.149   0.169  0.00  0.00     0.017 A 
ATOM      5  C4  UNL d   1      -1.002  -0.713   0.915  0.00  0.00     0.017 A 
ATOM      6  C5  UNL d   1      -1.138  -2.104   0.977  0.00  0.00     0.034 A 
ATOM      7 Cl   UNL d   1      -2.150   0.248   1.778  0.00  0.00    -0.070 Cl
ATOM      8 Cl1  UNL d   1       0.274   1.558   0.045  0.00  0.00    -0.070 Cl
ENDROOT
TORSDOF 0
ENDMDL
