MODEL 1
REMARK minimizedAffinity -4.23475695
REMARK minimizedRMSD -1
REMARK  0 active torsions:
REMARK  status: ('A' for Active; 'I' for Inactive)
ROOT
ATOM      1  C   UNL d   1      -0.587  -3.162   0.939  0.00  0.00     0.020 A 
ATOM      2  C1  UNL d   1       0.495  -2.784   0.145  0.00  0.00     0.020 A 
ATOM      3  C2  UNL d   1       0.650  -1.449  -0.235  0.00  0.00     0.034 A 
ATOM      4  C3  UNL d   1      -0.278  -0.487   0.180  0.00  0.00     0.017 A 
ATOM      5  C4  UNL d   1      -1.364  -0.867   0.976  0.00  0.00     0.017 A 
ATOM      6  C5  UNL d   1      -1.514  -2.206   1.354  0.00  0.00     0.034 A 
ATOM      7 Cl   UNL d   1      -2.551   0.262   1.527  0.00  0.00    -0.070 Cl
ATOM      8 Cl1  UNL d   1      -0.024   1.145  -0.327  0.00  0.00    -0.070 Cl
ENDROOT
TORSDOF 0
ENDMDL
