MODEL 1
REMARK minimizedAffinity 7.93796921
REMARK minimizedRMSD -1
REMARK  0 active torsions:
REMARK  status: ('A' for Active; 'I' for Inactive)
ROOT
ATOM      1  C   UNL d   1       2.011  -0.856   3.263  0.00  0.00     0.020 A 
ATOM      2  C1  UNL d   1       1.636   0.442   3.610  0.00  0.00     0.020 A 
ATOM      3  C2  UNL d   1       0.297   0.829   3.521  0.00  0.00     0.034 A 
ATOM      4  C3  UNL d   1      -0.672  -0.082   3.084  0.00  0.00     0.017 A 
ATOM      5  C4  UNL d   1      -0.294  -1.384   2.735  0.00  0.00     0.017 A 
ATOM      6  C5  UNL d   1       1.048  -1.766   2.827  0.00  0.00     0.034 A 
ATOM      7 Cl   UNL d   1      -1.432  -2.564   2.187  0.00  0.00    -0.070 Cl
ATOM      8 Cl1  UNL d   1      -2.308   0.465   2.998  0.00  0.00    -0.070 Cl
ENDROOT
TORSDOF 0
ENDMDL
