MODEL 1
REMARK minimizedAffinity 6.69804525
REMARK minimizedRMSD -1
REMARK  0 active torsions:
REMARK  status: ('A' for Active; 'I' for Inactive)
ROOT
ATOM      1  C   UNL d   1       1.696   1.000  -2.077  0.00  0.00     0.020 A 
ATOM      2  C1  UNL d   1       1.570  -0.357  -1.782  0.00  0.00     0.020 A 
ATOM      3  C2  UNL d   1       1.807  -0.815  -0.484  0.00  0.00     0.034 A 
ATOM      4  C3  UNL d   1       2.171   0.085   0.523  0.00  0.00     0.017 A 
ATOM      5  C4  UNL d   1       2.298   1.447   0.226  0.00  0.00     0.017 A 
ATOM      6  C5  UNL d   1       2.060   1.900  -1.075  0.00  0.00     0.034 A 
ATOM      7 Cl   UNL d   1       2.744   2.618   1.417  0.00  0.00    -0.070 Cl
ATOM      8 Cl1  UNL d   1       2.449  -0.550   2.106  0.00  0.00    -0.070 Cl
ENDROOT
TORSDOF 0
ENDMDL
