MODEL 1
REMARK minimizedAffinity 1.09012985
REMARK minimizedRMSD -1
REMARK  0 active torsions:
REMARK  status: ('A' for Active; 'I' for Inactive)
ROOT
ATOM      1  C   UNL d   1      -4.122   5.855  -4.921  0.00  0.00     0.020 A 
ATOM      2  C1  UNL d   1      -5.077   5.208  -5.704  0.00  0.00     0.020 A 
ATOM      3  C2  UNL d   1      -4.934   3.851  -6.000  0.00  0.00     0.034 A 
ATOM      4  C3  UNL d   1      -3.833   3.136  -5.513  0.00  0.00     0.017 A 
ATOM      5  C4  UNL d   1      -2.875   3.787  -4.727  0.00  0.00     0.017 A 
ATOM      6  C5  UNL d   1      -3.023   5.146  -4.434  0.00  0.00     0.034 A 
ATOM      7 Cl   UNL d   1      -1.490   2.972  -4.091  0.00  0.00    -0.070 Cl
ATOM      8 Cl1  UNL d   1      -3.720   1.460  -5.918  0.00  0.00    -0.070 Cl
ENDROOT
TORSDOF 0
ENDMDL
