MODEL 1
REMARK minimizedAffinity 7.30582857
REMARK minimizedRMSD -1
REMARK  0 active torsions:
REMARK  status: ('A' for Active; 'I' for Inactive)
ROOT
ATOM      1  C   UNL d   1      -1.095   1.364   3.628  0.00  0.00     0.020 A 
ATOM      2  C1  UNL d   1      -2.415   1.118   3.252  0.00  0.00     0.020 A 
ATOM      3  C2  UNL d   1      -2.705   0.086   2.357  0.00  0.00     0.034 A 
ATOM      4  C3  UNL d   1      -1.674  -0.703   1.834  0.00  0.00     0.017 A 
ATOM      5  C4  UNL d   1      -0.350  -0.455   2.211  0.00  0.00     0.017 A 
ATOM      6  C5  UNL d   1      -0.064   0.579   3.108  0.00  0.00     0.034 A 
ATOM      7 Cl   UNL d   1       0.976  -1.386   1.608  0.00  0.00    -0.070 Cl
ATOM      8 Cl1  UNL d   1      -2.106  -1.962   0.732  0.00  0.00    -0.070 Cl
ENDROOT
TORSDOF 0
ENDMDL
