MODEL 1
REMARK minimizedAffinity 7.70285225
REMARK minimizedRMSD -1
REMARK  0 active torsions:
REMARK  status: ('A' for Active; 'I' for Inactive)
ROOT
ATOM      1  C   UNL d   1       1.211   2.435  -1.698  0.00  0.00     0.020 A 
ATOM      2  C1  UNL d   1       2.328   2.295  -0.875  0.00  0.00     0.020 A 
ATOM      3  C2  UNL d   1       2.621   1.056  -0.300  0.00  0.00     0.034 A 
ATOM      4  C3  UNL d   1       1.797  -0.047  -0.548  0.00  0.00     0.017 A 
ATOM      5  C4  UNL d   1       0.676   0.094  -1.375  0.00  0.00     0.017 A 
ATOM      6  C5  UNL d   1       0.387   1.337  -1.947  0.00  0.00     0.034 A 
ATOM      7 Cl   UNL d   1      -0.388  -1.221  -1.727  0.00  0.00    -0.070 Cl
ATOM      8 Cl1  UNL d   1       2.219  -1.549   0.194  0.00  0.00    -0.070 Cl
ENDROOT
TORSDOF 0
ENDMDL
