MODEL 1
REMARK minimizedAffinity 3.85635519
REMARK minimizedRMSD -1
REMARK  0 active torsions:
REMARK  status: ('A' for Active; 'I' for Inactive)
ROOT
ATOM      1  C   UNL d   1       0.817  -1.021   2.227  0.00  0.00     0.020 A 
ATOM      2  C1  UNL d   1       0.646   0.173   2.925  0.00  0.00     0.020 A 
ATOM      3  C2  UNL d   1      -0.615   0.770   2.988  0.00  0.00     0.034 A 
ATOM      4  C3  UNL d   1      -1.710   0.172   2.352  0.00  0.00     0.017 A 
ATOM      5  C4  UNL d   1      -1.536  -1.027   1.652  0.00  0.00     0.017 A 
ATOM      6  C5  UNL d   1      -0.271  -1.620   1.592  0.00  0.00     0.034 A 
ATOM      7 Cl   UNL d   1      -2.838  -1.824   0.842  0.00  0.00    -0.070 Cl
ATOM      8 Cl1  UNL d   1      -3.240   0.965   2.472  0.00  0.00    -0.070 Cl
ENDROOT
TORSDOF 0
ENDMDL
