MODEL 1
REMARK minimizedAffinity 8.55820465
REMARK minimizedRMSD -1
REMARK  0 active torsions:
REMARK  status: ('A' for Active; 'I' for Inactive)
ROOT
ATOM      1  C   UNL d   1       1.628  -2.467   2.528  0.00  0.00     0.020 A 
ATOM      2  C1  UNL d   1       0.767  -1.385   2.346  0.00  0.00     0.020 A 
ATOM      3  C2  UNL d   1       0.822  -0.641   1.165  0.00  0.00     0.034 A 
ATOM      4  C3  UNL d   1       1.738  -0.978   0.162  0.00  0.00     0.017 A 
ATOM      5  C4  UNL d   1       2.601  -2.065   0.346  0.00  0.00     0.017 A 
ATOM      6  C5  UNL d   1       2.542  -2.806   1.530  0.00  0.00     0.034 A 
ATOM      7 Cl   UNL d   1       3.758  -2.541  -0.846  0.00  0.00    -0.070 Cl
ATOM      8 Cl1  UNL d   1       1.749  -0.015  -1.272  0.00  0.00    -0.070 Cl
ENDROOT
TORSDOF 0
ENDMDL
