MODEL 1
REMARK minimizedAffinity 5.21177912
REMARK minimizedRMSD -1
REMARK  0 active torsions:
REMARK  status: ('A' for Active; 'I' for Inactive)
ROOT
ATOM      1  C   UNL d   1       0.660   0.423  -2.172  0.00  0.00     0.020 A 
ATOM      2  C1  UNL d   1       1.140  -0.876  -2.008  0.00  0.00     0.020 A 
ATOM      3  C2  UNL d   1       2.217  -1.119  -1.152  0.00  0.00     0.034 A 
ATOM      4  C3  UNL d   1       2.816  -0.062  -0.457  0.00  0.00     0.017 A 
ATOM      5  C4  UNL d   1       2.333   1.241  -0.623  0.00  0.00     0.017 A 
ATOM      6  C5  UNL d   1       1.255   1.479  -1.481  0.00  0.00     0.034 A 
ATOM      7 Cl   UNL d   1       3.020   2.597   0.201  0.00  0.00    -0.070 Cl
ATOM      8 Cl1  UNL d   1       4.142  -0.435   0.585  0.00  0.00    -0.070 Cl
ENDROOT
TORSDOF 0
ENDMDL
