MODEL 1
REMARK minimizedAffinity 5.48536921
REMARK minimizedRMSD -1
REMARK  1 active torsions:
REMARK  status: ('A' for Active; 'I' for Inactive)
REMARK    1  A    between atoms: C1_2  and  C2_3 
ROOT
ATOM      1  C2  UNL d   1       1.307  -1.931   4.563  0.00  0.00    -0.081 A 
ATOM      2  C3  UNL d   1       1.117  -0.919   3.614  0.00  0.00     0.006 A 
ATOM      3  C4  UNL d   1       1.761  -0.978   2.377  0.00  0.00     0.002 A 
ATOM      4  C5  UNL d   1       2.600  -2.053   2.063  0.00  0.00    -0.080 A 
ATOM      5  C6  UNL d   1       3.274  -2.144   0.727  0.00  0.00     0.076 C 
ATOM      6  C7  UNL d   1       2.803  -3.056   3.018  0.00  0.00     0.002 A 
ATOM      7  C8  UNL d   1       2.160  -2.997   4.256  0.00  0.00     0.006 A 
ENDROOT
BRANCH   1   8
ATOM      8  C1  UNL d   1       0.562  -1.904   5.873  0.00  0.00     0.054 C 
ATOM      9  C   UNL d   1      -0.398  -3.079   5.989  0.00  0.00     0.018 C 
ENDBRANCH   1   8
TORSDOF 1
ENDMDL
