MODEL 1
REMARK minimizedAffinity 4.87737226
REMARK minimizedRMSD -1
REMARK  1 active torsions:
REMARK  status: ('A' for Active; 'I' for Inactive)
REMARK    1  A    between atoms: C1_2  and  C2_3 
ROOT
ATOM      1  C2  UNL d   1       1.143  -1.085   2.247  0.00  0.00    -0.081 A 
ATOM      2  C3  UNL d   1       1.702  -2.368   2.270  0.00  0.00     0.006 A 
ATOM      3  C4  UNL d   1       1.905  -3.031   3.482  0.00  0.00     0.002 A 
ATOM      4  C5  UNL d   1       1.544  -2.426   4.691  0.00  0.00    -0.080 A 
ATOM      5  C6  UNL d   1       1.728  -3.139   5.998  0.00  0.00     0.076 C 
ATOM      6  C7  UNL d   1       1.002  -1.136   4.670  0.00  0.00     0.002 A 
ATOM      7  C8  UNL d   1       0.800  -0.473   3.458  0.00  0.00     0.006 A 
ENDROOT
BRANCH   1   8
ATOM      8  C1  UNL d   1       0.864  -0.393   0.937  0.00  0.00     0.054 C 
ATOM      9  C   UNL d   1      -0.238   0.646   1.083  0.00  0.00     0.018 C 
ENDBRANCH   1   8
TORSDOF 1
ENDMDL
