MODEL 1
REMARK minimizedAffinity 5.31940937
REMARK minimizedRMSD -1
REMARK  1 active torsions:
REMARK  status: ('A' for Active; 'I' for Inactive)
REMARK    1  A    between atoms: C1_2  and  C2_3 
ROOT
ATOM      1  C2  UNL d   1      -2.421  -1.766  -0.129  0.00  0.00    -0.081 A 
ATOM      2  C3  UNL d   1      -2.822  -0.957  -1.200  0.00  0.00     0.006 A 
ATOM      3  C4  UNL d   1      -2.596   0.421  -1.169  0.00  0.00     0.002 A 
ATOM      4  C5  UNL d   1      -1.959   1.012  -0.072  0.00  0.00    -0.080 A 
ATOM      5  C6  UNL d   1      -1.684   2.486  -0.040  0.00  0.00     0.076 C 
ATOM      6  C7  UNL d   1      -1.575   0.206   1.005  0.00  0.00     0.002 A 
ATOM      7  C8  UNL d   1      -1.801  -1.171   0.976  0.00  0.00     0.006 A 
ENDROOT
BRANCH   1   8
ATOM      8  C1  UNL d   1      -2.605  -3.261  -0.187  0.00  0.00     0.054 C 
ATOM      9  C   UNL d   1      -1.456  -3.931  -0.927  0.00  0.00     0.018 C 
ENDBRANCH   1   8
TORSDOF 1
ENDMDL
