MODEL 1
REMARK minimizedAffinity 15.7923231
REMARK minimizedRMSD -1
REMARK  1 active torsions:
REMARK  status: ('A' for Active; 'I' for Inactive)
REMARK    1  A    between atoms: C1_2  and  C2_3 
ROOT
ATOM      1  C2  UNL d   1      -1.751   0.537  -0.293  0.00  0.00    -0.081 A 
ATOM      2  C3  UNL d   1      -0.602   1.318  -0.113  0.00  0.00     0.006 A 
ATOM      3  C4  UNL d   1       0.421   0.888   0.735  0.00  0.00     0.002 A 
ATOM      4  C5  UNL d   1       0.318  -0.333   1.410  0.00  0.00    -0.080 A 
ATOM      5  C6  UNL d   1       1.422  -0.821   2.299  0.00  0.00     0.076 C 
ATOM      6  C7  UNL d   1      -0.837  -1.105   1.244  0.00  0.00     0.002 A 
ATOM      7  C8  UNL d   1      -1.861  -0.675   0.397  0.00  0.00     0.006 A 
ENDROOT
BRANCH   1   8
ATOM      8  C1  UNL d   1      -2.827   0.967  -1.256  0.00  0.00     0.054 C 
ATOM      9  C   UNL d   1      -2.399   0.745  -2.699  0.00  0.00     0.018 C 
ENDBRANCH   1   8
TORSDOF 1
ENDMDL
