MODEL 1
REMARK minimizedAffinity -1.43828332
REMARK minimizedRMSD -1
REMARK  1 active torsions:
REMARK  status: ('A' for Active; 'I' for Inactive)
REMARK    1  A    between atoms: C1_2  and  C2_3 
ROOT
ATOM      1  C2  UNL d   1       0.257  -1.717   1.633  0.00  0.00    -0.081 A 
ATOM      2  C3  UNL d   1      -0.500  -0.623   1.196  0.00  0.00     0.006 A 
ATOM      3  C4  UNL d   1      -1.581  -0.810   0.331  0.00  0.00     0.002 A 
ATOM      4  C5  UNL d   1      -1.928  -2.094  -0.104  0.00  0.00    -0.080 A 
ATOM      5  C6  UNL d   1      -3.105  -2.311  -1.008  0.00  0.00     0.076 C 
ATOM      6  C7  UNL d   1      -1.161  -3.185   0.318  0.00  0.00     0.002 A 
ATOM      7  C8  UNL d   1      -0.080  -2.999   1.182  0.00  0.00     0.006 A 
ENDROOT
BRANCH   1   8
ATOM      8  C1  UNL d   1       1.383  -1.526   2.616  0.00  0.00     0.054 C 
ATOM      9  C   UNL d   1       1.087  -2.220   3.938  0.00  0.00     0.018 C 
ENDBRANCH   1   8
TORSDOF 1
ENDMDL
