MODEL 1
REMARK minimizedAffinity 6.39813662
REMARK minimizedRMSD -1
REMARK  1 active torsions:
REMARK  status: ('A' for Active; 'I' for Inactive)
REMARK    1  A    between atoms: C1_2  and  C2_3 
ROOT
ATOM      1  C2  UNL d   1       2.335  -3.192   2.920  0.00  0.00    -0.081 A 
ATOM      2  C3  UNL d   1       2.111  -2.127   2.039  0.00  0.00     0.006 A 
ATOM      3  C4  UNL d   1       1.704  -0.882   2.522  0.00  0.00     0.002 A 
ATOM      4  C5  UNL d   1       1.521  -0.677   3.894  0.00  0.00    -0.080 A 
ATOM      5  C6  UNL d   1       1.114   0.663   4.428  0.00  0.00     0.076 C 
ATOM      6  C7  UNL d   1       1.728  -1.746   4.773  0.00  0.00     0.002 A 
ATOM      7  C8  UNL d   1       2.134  -2.992   4.291  0.00  0.00     0.006 A 
ENDROOT
BRANCH   1   8
ATOM      8  C1  UNL d   1       2.837  -4.518   2.409  0.00  0.00     0.054 C 
ATOM      9  C   UNL d   1       1.886  -5.649   2.777  0.00  0.00     0.018 C 
ENDBRANCH   1   8
TORSDOF 1
ENDMDL
