MODEL 1
REMARK minimizedAffinity 16.7365036
REMARK minimizedRMSD -1
REMARK  1 active torsions:
REMARK  status: ('A' for Active; 'I' for Inactive)
REMARK    1  A    between atoms: C1_2  and  C2_3 
ROOT
ATOM      1  C2  UNL d   1       5.319  -5.017  -2.676  0.00  0.00    -0.081 A 
ATOM      2  C3  UNL d   1       4.083  -4.415  -2.940  0.00  0.00     0.006 A 
ATOM      3  C4  UNL d   1       3.543  -3.486  -2.048  0.00  0.00     0.002 A 
ATOM      4  C5  UNL d   1       4.233  -3.138  -0.881  0.00  0.00    -0.080 A 
ATOM      5  C6  UNL d   1       3.679  -2.119   0.070  0.00  0.00     0.076 C 
ATOM      6  C7  UNL d   1       5.460  -3.753  -0.609  0.00  0.00     0.002 A 
ATOM      7  C8  UNL d   1       6.000  -4.682  -1.500  0.00  0.00     0.006 A 
ENDROOT
BRANCH   1   8
ATOM      8  C1  UNL d   1       5.935  -5.971  -3.668  0.00  0.00     0.054 C 
ATOM      9  C   UNL d   1       5.997  -5.358  -5.060  0.00  0.00     0.018 C 
ENDBRANCH   1   8
TORSDOF 1
ENDMDL
