MODEL 1
REMARK minimizedAffinity 1.97295916
REMARK minimizedRMSD -1
REMARK  0 active torsions:
REMARK  status: ('A' for Active; 'I' for Inactive)
ROOT
ATOM      1  C   UNL d   1      -3.062  -1.706  -3.088  0.00  0.00    -0.002 A 
ATOM      2  C1  UNL d   1      -3.303  -0.340  -3.079  0.00  0.00     0.010 A 
ATOM      3  C2  UNL d   1      -3.056   0.418  -1.932  0.00  0.00     0.041 A 
ATOM      4  C3  UNL d   1      -2.556  -0.227  -0.784  0.00  0.00    -0.075 A 
ATOM      5  S   UNL d   1      -2.178   0.498   0.734  0.00  0.00     0.015 SA
ATOM      6  C4  UNL d   1      -1.687  -0.990   1.406  0.00  0.00     0.022 A 
ATOM      7  C5  UNL d   1      -1.802  -2.024   0.508  0.00  0.00     0.026 A 
ATOM      8  C6  UNL d   1      -2.304  -1.602  -0.769  0.00  0.00    -0.082 A 
ATOM      9  C7  UNL d   1      -2.566  -2.342  -1.947  0.00  0.00     0.045 A 
ENDROOT
TORSDOF 0
ENDMDL
