MODEL 1
REMARK minimizedAffinity 9.27937603
REMARK minimizedRMSD -1
REMARK  0 active torsions:
REMARK  status: ('A' for Active; 'I' for Inactive)
ROOT
ATOM      1  C   UNL d   1       2.709  -2.942   1.875  0.00  0.00    -0.002 A 
ATOM      2  C1  UNL d   1       2.836  -2.703   0.514  0.00  0.00     0.010 A 
ATOM      3  C2  UNL d   1       2.213  -1.600  -0.075  0.00  0.00     0.041 A 
ATOM      4  C3  UNL d   1       1.455  -0.733   0.736  0.00  0.00    -0.075 A 
ATOM      5  S   UNL d   1       0.604   0.680   0.234  0.00  0.00     0.015 SA
ATOM      6  C4  UNL d   1       0.053   1.001   1.815  0.00  0.00     0.022 A 
ATOM      7  C5  UNL d   1       0.498   0.062   2.716  0.00  0.00     0.026 A 
ATOM      8  C6  UNL d   1       1.313  -0.952   2.109  0.00  0.00    -0.082 A 
ATOM      9  C7  UNL d   1       1.956  -2.079   2.676  0.00  0.00     0.045 A 
ENDROOT
TORSDOF 0
ENDMDL
