MODEL 1
REMARK minimizedAffinity 12.6070328
REMARK minimizedRMSD -1
REMARK  0 active torsions:
REMARK  status: ('A' for Active; 'I' for Inactive)
ROOT
ATOM      1  C   UNL d   1      -2.789  -2.586   0.231  0.00  0.00    -0.002 A 
ATOM      2  C1  UNL d   1      -1.946  -3.688   0.218  0.00  0.00     0.010 A 
ATOM      3  C2  UNL d   1      -0.603  -3.559   0.576  0.00  0.00     0.041 A 
ATOM      4  C3  UNL d   1      -0.117  -2.291   0.954  0.00  0.00    -0.075 A 
ATOM      5  S   UNL d   1       1.491  -1.895   1.433  0.00  0.00     0.015 SA
ATOM      6  C4  UNL d   1       1.096  -0.254   1.667  0.00  0.00     0.022 A 
ATOM      7  C5  UNL d   1      -0.226   0.003   1.391  0.00  0.00     0.026 A 
ATOM      8  C6  UNL d   1      -0.947  -1.167   0.976  0.00  0.00    -0.082 A 
ATOM      9  C7  UNL d   1      -2.304  -1.330   0.606  0.00  0.00     0.045 A 
ENDROOT
TORSDOF 0
ENDMDL
