MODEL 1
REMARK minimizedAffinity 13.9962311
REMARK minimizedRMSD -1
REMARK  0 active torsions:
REMARK  status: ('A' for Active; 'I' for Inactive)
ROOT
ATOM      1  C   UNL d   1      -2.702  -4.427  -0.806  0.00  0.00    -0.002 A 
ATOM      2  C1  UNL d   1      -1.965  -4.156   0.338  0.00  0.00     0.010 A 
ATOM      3  C2  UNL d   1      -1.793  -2.842   0.777  0.00  0.00     0.041 A 
ATOM      4  C3  UNL d   1      -2.382  -1.795   0.042  0.00  0.00    -0.075 A 
ATOM      5  S   UNL d   1      -2.306  -0.108   0.392  0.00  0.00     0.015 SA
ATOM      6  C4  UNL d   1      -3.251   0.292  -0.969  0.00  0.00     0.022 A 
ATOM      7  C5  UNL d   1      -3.624  -0.821  -1.684  0.00  0.00     0.026 A 
ATOM      8  C6  UNL d   1      -3.130  -2.043  -1.113  0.00  0.00    -0.082 A 
ATOM      9  C7  UNL d   1      -3.285  -3.386  -1.533  0.00  0.00     0.045 A 
ENDROOT
TORSDOF 0
ENDMDL
