MODEL 1
REMARK minimizedAffinity 5.6160512
REMARK minimizedRMSD -1
REMARK  0 active torsions:
REMARK  status: ('A' for Active; 'I' for Inactive)
ROOT
ATOM      1  C   UNL d   1      -5.588  -3.521  -2.197  0.00  0.00    -0.002 A 
ATOM      2  C1  UNL d   1      -6.000  -2.247  -1.833  0.00  0.00     0.010 A 
ATOM      3  C2  UNL d   1      -5.136  -1.390  -1.148  0.00  0.00     0.041 A 
ATOM      4  C3  UNL d   1      -3.838  -1.839  -0.834  0.00  0.00    -0.075 A 
ATOM      5  S   UNL d   1      -2.608  -0.963  -0.002  0.00  0.00     0.015 SA
ATOM      6  C4  UNL d   1      -1.507  -2.260  -0.111  0.00  0.00     0.022 A 
ATOM      7  C5  UNL d   1      -2.048  -3.342  -0.763  0.00  0.00     0.026 A 
ATOM      8  C6  UNL d   1      -3.400  -3.118  -1.191  0.00  0.00    -0.082 A 
ATOM      9  C7  UNL d   1      -4.300  -3.963  -1.884  0.00  0.00     0.045 A 
ENDROOT
TORSDOF 0
ENDMDL
