MODEL 1
REMARK minimizedAffinity 6.95243406
REMARK minimizedRMSD -1
REMARK  0 active torsions:
REMARK  status: ('A' for Active; 'I' for Inactive)
ROOT
ATOM      1  C   UNL d   1       1.807  -2.236   5.771  0.00  0.00    -0.002 A 
ATOM      2  C1  UNL d   1       1.128  -1.047   5.999  0.00  0.00     0.010 A 
ATOM      3  C2  UNL d   1       0.739  -0.237   4.931  0.00  0.00     0.041 A 
ATOM      4  C3  UNL d   1       1.044  -0.646   3.618  0.00  0.00    -0.075 A 
ATOM      5  S   UNL d   1       0.666   0.185   2.155  0.00  0.00     0.015 SA
ATOM      6  C4  UNL d   1       1.395  -1.018   1.194  0.00  0.00     0.022 A 
ATOM      7  C5  UNL d   1       1.920  -2.037   1.954  0.00  0.00     0.026 A 
ATOM      8  C6  UNL d   1       1.726  -1.839   3.363  0.00  0.00    -0.082 A 
ATOM      9  C7  UNL d   1       2.108  -2.639   4.467  0.00  0.00     0.045 A 
ENDROOT
TORSDOF 0
ENDMDL
