MODEL 1
REMARK minimizedAffinity 10.8420458
REMARK minimizedRMSD -1
REMARK  0 active torsions:
REMARK  status: ('A' for Active; 'I' for Inactive)
ROOT
ATOM      1  C   UNL d   1       0.272   1.136   1.933  0.00  0.00    -0.002 A 
ATOM      2  C1  UNL d   1      -0.038   0.847   0.611  0.00  0.00     0.010 A 
ATOM      3  C2  UNL d   1       0.405  -0.338   0.020  0.00  0.00     0.041 A 
ATOM      4  C3  UNL d   1       1.169  -1.238   0.788  0.00  0.00    -0.075 A 
ATOM      5  S   UNL d   1       1.818  -2.751   0.276  0.00  0.00     0.015 SA
ATOM      6  C4  UNL d   1       2.521  -3.051   1.799  0.00  0.00     0.022 A 
ATOM      7  C5  UNL d   1       2.276  -2.032   2.689  0.00  0.00     0.026 A 
ATOM      8  C6  UNL d   1       1.493  -0.970   2.122  0.00  0.00    -0.082 A 
ATOM      9  C7  UNL d   1       1.030   0.240   2.691  0.00  0.00     0.045 A 
ENDROOT
TORSDOF 0
ENDMDL
