MODEL 1
REMARK minimizedAffinity 11.4954367
REMARK minimizedRMSD -1
REMARK  0 active torsions:
REMARK  status: ('A' for Active; 'I' for Inactive)
ROOT
ATOM      1  C   UNL d   1       1.591  -2.574   6.000  0.00  0.00    -0.002 A 
ATOM      2  C1  UNL d   1       2.276  -3.701   5.569  0.00  0.00     0.010 A 
ATOM      3  C2  UNL d   1       2.607  -3.860   4.222  0.00  0.00     0.041 A 
ATOM      4  C3  UNL d   1       2.236  -2.856   3.306  0.00  0.00    -0.075 A 
ATOM      5  S   UNL d   1       2.536  -2.835   1.609  0.00  0.00     0.015 SA
ATOM      6  C4  UNL d   1       1.763  -1.328   1.415  0.00  0.00     0.022 A 
ATOM      7  C5  UNL d   1       1.282  -0.839   2.606  0.00  0.00     0.026 A 
ATOM      8  C6  UNL d   1       1.547  -1.711   3.716  0.00  0.00    -0.082 A 
ATOM      9  C7  UNL d   1       1.225  -1.580   5.088  0.00  0.00     0.045 A 
ENDROOT
TORSDOF 0
ENDMDL
