MODEL 1
REMARK minimizedAffinity 18.6082592
REMARK minimizedRMSD -1
REMARK  0 active torsions:
REMARK  status: ('A' for Active; 'I' for Inactive)
ROOT
ATOM      1  C   UNL d   1       2.151  -1.865   0.268  0.00  0.00    -0.002 A 
ATOM      2  C1  UNL d   1       2.080  -3.066   0.961  0.00  0.00     0.010 A 
ATOM      3  C2  UNL d   1       1.789  -3.082   2.326  0.00  0.00     0.041 A 
ATOM      4  C3  UNL d   1       1.565  -1.860   2.990  0.00  0.00    -0.075 A 
ATOM      5  S   UNL d   1       1.192  -1.636   4.658  0.00  0.00     0.015 SA
ATOM      6  C4  UNL d   1       1.116   0.058   4.491  0.00  0.00     0.022 A 
ATOM      7  C5  UNL d   1       1.367   0.461   3.201  0.00  0.00     0.026 A 
ATOM      8  C6  UNL d   1       1.630  -0.638   2.314  0.00  0.00    -0.082 A 
ATOM      9  C7  UNL d   1       1.928  -0.655   0.930  0.00  0.00     0.045 A 
ENDROOT
TORSDOF 0
ENDMDL
