MODEL 1
REMARK minimizedAffinity 5.12659264
REMARK minimizedRMSD -1
REMARK  0 active torsions:
REMARK  status: ('A' for Active; 'I' for Inactive)
ROOT
ATOM      1  C   UNL d   1       2.617   0.172  -0.756  0.00  0.00     0.124 A 
ATOM      2  C1  UNL d   1       3.979   0.070  -1.001  0.00  0.00     0.062 A 
ATOM      3  C2  UNL d   1       4.684  -1.054  -0.578  0.00  0.00     0.162 A 
ATOM      4  C3  UNL d   1       4.028  -2.084   0.095  0.00  0.00    -0.034 A 
ATOM      5  C4  UNL d   1       2.658  -1.974   0.339  0.00  0.00     0.162 A 
ATOM      6  C5  UNL d   1       1.958  -0.849  -0.086  0.00  0.00     0.062 A 
ATOM      7  F   UNL d   1       0.642  -0.752   0.152  0.00  0.00    -0.097 F 
ATOM      8  F1  UNL d   1       1.995  -2.946   0.982  0.00  0.00    -0.096 F 
ATOM      9  I   UNL d   1       5.078  -3.765   0.729  0.00  0.00    -0.060 I 
ATOM     10  F2  UNL d   1       6.000  -1.126  -0.829  0.00  0.00    -0.096 F 
ATOM     11  F3  UNL d   1       4.619   1.055  -1.647  0.00  0.00    -0.097 F 
ATOM     12  F4  UNL d   1       1.942   1.254  -1.163  0.00  0.00    -0.092 F 
ENDROOT
TORSDOF 0
ENDMDL
