MODEL 1
REMARK minimizedAffinity 22.7442055
REMARK minimizedRMSD -1
REMARK  0 active torsions:
REMARK  status: ('A' for Active; 'I' for Inactive)
ROOT
ATOM      1  C   UNL d   1       0.588  -1.936   2.316  0.00  0.00     0.124 A 
ATOM      2  C1  UNL d   1       1.470  -2.560   1.444  0.00  0.00     0.062 A 
ATOM      3  C2  UNL d   1       2.257  -1.801   0.583  0.00  0.00     0.162 A 
ATOM      4  C3  UNL d   1       2.168  -0.409   0.590  0.00  0.00    -0.034 A 
ATOM      5  C4  UNL d   1       1.279   0.211   1.470  0.00  0.00     0.162 A 
ATOM      6  C5  UNL d   1       0.494  -0.552   2.328  0.00  0.00     0.062 A 
ATOM      7  F   UNL d   1      -0.357   0.053   3.170  0.00  0.00    -0.097 F 
ATOM      8  F1  UNL d   1       1.168   1.548   1.503  0.00  0.00    -0.096 F 
ATOM      9  I   UNL d   1       3.344   0.729  -0.696  0.00  0.00    -0.060 I 
ATOM     10  F2  UNL d   1       3.100  -2.430  -0.250  0.00  0.00    -0.096 F 
ATOM     11  F3  UNL d   1       1.562  -3.897   1.429  0.00  0.00    -0.097 F 
ATOM     12  F4  UNL d   1      -0.169  -2.669   3.143  0.00  0.00    -0.092 F 
ENDROOT
TORSDOF 0
ENDMDL
