MODEL 1
REMARK minimizedAffinity 1.66272223
REMARK minimizedRMSD -1
REMARK  0 active torsions:
REMARK  status: ('A' for Active; 'I' for Inactive)
ROOT
ATOM      1  C   UNL d   1       3.384  -3.663   1.012  0.00  0.00     0.124 A 
ATOM      2  C1  UNL d   1       2.172  -2.999   0.878  0.00  0.00     0.062 A 
ATOM      3  C2  UNL d   1       2.113  -1.775   0.219  0.00  0.00     0.162 A 
ATOM      4  C3  UNL d   1       3.270  -1.206  -0.313  0.00  0.00    -0.034 A 
ATOM      5  C4  UNL d   1       4.486  -1.879  -0.174  0.00  0.00     0.162 A 
ATOM      6  C5  UNL d   1       4.539  -3.102   0.486  0.00  0.00     0.062 A 
ATOM      7  F   UNL d   1       5.711  -3.742   0.615  0.00  0.00    -0.097 F 
ATOM      8  F1  UNL d   1       5.617  -1.360  -0.673  0.00  0.00    -0.096 F 
ATOM      9  I   UNL d   1       3.187   0.624  -1.300  0.00  0.00    -0.060 I 
ATOM     10  F2  UNL d   1       0.929  -1.156   0.104  0.00  0.00    -0.096 F 
ATOM     11  F3  UNL d   1       1.054  -3.539   1.386  0.00  0.00    -0.097 F 
ATOM     12  F4  UNL d   1       3.437  -4.840   1.648  0.00  0.00    -0.092 F 
ENDROOT
TORSDOF 0
ENDMDL
