MODEL 1
REMARK minimizedAffinity 12.4682713
REMARK minimizedRMSD -1
REMARK  0 active torsions:
REMARK  status: ('A' for Active; 'I' for Inactive)
ROOT
ATOM      1  C   UNL d   1       2.752   0.023  -0.807  0.00  0.00     0.124 A 
ATOM      2  C1  UNL d   1       4.123  -0.188  -0.868  0.00  0.00     0.062 A 
ATOM      3  C2  UNL d   1       4.672  -1.366  -0.371  0.00  0.00     0.162 A 
ATOM      4  C3  UNL d   1       3.851  -2.344   0.191  0.00  0.00    -0.034 A 
ATOM      5  C4  UNL d   1       2.474  -2.125   0.250  0.00  0.00     0.162 A 
ATOM      6  C5  UNL d   1       1.929  -0.945  -0.248  0.00  0.00     0.062 A 
ATOM      7  F   UNL d   1       0.605  -0.743  -0.188  0.00  0.00    -0.097 F 
ATOM      8  F1  UNL d   1       1.655  -3.044   0.783  0.00  0.00    -0.096 F 
ATOM      9  I   UNL d   1       4.670  -4.107   0.934  0.00  0.00    -0.060 I 
ATOM     10  F2  UNL d   1       6.000  -1.543  -0.444  0.00  0.00    -0.096 F 
ATOM     11  F3  UNL d   1       4.920   0.746  -1.406  0.00  0.00    -0.097 F 
ATOM     12  F4  UNL d   1       2.226   1.158  -1.285  0.00  0.00    -0.092 F 
ENDROOT
TORSDOF 0
ENDMDL
