MODEL 1
REMARK minimizedAffinity 2.41889262
REMARK minimizedRMSD -1
REMARK  0 active torsions:
REMARK  status: ('A' for Active; 'I' for Inactive)
ROOT
ATOM      1  C   UNL d   1       1.951  -0.131  -0.222  0.00  0.00     0.124 A 
ATOM      2  C1  UNL d   1       3.283  -0.485  -0.386  0.00  0.00     0.062 A 
ATOM      3  C2  UNL d   1       3.756  -1.689   0.128  0.00  0.00     0.162 A 
ATOM      4  C3  UNL d   1       2.895  -2.549   0.810  0.00  0.00    -0.034 A 
ATOM      5  C4  UNL d   1       1.557  -2.185   0.973  0.00  0.00     0.162 A 
ATOM      6  C5  UNL d   1       1.090  -0.981   0.457  0.00  0.00     0.062 A 
ATOM      7  F   UNL d   1      -0.198  -0.640   0.617  0.00  0.00    -0.097 F 
ATOM      8  F1  UNL d   1       0.703  -2.989   1.624  0.00  0.00    -0.096 F 
ATOM      9  I   UNL d   1       3.598  -4.350   1.581  0.00  0.00    -0.060 I 
ATOM     10  F2  UNL d   1       5.047  -2.005  -0.046  0.00  0.00    -0.096 F 
ATOM     11  F3  UNL d   1       4.117   0.335  -1.041  0.00  0.00    -0.097 F 
ATOM     12  F4  UNL d   1       1.499   1.029  -0.717  0.00  0.00    -0.092 F 
ENDROOT
TORSDOF 0
ENDMDL
