MODEL 1
REMARK minimizedAffinity 0.808397591
REMARK minimizedRMSD -1
REMARK  0 active torsions:
REMARK  status: ('A' for Active; 'I' for Inactive)
ROOT
ATOM      1  C   UNL d   1       0.034  -3.257   3.102  0.00  0.00     0.124 A 
ATOM      2  C1  UNL d   1      -0.435  -1.969   2.882  0.00  0.00     0.062 A 
ATOM      3  C2  UNL d   1       0.052  -1.219   1.816  0.00  0.00     0.162 A 
ATOM      4  C3  UNL d   1       1.015  -1.755   0.960  0.00  0.00    -0.034 A 
ATOM      5  C4  UNL d   1       1.483  -3.050   1.188  0.00  0.00     0.162 A 
ATOM      6  C5  UNL d   1       0.993  -3.796   2.255  0.00  0.00     0.062 A 
ATOM      7  F   UNL d   1       1.447  -5.040   2.466  0.00  0.00    -0.097 F 
ATOM      8  F1  UNL d   1       2.408  -3.596   0.385  0.00  0.00    -0.096 F 
ATOM      9  I   UNL d   1       1.746  -0.637  -0.636  0.00  0.00    -0.060 I 
ATOM     10  F2  UNL d   1      -0.419   0.022   1.627  0.00  0.00    -0.096 F 
ATOM     11  F3  UNL d   1      -1.360  -1.446   3.699  0.00  0.00    -0.097 F 
ATOM     12  F4  UNL d   1      -0.435  -3.976   4.129  0.00  0.00    -0.092 F 
ENDROOT
TORSDOF 0
ENDMDL
