MODEL 1
REMARK minimizedAffinity 5.3099618
REMARK minimizedRMSD -1
REMARK  0 active torsions:
REMARK  status: ('A' for Active; 'I' for Inactive)
ROOT
ATOM      1  C   UNL d   1       0.986  -3.444   2.181  0.00  0.00     0.124 A 
ATOM      2  C1  UNL d   1      -0.158  -2.877   2.726  0.00  0.00     0.062 A 
ATOM      3  C2  UNL d   1      -0.648  -1.672   2.229  0.00  0.00     0.162 A 
ATOM      4  C3  UNL d   1       0.006  -1.026   1.179  0.00  0.00    -0.034 A 
ATOM      5  C4  UNL d   1       1.157  -1.602   0.637  0.00  0.00     0.162 A 
ATOM      6  C5  UNL d   1       1.642  -2.806   1.137  0.00  0.00     0.062 A 
ATOM      7  F   UNL d   1       2.747  -3.352   0.610  0.00  0.00    -0.097 F 
ATOM      8  F1  UNL d   1       1.810  -1.008  -0.372  0.00  0.00    -0.096 F 
ATOM      9  I   UNL d   1      -0.722   0.775   0.433  0.00  0.00    -0.060 I 
ATOM     10  F2  UNL d   1      -1.755  -1.148   2.774  0.00  0.00    -0.096 F 
ATOM     11  F3  UNL d   1      -0.794  -3.491   3.734  0.00  0.00    -0.097 F 
ATOM     12  F4  UNL d   1       1.455  -4.602   2.661  0.00  0.00    -0.092 F 
ENDROOT
TORSDOF 0
ENDMDL
