MODEL 1
REMARK minimizedAffinity 2.69273782
REMARK minimizedRMSD -1
REMARK  0 active torsions:
REMARK  status: ('A' for Active; 'I' for Inactive)
ROOT
ATOM      1  C   UNL d   1      -0.409  -3.033   2.993  0.00  0.00     0.124 A 
ATOM      2  C1  UNL d   1       0.563  -3.637   2.207  0.00  0.00     0.062 A 
ATOM      3  C2  UNL d   1       1.161  -2.930   1.167  0.00  0.00     0.162 A 
ATOM      4  C3  UNL d   1       0.788  -1.611   0.907  0.00  0.00    -0.034 A 
ATOM      5  C4  UNL d   1      -0.191  -1.012   1.701  0.00  0.00     0.162 A 
ATOM      6  C5  UNL d   1      -0.785  -1.722   2.739  0.00  0.00     0.062 A 
ATOM      7  F   UNL d   1      -1.724  -1.137   3.497  0.00  0.00    -0.097 F 
ATOM      8  F1  UNL d   1      -0.573   0.255   1.479  0.00  0.00    -0.096 F 
ATOM      9  I   UNL d   1       1.679  -0.552  -0.647  0.00  0.00    -0.060 I 
ATOM     10  F2  UNL d   1       2.097  -3.538   0.424  0.00  0.00    -0.096 F 
ATOM     11  F3  UNL d   1       0.928  -4.904   2.450  0.00  0.00    -0.097 F 
ATOM     12  F4  UNL d   1      -0.983  -3.715   3.993  0.00  0.00    -0.092 F 
ENDROOT
TORSDOF 0
ENDMDL
