MODEL 1
REMARK minimizedAffinity -5.28955936
REMARK minimizedRMSD -1
REMARK  0 active torsions:
REMARK  status: ('A' for Active; 'I' for Inactive)
ROOT
ATOM      1  C1  DEN d   1       1.584  -0.293   0.404  0.00  0.00     0.130 A 
ATOM      2  C2  DEN d   1       1.310   1.134   0.253  0.00  0.00    -0.031 A 
ATOM      3  C3  DEN d   1      -0.154   1.320   0.251  0.00  0.00     0.027 A 
ATOM      4  C4  DEN d   1      -2.016  -0.452   0.471  0.00  0.00     0.027 A 
ATOM      5  C5  DEN d   1      -2.274  -1.798   0.608  0.00  0.00    -0.003 A 
ATOM      6  C6  DEN d   1      -1.273  -2.732   0.653  0.00  0.00     0.001 A 
ATOM      7  C7  DEN d   1       0.035  -2.329   0.604  0.00  0.00     0.017 A 
ATOM      8  C8  DEN d   1       0.303  -0.974   0.458  0.00  0.00    -0.094 A 
ATOM      9  C9  DEN d   1      -0.722  -0.044   0.427  0.00  0.00    -0.072 A 
ENDROOT
TORSDOF 0
ENDMDL
