MODEL 1
REMARK minimizedAffinity -4.57420874
REMARK minimizedRMSD -1
REMARK  0 active torsions:
REMARK  status: ('A' for Active; 'I' for Inactive)
ROOT
ATOM      1  C1  DEN d   1       1.700  -0.331   0.294  0.00  0.00     0.130 A 
ATOM      2  C2  DEN d   1       1.407   0.959  -0.324  0.00  0.00    -0.031 A 
ATOM      3  C3  DEN d   1      -0.060   1.123  -0.367  0.00  0.00     0.027 A 
ATOM      4  C4  DEN d   1      -1.897  -0.486   0.463  0.00  0.00     0.027 A 
ATOM      5  C5  DEN d   1      -2.137  -1.710   1.049  0.00  0.00    -0.003 A 
ATOM      6  C6  DEN d   1      -1.124  -2.567   1.390  0.00  0.00     0.001 A 
ATOM      7  C7  DEN d   1       0.178  -2.193   1.190  0.00  0.00     0.017 A 
ATOM      8  C8  DEN d   1       0.428  -0.964   0.593  0.00  0.00    -0.094 A 
ATOM      9  C9  DEN d   1      -0.609  -0.107   0.266  0.00  0.00    -0.072 A 
ENDROOT
TORSDOF 0
ENDMDL
