MODEL 1
REMARK minimizedAffinity -6.76525688
REMARK minimizedRMSD -1
REMARK  0 active torsions:
REMARK  status: ('A' for Active; 'I' for Inactive)
ROOT
ATOM      1  C1  DEN d   1       1.187  -1.289   0.324  0.00  0.00     0.130 A 
ATOM      2  C2  DEN d   1       1.311   0.119  -0.044  0.00  0.00    -0.031 A 
ATOM      3  C3  DEN d   1       0.040   0.792   0.290  0.00  0.00     0.027 A 
ATOM      4  C4  DEN d   1      -2.096  -0.202   1.340  0.00  0.00     0.027 A 
ATOM      5  C5  DEN d   1      -2.681  -1.355   1.815  0.00  0.00    -0.003 A 
ATOM      6  C6  DEN d   1      -2.036  -2.563   1.795  0.00  0.00     0.001 A 
ATOM      7  C7  DEN d   1      -0.749  -2.638   1.331  0.00  0.00     0.017 A 
ATOM      8  C8  DEN d   1      -0.155  -1.482   0.844  0.00  0.00    -0.094 A 
ATOM      9  C9  DEN d   1      -0.819  -0.267   0.884  0.00  0.00    -0.072 A 
ENDROOT
TORSDOF 0
ENDMDL
