MODEL 1
REMARK minimizedAffinity -3.36034822
REMARK minimizedRMSD -1
REMARK  0 active torsions:
REMARK  status: ('A' for Active; 'I' for Inactive)
ROOT
ATOM      1  C1  DEN d   1      -2.186  -1.294   1.401  0.00  0.00     0.130 A 
ATOM      2  C2  DEN d   1      -1.767  -2.680   1.594  0.00  0.00    -0.031 A 
ATOM      3  C3  DEN d   1      -0.419  -2.834   1.010  0.00  0.00     0.027 A 
ATOM      4  C4  DEN d   1       1.053  -1.071  -0.163  0.00  0.00     0.027 A 
ATOM      5  C5  DEN d   1       1.120   0.242  -0.573  0.00  0.00    -0.003 A 
ATOM      6  C6  DEN d   1       0.085   1.119  -0.387  0.00  0.00     0.001 A 
ATOM      7  C7  DEN d   1      -1.045   0.705   0.267  0.00  0.00     0.017 A 
ATOM      8  C8  DEN d   1      -1.123  -0.619   0.678  0.00  0.00    -0.094 A 
ATOM      9  C9  DEN d   1      -0.061  -1.487   0.491  0.00  0.00    -0.072 A 
ENDROOT
TORSDOF 0
ENDMDL
