MODEL 1
REMARK minimizedAffinity -5.2755785
REMARK minimizedRMSD -1
REMARK  0 active torsions:
REMARK  status: ('A' for Active; 'I' for Inactive)
ROOT
ATOM      1  C1  DEN d   1       1.257   0.004   1.053  0.00  0.00     0.130 A 
ATOM      2  C2  DEN d   1       1.173   1.285   0.358  0.00  0.00    -0.031 A 
ATOM      3  C3  DEN d   1      -0.149   1.364  -0.296  0.00  0.00     0.027 A 
ATOM      4  C4  DEN d   1      -2.065  -0.363  -0.295  0.00  0.00     0.027 A 
ATOM      5  C5  DEN d   1      -2.454  -1.608   0.148  0.00  0.00    -0.003 A 
ATOM      6  C6  DEN d   1      -1.628  -2.410   0.889  0.00  0.00     0.001 A 
ATOM      7  C7  DEN d   1      -0.386  -1.958   1.248  0.00  0.00     0.017 A 
ATOM      8  C8  DEN d   1       0.017  -0.707   0.799  0.00  0.00    -0.094 A 
ATOM      9  C9  DEN d   1      -0.838   0.094   0.061  0.00  0.00    -0.072 A 
ENDROOT
TORSDOF 0
ENDMDL
