MODEL 1
REMARK minimizedAffinity -3.04598284
REMARK minimizedRMSD -1
REMARK  0 active torsions:
REMARK  status: ('A' for Active; 'I' for Inactive)
ROOT
ATOM      1  C1  DEN d   1      -2.046  -1.361   0.565  0.00  0.00     0.130 A 
ATOM      2  C2  DEN d   1      -1.543  -2.542   1.262  0.00  0.00    -0.031 A 
ATOM      3  C3  DEN d   1      -0.073  -2.435   1.338  0.00  0.00     0.027 A 
ATOM      4  C4  DEN d   1       1.467  -0.564   0.454  0.00  0.00     0.027 A 
ATOM      5  C5  DEN d   1       1.500   0.638  -0.218  0.00  0.00    -0.003 A 
ATOM      6  C6  DEN d   1       0.367   1.237  -0.701  0.00  0.00     0.001 A 
ATOM      7  C7  DEN d   1      -0.854   0.656  -0.481  0.00  0.00     0.017 A 
ATOM      8  C8  DEN d   1      -0.895  -0.560   0.189  0.00  0.00    -0.094 A 
ATOM      9  C9  DEN d   1       0.260  -1.142   0.681  0.00  0.00    -0.072 A 
ENDROOT
TORSDOF 0
ENDMDL
