MODEL 1
REMARK minimizedAffinity -6.21820641
REMARK minimizedRMSD -1
REMARK  0 active torsions:
REMARK  status: ('A' for Active; 'I' for Inactive)
ROOT
ATOM      1  C1  DEN d   1      -0.187   0.833   0.172  0.00  0.00     0.130 A 
ATOM      2  C2  DEN d   1       0.995   0.127  -0.315  0.00  0.00    -0.031 A 
ATOM      3  C3  DEN d   1       0.824  -1.309  -0.019  0.00  0.00     0.027 A 
ATOM      4  C4  DEN d   1      -1.148  -2.504   1.137  0.00  0.00     0.027 A 
ATOM      5  C5  DEN d   1      -2.375  -2.323   1.736  0.00  0.00    -0.003 A 
ATOM      6  C6  DEN d   1      -2.938  -1.083   1.885  0.00  0.00     0.001 A 
ATOM      7  C7  DEN d   1      -2.295   0.019   1.389  0.00  0.00     0.017 A 
ATOM      8  C8  DEN d   1      -1.054  -0.155   0.790  0.00  0.00    -0.094 A 
ATOM      9  C9  DEN d   1      -0.506  -1.417   0.638  0.00  0.00    -0.072 A 
ENDROOT
TORSDOF 0
ENDMDL
