MODEL 1
REMARK minimizedAffinity -1.48910117
REMARK minimizedRMSD -1
REMARK  0 active torsions:
REMARK  status: ('A' for Active; 'I' for Inactive)
ROOT
ATOM      1  C1  DEN d   1       1.792   0.008   0.749  0.00  0.00     0.130 A 
ATOM      2  C2  DEN d   1       1.448   1.111  -0.144  0.00  0.00    -0.031 A 
ATOM      3  C3  DEN d   1       0.036   0.951  -0.544  0.00  0.00     0.027 A 
ATOM      4  C4  DEN d   1      -1.645  -0.885   0.131  0.00  0.00     0.027 A 
ATOM      5  C5  DEN d   1      -1.811  -2.041   0.862  0.00  0.00    -0.003 A 
ATOM      6  C6  DEN d   1      -0.787  -2.609   1.573  0.00  0.00     0.001 A 
ATOM      7  C7  DEN d   1       0.439  -1.997   1.605  0.00  0.00     0.017 A 
ATOM      8  C8  DEN d   1       0.616  -0.835   0.865  0.00  0.00    -0.094 A 
ATOM      9  C9  DEN d   1      -0.435  -0.270   0.163  0.00  0.00    -0.072 A 
ENDROOT
TORSDOF 0
ENDMDL
