MODEL 1
REMARK minimizedAffinity 1.28434873
REMARK minimizedRMSD -1
REMARK  0 active torsions:
REMARK  status: ('A' for Active; 'I' for Inactive)
ROOT
ATOM      1  C1  DEN d   1      -1.977  -0.918   1.575  0.00  0.00     0.130 A 
ATOM      2  C2  DEN d   1      -1.615  -2.279   1.962  0.00  0.00    -0.031 A 
ATOM      3  C3  DEN d   1      -0.344  -2.621   1.293  0.00  0.00     0.027 A 
ATOM      4  C4  DEN d   1       1.093  -1.183  -0.294  0.00  0.00     0.027 A 
ATOM      5  C5  DEN d   1       1.188   0.037  -0.927  0.00  0.00    -0.003 A 
ATOM      6  C6  DEN d   1       0.225   1.003  -0.799  0.00  0.00     0.001 A 
ATOM      7  C7  DEN d   1      -0.853   0.783   0.017  0.00  0.00     0.017 A 
ATOM      8  C8  DEN d   1      -0.959  -0.447   0.653  0.00  0.00    -0.094 A 
ATOM      9  C9  DEN d   1       0.031  -1.406   0.521  0.00  0.00    -0.072 A 
ENDROOT
TORSDOF 0
ENDMDL
