MODEL 1
REMARK minimizedAffinity -4.01996326
REMARK minimizedRMSD -1
REMARK  0 active torsions:
REMARK  status: ('A' for Active; 'I' for Inactive)
ROOT
ATOM      1  C1  DEN d   1      -2.173  -1.700   0.652  0.00  0.00     0.130 A 
ATOM      2  C2  DEN d   1      -1.663  -2.980   1.135  0.00  0.00    -0.031 A 
ATOM      3  C3  DEN d   1      -0.188  -2.917   1.123  0.00  0.00     0.027 A 
ATOM      4  C4  DEN d   1       1.348  -0.970   0.413  0.00  0.00     0.027 A 
ATOM      5  C5  DEN d   1       1.375   0.316  -0.078  0.00  0.00    -0.003 A 
ATOM      6  C6  DEN d   1       0.232   1.003  -0.391  0.00  0.00     0.001 A 
ATOM      7  C7  DEN d   1      -0.989   0.423  -0.172  0.00  0.00     0.017 A 
ATOM      8  C8  DEN d   1      -1.025  -0.877   0.317  0.00  0.00    -0.094 A 
ATOM      9  C9  DEN d   1       0.142  -1.550   0.638  0.00  0.00    -0.072 A 
ENDROOT
TORSDOF 0
ENDMDL
