MODEL 1
REMARK minimizedAffinity -2.57397604
REMARK minimizedRMSD -1
REMARK  0 active torsions:
REMARK  status: ('A' for Active; 'I' for Inactive)
ROOT
ATOM      1  C1  DEN d   1       1.382  -0.189  -0.001  0.00  0.00     0.130 A 
ATOM      2  C2  DEN d   1       0.717   0.902  -0.708  0.00  0.00    -0.031 A 
ATOM      3  C3  DEN d   1      -0.737   0.643  -0.682  0.00  0.00     0.027 A 
ATOM      4  C4  DEN d   1      -2.015  -1.327   0.385  0.00  0.00     0.027 A 
ATOM      5  C5  DEN d   1      -1.880  -2.505   1.086  0.00  0.00    -0.003 A 
ATOM      6  C6  DEN d   1      -0.656  -3.007   1.441  0.00  0.00     0.001 A 
ATOM      7  C7  DEN d   1       0.480  -2.305   1.136  0.00  0.00     0.017 A 
ATOM      8  C8  DEN d   1       0.352  -1.120   0.423  0.00  0.00    -0.094 A 
ATOM      9  C9  DEN d   1      -0.895  -0.623   0.083  0.00  0.00    -0.072 A 
ENDROOT
TORSDOF 0
ENDMDL
