MODEL 1
REMARK minimizedAffinity -2.09804296
REMARK minimizedRMSD -1
REMARK  0 active torsions:
REMARK  status: ('A' for Active; 'I' for Inactive)
ROOT
ATOM      1  C1  DEN d   1       0.782  -2.808   1.553  0.00  0.00     0.130 A 
ATOM      2  C2  DEN d   1      -0.648  -3.099   1.516  0.00  0.00    -0.031 A 
ATOM      3  C3  DEN d   1      -1.356  -1.860   1.137  0.00  0.00     0.027 A 
ATOM      4  C4  DEN d   1      -0.381   0.467   0.601  0.00  0.00     0.027 A 
ATOM      5  C5  DEN d   1       0.778   1.204   0.511  0.00  0.00    -0.003 A 
ATOM      6  C6  DEN d   1       2.007   0.670   0.793  0.00  0.00     0.001 A 
ATOM      7  C7  DEN d   1       2.110  -0.653   1.135  0.00  0.00     0.017 A 
ATOM      8  C8  DEN d   1       0.944  -1.401   1.234  0.00  0.00    -0.094 A 
ATOM      9  C9  DEN d   1      -0.288  -0.845   0.934  0.00  0.00    -0.072 A 
ENDROOT
TORSDOF 0
ENDMDL
