MODEL 1
REMARK minimizedAffinity -5.90667725
REMARK minimizedRMSD -1
REMARK  0 active torsions:
REMARK  status: ('A' for Active; 'I' for Inactive)
ROOT
ATOM      1  C1  DEN d   1       1.484  -1.059   0.193  0.00  0.00     0.130 A 
ATOM      2  C2  DEN d   1       1.277   0.096  -0.677  0.00  0.00    -0.031 A 
ATOM      3  C3  DEN d   1      -0.151   0.467  -0.610  0.00  0.00     0.027 A 
ATOM      4  C4  DEN d   1      -2.050  -0.625   0.752  0.00  0.00     0.027 A 
ATOM      5  C5  DEN d   1      -2.362  -1.641   1.628  0.00  0.00    -0.003 A 
ATOM      6  C6  DEN d   1      -1.429  -2.547   2.058  0.00  0.00     0.001 A 
ATOM      7  C7  DEN d   1      -0.127  -2.428   1.647  0.00  0.00     0.017 A 
ATOM      8  C8  DEN d   1       0.193  -1.411   0.757  0.00  0.00    -0.094 A 
ATOM      9  C9  DEN d   1      -0.762  -0.497   0.344  0.00  0.00    -0.072 A 
ENDROOT
TORSDOF 0
ENDMDL
