MODEL 1
REMARK minimizedAffinity -4.41201019
REMARK minimizedRMSD -1
REMARK  0 active torsions:
REMARK  status: ('A' for Active; 'I' for Inactive)
ROOT
ATOM      1  C1  DEN d   1       1.246  -0.209   0.883  0.00  0.00     0.130 A 
ATOM      2  C2  DEN d   1       0.932   1.215   0.804  0.00  0.00    -0.031 A 
ATOM      3  C3  DEN d   1      -0.532   1.353   0.668  0.00  0.00     0.027 A 
ATOM      4  C4  DEN d   1      -2.334  -0.490   0.578  0.00  0.00     0.027 A 
ATOM      5  C5  DEN d   1      -2.550  -1.850   0.597  0.00  0.00    -0.003 A 
ATOM      6  C6  DEN d   1      -1.522  -2.752   0.678  0.00  0.00     0.001 A 
ATOM      7  C7  DEN d   1      -0.233  -2.303   0.788  0.00  0.00     0.017 A 
ATOM      8  C8  DEN d   1      -0.006  -0.933   0.762  0.00  0.00    -0.094 A 
ATOM      9  C9  DEN d   1      -1.059  -0.038   0.693  0.00  0.00    -0.072 A 
ENDROOT
TORSDOF 0
ENDMDL
