MODEL 1
REMARK minimizedAffinity -6.55960464
REMARK minimizedRMSD -1
REMARK  0 active torsions:
REMARK  status: ('A' for Active; 'I' for Inactive)
ROOT
ATOM      1  C1  DEN d   1      -0.022   1.199   0.479  0.00  0.00     0.130 A 
ATOM      2  C2  DEN d   1       1.149   0.473  -0.004  0.00  0.00    -0.031 A 
ATOM      3  C3  DEN d   1       0.905  -0.970   0.194  0.00  0.00     0.027 A 
ATOM      4  C4  DEN d   1      -1.163  -2.144   1.192  0.00  0.00     0.027 A 
ATOM      5  C5  DEN d   1      -2.406  -1.945   1.752  0.00  0.00    -0.003 A 
ATOM      6  C6  DEN d   1      -2.923  -0.693   1.956  0.00  0.00     0.001 A 
ATOM      7  C7  DEN d   1      -2.212   0.408   1.556  0.00  0.00     0.017 A 
ATOM      8  C8  DEN d   1      -0.956   0.216   0.998  0.00  0.00    -0.094 A 
ATOM      9  C9  DEN d   1      -0.456  -1.058   0.789  0.00  0.00    -0.072 A 
ENDROOT
TORSDOF 0
ENDMDL
