MODEL 1
REMARK minimizedAffinity 0.076441139
REMARK minimizedRMSD -1
REMARK  0 active torsions:
REMARK  status: ('A' for Active; 'I' for Inactive)
ROOT
ATOM      1  C4' PXY d   1       1.276   1.879   0.873  0.00  0.00     0.077 C 
ATOM      2  C1' PXY d   1       1.741  -3.478  -1.247  0.00  0.00     0.077 C 
ATOM      3  C1  PXY d   1       1.627  -2.077  -0.681  0.00  0.00    -0.082 A 
ATOM      4  C2  PXY d   1       0.590  -1.322  -1.008  0.00  0.00     0.003 A 
ATOM      5  C3  PXY d   1       0.487  -0.041  -0.530  0.00  0.00     0.003 A 
ATOM      6  C4  PXY d   1       1.428   0.455   0.333  0.00  0.00    -0.082 A 
ATOM      7  C5  PXY d   1       2.483  -0.313   0.679  0.00  0.00     0.003 A 
ATOM      8  C6  PXY d   1       2.590  -1.596   0.151  0.00  0.00     0.003 A 
ENDROOT
TORSDOF 0
ENDMDL
