MODEL 1
REMARK minimizedAffinity 1.7218014
REMARK minimizedRMSD -1
REMARK  0 active torsions:
REMARK  status: ('A' for Active; 'I' for Inactive)
ROOT
ATOM      1  C4' PXY d   1       0.937  -2.416   3.721  0.00  0.00     0.077 C 
ATOM      2  C1' PXY d   1       3.272  -1.747  -1.525  0.00  0.00     0.077 C 
ATOM      3  C1  PXY d   1       2.671  -1.921  -0.144  0.00  0.00    -0.082 A 
ATOM      4  C2  PXY d   1       1.547  -2.604  -0.000  0.00  0.00     0.003 A 
ATOM      5  C3  PXY d   1       0.974  -2.744   1.237  0.00  0.00     0.003 A 
ATOM      6  C4  PXY d   1       1.585  -2.224   2.347  0.00  0.00    -0.082 A 
ATOM      7  C5  PXY d   1       2.737  -1.534   2.210  0.00  0.00     0.003 A 
ATOM      8  C6  PXY d   1       3.282  -1.369   0.940  0.00  0.00     0.003 A 
ENDROOT
TORSDOF 0
ENDMDL
