MODEL 1
REMARK minimizedAffinity 3.26534653
REMARK minimizedRMSD -1
REMARK  0 active torsions:
REMARK  status: ('A' for Active; 'I' for Inactive)
ROOT
ATOM      1  C4' PXY d   1       0.717   3.165   0.454  0.00  0.00     0.077 C 
ATOM      2  C1' PXY d   1       2.776  -2.237   0.435  0.00  0.00     0.077 C 
ATOM      3  C1  PXY d   1       2.239  -0.819   0.453  0.00  0.00    -0.082 A 
ATOM      4  C2  PXY d   1       1.324  -0.455  -0.431  0.00  0.00     0.003 A 
ATOM      5  C3  PXY d   1       0.851   0.832  -0.450  0.00  0.00     0.003 A 
ATOM      6  C4  PXY d   1       1.280   1.741   0.480  0.00  0.00    -0.082 A 
ATOM      7  C5  PXY d   1       2.206   1.375   1.391  0.00  0.00     0.003 A 
ATOM      8  C6  PXY d   1       2.704   0.075   1.367  0.00  0.00     0.003 A 
ENDROOT
TORSDOF 0
ENDMDL
