MODEL 1
REMARK minimizedAffinity 8.89676762
REMARK minimizedRMSD -1
REMARK  0 active torsions:
REMARK  status: ('A' for Active; 'I' for Inactive)
ROOT
ATOM      1  C4' PXY d   1      -1.414  -4.692  -1.401  0.00  0.00     0.077 C 
ATOM      2  C1' PXY d   1       2.973  -1.181  -0.043  0.00  0.00     0.077 C 
ATOM      3  C1  PXY d   1       1.829  -2.112  -0.394  0.00  0.00    -0.082 A 
ATOM      4  C2  PXY d   1       0.975  -1.769  -1.345  0.00  0.00     0.003 A 
ATOM      5  C3  PXY d   1      -0.083  -2.585  -1.653  0.00  0.00     0.003 A 
ATOM      6  C4  PXY d   1      -0.239  -3.788  -1.019  0.00  0.00    -0.082 A 
ATOM      7  C5  PXY d   1       0.635  -4.150  -0.056  0.00  0.00     0.003 A 
ATOM      8  C6  PXY d   1       1.679  -3.289   0.271  0.00  0.00     0.003 A 
ENDROOT
TORSDOF 0
ENDMDL
