MODEL 1
REMARK minimizedAffinity 9.33216667
REMARK minimizedRMSD -1
REMARK  0 active torsions:
REMARK  status: ('A' for Active; 'I' for Inactive)
ROOT
ATOM      1  C4' PXY d   1       0.377  -3.755  -1.250  0.00  0.00     0.077 C 
ATOM      2  C1' PXY d   1       4.799  -1.222   1.479  0.00  0.00     0.077 C 
ATOM      3  C1  PXY d   1       3.642  -1.879   0.752  0.00  0.00    -0.082 A 
ATOM      4  C2  PXY d   1       2.625  -2.363   1.446  0.00  0.00     0.003 A 
ATOM      5  C3  PXY d   1       1.586  -2.989   0.807  0.00  0.00     0.003 A 
ATOM      6  C4  PXY d   1       1.562  -3.074  -0.559  0.00  0.00    -0.082 A 
ATOM      7  C5  PXY d   1       2.592  -2.574  -1.275  0.00  0.00     0.003 A 
ATOM      8  C6  PXY d   1       3.657  -1.978  -0.605  0.00  0.00     0.003 A 
ENDROOT
TORSDOF 0
ENDMDL
