MODEL 1
REMARK minimizedAffinity 1.85614491
REMARK minimizedRMSD -1
REMARK  0 active torsions:
REMARK  status: ('A' for Active; 'I' for Inactive)
ROOT
ATOM      1  C4' PXY d   1      -3.525   1.814   1.859  0.00  0.00     0.077 C 
ATOM      2  C1' PXY d   1       2.151   1.914   0.766  0.00  0.00     0.077 C 
ATOM      3  C1  PXY d   1       0.665   1.881   1.063  0.00  0.00    -0.082 A 
ATOM      4  C2  PXY d   1      -0.203   2.049   0.079  0.00  0.00     0.003 A 
ATOM      5  C3  PXY d   1      -1.550   2.054   0.335  0.00  0.00     0.003 A 
ATOM      6  C4  PXY d   1      -2.015   1.831   1.603  0.00  0.00    -0.082 A 
ATOM      7  C5  PXY d   1      -1.136   1.648   2.611  0.00  0.00     0.003 A 
ATOM      8  C6  PXY d   1       0.228   1.688   2.337  0.00  0.00     0.003 A 
ENDROOT
TORSDOF 0
ENDMDL
