MODEL 1
REMARK minimizedAffinity 1.98368216
REMARK minimizedRMSD -1
REMARK  0 active torsions:
REMARK  status: ('A' for Active; 'I' for Inactive)
ROOT
ATOM      1  C4' PXY d   1      -1.345  -3.554  -1.537  0.00  0.00     0.077 C 
ATOM      2  C1' PXY d   1       3.409  -0.872   0.366  0.00  0.00     0.077 C 
ATOM      3  C1  PXY d   1       2.157  -1.564  -0.136  0.00  0.00    -0.082 A 
ATOM      4  C2  PXY d   1       1.829  -2.753   0.343  0.00  0.00     0.003 A 
ATOM      5  C3  PXY d   1       0.718  -3.406  -0.123  0.00  0.00     0.003 A 
ATOM      6  C4  PXY d   1      -0.095  -2.814  -1.052  0.00  0.00    -0.082 A 
ATOM      7  C5  PXY d   1       0.226  -1.596  -1.538  0.00  0.00     0.003 A 
ATOM      8  C6  PXY d   1       1.381  -0.967  -1.082  0.00  0.00     0.003 A 
ENDROOT
TORSDOF 0
ENDMDL
