MODEL 1
REMARK minimizedAffinity -1.86480319
REMARK minimizedRMSD -1
REMARK  0 active torsions:
REMARK  status: ('A' for Active; 'I' for Inactive)
ROOT
ATOM      1  C4' PXY d   1       2.615   0.106   0.122  0.00  0.00     0.077 C 
ATOM      2  C1' PXY d   1      -0.858  -4.457  -0.602  0.00  0.00     0.077 C 
ATOM      3  C1  PXY d   1       0.056  -3.264  -0.401  0.00  0.00    -0.082 A 
ATOM      4  C2  PXY d   1      -0.159  -2.152  -1.084  0.00  0.00     0.003 A 
ATOM      5  C3  PXY d   1       0.677  -1.075  -0.937  0.00  0.00     0.003 A 
ATOM      6  C4  PXY d   1       1.712  -1.119  -0.043  0.00  0.00    -0.082 A 
ATOM      7  C5  PXY d   1       1.932  -2.247   0.666  0.00  0.00     0.003 A 
ATOM      8  C6  PXY d   1       1.096  -3.343   0.473  0.00  0.00     0.003 A 
ENDROOT
TORSDOF 0
ENDMDL
