MODEL 1
REMARK minimizedAffinity 2.88794851
REMARK minimizedRMSD -1
REMARK  0 active torsions:
REMARK  status: ('A' for Active; 'I' for Inactive)
ROOT
ATOM      1  C4' PXY d   1       3.624  -3.274  -3.071  0.00  0.00     0.077 C 
ATOM      2  C1' PXY d   1      -0.499  -0.808   0.144  0.00  0.00     0.077 C 
ATOM      3  C1  PXY d   1       0.591  -1.445  -0.696  0.00  0.00    -0.082 A 
ATOM      4  C2  PXY d   1       0.261  -2.239  -1.702  0.00  0.00     0.003 A 
ATOM      5  C3  PXY d   1       1.234  -2.848  -2.452  0.00  0.00     0.003 A 
ATOM      6  C4  PXY d   1       2.557  -2.601  -2.202  0.00  0.00    -0.082 A 
ATOM      7  C5  PXY d   1       2.901  -1.784  -1.184  0.00  0.00     0.003 A 
ATOM      8  C6  PXY d   1       1.899  -1.208  -0.409  0.00  0.00     0.003 A 
ENDROOT
TORSDOF 0
ENDMDL
