MODEL 1
REMARK minimizedAffinity -0.696237206
REMARK minimizedRMSD -1
REMARK  0 active torsions:
REMARK  status: ('A' for Active; 'I' for Inactive)
ROOT
ATOM      1  C4' PXY d   1       3.992   1.154  -1.236  0.00  0.00     0.077 C 
ATOM      2  C1' PXY d   1      -1.062  -1.284   0.155  0.00  0.00     0.077 C 
ATOM      3  C1  PXY d   1       0.270  -0.656  -0.208  0.00  0.00    -0.082 A 
ATOM      4  C2  PXY d   1       0.436   0.650  -0.072  0.00  0.00     0.003 A 
ATOM      5  C3  PXY d   1       1.622   1.238  -0.426  0.00  0.00     0.003 A 
ATOM      6  C4  PXY d   1       2.668   0.475  -0.873  0.00  0.00    -0.082 A 
ATOM      7  C5  PXY d   1       2.510  -0.859  -1.004  0.00  0.00     0.003 A 
ATOM      8  C6  PXY d   1       1.284  -1.431  -0.678  0.00  0.00     0.003 A 
ENDROOT
TORSDOF 0
ENDMDL
