MODEL 1
REMARK minimizedAffinity -1.05674064
REMARK minimizedRMSD -1
REMARK  0 active torsions:
REMARK  status: ('A' for Active; 'I' for Inactive)
ROOT
ATOM      1  C4' PXY d   1       4.414   0.362  -0.745  0.00  0.00     0.077 C 
ATOM      2  C1' PXY d   1      -0.906  -1.895  -0.579  0.00  0.00     0.077 C 
ATOM      3  C1  PXY d   1       0.494  -1.314  -0.618  0.00  0.00    -0.082 A 
ATOM      4  C2  PXY d   1       0.659  -0.002  -0.583  0.00  0.00     0.003 A 
ATOM      5  C3  PXY d   1       1.916   0.542  -0.650  0.00  0.00     0.003 A 
ATOM      6  C4  PXY d   1       3.019  -0.268  -0.699  0.00  0.00    -0.082 A 
ATOM      7  C5  PXY d   1       2.860  -1.609  -0.723  0.00  0.00     0.003 A 
ATOM      8  C6  PXY d   1       1.573  -2.139  -0.696  0.00  0.00     0.003 A 
ENDROOT
TORSDOF 0
ENDMDL
