MODEL 1
REMARK minimizedAffinity 4.736866
REMARK minimizedRMSD -1
REMARK  0 active torsions:
REMARK  status: ('A' for Active; 'I' for Inactive)
ROOT
ATOM      1  C4' PXY d   1       1.066   0.479   5.048  0.00  0.00     0.077 C 
ATOM      2  C1' PXY d   1       4.288   0.661   0.253  0.00  0.00     0.077 C 
ATOM      3  C1  PXY d   1       3.452   0.606   1.516  0.00  0.00    -0.082 A 
ATOM      4  C2  PXY d   1       2.144   0.787   1.443  0.00  0.00     0.003 A 
ATOM      5  C3  PXY d   1       1.377   0.772   2.580  0.00  0.00     0.003 A 
ATOM      6  C4  PXY d   1       1.948   0.516   3.798  0.00  0.00    -0.082 A 
ATOM      7  C5  PXY d   1       3.281   0.320   3.879  0.00  0.00     0.003 A 
ATOM      8  C6  PXY d   1       4.048   0.380   2.719  0.00  0.00     0.003 A 
ENDROOT
TORSDOF 0
ENDMDL
