MODEL 1
REMARK minimizedAffinity 2.52776217
REMARK minimizedRMSD -1
REMARK  0 active torsions:
REMARK  status: ('A' for Active; 'I' for Inactive)
ROOT
ATOM      1  C4' PXY d   1       4.890   0.269   5.690  0.00  0.00     0.077 C 
ATOM      2  C1' PXY d   1       2.284   0.349   0.530  0.00  0.00     0.077 C 
ATOM      3  C1  PXY d   1       2.960   0.338   1.887  0.00  0.00    -0.082 A 
ATOM      4  C2  PXY d   1       4.189  -0.136   2.002  0.00  0.00     0.003 A 
ATOM      5  C3  PXY d   1       4.803  -0.184   3.227  0.00  0.00     0.003 A 
ATOM      6  C4  PXY d   1       4.172   0.309   4.338  0.00  0.00    -0.082 A 
ATOM      7  C5  PXY d   1       2.921   0.804   4.227  0.00  0.00     0.003 A 
ATOM      8  C6  PXY d   1       2.300   0.805   2.982  0.00  0.00     0.003 A 
ENDROOT
TORSDOF 0
ENDMDL
