MODEL 1
REMARK minimizedAffinity -0.920322299
REMARK minimizedRMSD -1
REMARK  0 active torsions:
REMARK  status: ('A' for Active; 'I' for Inactive)
ROOT
ATOM      1  C4' PXY d   1      -5.299   5.987  -4.269  0.00  0.00     0.077 C 
ATOM      2  C1' PXY d   1      -0.769   5.980  -0.678  0.00  0.00     0.077 C 
ATOM      3  C1  PXY d   1      -1.964   5.977  -1.610  0.00  0.00    -0.082 A 
ATOM      4  C2  PXY d   1      -1.773   5.960  -2.920  0.00  0.00     0.003 A 
ATOM      5  C3  PXY d   1      -2.842   5.989  -3.777  0.00  0.00     0.003 A 
ATOM      6  C4  PXY d   1      -4.121   5.981  -3.290  0.00  0.00    -0.082 A 
ATOM      7  C5  PXY d   1      -4.325   5.987  -1.956  0.00  0.00     0.003 A 
ATOM      8  C6  PXY d   1      -3.226   5.999  -1.102  0.00  0.00     0.003 A 
ENDROOT
TORSDOF 0
ENDMDL
