MODEL 1
REMARK minimizedAffinity 1.12143493
REMARK minimizedRMSD -1
REMARK  0 active torsions:
REMARK  status: ('A' for Active; 'I' for Inactive)
ROOT
ATOM      1  C4' PXY d   1      -0.970   5.976  -5.167  0.00  0.00     0.077 C 
ATOM      2  C1' PXY d   1      -4.518   5.994  -0.603  0.00  0.00     0.077 C 
ATOM      3  C1  PXY d   1      -3.578   5.995  -1.793  0.00  0.00    -0.082 A 
ATOM      4  C2  PXY d   1      -4.075   5.991  -3.019  0.00  0.00     0.003 A 
ATOM      5  C3  PXY d   1      -3.240   5.959  -4.106  0.00  0.00     0.003 A 
ATOM      6  C4  PXY d   1      -1.882   5.985  -3.937  0.00  0.00    -0.082 A 
ATOM      7  C5  PXY d   1      -1.367   6.000  -2.689  0.00  0.00     0.003 A 
ATOM      8  C6  PXY d   1      -2.232   5.990  -1.599  0.00  0.00     0.003 A 
ENDROOT
TORSDOF 0
ENDMDL
