MODEL 1
REMARK minimizedAffinity -1.23772764
REMARK minimizedRMSD -1
REMARK  0 active torsions:
REMARK  status: ('A' for Active; 'I' for Inactive)
ROOT
ATOM      1  C4' PXY d   1       0.460   5.969  -5.209  0.00  0.00     0.077 C 
ATOM      2  C1' PXY d   1      -4.233   5.997  -1.834  0.00  0.00     0.077 C 
ATOM      3  C1  PXY d   1      -3.009   5.984  -2.729  0.00  0.00    -0.082 A 
ATOM      4  C2  PXY d   1      -1.803   5.979  -2.186  0.00  0.00     0.003 A 
ATOM      5  C3  PXY d   1      -0.685   6.000  -2.981  0.00  0.00     0.003 A 
ATOM      6  C4  PXY d   1      -0.804   5.972  -4.344  0.00  0.00    -0.082 A 
ATOM      7  C5  PXY d   1      -2.031   5.967  -4.905  0.00  0.00     0.003 A 
ATOM      8  C6  PXY d   1      -3.153   5.988  -4.082  0.00  0.00     0.003 A 
ENDROOT
TORSDOF 0
ENDMDL
