MODEL 1
REMARK minimizedAffinity 0.55504173
REMARK minimizedRMSD -1
REMARK  0 active torsions:
REMARK  status: ('A' for Active; 'I' for Inactive)
ROOT
ATOM      1  C4' PXY d   1      -0.523  -1.706   0.750  0.00  0.00     0.077 C 
ATOM      2  C1' PXY d   1       1.228   3.731   1.637  0.00  0.00     0.077 C 
ATOM      3  C1  PXY d   1       0.766   2.304   1.417  0.00  0.00    -0.082 A 
ATOM      4  C2  PXY d   1       1.266   1.601   0.414  0.00  0.00     0.003 A 
ATOM      5  C3  PXY d   1       0.836   0.321   0.181  0.00  0.00     0.003 A 
ATOM      6  C4  PXY d   1      -0.078  -0.265   1.016  0.00  0.00    -0.082 A 
ATOM      7  C5  PXY d   1      -0.586   0.441   2.048  0.00  0.00     0.003 A 
ATOM      8  C6  PXY d   1      -0.166   1.754   2.242  0.00  0.00     0.003 A 
ENDROOT
TORSDOF 0
ENDMDL
