MODEL 1
REMARK minimizedAffinity -1.1855557
REMARK minimizedRMSD -1
REMARK  0 active torsions:
REMARK  status: ('A' for Active; 'I' for Inactive)
ROOT
ATOM      1  C4' PXY d   1      -5.986   5.972  -5.248  0.00  0.00     0.077 C 
ATOM      2  C1' PXY d   1      -1.741   5.998  -1.325  0.00  0.00     0.077 C 
ATOM      3  C1  PXY d   1      -2.862   5.986  -2.345  0.00  0.00    -0.082 A 
ATOM      4  C2  PXY d   1      -2.572   5.978  -3.636  0.00  0.00     0.003 A 
ATOM      5  C3  PXY d   1      -3.574   6.000  -4.572  0.00  0.00     0.003 A 
ATOM      6  C4  PXY d   1      -4.886   5.975  -4.183  0.00  0.00    -0.082 A 
ATOM      7  C5  PXY d   1      -5.190   5.971  -2.868  0.00  0.00     0.003 A 
ATOM      8  C6  PXY d   1      -4.159   5.992  -1.933  0.00  0.00     0.003 A 
ENDROOT
TORSDOF 0
ENDMDL
