MODEL 1
REMARK minimizedAffinity 3.87807322
REMARK minimizedRMSD -1
REMARK  0 active torsions:
REMARK  status: ('A' for Active; 'I' for Inactive)
ROOT
ATOM      1  C4' PXY d   1       0.089   1.376   3.799  0.00  0.00     0.077 C 
ATOM      2  C1' PXY d   1       1.351   1.732  -1.831  0.00  0.00     0.077 C 
ATOM      3  C1  PXY d   1       1.028   1.649  -0.352  0.00  0.00    -0.082 A 
ATOM      4  C2  PXY d   1       0.587   0.510   0.158  0.00  0.00     0.003 A 
ATOM      5  C3  PXY d   1       0.260   0.426   1.487  0.00  0.00     0.003 A 
ATOM      6  C4  PXY d   1       0.436   1.504   2.313  0.00  0.00    -0.082 A 
ATOM      7  C5  PXY d   1       0.896   2.666   1.803  0.00  0.00     0.003 A 
ATOM      8  C6  PXY d   1       1.184   2.742   0.443  0.00  0.00     0.003 A 
ENDROOT
TORSDOF 0
ENDMDL
