MODEL 1
REMARK minimizedAffinity -2.17140269
REMARK minimizedRMSD -1
REMARK  0 active torsions:
REMARK  status: ('A' for Active; 'I' for Inactive)
ROOT
ATOM      1  C4' PXY d   1       3.973   1.897  -0.036  0.00  0.00     0.077 C 
ATOM      2  C1' PXY d   1      -1.377  -0.279   0.200  0.00  0.00     0.077 C 
ATOM      3  C1  PXY d   1       0.021   0.303   0.134  0.00  0.00    -0.082 A 
ATOM      4  C2  PXY d   1       1.059  -0.503  -0.021  0.00  0.00     0.003 A 
ATOM      5  C3  PXY d   1       2.333   0.003  -0.050  0.00  0.00     0.003 A 
ATOM      6  C4  PXY d   1       2.543   1.354   0.027  0.00  0.00    -0.082 A 
ATOM      7  C5  PXY d   1       1.489   2.184   0.174  0.00  0.00     0.003 A 
ATOM      8  C6  PXY d   1       0.207   1.646   0.243  0.00  0.00     0.003 A 
ENDROOT
TORSDOF 0
ENDMDL
