MODEL 1
REMARK minimizedAffinity 6.17993641
REMARK minimizedRMSD -1
REMARK  0 active torsions:
REMARK  status: ('A' for Active; 'I' for Inactive)
ROOT
ATOM      1  C4' PXY d   1      -0.502  -1.817   0.720  0.00  0.00     0.077 C 
ATOM      2  C1' PXY d   1       1.999   3.285  -0.344  0.00  0.00     0.077 C 
ATOM      3  C1  PXY d   1       1.339   1.946  -0.077  0.00  0.00    -0.082 A 
ATOM      4  C2  PXY d   1       0.991   1.623   1.158  0.00  0.00     0.003 A 
ATOM      5  C3  PXY d   1       0.422   0.404   1.422  0.00  0.00     0.003 A 
ATOM      6  C4  PXY d   1       0.159  -0.472   0.403  0.00  0.00    -0.082 A 
ATOM      7  C5  PXY d   1       0.501  -0.146  -0.861  0.00  0.00     0.003 A 
ATOM      8  C6  PXY d   1       1.115   1.080  -1.102  0.00  0.00     0.003 A 
ENDROOT
TORSDOF 0
ENDMDL
