MODEL 1
REMARK minimizedAffinity -0.536583304
REMARK minimizedRMSD -1
REMARK  0 active torsions:
REMARK  status: ('A' for Active; 'I' for Inactive)
ROOT
ATOM      1  C4' PXY d   1      -2.051   5.941  -4.827  0.00  0.00     0.077 C 
ATOM      2  C1' PXY d   1       3.622   4.832  -4.901  0.00  0.00     0.077 C 
ATOM      3  C1  PXY d   1       2.134   5.124  -4.895  0.00  0.00    -0.082 A 
ATOM      4  C2  PXY d   1       1.570   5.622  -3.806  0.00  0.00     0.003 A 
ATOM      5  C3  PXY d   1       0.221   5.862  -3.773  0.00  0.00     0.003 A 
ATOM      6  C4  PXY d   1      -0.551   5.639  -4.882  0.00  0.00    -0.082 A 
ATOM      7  C5  PXY d   1       0.019   5.141  -5.999  0.00  0.00     0.003 A 
ATOM      8  C6  PXY d   1       1.384   4.866  -6.000  0.00  0.00     0.003 A 
ENDROOT
TORSDOF 0
ENDMDL
