MODEL 1
REMARK minimizedAffinity -1.60486174
REMARK minimizedRMSD -1
REMARK  0 active torsions:
REMARK  status: ('A' for Active; 'I' for Inactive)
ROOT
ATOM      1  C4' PXY d   1       1.357   5.931  -5.973  0.00  0.00     0.077 C 
ATOM      2  C1' PXY d   1      -3.686   6.000  -3.149  0.00  0.00     0.077 C 
ATOM      3  C1  PXY d   1      -2.369   5.976  -3.900  0.00  0.00    -0.082 A 
ATOM      4  C2  PXY d   1      -1.232   5.983  -3.225  0.00  0.00     0.003 A 
ATOM      5  C3  PXY d   1      -0.032   5.994  -3.889  0.00  0.00     0.003 A 
ATOM      6  C4  PXY d   1       0.004   5.944  -5.256  0.00  0.00    -0.082 A 
ATOM      7  C5  PXY d   1      -1.152   5.927  -5.952  0.00  0.00     0.003 A 
ATOM      8  C6  PXY d   1      -2.360   5.958  -5.261  0.00  0.00     0.003 A 
ENDROOT
TORSDOF 0
ENDMDL
