MODEL 1
REMARK minimizedAffinity 6.92847538
REMARK minimizedRMSD -1
REMARK  0 active torsions:
REMARK  status: ('A' for Active; 'I' for Inactive)
ROOT
ATOM      1  C4' PXY d   1      -0.686  -2.942   0.937  0.00  0.00     0.077 C 
ATOM      2  C1' PXY d   1       1.198   2.523   0.977  0.00  0.00     0.077 C 
ATOM      3  C1  PXY d   1       0.700   1.091   0.979  0.00  0.00    -0.082 A 
ATOM      4  C2  PXY d   1       1.273   0.198   0.189  0.00  0.00     0.003 A 
ATOM      5  C3  PXY d   1       0.814  -1.094   0.154  0.00  0.00     0.003 A 
ATOM      6  C4  PXY d   1      -0.209  -1.488   0.975  0.00  0.00    -0.082 A 
ATOM      7  C5  PXY d   1      -0.792  -0.585   1.792  0.00  0.00     0.003 A 
ATOM      8  C6  PXY d   1      -0.338   0.731   1.782  0.00  0.00     0.003 A 
ENDROOT
TORSDOF 0
ENDMDL
