MODEL 1
REMARK minimizedAffinity 3.15197253
REMARK minimizedRMSD -1
REMARK  0 active torsions:
REMARK  status: ('A' for Active; 'I' for Inactive)
ROOT
ATOM      1  C4' PXY d   1      -1.869   6.000  -4.012  0.00  0.00     0.077 C 
ATOM      2  C1' PXY d   1      -3.726   5.974   1.462  0.00  0.00     0.077 C 
ATOM      3  C1  PXY d   1      -3.250   5.976   0.022  0.00  0.00    -0.082 A 
ATOM      4  C2  PXY d   1      -1.953   5.963  -0.238  0.00  0.00     0.003 A 
ATOM      5  C3  PXY d   1      -1.505   5.996  -1.533  0.00  0.00     0.003 A 
ATOM      6  C4  PXY d   1      -2.395   5.989  -2.574  0.00  0.00    -0.082 A 
ATOM      7  C5  PXY d   1      -3.720   5.992  -2.317  0.00  0.00     0.003 A 
ATOM      8  C6  PXY d   1      -4.154   5.999  -0.994  0.00  0.00     0.003 A 
ENDROOT
TORSDOF 0
ENDMDL
