MODEL 1
REMARK minimizedAffinity 3.57181525
REMARK minimizedRMSD -1
REMARK  0 active torsions:
REMARK  status: ('A' for Active; 'I' for Inactive)
ROOT
ATOM      1  C4' PXY d   1      -4.353   5.979   0.365  0.00  0.00     0.077 C 
ATOM      2  C1' PXY d   1      -1.221   5.998  -4.494  0.00  0.00     0.077 C 
ATOM      3  C1  PXY d   1      -2.052   5.999  -3.226  0.00  0.00    -0.082 A 
ATOM      4  C2  PXY d   1      -1.449   5.998  -2.048  0.00  0.00     0.003 A 
ATOM      5  C3  PXY d   1      -2.186   5.966  -0.892  0.00  0.00     0.003 A 
ATOM      6  C4  PXY d   1      -3.554   5.988  -0.941  0.00  0.00    -0.082 A 
ATOM      7  C5  PXY d   1      -4.176   6.000  -2.139  0.00  0.00     0.003 A 
ATOM      8  C6  PXY d   1      -3.411   5.991  -3.301  0.00  0.00     0.003 A 
ENDROOT
TORSDOF 0
ENDMDL
