MODEL 1
REMARK minimizedAffinity -0.248977154
REMARK minimizedRMSD -1
REMARK  0 active torsions:
REMARK  status: ('A' for Active; 'I' for Inactive)
ROOT
ATOM      1  C4' PXY d   1      -2.518   0.038   3.068  0.00  0.00     0.077 C 
ATOM      2  C1' PXY d   1       2.002   2.176   0.168  0.00  0.00     0.077 C 
ATOM      3  C1  PXY d   1       0.810   1.613   0.917  0.00  0.00    -0.082 A 
ATOM      4  C2  PXY d   1       0.582   1.994   2.163  0.00  0.00     0.003 A 
ATOM      5  C3  PXY d   1      -0.473   1.470   2.866  0.00  0.00     0.003 A 
ATOM      6  C4  PXY d   1      -1.333   0.587   2.270  0.00  0.00    -0.082 A 
ATOM      7  C5  PXY d   1      -1.112   0.202   0.995  0.00  0.00     0.003 A 
ATOM      8  C6  PXY d   1      -0.013   0.714   0.312  0.00  0.00     0.003 A 
ENDROOT
TORSDOF 0
ENDMDL
