MODEL 1
REMARK minimizedAffinity 0.641649783
REMARK minimizedRMSD -1
REMARK  0 active torsions:
REMARK  status: ('A' for Active; 'I' for Inactive)
ROOT
ATOM      1  C4' PXY d   1      -2.862   0.677   2.980  0.00  0.00     0.077 C 
ATOM      2  C1' PXY d   1       2.259   1.410   0.399  0.00  0.00     0.077 C 
ATOM      3  C1  PXY d   1       0.911   1.213   1.065  0.00  0.00    -0.082 A 
ATOM      4  C2  PXY d   1       0.571   1.975   2.091  0.00  0.00     0.003 A 
ATOM      5  C3  PXY d   1      -0.631   1.789   2.725  0.00  0.00     0.003 A 
ATOM      6  C4  PXY d   1      -1.515   0.848   2.271  0.00  0.00    -0.082 A 
ATOM      7  C5  PXY d   1      -1.180   0.073   1.217  0.00  0.00     0.003 A 
ATOM      8  C6  PXY d   1       0.062   0.250   0.613  0.00  0.00     0.003 A 
ENDROOT
TORSDOF 0
ENDMDL
