MODEL 1
REMARK minimizedAffinity 4.66356611
REMARK minimizedRMSD -1
REMARK  0 active torsions:
REMARK  status: ('A' for Active; 'I' for Inactive)
ROOT
ATOM      1  C4' PXY d   1      -1.221  -1.379   1.130  0.00  0.00     0.077 C 
ATOM      2  C1' PXY d   1       1.738   3.476   0.083  0.00  0.00     0.077 C 
ATOM      3  C1  PXY d   1       0.951   2.209   0.356  0.00  0.00    -0.082 A 
ATOM      4  C2  PXY d   1       1.519   1.217   1.021  0.00  0.00     0.003 A 
ATOM      5  C3  PXY d   1       0.833   0.052   1.250  0.00  0.00     0.003 A 
ATOM      6  C4  PXY d   1      -0.467  -0.078   0.840  0.00  0.00    -0.082 A 
ATOM      7  C5  PXY d   1      -1.058   0.935   0.170  0.00  0.00     0.003 A 
ATOM      8  C6  PXY d   1      -0.330   2.093  -0.088  0.00  0.00     0.003 A 
ENDROOT
TORSDOF 0
ENDMDL
