MODEL 1
REMARK minimizedAffinity 7.44475365
REMARK minimizedRMSD -1
REMARK  0 active torsions:
REMARK  status: ('A' for Active; 'I' for Inactive)
ROOT
ATOM      1  C4' PXY d   1       0.860   3.835   0.296  0.00  0.00     0.077 C 
ATOM      2  C1' PXY d   1      -0.828  -1.635   1.101  0.00  0.00     0.077 C 
ATOM      3  C1  PXY d   1      -0.374  -0.204   0.885  0.00  0.00    -0.082 A 
ATOM      4  C2  PXY d   1      -0.911   0.768   1.604  0.00  0.00     0.003 A 
ATOM      5  C3  PXY d   1      -0.535   2.071   1.399  0.00  0.00     0.003 A 
ATOM      6  C4  PXY d   1       0.439   2.375   0.486  0.00  0.00    -0.082 A 
ATOM      7  C5  PXY d   1       1.000   1.387  -0.243  0.00  0.00     0.003 A 
ATOM      8  C6  PXY d   1       0.575   0.076  -0.049  0.00  0.00     0.003 A 
ENDROOT
TORSDOF 0
ENDMDL
