MODEL 1
REMARK minimizedAffinity 4.01483107
REMARK minimizedRMSD -1
REMARK  0 active torsions:
REMARK  status: ('A' for Active; 'I' for Inactive)
ROOT
ATOM      1  C4' PXY d   1      -4.266   0.890  -1.126  0.00  0.00     0.077 C 
ATOM      2  C1' PXY d   1      -3.739  -4.859  -0.822  0.00  0.00     0.077 C 
ATOM      3  C1  PXY d   1      -3.872  -3.351  -0.914  0.00  0.00    -0.082 A 
ATOM      4  C2  PXY d   1      -3.863  -2.625   0.192  0.00  0.00     0.003 A 
ATOM      5  C3  PXY d   1      -4.015  -1.264   0.129  0.00  0.00     0.003 A 
ATOM      6  C4  PXY d   1      -4.124  -0.634  -1.082  0.00  0.00    -0.082 A 
ATOM      7  C5  PXY d   1      -4.124  -1.367  -2.215  0.00  0.00     0.003 A 
ATOM      8  C6  PXY d   1      -4.010  -2.752  -2.127  0.00  0.00     0.003 A 
ENDROOT
TORSDOF 0
ENDMDL
