MODEL 1
REMARK minimizedAffinity 0.30375737
REMARK minimizedRMSD -1
REMARK  0 active torsions:
REMARK  status: ('A' for Active; 'I' for Inactive)
ROOT
ATOM      1  C4' PXY d   1      -0.374   1.696  -0.644  0.00  0.00     0.077 C 
ATOM      2  C1' PXY d   1       1.251   5.185  -4.957  0.00  0.00     0.077 C 
ATOM      3  C1  PXY d   1       0.822   4.261  -3.835  0.00  0.00    -0.082 A 
ATOM      4  C2  PXY d   1       0.415   4.773  -2.685  0.00  0.00     0.003 A 
ATOM      5  C3  PXY d   1       0.055   3.951  -1.648  0.00  0.00     0.003 A 
ATOM      6  C4  PXY d   1       0.059   2.591  -1.808  0.00  0.00    -0.082 A 
ATOM      7  C5  PXY d   1       0.463   2.061  -2.982  0.00  0.00     0.003 A 
ATOM      8  C6  PXY d   1       0.865   2.912  -4.008  0.00  0.00     0.003 A 
ENDROOT
TORSDOF 0
ENDMDL
