MODEL 1
REMARK minimizedAffinity 3.100806
REMARK minimizedRMSD -1
REMARK  0 active torsions:
REMARK  status: ('A' for Active; 'I' for Inactive)
ROOT
ATOM      1  C4' PXY d   1      -4.871   3.674  -5.102  0.00  0.00     0.077 C 
ATOM      2  C1' PXY d   1      -4.884  -2.096  -4.741  0.00  0.00     0.077 C 
ATOM      3  C1  PXY d   1      -4.867  -0.583  -4.835  0.00  0.00    -0.082 A 
ATOM      4  C2  PXY d   1      -5.939   0.107  -4.478  0.00  0.00     0.003 A 
ATOM      5  C3  PXY d   1      -5.952   1.473  -4.587  0.00  0.00     0.003 A 
ATOM      6  C4  PXY d   1      -4.839   2.145  -5.015  0.00  0.00    -0.082 A 
ATOM      7  C5  PXY d   1      -3.738   1.450  -5.371  0.00  0.00     0.003 A 
ATOM      8  C6  PXY d   1      -3.759   0.060  -5.292  0.00  0.00     0.003 A 
ENDROOT
TORSDOF 0
ENDMDL
