MODEL 1
REMARK minimizedAffinity 1.55762959
REMARK minimizedRMSD -1
REMARK  0 active torsions:
REMARK  status: ('A' for Active; 'I' for Inactive)
ROOT
ATOM      1  C4' PXY d   1       3.353   0.505  -0.355  0.00  0.00     0.077 C 
ATOM      2  C1' PXY d   1       0.482   3.616  -4.292  0.00  0.00     0.077 C 
ATOM      3  C1  PXY d   1       1.240   2.811  -3.254  0.00  0.00    -0.082 A 
ATOM      4  C2  PXY d   1       1.505   1.535  -3.482  0.00  0.00     0.003 A 
ATOM      5  C3  PXY d   1       2.161   0.784  -2.541  0.00  0.00     0.003 A 
ATOM      6  C4  PXY d   1       2.598   1.359  -1.378  0.00  0.00    -0.082 A 
ATOM      7  C5  PXY d   1       2.342   2.663  -1.143  0.00  0.00     0.003 A 
ATOM      8  C6  PXY d   1       1.638   3.398  -2.093  0.00  0.00     0.003 A 
ENDROOT
TORSDOF 0
ENDMDL
