MODEL 1
REMARK minimizedAffinity 7.7317028
REMARK minimizedRMSD -1
REMARK  0 active torsions:
REMARK  status: ('A' for Active; 'I' for Inactive)
ROOT
ATOM      1  C4' PXY d   1       2.853   2.635   1.511  0.00  0.00     0.077 C 
ATOM      2  C1' PXY d   1       1.584   1.234  -3.952  0.00  0.00     0.077 C 
ATOM      3  C1  PXY d   1       1.930   1.603  -2.523  0.00  0.00    -0.082 A 
ATOM      4  C2  PXY d   1       1.139   1.210  -1.537  0.00  0.00     0.003 A 
ATOM      5  C3  PXY d   1       1.419   1.562  -0.242  0.00  0.00     0.003 A 
ATOM      6  C4  PXY d   1       2.549   2.278   0.053  0.00  0.00    -0.082 A 
ATOM      7  C5  PXY d   1       3.366   2.672  -0.946  0.00  0.00     0.003 A 
ATOM      8  C6  PXY d   1       3.042   2.340  -2.258  0.00  0.00     0.003 A 
ENDROOT
TORSDOF 0
ENDMDL
