MODEL 1
REMARK minimizedAffinity 6.27200127
REMARK minimizedRMSD -1
REMARK  0 active torsions:
REMARK  status: ('A' for Active; 'I' for Inactive)
ROOT
ATOM      1  C4' PXY d   1       2.466  -0.684   0.422  0.00  0.00     0.077 C 
ATOM      2  C1' PXY d   1       1.246   3.203  -3.679  0.00  0.00     0.077 C 
ATOM      3  C1  PXY d   1       1.575   2.191  -2.599  0.00  0.00    -0.082 A 
ATOM      4  C2  PXY d   1       1.227   0.925  -2.761  0.00  0.00     0.003 A 
ATOM      5  C3  PXY d   1       1.489   0.003  -1.780  0.00  0.00     0.003 A 
ATOM      6  C4  PXY d   1       2.162   0.370  -0.646  0.00  0.00    -0.082 A 
ATOM      7  C5  PXY d   1       2.530   1.658  -0.478  0.00  0.00     0.003 A 
ATOM      8  C6  PXY d   1       2.218   2.586  -1.467  0.00  0.00     0.003 A 
ENDROOT
TORSDOF 0
ENDMDL
