MODEL 1
REMARK minimizedAffinity 0.969905376
REMARK minimizedRMSD -1
REMARK  0 active torsions:
REMARK  status: ('A' for Active; 'I' for Inactive)
ROOT
ATOM      1  C4' PXY d   1       3.896  -1.078   0.044  0.00  0.00     0.077 C 
ATOM      2  C1' PXY d   1      -0.827  -1.838   3.288  0.00  0.00     0.077 C 
ATOM      3  C1  PXY d   1       0.406  -1.646   2.428  0.00  0.00    -0.082 A 
ATOM      4  C2  PXY d   1       1.552  -1.304   2.995  0.00  0.00     0.003 A 
ATOM      5  C3  PXY d   1       2.670  -1.096   2.229  0.00  0.00     0.003 A 
ATOM      6  C4  PXY d   1       2.628  -1.291   0.874  0.00  0.00    -0.082 A 
ATOM      7  C5  PXY d   1       1.465  -1.651   0.290  0.00  0.00     0.003 A 
ATOM      8  C6  PXY d   1       0.332  -1.817   1.080  0.00  0.00     0.003 A 
ENDROOT
TORSDOF 0
ENDMDL
