MODEL 1
REMARK minimizedAffinity 7.93299007
REMARK minimizedRMSD -1
REMARK  0 active torsions:
REMARK  status: ('A' for Active; 'I' for Inactive)
ROOT
ATOM      1  C4' PXY d   1       4.321  -1.009  -0.105  0.00  0.00     0.077 C 
ATOM      2  C1' PXY d   1      -0.382  -1.185   3.251  0.00  0.00     0.077 C 
ATOM      3  C1  PXY d   1       0.845  -1.146   2.362  0.00  0.00    -0.082 A 
ATOM      4  C2  PXY d   1       2.034  -0.921   2.898  0.00  0.00     0.003 A 
ATOM      5  C3  PXY d   1       3.150  -0.851   2.104  0.00  0.00     0.003 A 
ATOM      6  C4  PXY d   1       3.056  -1.066   0.755  0.00  0.00    -0.082 A 
ATOM      7  C5  PXY d   1       1.848  -1.308   0.203  0.00  0.00     0.003 A 
ATOM      8  C6  PXY d   1       0.722  -1.334   1.020  0.00  0.00     0.003 A 
ENDROOT
TORSDOF 0
ENDMDL
