MODEL 1
REMARK minimizedAffinity 0.793219507
REMARK minimizedRMSD -1
REMARK  0 active torsions:
REMARK  status: ('A' for Active; 'I' for Inactive)
ROOT
ATOM      1  C4' PXY d   1       2.648  -1.523   0.073  0.00  0.00     0.077 C 
ATOM      2  C1' PXY d   1       1.176   2.902  -3.342  0.00  0.00     0.077 C 
ATOM      3  C1  PXY d   1       1.560   1.733  -2.456  0.00  0.00    -0.082 A 
ATOM      4  C2  PXY d   1       1.436   1.839  -1.143  0.00  0.00     0.003 A 
ATOM      5  C3  PXY d   1       1.809   0.803  -0.326  0.00  0.00     0.003 A 
ATOM      6  C4  PXY d   1       2.263  -0.372  -0.860  0.00  0.00    -0.082 A 
ATOM      7  C5  PXY d   1       2.383  -0.492  -2.199  0.00  0.00     0.003 A 
ATOM      8  C6  PXY d   1       2.038   0.586  -3.010  0.00  0.00     0.003 A 
ENDROOT
TORSDOF 0
ENDMDL
