MODEL 1
REMARK minimizedAffinity 7.93082523
REMARK minimizedRMSD -1
REMARK  0 active torsions:
REMARK  status: ('A' for Active; 'I' for Inactive)
ROOT
ATOM      1  C4' PXY d   1      -2.607   2.867  -2.624  0.00  0.00     0.077 C 
ATOM      2  C1' PXY d   1      -4.392  -1.472  -6.000  0.00  0.00     0.077 C 
ATOM      3  C1  PXY d   1      -3.923  -0.343  -5.105  0.00  0.00    -0.082 A 
ATOM      4  C2  PXY d   1      -4.250   0.905  -5.400  0.00  0.00     0.003 A 
ATOM      5  C3  PXY d   1      -3.807   1.942  -4.619  0.00  0.00     0.003 A 
ATOM      6  C4  PXY d   1      -3.067   1.694  -3.494  0.00  0.00    -0.082 A 
ATOM      7  C5  PXY d   1      -2.738   0.423  -3.180  0.00  0.00     0.003 A 
ATOM      8  C6  PXY d   1      -3.162  -0.611  -4.009  0.00  0.00     0.003 A 
ENDROOT
TORSDOF 0
ENDMDL
