MODEL 1
REMARK minimizedAffinity 2.67333794
REMARK minimizedRMSD -1
REMARK  0 active torsions:
REMARK  status: ('A' for Active; 'I' for Inactive)
ROOT
ATOM      1  C4' PXY d   1       1.914  -0.288  -2.848  0.00  0.00     0.077 C 
ATOM      2  C1' PXY d   1       3.526  -1.691   2.523  0.00  0.00     0.077 C 
ATOM      3  C1  PXY d   1       3.108  -1.311   1.116  0.00  0.00    -0.082 A 
ATOM      4  C2  PXY d   1       2.085  -1.929   0.548  0.00  0.00     0.003 A 
ATOM      5  C3  PXY d   1       1.715  -1.620  -0.735  0.00  0.00     0.003 A 
ATOM      6  C4  PXY d   1       2.364  -0.632  -1.426  0.00  0.00    -0.082 A 
ATOM      7  C5  PXY d   1       3.402   0.010  -0.849  0.00  0.00     0.003 A 
ATOM      8  C6  PXY d   1       3.789  -0.346   0.439  0.00  0.00     0.003 A 
ENDROOT
TORSDOF 0
ENDMDL
