MODEL 1
REMARK minimizedAffinity -1.83206081
REMARK minimizedRMSD -1
REMARK  0 active torsions:
REMARK  status: ('A' for Active; 'I' for Inactive)
ROOT
ATOM      1  C4' PXY d   1       1.184   1.347  -2.794  0.00  0.00     0.077 C 
ATOM      2  C1' PXY d   1       2.365  -3.011   0.816  0.00  0.00     0.077 C 
ATOM      3  C1  PXY d   1       2.043  -1.871  -0.130  0.00  0.00    -0.082 A 
ATOM      4  C2  PXY d   1       2.981  -1.408  -0.940  0.00  0.00     0.003 A 
ATOM      5  C3  PXY d   1       2.716  -0.356  -1.779  0.00  0.00     0.003 A 
ATOM      6  C4  PXY d   1       1.462   0.191  -1.829  0.00  0.00    -0.082 A 
ATOM      7  C5  PXY d   1       0.496  -0.283  -1.014  0.00  0.00     0.003 A 
ATOM      8  C6  PXY d   1       0.797  -1.324  -0.140  0.00  0.00     0.003 A 
ENDROOT
TORSDOF 0
ENDMDL
