MODEL 1
REMARK minimizedAffinity 6.3006134
REMARK minimizedRMSD -1
REMARK  0 active torsions:
REMARK  status: ('A' for Active; 'I' for Inactive)
ROOT
ATOM      1  C1  DEN d   1       1.680  -1.090  -3.679  0.00  0.00     0.130 A 
ATOM      2  C2  DEN d   1       3.047  -0.603  -3.512  0.00  0.00    -0.031 A 
ATOM      3  C3  DEN d   1       2.986   0.847  -3.243  0.00  0.00     0.027 A 
ATOM      4  C4  DEN d   1       0.919   2.379  -3.066  0.00  0.00     0.027 A 
ATOM      5  C5  DEN d   1      -0.456   2.423  -3.145  0.00  0.00    -0.003 A 
ATOM      6  C6  DEN d   1      -1.206   1.316  -3.439  0.00  0.00     0.001 A 
ATOM      7  C7  DEN d   1      -0.589   0.106  -3.620  0.00  0.00     0.017 A 
ATOM      8  C8  DEN d   1       0.797   0.055  -3.549  0.00  0.00    -0.094 A 
ATOM      9  C9  DEN d   1       1.537   1.183  -3.239  0.00  0.00    -0.072 A 
ENDROOT
TORSDOF 0
ENDMDL
