MODEL 1
REMARK minimizedAffinity -1.90460384
REMARK minimizedRMSD -1
REMARK  0 active torsions:
REMARK  status: ('A' for Active; 'I' for Inactive)
ROOT
ATOM      1  C1  DEN d   1       2.587   0.414  -3.329  0.00  0.00     0.130 A 
ATOM      2  C2  DEN d   1       2.833  -0.915  -3.882  0.00  0.00    -0.031 A 
ATOM      3  C3  DEN d   1       1.526  -1.539  -4.169  0.00  0.00     0.027 A 
ATOM      4  C4  DEN d   1      -0.842  -0.580  -3.815  0.00  0.00     0.027 A 
ATOM      5  C5  DEN d   1      -1.557   0.506  -3.360  0.00  0.00    -0.003 A 
ATOM      6  C6  DEN d   1      -0.947   1.614  -2.836  0.00  0.00     0.001 A 
ATOM      7  C7  DEN d   1       0.421   1.680  -2.795  0.00  0.00     0.017 A 
ATOM      8  C8  DEN d   1       1.148   0.586  -3.245  0.00  0.00    -0.094 A 
ATOM      9  C9  DEN d   1       0.513  -0.520  -3.783  0.00  0.00    -0.072 A 
ENDROOT
TORSDOF 0
ENDMDL
