MODEL 1
REMARK minimizedAffinity 9.22047615
REMARK minimizedRMSD -1
REMARK  0 active torsions:
REMARK  status: ('A' for Active; 'I' for Inactive)
ROOT
ATOM      1  C1  DEN d   1      -2.338  -4.265   1.323  0.00  0.00     0.130 A 
ATOM      2  C2  DEN d   1      -2.392  -5.160   0.171  0.00  0.00    -0.031 A 
ATOM      3  C3  DEN d   1      -1.177  -5.999   0.187  0.00  0.00     0.027 A 
ATOM      4  C4  DEN d   1       0.771  -6.000   1.877  0.00  0.00     0.027 A 
ATOM      5  C5  DEN d   1       1.269  -5.408   3.017  0.00  0.00    -0.003 A 
ATOM      6  C6  DEN d   1       0.621  -4.380   3.648  0.00  0.00     0.001 A 
ATOM      7  C7  DEN d   1      -0.585  -3.941   3.169  0.00  0.00     0.017 A 
ATOM      8  C8  DEN d   1      -1.089  -4.528   2.015  0.00  0.00    -0.094 A 
ATOM      9  C9  DEN d   1      -0.425  -5.574   1.399  0.00  0.00    -0.072 A 
ENDROOT
TORSDOF 0
ENDMDL
