MODEL 1
REMARK minimizedAffinity 3.42581272
REMARK minimizedRMSD -1
REMARK  0 active torsions:
REMARK  status: ('A' for Active; 'I' for Inactive)
ROOT
ATOM      1  C1  DEN d   1      -1.829  -0.516  -4.195  0.00  0.00     0.130 A 
ATOM      2  C2  DEN d   1      -2.944   0.426  -4.258  0.00  0.00    -0.031 A 
ATOM      3  C3  DEN d   1      -2.442   1.754  -3.851  0.00  0.00     0.027 A 
ATOM      4  C4  DEN d   1      -0.061   2.440  -3.137  0.00  0.00     0.027 A 
ATOM      5  C5  DEN d   1       1.220   1.985  -2.917  0.00  0.00    -0.003 A 
ATOM      6  C6  DEN d   1       1.564   0.668  -3.073  0.00  0.00     0.001 A 
ATOM      7  C7  DEN d   1       0.625  -0.232  -3.504  0.00  0.00     0.017 A 
ATOM      8  C8  DEN d   1      -0.670   0.219  -3.721  0.00  0.00    -0.094 A 
ATOM      9  C9  DEN d   1      -0.995   1.556  -3.570  0.00  0.00    -0.072 A 
ENDROOT
TORSDOF 0
ENDMDL
