MODEL 1
REMARK minimizedAffinity 8.2039156
REMARK minimizedRMSD -1
REMARK  0 active torsions:
REMARK  status: ('A' for Active; 'I' for Inactive)
ROOT
ATOM      1  C1  DEN d   1       1.582   2.512  -1.548  0.00  0.00     0.130 A 
ATOM      2  C2  DEN d   1       2.357   1.420  -0.967  0.00  0.00    -0.031 A 
ATOM      3  C3  DEN d   1       3.344   0.976  -1.972  0.00  0.00     0.027 A 
ATOM      4  C4  DEN d   1       3.747   1.871  -4.357  0.00  0.00     0.027 A 
ATOM      5  C5  DEN d   1       3.328   2.785  -5.299  0.00  0.00    -0.003 A 
ATOM      6  C6  DEN d   1       2.284   3.642  -5.071  0.00  0.00     0.001 A 
ATOM      7  C7  DEN d   1       1.652   3.634  -3.855  0.00  0.00     0.017 A 
ATOM      8  C8  DEN d   1       2.064   2.710  -2.903  0.00  0.00    -0.094 A 
ATOM      9  C9  DEN d   1       3.130   1.861  -3.149  0.00  0.00    -0.072 A 
ENDROOT
TORSDOF 0
ENDMDL
