MODEL 1
REMARK minimizedAffinity 17.5490818
REMARK minimizedRMSD -1
REMARK  0 active torsions:
REMARK  status: ('A' for Active; 'I' for Inactive)
ROOT
ATOM      1  C1  DEN d   1       3.414  -3.593   1.697  0.00  0.00     0.130 A 
ATOM      2  C2  DEN d   1       4.150  -4.467   0.787  0.00  0.00    -0.031 A 
ATOM      3  C3  DEN d   1       3.250  -5.566   0.383  0.00  0.00     0.027 A 
ATOM      4  C4  DEN d   1       0.801  -5.995   1.071  0.00  0.00     0.027 A 
ATOM      5  C5  DEN d   1      -0.247  -5.532   1.834  0.00  0.00    -0.003 A 
ATOM      6  C6  DEN d   1      -0.140  -4.419   2.626  0.00  0.00     0.001 A 
ATOM      7  C7  DEN d   1       1.029  -3.705   2.636  0.00  0.00     0.017 A 
ATOM      8  C8  DEN d   1       2.094  -4.169   1.875  0.00  0.00    -0.094 A 
ATOM      9  C9  DEN d   1       1.961  -5.289   1.072  0.00  0.00    -0.072 A 
ENDROOT
TORSDOF 0
ENDMDL
