MODEL 1
REMARK minimizedAffinity 4.71620131
REMARK minimizedRMSD -1
REMARK  0 active torsions:
REMARK  status: ('A' for Active; 'I' for Inactive)
ROOT
ATOM      1  C1  DEN d   1      -1.505   2.043  -3.391  0.00  0.00     0.130 A 
ATOM      2  C2  DEN d   1      -2.711   1.538  -4.041  0.00  0.00    -0.031 A 
ATOM      3  C3  DEN d   1      -3.400   0.639  -3.093  0.00  0.00     0.027 A 
ATOM      4  C4  DEN d   1      -2.721  -0.013  -0.692  0.00  0.00     0.027 A 
ATOM      5  C5  DEN d   1      -1.770   0.153   0.290  0.00  0.00    -0.003 A 
ATOM      6  C6  DEN d   1      -0.655   0.928   0.104  0.00  0.00     0.001 A 
ATOM      7  C7  DEN d   1      -0.487   1.602  -1.077  0.00  0.00     0.017 A 
ATOM      8  C8  DEN d   1      -1.438   1.433  -2.075  0.00  0.00    -0.094 A 
ATOM      9  C9  DEN d   1      -2.564   0.655  -1.862  0.00  0.00    -0.072 A 
ENDROOT
TORSDOF 0
ENDMDL
