MODEL 1
REMARK minimizedAffinity 14.1797915
REMARK minimizedRMSD -1
REMARK  0 active torsions:
REMARK  status: ('A' for Active; 'I' for Inactive)
ROOT
ATOM      1  C1  DEN d   1       2.556   1.928   0.905  0.00  0.00     0.130 A 
ATOM      2  C2  DEN d   1       3.090   2.656  -0.242  0.00  0.00    -0.031 A 
ATOM      3  C3  DEN d   1       4.539   2.384  -0.321  0.00  0.00     0.027 A 
ATOM      4  C4  DEN d   1       5.998   0.907   1.209  0.00  0.00     0.027 A 
ATOM      5  C5  DEN d   1       5.994   0.095   2.322  0.00  0.00    -0.003 A 
ATOM      6  C6  DEN d   1       4.860  -0.133   3.055  0.00  0.00     0.001 A 
ATOM      7  C7  DEN d   1       3.672   0.420   2.657  0.00  0.00     0.017 A 
ATOM      8  C8  DEN d   1       3.669   1.246   1.540  0.00  0.00    -0.094 A 
ATOM      9  C9  DEN d   1       4.824   1.455   0.805  0.00  0.00    -0.072 A 
ENDROOT
TORSDOF 0
ENDMDL
