MODEL 1
REMARK minimizedAffinity -0.373393267
REMARK minimizedRMSD -1
REMARK  0 active torsions:
REMARK  status: ('A' for Active; 'I' for Inactive)
ROOT
ATOM      1  C1  DEN d   1       0.697   0.111   1.213  0.00  0.00     0.130 A 
ATOM      2  C2  DEN d   1       0.513  -1.145   1.936  0.00  0.00    -0.031 A 
ATOM      3  C3  DEN d   1       1.832  -1.578   2.441  0.00  0.00     0.027 A 
ATOM      4  C4  DEN d   1       4.126  -0.429   2.180  0.00  0.00     0.027 A 
ATOM      5  C5  DEN d   1       4.785   0.652   1.638  0.00  0.00    -0.003 A 
ATOM      6  C6  DEN d   1       4.139   1.603   0.894  0.00  0.00     0.001 A 
ATOM      7  C7  DEN d   1       2.784   1.516   0.709  0.00  0.00     0.017 A 
ATOM      8  C8  DEN d   1       2.114   0.424   1.246  0.00  0.00    -0.094 A 
ATOM      9  C9  DEN d   1       2.783  -0.520   2.006  0.00  0.00    -0.072 A 
ENDROOT
TORSDOF 0
ENDMDL
