MODEL 1
REMARK minimizedAffinity 16.8808403
REMARK minimizedRMSD -1
REMARK  0 active torsions:
REMARK  status: ('A' for Active; 'I' for Inactive)
ROOT
ATOM      1  C1  DEN d   1      -2.492   0.003  -1.068  0.00  0.00     0.130 A 
ATOM      2  C2  DEN d   1      -1.491   0.322  -0.054  0.00  0.00    -0.031 A 
ATOM      3  C3  DEN d   1      -0.629   1.397  -0.586  0.00  0.00     0.027 A 
ATOM      4  C4  DEN d   1      -0.751   2.595  -2.867  0.00  0.00     0.027 A 
ATOM      5  C5  DEN d   1      -1.425   2.660  -4.066  0.00  0.00    -0.003 A 
ATOM      6  C6  DEN d   1      -2.472   1.828  -4.361  0.00  0.00     0.001 A 
ATOM      7  C7  DEN d   1      -2.905   0.924  -3.427  0.00  0.00     0.017 A 
ATOM      8  C8  DEN d   1      -2.225   0.848  -2.218  0.00  0.00    -0.094 A 
ATOM      9  C9  DEN d   1      -1.177   1.706  -1.934  0.00  0.00    -0.072 A 
ENDROOT
TORSDOF 0
ENDMDL
