MODEL 1
REMARK minimizedAffinity 12.9159822
REMARK minimizedRMSD -1
REMARK  0 active torsions:
REMARK  status: ('A' for Active; 'I' for Inactive)
ROOT
ATOM      1  C1  DEN d   1       1.350   0.137  -2.642  0.00  0.00     0.130 A 
ATOM      2  C2  DEN d   1       2.299  -0.922  -2.974  0.00  0.00    -0.031 A 
ATOM      3  C3  DEN d   1       3.353  -0.931  -1.940  0.00  0.00     0.027 A 
ATOM      4  C4  DEN d   1       3.604   0.579   0.135  0.00  0.00     0.027 A 
ATOM      5  C5  DEN d   1       3.051   1.631   0.831  0.00  0.00    -0.003 A 
ATOM      6  C6  DEN d   1       1.920   2.275   0.404  0.00  0.00     0.001 A 
ATOM      7  C7  DEN d   1       1.280   1.845  -0.728  0.00  0.00     0.017 A 
ATOM      8  C8  DEN d   1       1.836   0.790  -1.439  0.00  0.00    -0.094 A 
ATOM      9  C9  DEN d   1       2.973   0.143  -0.984  0.00  0.00    -0.072 A 
ENDROOT
TORSDOF 0
ENDMDL
