MODEL 1
REMARK minimizedAffinity 3.95376563
REMARK minimizedRMSD -1
REMARK  0 active torsions:
REMARK  status: ('A' for Active; 'I' for Inactive)
ROOT
ATOM      1  C1  DEN d   1      -1.183   1.006  -1.460  0.00  0.00     0.130 A 
ATOM      2  C2  DEN d   1      -2.227   1.049  -0.439  0.00  0.00    -0.031 A 
ATOM      3  C3  DEN d   1      -1.581   1.300   0.865  0.00  0.00     0.027 A 
ATOM      4  C4  DEN d   1       0.921   1.631   1.398  0.00  0.00     0.027 A 
ATOM      5  C5  DEN d   1       2.188   1.668   0.860  0.00  0.00    -0.003 A 
ATOM      6  C6  DEN d   1       2.422   1.456  -0.473  0.00  0.00     0.001 A 
ATOM      7  C7  DEN d   1       1.368   1.241  -1.321  0.00  0.00     0.017 A 
ATOM      8  C8  DEN d   1       0.088   1.194  -0.784  0.00  0.00    -0.094 A 
ATOM      9  C9  DEN d   1      -0.129   1.423   0.564  0.00  0.00    -0.072 A 
ENDROOT
TORSDOF 0
ENDMDL
