MODEL 1
REMARK minimizedAffinity 9.49746037
REMARK minimizedRMSD -1
REMARK  0 active torsions:
REMARK  status: ('A' for Active; 'I' for Inactive)
ROOT
ATOM      1  C1  DEN d   1      -2.374  -5.999   1.909  0.00  0.00     0.130 A 
ATOM      2  C2  DEN d   1      -2.777  -5.986   0.506  0.00  0.00    -0.031 A 
ATOM      3  C3  DEN d   1      -1.553  -5.973  -0.321  0.00  0.00     0.027 A 
ATOM      4  C4  DEN d   1       0.913  -5.976   0.432  0.00  0.00     0.027 A 
ATOM      5  C5  DEN d   1       1.754  -5.973   1.524  0.00  0.00    -0.003 A 
ATOM      6  C6  DEN d   1       1.282  -5.944   2.809  0.00  0.00     0.001 A 
ATOM      7  C7  DEN d   1      -0.069  -5.963   3.036  0.00  0.00     0.017 A 
ATOM      8  C8  DEN d   1      -0.923  -5.959   1.941  0.00  0.00    -0.094 A 
ATOM      9  C9  DEN d   1      -0.426  -6.000   0.650  0.00  0.00    -0.072 A 
ENDROOT
TORSDOF 0
ENDMDL
