MODEL 1
REMARK minimizedAffinity -5.43992186
REMARK minimizedRMSD -1
REMARK  0 active torsions:
REMARK  status: ('A' for Active; 'I' for Inactive)
ROOT
ATOM      1  C1  BNZ d   1       2.566  -1.434  -0.747  0.00  0.00     0.000 A 
ATOM      2  C2  BNZ d   1       1.536  -0.878  -0.035  0.00  0.00     0.000 A 
ATOM      3  C3  BNZ d   1       1.311   0.470  -0.068  0.00  0.00     0.000 A 
ATOM      4  C4  BNZ d   1       2.137   1.263  -0.780  0.00  0.00     0.000 A 
ATOM      5  C5  BNZ d   1       3.185   0.719  -1.495  0.00  0.00     0.000 A 
ATOM      6  C6  BNZ d   1       3.386  -0.643  -1.491  0.00  0.00     0.000 A 
ENDROOT
TORSDOF 0
ENDMDL
