MODEL 1
REMARK minimizedAffinity -5.85320044
REMARK minimizedRMSD -1
REMARK  0 active torsions:
REMARK  status: ('A' for Active; 'I' for Inactive)
ROOT
ATOM      1  C1  BNZ d   1       3.114  -1.631  -0.629  0.00  0.00     0.000 A 
ATOM      2  C2  BNZ d   1       1.899  -1.932  -0.073  0.00  0.00     0.000 A 
ATOM      3  C3  BNZ d   1       1.036  -0.941   0.302  0.00  0.00     0.000 A 
ATOM      4  C4  BNZ d   1       1.404   0.349   0.158  0.00  0.00     0.000 A 
ATOM      5  C5  BNZ d   1       2.629   0.669  -0.393  0.00  0.00     0.000 A 
ATOM      6  C6  BNZ d   1       3.479  -0.332  -0.805  0.00  0.00     0.000 A 
ENDROOT
TORSDOF 0
ENDMDL
