MODEL 1
REMARK minimizedAffinity -4.31573248
REMARK minimizedRMSD -1
REMARK  0 active torsions:
REMARK  status: ('A' for Active; 'I' for Inactive)
ROOT
ATOM      1  C1  BNZ d   1       2.153  -2.062  -0.212  0.00  0.00     0.000 A 
ATOM      2  C2  BNZ d   1       0.963  -1.646   0.322  0.00  0.00     0.000 A 
ATOM      3  C3  BNZ d   1       0.674  -0.314   0.434  0.00  0.00     0.000 A 
ATOM      4  C4  BNZ d   1       1.590   0.598   0.049  0.00  0.00     0.000 A 
ATOM      5  C5  BNZ d   1       2.799   0.193  -0.482  0.00  0.00     0.000 A 
ATOM      6  C6  BNZ d   1       3.070  -1.148  -0.629  0.00  0.00     0.000 A 
ENDROOT
TORSDOF 0
ENDMDL
