MODEL 1
REMARK minimizedAffinity -3.37695861
REMARK minimizedRMSD -1
REMARK  0 active torsions:
REMARK  status: ('A' for Active; 'I' for Inactive)
ROOT
ATOM      1  C1  BNZ d   1       3.177   0.314  -1.192  0.00  0.00     0.000 A 
ATOM      2  C2  BNZ d   1       2.075   0.811  -0.548  0.00  0.00     0.000 A 
ATOM      3  C3  BNZ d   1       1.150  -0.030   0.006  0.00  0.00     0.000 A 
ATOM      4  C4  BNZ d   1       1.307  -1.363  -0.120  0.00  0.00     0.000 A 
ATOM      5  C5  BNZ d   1       2.407  -1.879  -0.775  0.00  0.00     0.000 A 
ATOM      6  C6  BNZ d   1       3.356  -1.031  -1.298  0.00  0.00     0.000 A 
ENDROOT
TORSDOF 0
ENDMDL
