MODEL 1
REMARK minimizedAffinity -3.30358148
REMARK minimizedRMSD -1
REMARK  0 active torsions:
REMARK  status: ('A' for Active; 'I' for Inactive)
ROOT
ATOM      1  C1  BNZ d   1       3.206  -0.759  -0.867  0.00  0.00     0.000 A 
ATOM      2  C2  BNZ d   1       2.480  -1.594  -0.060  0.00  0.00     0.000 A 
ATOM      3  C3  BNZ d   1       1.384  -1.135   0.617  0.00  0.00     0.000 A 
ATOM      4  C4  BNZ d   1       1.040   0.165   0.517  0.00  0.00     0.000 A 
ATOM      5  C5  BNZ d   1       1.768   1.021  -0.285  0.00  0.00     0.000 A 
ATOM      6  C6  BNZ d   1       2.847   0.547  -0.995  0.00  0.00     0.000 A 
ENDROOT
TORSDOF 0
ENDMDL
