MODEL 1
REMARK minimizedAffinity -2.01888824
REMARK minimizedRMSD -1
REMARK  0 active torsions:
REMARK  status: ('A' for Active; 'I' for Inactive)
ROOT
ATOM      1  C1  BNZ d   1       1.230  -0.336   0.738  0.00  0.00     0.000 A 
ATOM      2  C2  BNZ d   1       1.745  -1.509   0.255  0.00  0.00     0.000 A 
ATOM      3  C3  BNZ d   1       2.751  -1.503  -0.671  0.00  0.00     0.000 A 
ATOM      4  C4  BNZ d   1       3.212  -0.327  -1.141  0.00  0.00     0.000 A 
ATOM      5  C5  BNZ d   1       2.696   0.865  -0.671  0.00  0.00     0.000 A 
ATOM      6  C6  BNZ d   1       1.711   0.855   0.289  0.00  0.00     0.000 A 
ENDROOT
TORSDOF 0
ENDMDL
