MODEL 1
REMARK minimizedAffinity -1.24585056
REMARK minimizedRMSD -1
REMARK  0 active torsions:
REMARK  status: ('A' for Active; 'I' for Inactive)
ROOT
ATOM      1  C1  BNZ d   1       3.320  -1.499  -1.229  0.00  0.00     0.000 A 
ATOM      2  C2  BNZ d   1       2.197  -1.272  -0.479  0.00  0.00     0.000 A 
ATOM      3  C3  BNZ d   1       1.596  -0.045  -0.473  0.00  0.00     0.000 A 
ATOM      4  C4  BNZ d   1       2.139   0.964  -1.184  0.00  0.00     0.000 A 
ATOM      5  C5  BNZ d   1       3.276   0.754  -1.938  0.00  0.00     0.000 A 
ATOM      6  C6  BNZ d   1       3.857  -0.493  -1.973  0.00  0.00     0.000 A 
ENDROOT
TORSDOF 0
ENDMDL
