MODEL 1
REMARK minimizedAffinity -2.96441007
REMARK minimizedRMSD -1
REMARK  0 active torsions:
REMARK  status: ('A' for Active; 'I' for Inactive)
ROOT
ATOM      1  C1  BNZ d   1       0.790   0.002   0.480  0.00  0.00     0.000 A 
ATOM      2  C2  BNZ d   1       1.118  -1.318   0.319  0.00  0.00     0.000 A 
ATOM      3  C3  BNZ d   1       2.254  -1.680  -0.350  0.00  0.00     0.000 A 
ATOM      4  C4  BNZ d   1       3.038  -0.725  -0.891  0.00  0.00     0.000 A 
ATOM      5  C5  BNZ d   1       2.716   0.609  -0.745  0.00  0.00     0.000 A 
ATOM      6  C6  BNZ d   1       1.593   0.972  -0.037  0.00  0.00     0.000 A 
ENDROOT
TORSDOF 0
ENDMDL
