MODEL 1
REMARK minimizedAffinity -2.362288
REMARK minimizedRMSD -1
REMARK  0 active torsions:
REMARK  status: ('A' for Active; 'I' for Inactive)
ROOT
ATOM      1  C1  BNZ d   1       3.088  -1.307  -0.254  0.00  0.00     0.000 A 
ATOM      2  C2  BNZ d   1       2.186  -1.483   0.761  0.00  0.00     0.000 A 
ATOM      3  C3  BNZ d   1       1.102  -0.660   0.886  0.00  0.00     0.000 A 
ATOM      4  C4  BNZ d   1       0.942   0.361   0.020  0.00  0.00     0.000 A 
ATOM      5  C5  BNZ d   1       1.848   0.558  -1.004  0.00  0.00     0.000 A 
ATOM      6  C6  BNZ d   1       2.917  -0.296  -1.149  0.00  0.00     0.000 A 
ENDROOT
TORSDOF 0
ENDMDL
