MODEL 1
REMARK minimizedAffinity -2.68198824
REMARK minimizedRMSD -1
REMARK  0 active torsions:
REMARK  status: ('A' for Active; 'I' for Inactive)
ROOT
ATOM      1  C1  BNZ d   1       3.266   0.719  -1.719  0.00  0.00     0.000 A 
ATOM      2  C2  BNZ d   1       2.312   0.538  -0.754  0.00  0.00     0.000 A 
ATOM      3  C3  BNZ d   1       2.089  -0.697  -0.212  0.00  0.00     0.000 A 
ATOM      4  C4  BNZ d   1       2.791  -1.756  -0.664  0.00  0.00     0.000 A 
ATOM      5  C5  BNZ d   1       3.750  -1.592  -1.644  0.00  0.00     0.000 A 
ATOM      6  C6  BNZ d   1       3.999  -0.340  -2.159  0.00  0.00     0.000 A 
ENDROOT
TORSDOF 0
ENDMDL
