MODEL 1
REMARK minimizedAffinity -4.49143124
REMARK minimizedRMSD -1
REMARK  0 active torsions:
REMARK  status: ('A' for Active; 'I' for Inactive)
ROOT
ATOM      1  C1  BNZ d   1       3.311  -1.548  -1.040  0.00  0.00     0.000 A 
ATOM      2  C2  BNZ d   1       2.077  -1.549  -0.445  0.00  0.00     0.000 A 
ATOM      3  C3  BNZ d   1       1.389  -0.383  -0.258  0.00  0.00     0.000 A 
ATOM      4  C4  BNZ d   1       1.951   0.785  -0.628  0.00  0.00     0.000 A 
ATOM      5  C5  BNZ d   1       3.198   0.805  -1.221  0.00  0.00     0.000 A 
ATOM      6  C6  BNZ d   1       3.871  -0.375  -1.443  0.00  0.00     0.000 A 
ENDROOT
TORSDOF 0
ENDMDL
