MODEL 1
REMARK minimizedAffinity -5.41832161
REMARK minimizedRMSD -1
REMARK  0 active torsions:
REMARK  status: ('A' for Active; 'I' for Inactive)
ROOT
ATOM      1  C1  BNZ d   1       2.709   0.253  -1.113  0.00  0.00     0.000 A 
ATOM      2  C2  BNZ d   1       1.654   0.609  -0.315  0.00  0.00     0.000 A 
ATOM      3  C3  BNZ d   1       1.039  -0.314   0.484  0.00  0.00     0.000 A 
ATOM      4  C4  BNZ d   1       1.451  -1.597   0.453  0.00  0.00     0.000 A 
ATOM      5  C5  BNZ d   1       2.506  -1.974  -0.354  0.00  0.00     0.000 A 
ATOM      6  C6  BNZ d   1       3.149  -1.034  -1.127  0.00  0.00     0.000 A 
ENDROOT
TORSDOF 0
ENDMDL
