MODEL 1
REMARK minimizedAffinity -4.10742331
REMARK minimizedRMSD -1
REMARK  0 active torsions:
REMARK  status: ('A' for Active; 'I' for Inactive)
ROOT
ATOM      1  C1  BNZ d   1       2.557  -0.887  -1.211  0.00  0.00     0.000 A 
ATOM      2  C2  BNZ d   1       2.259  -1.910  -0.351  0.00  0.00     0.000 A 
ATOM      3  C3  BNZ d   1       1.505  -1.687   0.768  0.00  0.00     0.000 A 
ATOM      4  C4  BNZ d   1       1.085  -0.436   1.045  0.00  0.00     0.000 A 
ATOM      5  C5  BNZ d   1       1.386   0.608   0.193  0.00  0.00     0.000 A 
ATOM      6  C6  BNZ d   1       2.112   0.372  -0.952  0.00  0.00     0.000 A 
ENDROOT
TORSDOF 0
ENDMDL
