MODEL 1
REMARK minimizedAffinity -4.38385534
REMARK minimizedRMSD -1
REMARK  0 active torsions:
REMARK  status: ('A' for Active; 'I' for Inactive)
ROOT
ATOM      1  C1  BNZ d   1       2.373  -1.421  -0.477  0.00  0.00     0.000 A 
ATOM      2  C2  BNZ d   1       1.223  -1.316   0.258  0.00  0.00     0.000 A 
ATOM      3  C3  BNZ d   1       0.480  -0.169   0.235  0.00  0.00     0.000 A 
ATOM      4  C4  BNZ d   1       0.909   0.885  -0.490  0.00  0.00     0.000 A 
ATOM      5  C5  BNZ d   1       2.072   0.798  -1.228  0.00  0.00     0.000 A 
ATOM      6  C6  BNZ d   1       2.796  -0.372  -1.234  0.00  0.00     0.000 A 
ENDROOT
TORSDOF 0
ENDMDL
