MODEL 1
REMARK minimizedAffinity -4.50935364
REMARK minimizedRMSD -1
REMARK  0 active torsions:
REMARK  status: ('A' for Active; 'I' for Inactive)
ROOT
ATOM      1  C1  BNZ d   1       1.042  -0.129   0.896  0.00  0.00     0.000 A 
ATOM      2  C2  BNZ d   1       1.173   0.701  -0.185  0.00  0.00     0.000 A 
ATOM      3  C3  BNZ d   1       1.931   0.335  -1.262  0.00  0.00     0.000 A 
ATOM      4  C4  BNZ d   1       2.589  -0.843  -1.240  0.00  0.00     0.000 A 
ATOM      5  C5  BNZ d   1       2.474  -1.687  -0.153  0.00  0.00     0.000 A 
ATOM      6  C6  BNZ d   1       1.679  -1.332   0.912  0.00  0.00     0.000 A 
ENDROOT
TORSDOF 0
ENDMDL
