MODEL 1
REMARK minimizedAffinity -2.56154394
REMARK minimizedRMSD -1
REMARK  0 active torsions:
REMARK  status: ('A' for Active; 'I' for Inactive)
ROOT
ATOM      1  C1  BNZ d   1       1.251  -0.060   0.308  0.00  0.00     0.000 A 
ATOM      2  C2  BNZ d   1       1.789  -1.310   0.154  0.00  0.00     0.000 A 
ATOM      3  C3  BNZ d   1       3.023  -1.477  -0.408  0.00  0.00     0.000 A 
ATOM      4  C4  BNZ d   1       3.701  -0.399  -0.851  0.00  0.00     0.000 A 
ATOM      5  C5  BNZ d   1       3.169   0.868  -0.711  0.00  0.00     0.000 A 
ATOM      6  C6  BNZ d   1       1.943   1.035  -0.110  0.00  0.00     0.000 A 
ENDROOT
TORSDOF 0
ENDMDL
