MODEL 1
REMARK minimizedAffinity 1.64313674
REMARK minimizedRMSD -1
REMARK  0 active torsions:
REMARK  status: ('A' for Active; 'I' for Inactive)
ROOT
ATOM      1  N1  IND d   1      -1.444  -2.450  -0.076  0.00  0.00    -0.196 N 
ATOM      2  C2  IND d   1      -1.095  -1.131   0.001  0.00  0.00     0.054 A 
ATOM      3  C3  IND d   1      -1.242  -0.534  -1.204  0.00  0.00    -0.031 A 
ATOM      4  C4  IND d   1      -2.137  -1.508  -3.413  0.00  0.00     0.051 A 
ATOM      5  C5  IND d   1      -2.547  -2.679  -3.986  0.00  0.00    -0.031 A 
ATOM      6  C6  IND d   1      -2.614  -3.857  -3.270  0.00  0.00     0.015 A 
ATOM      7  C7  IND d   1      -2.283  -3.905  -1.945  0.00  0.00    -0.016 A 
ATOM      8  C8  IND d   1      -1.860  -2.720  -1.362  0.00  0.00    -0.047 A 
ATOM      9  C9  IND d   1      -1.749  -1.530  -2.094  0.00  0.00    -0.096 A 
ATOM     10  HN1 IND d   1      -1.409  -3.017   0.570  0.00  0.00     0.298 HD
ENDROOT
TORSDOF 0
ENDMDL
