MODEL 1
REMARK minimizedAffinity -4.13324356
REMARK minimizedRMSD -1
REMARK  0 active torsions:
REMARK  status: ('A' for Active; 'I' for Inactive)
ROOT
ATOM      1  N1  IND d   1      -4.489   3.165   2.595  0.00  0.00    -0.196 N 
ATOM      2  C2  IND d   1      -4.261   1.929   3.134  0.00  0.00     0.054 A 
ATOM      3  C3  IND d   1      -4.383   1.973   4.479  0.00  0.00    -0.031 A 
ATOM      4  C4  IND d   1      -5.051   3.941   5.999  0.00  0.00     0.051 A 
ATOM      5  C5  IND d   1      -5.321   5.280   5.970  0.00  0.00    -0.031 A 
ATOM      6  C6  IND d   1      -5.331   5.997   4.791  0.00  0.00     0.015 A 
ATOM      7  C7  IND d   1      -5.081   5.396   3.590  0.00  0.00    -0.016 A 
ATOM      8  C8  IND d   1      -4.799   4.037   3.616  0.00  0.00    -0.047 A 
ATOM      9  C9  IND d   1      -4.745   3.313   4.814  0.00  0.00    -0.096 A 
ATOM     10  HN1 IND d   1      -4.446   3.364   1.760  0.00  0.00     0.298 HD
ENDROOT
TORSDOF 0
ENDMDL
