MODEL 1
REMARK minimizedAffinity 3.68707466
REMARK minimizedRMSD -1
REMARK  0 active torsions:
REMARK  status: ('A' for Active; 'I' for Inactive)
ROOT
ATOM      1  N1  IND d   1      -3.650  -0.652   2.515  0.00  0.00    -0.196 N 
ATOM      2  C2  IND d   1      -3.095  -0.015   3.589  0.00  0.00     0.054 A 
ATOM      3  C3  IND d   1      -1.840   0.394   3.297  0.00  0.00    -0.031 A 
ATOM      4  C4  IND d   1      -0.534   0.212   1.086  0.00  0.00     0.051 A 
ATOM      5  C5  IND d   1      -0.610  -0.322  -0.170  0.00  0.00    -0.031 A 
ATOM      6  C6  IND d   1      -1.728  -1.005  -0.605  0.00  0.00     0.015 A 
ATOM      7  C7  IND d   1      -2.820  -1.170   0.200  0.00  0.00    -0.016 A 
ATOM      8  C8  IND d   1      -2.742  -0.635   1.478  0.00  0.00    -0.047 A 
ATOM      9  C9  IND d   1      -1.594   0.022   1.939  0.00  0.00    -0.096 A 
ATOM     10  HN1 IND d   1      -4.434  -1.005   2.490  0.00  0.00     0.298 HD
ENDROOT
TORSDOF 0
ENDMDL
