MODEL 1
REMARK minimizedAffinity 3.46163487
REMARK minimizedRMSD -1
REMARK  0 active torsions:
REMARK  status: ('A' for Active; 'I' for Inactive)
ROOT
ATOM      1  N1  IND d   1      -4.327   5.994   3.437  0.00  0.00    -0.196 N 
ATOM      2  C2  IND d   1      -3.989   5.006   4.319  0.00  0.00     0.054 A 
ATOM      3  C3  IND d   1      -4.274   3.792   3.797  0.00  0.00    -0.031 A 
ATOM      4  C4  IND d   1      -5.204   3.188   1.474  0.00  0.00     0.051 A 
ATOM      5  C5  IND d   1      -5.699   3.752   0.332  0.00  0.00    -0.031 A 
ATOM      6  C6  IND d   1      -5.761   5.120   0.162  0.00  0.00     0.015 A 
ATOM      7  C7  IND d   1      -5.318   5.978   1.128  0.00  0.00    -0.016 A 
ATOM      8  C8  IND d   1      -4.820   5.409   2.292  0.00  0.00    -0.047 A 
ATOM      9  C9  IND d   1      -4.794   4.023   2.487  0.00  0.00    -0.096 A 
ATOM     10  HN1 IND d   1      -4.245   6.839   3.574  0.00  0.00     0.298 HD
ENDROOT
TORSDOF 0
ENDMDL
