MODEL 1
REMARK minimizedAffinity -0.181266636
REMARK minimizedRMSD -1
REMARK  0 active torsions:
REMARK  status: ('A' for Active; 'I' for Inactive)
ROOT
ATOM      1  N1  IND d   1      -1.090  -2.035  -0.411  0.00  0.00    -0.196 N 
ATOM      2  C2  IND d   1      -0.679  -0.732  -0.419  0.00  0.00     0.054 A 
ATOM      3  C3  IND d   1      -1.027  -0.135  -1.580  0.00  0.00    -0.031 A 
ATOM      4  C4  IND d   1      -2.366  -1.079  -3.566  0.00  0.00     0.051 A 
ATOM      5  C5  IND d   1      -2.926  -2.234  -4.036  0.00  0.00    -0.031 A 
ATOM      6  C6  IND d   1      -2.905  -3.405  -3.306  0.00  0.00     0.015 A 
ATOM      7  C7  IND d   1      -2.330  -3.461  -2.068  0.00  0.00    -0.016 A 
ATOM      8  C8  IND d   1      -1.754  -2.292  -1.590  0.00  0.00    -0.047 A 
ATOM      9  C9  IND d   1      -1.735  -1.112  -2.345  0.00  0.00    -0.096 A 
ATOM     10  HN1 IND d   1      -0.957  -2.600   0.224  0.00  0.00     0.298 HD
ENDROOT
TORSDOF 0
ENDMDL
