MODEL 1
REMARK minimizedAffinity 2.53937793
REMARK minimizedRMSD -1
REMARK  0 active torsions:
REMARK  status: ('A' for Active; 'I' for Inactive)
ROOT
ATOM      1  N1  IND d   1       0.501  -0.963   1.174  0.00  0.00    -0.196 N 
ATOM      2  C2  IND d   1       1.805  -0.597   0.993  0.00  0.00     0.054 A 
ATOM      3  C3  IND d   1       1.984  -0.090  -0.248  0.00  0.00    -0.031 A 
ATOM      4  C4  IND d   1       0.254   0.328  -2.108  0.00  0.00     0.051 A 
ATOM      5  C5  IND d   1      -1.060   0.124  -2.423  0.00  0.00    -0.031 A 
ATOM      6  C6  IND d   1      -1.939  -0.463  -1.536  0.00  0.00     0.015 A 
ATOM      7  C7  IND d   1      -1.538  -0.858  -0.291  0.00  0.00    -0.016 A 
ATOM      8  C8  IND d   1      -0.203  -0.658   0.029  0.00  0.00    -0.047 A 
ATOM      9  C9  IND d   1       0.704  -0.102  -0.882  0.00  0.00    -0.096 A 
ATOM     10  HN1 IND d   1       0.174  -1.322   1.884  0.00  0.00     0.298 HD
ENDROOT
TORSDOF 0
ENDMDL
