MODEL 1
REMARK minimizedAffinity 1.09808981
REMARK minimizedRMSD -1
REMARK  0 active torsions:
REMARK  status: ('A' for Active; 'I' for Inactive)
ROOT
ATOM      1  N1  IND d   1       0.623   0.182  -0.466  0.00  0.00    -0.196 N 
ATOM      2  C2  IND d   1      -0.663   0.561  -0.735  0.00  0.00     0.054 A 
ATOM      3  C3  IND d   1      -0.863   0.631  -2.070  0.00  0.00    -0.031 A 
ATOM      4  C4  IND d   1       0.748   0.068  -3.998  0.00  0.00     0.051 A 
ATOM      5  C5  IND d   1       2.043  -0.287  -4.250  0.00  0.00    -0.031 A 
ATOM      6  C6  IND d   1       2.949  -0.511  -3.233  0.00  0.00     0.015 A 
ATOM      7  C7  IND d   1       2.588  -0.399  -1.920  0.00  0.00    -0.016 A 
ATOM      8  C8  IND d   1       1.275  -0.032  -1.661  0.00  0.00    -0.047 A 
ATOM      9  C9  IND d   1       0.363   0.238  -2.689  0.00  0.00    -0.096 A 
ATOM     10  HN1 IND d   1       0.966   0.092   0.317  0.00  0.00     0.298 HD
ENDROOT
TORSDOF 0
ENDMDL
