MODEL 1
REMARK minimizedAffinity 10.3318415
REMARK minimizedRMSD -1
REMARK  0 active torsions:
REMARK  status: ('A' for Active; 'I' for Inactive)
ROOT
ATOM      1  N1  IND d   1      -5.982   5.550   0.410  0.00  0.00    -0.196 N 
ATOM      2  C2  IND d   1      -5.082   4.959  -0.433  0.00  0.00     0.054 A 
ATOM      3  C3  IND d   1      -3.987   4.561   0.253  0.00  0.00    -0.031 A 
ATOM      4  C4  IND d   1      -3.503   4.686   2.778  0.00  0.00     0.051 A 
ATOM      5  C5  IND d   1      -4.011   5.174   3.949  0.00  0.00    -0.031 A 
ATOM      6  C6  IND d   1      -5.227   5.824   4.002  0.00  0.00     0.015 A 
ATOM      7  C7  IND d   1      -5.990   6.000   2.882  0.00  0.00    -0.016 A 
ATOM      8  C8  IND d   1      -5.474   5.511   1.690  0.00  0.00    -0.047 A 
ATOM      9  C9  IND d   1      -4.221   4.889   1.623  0.00  0.00    -0.096 A 
ATOM     10  HN1 IND d   1      -6.738   5.889   0.179  0.00  0.00     0.298 HD
ENDROOT
TORSDOF 0
ENDMDL
