MODEL 1
REMARK minimizedAffinity 9.63618565
REMARK minimizedRMSD -1
REMARK  0 active torsions:
REMARK  status: ('A' for Active; 'I' for Inactive)
ROOT
ATOM      1  N1  IND d   1       2.164   2.936   4.393  0.00  0.00    -0.196 N 
ATOM      2  C2  IND d   1       1.359   1.832   4.449  0.00  0.00     0.054 A 
ATOM      3  C3  IND d   1       1.118   1.363   3.204  0.00  0.00    -0.031 A 
ATOM      4  C4  IND d   1       2.024   2.190   0.940  0.00  0.00     0.051 A 
ATOM      5  C5  IND d   1       2.766   3.190   0.377  0.00  0.00    -0.031 A 
ATOM      6  C6  IND d   1       3.360   4.175   1.140  0.00  0.00     0.015 A 
ATOM      7  C7  IND d   1       3.242   4.190   2.501  0.00  0.00    -0.016 A 
ATOM      8  C8  IND d   1       2.483   3.180   3.075  0.00  0.00    -0.047 A 
ATOM      9  C9  IND d   1       1.843   2.202   2.303  0.00  0.00    -0.096 A 
ATOM     10  HN1 IND d   1       2.426   3.400   5.068  0.00  0.00     0.298 HD
ENDROOT
TORSDOF 0
ENDMDL
