MODEL 1
REMARK minimizedAffinity 6.73549223
REMARK minimizedRMSD -1
REMARK  0 active torsions:
REMARK  status: ('A' for Active; 'I' for Inactive)
ROOT
ATOM      1  N1  IND d   1       1.520  -0.724  -0.349  0.00  0.00    -0.196 N 
ATOM      2  C2  IND d   1       0.243  -0.276  -0.150  0.00  0.00     0.054 A 
ATOM      3  C3  IND d   1      -0.286   0.168  -1.312  0.00  0.00    -0.031 A 
ATOM      4  C4  IND d   1       0.727   0.161  -3.679  0.00  0.00     0.051 A 
ATOM      5  C5  IND d   1       1.881  -0.117  -4.356  0.00  0.00    -0.031 A 
ATOM      6  C6  IND d   1       2.995  -0.624  -3.719  0.00  0.00     0.015 A 
ATOM      7  C7  IND d   1       2.993  -0.884  -2.378  0.00  0.00    -0.016 A 
ATOM      8  C8  IND d   1       1.825  -0.597  -1.686  0.00  0.00    -0.047 A 
ATOM      9  C9  IND d   1       0.705  -0.042  -2.319  0.00  0.00    -0.096 A 
ATOM     10  HN1 IND d   1       2.043  -1.033   0.259  0.00  0.00     0.298 HD
ENDROOT
TORSDOF 0
ENDMDL
