MODEL 1
REMARK minimizedAffinity -1.36806929
REMARK minimizedRMSD -1
REMARK  0 active torsions:
REMARK  status: ('A' for Active; 'I' for Inactive)
ROOT
ATOM      1  N1  IND d   1      -5.376   4.355   3.522  0.00  0.00    -0.196 N 
ATOM      2  C2  IND d   1      -4.526   5.250   4.109  0.00  0.00     0.054 A 
ATOM      3  C3  IND d   1      -3.909   6.000   3.169  0.00  0.00    -0.031 A 
ATOM      4  C4  IND d   1      -4.219   5.998   0.613  0.00  0.00     0.051 A 
ATOM      5  C5  IND d   1      -4.859   5.332  -0.394  0.00  0.00    -0.031 A 
ATOM      6  C6  IND d   1      -5.725   4.287  -0.142  0.00  0.00     0.015 A 
ATOM      7  C7  IND d   1      -5.991   3.875   1.133  0.00  0.00    -0.016 A 
ATOM      8  C8  IND d   1      -5.337   4.544   2.158  0.00  0.00    -0.047 A 
ATOM      9  C9  IND d   1      -4.425   5.577   1.906  0.00  0.00    -0.096 A 
ATOM     10  HN1 IND d   1      -5.855   3.773   3.935  0.00  0.00     0.298 HD
ENDROOT
TORSDOF 0
ENDMDL
