MODEL 1
REMARK minimizedAffinity -2.47195768
REMARK minimizedRMSD -1
REMARK  0 active torsions:
REMARK  status: ('A' for Active; 'I' for Inactive)
ROOT
ATOM      1  N1  IND d   1      -6.000   5.517   2.026  0.00  0.00    -0.196 N 
ATOM      2  C2  IND d   1      -5.024   5.721   1.090  0.00  0.00     0.054 A 
ATOM      3  C3  IND d   1      -3.837   5.956   1.693  0.00  0.00    -0.031 A 
ATOM      4  C4  IND d   1      -3.245   5.952   4.198  0.00  0.00     0.051 A 
ATOM      5  C5  IND d   1      -3.810   5.851   5.438  0.00  0.00    -0.031 A 
ATOM      6  C6  IND d   1      -5.161   5.626   5.608  0.00  0.00     0.015 A 
ATOM      7  C7  IND d   1      -5.999   5.482   4.539  0.00  0.00    -0.016 A 
ATOM      8  C8  IND d   1      -5.429   5.591   3.278  0.00  0.00    -0.047 A 
ATOM      9  C9  IND d   1      -4.067   5.861   3.100  0.00  0.00    -0.096 A 
ATOM     10  HN1 IND d   1      -6.830   5.368   1.860  0.00  0.00     0.298 HD
ENDROOT
TORSDOF 0
ENDMDL
