MODEL 1
REMARK minimizedAffinity 0.943452716
REMARK minimizedRMSD -1
REMARK  0 active torsions:
REMARK  status: ('A' for Active; 'I' for Inactive)
ROOT
ATOM      1  N1  IND d   1      -3.350   4.529   3.458  0.00  0.00    -0.196 N 
ATOM      2  C2  IND d   1      -3.897   5.287   4.455  0.00  0.00     0.054 A 
ATOM      3  C3  IND d   1      -4.945   6.000   3.984  0.00  0.00    -0.031 A 
ATOM      4  C4  IND d   1      -6.000   5.998   1.636  0.00  0.00     0.051 A 
ATOM      5  C5  IND d   1      -5.826   5.494   0.377  0.00  0.00    -0.031 A 
ATOM      6  C6  IND d   1      -4.799   4.623   0.076  0.00  0.00     0.015 A 
ATOM      7  C7  IND d   1      -3.910   4.213   1.029  0.00  0.00    -0.016 A 
ATOM      8  C8  IND d   1      -4.079   4.728   2.306  0.00  0.00    -0.047 A 
ATOM      9  C9  IND d   1      -5.094   5.646   2.608  0.00  0.00    -0.096 A 
ATOM     10  HN1 IND d   1      -2.665   4.015   3.536  0.00  0.00     0.298 HD
ENDROOT
TORSDOF 0
ENDMDL
