MODEL 1
REMARK minimizedAffinity 9.11666393
REMARK minimizedRMSD -1
REMARK  0 active torsions:
REMARK  status: ('A' for Active; 'I' for Inactive)
ROOT
ATOM      1  N1  IND d   1      -2.182  -3.489  -1.956  0.00  0.00    -0.196 N 
ATOM      2  C2  IND d   1      -2.688  -3.520  -3.226  0.00  0.00     0.054 A 
ATOM      3  C3  IND d   1      -2.769  -2.269  -3.731  0.00  0.00    -0.031 A 
ATOM      4  C4  IND d   1      -2.032  -0.033  -2.688  0.00  0.00     0.051 A 
ATOM      5  C5  IND d   1      -1.545   0.507  -1.530  0.00  0.00    -0.031 A 
ATOM      6  C6  IND d   1      -1.237  -0.274  -0.435  0.00  0.00     0.015 A 
ATOM      7  C7  IND d   1      -1.394  -1.630  -0.460  0.00  0.00    -0.016 A 
ATOM      8  C8  IND d   1      -1.895  -2.182  -1.631  0.00  0.00    -0.047 A 
ATOM      9  C9  IND d   1      -2.249  -1.390  -2.731  0.00  0.00    -0.096 A 
ATOM     10  HN1 IND d   1      -2.063  -4.171  -1.447  0.00  0.00     0.298 HD
ENDROOT
TORSDOF 0
ENDMDL
