MODEL 1
REMARK minimizedAffinity -6.25140953
REMARK minimizedRMSD -1
REMARK  0 active torsions:
REMARK  status: ('A' for Active; 'I' for Inactive)
ROOT
ATOM      1  N1  IND d   1      -5.624  -3.297   1.444  0.00  0.00    -0.196 N 
ATOM      2  C2  IND d   1      -5.876  -4.552   0.962  0.00  0.00     0.054 A 
ATOM      3  C3  IND d   1      -4.959  -4.890   0.028  0.00  0.00    -0.031 A 
ATOM      4  C4  IND d   1      -2.900  -3.580  -0.791  0.00  0.00     0.051 A 
ATOM      5  C5  IND d   1      -2.274  -2.371  -0.671  0.00  0.00    -0.031 A 
ATOM      6  C6  IND d   1      -2.741  -1.390   0.181  0.00  0.00     0.015 A 
ATOM      7  C7  IND d   1      -3.850  -1.587   0.954  0.00  0.00    -0.016 A 
ATOM      8  C8  IND d   1      -4.492  -2.811   0.829  0.00  0.00    -0.047 A 
ATOM      9  C9  IND d   1      -4.047  -3.794  -0.064  0.00  0.00    -0.096 A 
ATOM     10  HN1 IND d   1      -6.094  -2.882   2.032  0.00  0.00     0.298 HD
ENDROOT
TORSDOF 0
ENDMDL
