MODEL 1
REMARK minimizedAffinity -5.21351051
REMARK minimizedRMSD -1
REMARK  0 active torsions:
REMARK  status: ('A' for Active; 'I' for Inactive)
ROOT
ATOM      1  N1  IND d   1      -3.761  -2.197  -0.193  0.00  0.00    -0.196 N 
ATOM      2  C2  IND d   1      -2.575  -2.443  -0.827  0.00  0.00     0.054 A 
ATOM      3  C3  IND d   1      -2.325  -3.771  -0.858  0.00  0.00    -0.031 A 
ATOM      4  C4  IND d   1      -3.773  -5.728  -0.020  0.00  0.00     0.051 A 
ATOM      5  C5  IND d   1      -4.926  -6.000   0.663  0.00  0.00    -0.031 A 
ATOM      6  C6  IND d   1      -5.767  -4.998   1.102  0.00  0.00     0.015 A 
ATOM      7  C7  IND d   1      -5.492  -3.681   0.863  0.00  0.00    -0.016 A 
ATOM      8  C8  IND d   1      -4.319  -3.401   0.176  0.00  0.00    -0.047 A 
ATOM      9  C9  IND d   1      -3.440  -4.411  -0.234  0.00  0.00    -0.096 A 
ATOM     10  HN1 IND d   1      -4.101  -1.420  -0.049  0.00  0.00     0.298 HD
ENDROOT
TORSDOF 0
ENDMDL
