MODEL 1
REMARK minimizedAffinity 12.13869
REMARK minimizedRMSD -1
REMARK  0 active torsions:
REMARK  status: ('A' for Active; 'I' for Inactive)
ROOT
ATOM      1  N1  IND d   1      -1.467  -1.930  -0.647  0.00  0.00    -0.196 N 
ATOM      2  C2  IND d   1      -0.786  -0.749  -0.742  0.00  0.00     0.054 A 
ATOM      3  C3  IND d   1      -0.697  -0.360  -2.034  0.00  0.00    -0.031 A 
ATOM      4  C4  IND d   1      -1.682  -1.458  -4.144  0.00  0.00     0.051 A 
ATOM      5  C5  IND d   1      -2.352  -2.572  -4.566  0.00  0.00    -0.031 A 
ATOM      6  C6  IND d   1      -2.772  -3.547  -3.685  0.00  0.00     0.015 A 
ATOM      7  C7  IND d   1      -2.547  -3.439  -2.341  0.00  0.00    -0.016 A 
ATOM      8  C8  IND d   1      -1.860  -2.313  -1.910  0.00  0.00    -0.047 A 
ATOM      9  C9  IND d   1      -1.394  -1.340  -2.804  0.00  0.00    -0.096 A 
ATOM     10  HN1 IND d   1      -1.622  -2.362   0.080  0.00  0.00     0.298 HD
ENDROOT
TORSDOF 0
ENDMDL
