MODEL 1
REMARK minimizedAffinity 4.31698799
REMARK minimizedRMSD -1
REMARK  0 active torsions:
REMARK  status: ('A' for Active; 'I' for Inactive)
ROOT
ATOM      1  N1  IND d   1       1.809   3.325   3.350  0.00  0.00    -0.196 N 
ATOM      2  C2  IND d   1       2.811   3.241   2.424  0.00  0.00     0.054 A 
ATOM      3  C3  IND d   1       3.415   2.033   2.493  0.00  0.00    -0.031 A 
ATOM      4  C4  IND d   1       2.856   0.008   3.981  0.00  0.00     0.051 A 
ATOM      5  C5  IND d   1       2.046  -0.381   5.011  0.00  0.00    -0.031 A 
ATOM      6  C6  IND d   1       1.095   0.461   5.549  0.00  0.00     0.015 A 
ATOM      7  C7  IND d   1       0.909   1.726   5.067  0.00  0.00    -0.016 A 
ATOM      8  C8  IND d   1       1.735   2.127   4.026  0.00  0.00    -0.047 A 
ATOM      9  C9  IND d   1       2.731   1.292   3.505  0.00  0.00    -0.096 A 
ATOM     10  HN1 IND d   1       1.309   4.011   3.487  0.00  0.00     0.298 HD
ENDROOT
TORSDOF 0
ENDMDL
