MODEL 1
REMARK minimizedAffinity -4.20685053
REMARK minimizedRMSD -1
REMARK  3 active torsions:
REMARK  status: ('A' for Active; 'I' for Inactive)
REMARK    1  A    between atoms: C3'_2  and  C2'_3 
REMARK    2  A    between atoms: C2'_3  and  C1'_4 
REMARK    3  A    between atoms: C1'_4  and  C1_5 
ROOT
ATOM      1  C1  N4B d   1      -0.052  -0.384   1.293  0.00  0.00    -0.075 A 
ATOM      2  C2  N4B d   1      -0.645  -0.154   2.554  0.00  0.00     0.002 A 
ATOM      3  C3  N4B d   1       0.106  -0.270   3.697  0.00  0.00     0.002 A 
ATOM      4  C4  N4B d   1       1.442  -0.631   3.607  0.00  0.00    -0.004 A 
ATOM      5  C5  N4B d   1       2.014  -0.826   2.383  0.00  0.00     0.002 A 
ATOM      6  C6  N4B d   1       1.272  -0.710   1.226  0.00  0.00     0.002 A 
ENDROOT
BRANCH   1   7
ATOM      7  C1' N4B d   1      -0.854  -0.354   0.021  0.00  0.00     0.057 C 
BRANCH   7   8
ATOM      8  C2' N4B d   1      -0.005   0.253  -1.092  0.00  0.00     0.009 C 
BRANCH   8   9
ATOM      9  C3' N4B d   1       0.216  -0.724  -2.235  0.00  0.00     0.004 C 
ATOM     10  C4' N4B d   1       0.659  -0.048  -3.498  0.00  0.00     0.003 C 
ENDBRANCH   8   9
ENDBRANCH   7   8
ENDBRANCH   1   7
TORSDOF 3
ENDMDL
