MODEL 1
REMARK minimizedAffinity -4.87420273
REMARK minimizedRMSD -1
REMARK  3 active torsions:
REMARK  status: ('A' for Active; 'I' for Inactive)
REMARK    1  A    between atoms: C3'_2  and  C2'_3 
REMARK    2  A    between atoms: C2'_3  and  C1'_4 
REMARK    3  A    between atoms: C1'_4  and  C1_5 
ROOT
ATOM      1  C1  N4B d   1       0.255  -0.539   0.723  0.00  0.00    -0.075 A 
ATOM      2  C2  N4B d   1      -0.863   0.134   1.263  0.00  0.00     0.002 A 
ATOM      3  C3  N4B d   1      -0.887   0.465   2.596  0.00  0.00     0.002 A 
ATOM      4  C4  N4B d   1       0.182   0.117   3.408  0.00  0.00    -0.004 A 
ATOM      5  C5  N4B d   1       1.269  -0.510   2.874  0.00  0.00     0.002 A 
ATOM      6  C6  N4B d   1       1.309  -0.845   1.535  0.00  0.00     0.002 A 
ENDROOT
BRANCH   1   7
ATOM      7  C1' N4B d   1       0.290  -0.998  -0.709  0.00  0.00     0.057 C 
BRANCH   7   8
ATOM      8  C2' N4B d   1       0.335   0.222  -1.624  0.00  0.00     0.009 C 
BRANCH   8   9
ATOM      9  C3' N4B d   1       0.787  -0.138  -3.029  0.00  0.00     0.004 C 
ATOM     10  C4' N4B d   1       1.500   0.988  -3.716  0.00  0.00     0.003 C 
ENDBRANCH   8   9
ENDBRANCH   7   8
ENDBRANCH   1   7
TORSDOF 3
ENDMDL
