MODEL 1
REMARK minimizedAffinity -3.4991653
REMARK minimizedRMSD -1
REMARK  3 active torsions:
REMARK  status: ('A' for Active; 'I' for Inactive)
REMARK    1  A    between atoms: C3'_2  and  C2'_3 
REMARK    2  A    between atoms: C2'_3  and  C1'_4 
REMARK    3  A    between atoms: C1'_4  and  C1_5 
ROOT
ATOM      1  C1  N4B d   1       1.199   0.775   1.662  0.00  0.00    -0.075 A 
ATOM      2  C2  N4B d   1       0.545   0.663   2.908  0.00  0.00     0.002 A 
ATOM      3  C3  N4B d   1      -0.750   0.209   2.965  0.00  0.00     0.002 A 
ATOM      4  C4  N4B d   1      -1.415  -0.118   1.793  0.00  0.00    -0.004 A 
ATOM      5  C5  N4B d   1      -0.767  -0.031   0.595  0.00  0.00     0.002 A 
ATOM      6  C6  N4B d   1       0.536   0.420   0.523  0.00  0.00     0.002 A 
ENDROOT
BRANCH   1   7
ATOM      7  C1' N4B d   1       2.585   1.347   1.542  0.00  0.00     0.057 C 
BRANCH   7   8
ATOM      8  C2' N4B d   1       3.240   1.368   2.920  0.00  0.00     0.009 C 
BRANCH   8   9
ATOM      9  C3' N4B d   1       4.411   2.333   2.978  0.00  0.00     0.004 C 
ATOM     10  C4' N4B d   1       5.557   1.807   3.789  0.00  0.00     0.003 C 
ENDBRANCH   8   9
ENDBRANCH   7   8
ENDBRANCH   1   7
TORSDOF 3
ENDMDL
