MODEL 1
REMARK minimizedAffinity -0.568021238
REMARK minimizedRMSD -1
REMARK  3 active torsions:
REMARK  status: ('A' for Active; 'I' for Inactive)
REMARK    1  A    between atoms: C3'_2  and  C2'_3 
REMARK    2  A    between atoms: C2'_3  and  C1'_4 
REMARK    3  A    between atoms: C1'_4  and  C1_5 
ROOT
ATOM      1  C1  N4B d   1      -0.997   0.231   2.212  0.00  0.00    -0.075 A 
ATOM      2  C2  N4B d   1       0.045  -0.111   1.322  0.00  0.00     0.002 A 
ATOM      3  C3  N4B d   1      -0.250  -0.501   0.038  0.00  0.00     0.002 A 
ATOM      4  C4  N4B d   1      -1.573  -0.574  -0.370  0.00  0.00    -0.004 A 
ATOM      5  C5  N4B d   1      -2.572  -0.217   0.488  0.00  0.00     0.002 A 
ATOM      6  C6  N4B d   1      -2.290   0.180   1.780  0.00  0.00     0.002 A 
ENDROOT
BRANCH   1   7
ATOM      7  C1' N4B d   1      -0.729   0.580   3.651  0.00  0.00     0.057 C 
BRANCH   7   8
ATOM      8  C2' N4B d   1       0.609  -0.019   4.071  0.00  0.00     0.009 C 
BRANCH   8   9
ATOM      9  C3' N4B d   1       0.709  -1.493   3.715  0.00  0.00     0.004 C 
ATOM     10  C4' N4B d   1       0.211  -2.390   4.808  0.00  0.00     0.003 C 
ENDBRANCH   8   9
ENDBRANCH   7   8
ENDBRANCH   1   7
TORSDOF 3
ENDMDL
