MODEL 1
REMARK minimizedAffinity -1.29471123
REMARK minimizedRMSD -1
REMARK  0 active torsions:
REMARK  status: ('A' for Active; 'I' for Inactive)
ROOT
ATOM      1  C   UNL d   1      -0.229  -1.004   2.307  0.00  0.00     0.172 C 
ATOM      2  N   UNL d   1      -0.351  -0.389   1.005  0.00  0.00    -0.070 N 
ATOM      3  C1  UNL d   1       0.372   0.685   0.559  0.00  0.00    -0.004 A 
ATOM      4  C2  UNL d   1      -0.037   0.964  -0.727  0.00  0.00    -0.047 A 
ATOM      5  C3  UNL d   1      -1.041   0.025  -1.065  0.00  0.00    -0.047 A 
ATOM      6  C4  UNL d   1      -1.215  -0.801   0.025  0.00  0.00    -0.004 A 
ENDROOT
TORSDOF 0
ENDMDL
