MODEL 1
REMARK minimizedAffinity -2.99891067
REMARK minimizedRMSD -1
REMARK  0 active torsions:
REMARK  status: ('A' for Active; 'I' for Inactive)
ROOT
ATOM      1  C   UNL d   1       0.248  -0.615   2.679  0.00  0.00     0.172 C 
ATOM      2  N   UNL d   1      -0.201  -0.087   1.411  0.00  0.00    -0.070 N 
ATOM      3  C1  UNL d   1      -1.351   0.628   1.207  0.00  0.00    -0.004 A 
ATOM      4  C2  UNL d   1      -1.417   0.947  -0.132  0.00  0.00    -0.047 A 
ATOM      5  C3  UNL d   1      -0.267   0.404  -0.754  0.00  0.00    -0.047 A 
ATOM      6  C4  UNL d   1       0.468  -0.231   0.225  0.00  0.00    -0.004 A 
ENDROOT
TORSDOF 0
ENDMDL
