MODEL 1
REMARK minimizedAffinity -2.33675885
REMARK minimizedRMSD -1
REMARK  0 active torsions:
REMARK  status: ('A' for Active; 'I' for Inactive)
ROOT
ATOM      1  C   UNL d   1      -0.060  -0.264  -2.545  0.00  0.00     0.172 C 
ATOM      2  N   UNL d   1      -0.529   1.101  -2.540  0.00  0.00    -0.070 N 
ATOM      3  C1  UNL d   1       0.203   2.199  -2.906  0.00  0.00    -0.004 A 
ATOM      4  C2  UNL d   1      -0.599   3.310  -2.762  0.00  0.00    -0.047 A 
ATOM      5  C3  UNL d   1      -1.858   2.865  -2.292  0.00  0.00    -0.047 A 
ATOM      6  C4  UNL d   1      -1.787   1.494  -2.163  0.00  0.00    -0.004 A 
ENDROOT
TORSDOF 0
ENDMDL
