MODEL 1
REMARK minimizedAffinity -3.14507556
REMARK minimizedRMSD -1
REMARK  0 active torsions:
REMARK  status: ('A' for Active; 'I' for Inactive)
ROOT
ATOM      1  C   UNL d   1      -0.162   0.922  -0.932  0.00  0.00     0.172 C 
ATOM      2  N   UNL d   1       0.162   0.268   0.314  0.00  0.00    -0.070 N 
ATOM      3  C1  UNL d   1       1.005  -0.802   0.459  0.00  0.00    -0.004 A 
ATOM      4  C2  UNL d   1       1.048  -1.127   1.797  0.00  0.00    -0.047 A 
ATOM      5  C3  UNL d   1       0.201  -0.223   2.480  0.00  0.00    -0.047 A 
ATOM      6  C4  UNL d   1      -0.334   0.630   1.538  0.00  0.00    -0.004 A 
ENDROOT
TORSDOF 0
ENDMDL
