MODEL 1
REMARK minimizedAffinity -2.79341269
REMARK minimizedRMSD -1
REMARK  0 active torsions:
REMARK  status: ('A' for Active; 'I' for Inactive)
ROOT
ATOM      1  C   UNL d   1       1.594  -1.591  -0.703  0.00  0.00     0.172 C 
ATOM      2  N   UNL d   1       0.581  -1.131   0.217  0.00  0.00    -0.070 N 
ATOM      3  C1  UNL d   1       0.528  -1.418   1.555  0.00  0.00    -0.004 A 
ATOM      4  C2  UNL d   1      -0.585  -0.795   2.077  0.00  0.00    -0.047 A 
ATOM      5  C3  UNL d   1      -1.224  -0.110   1.015  0.00  0.00    -0.047 A 
ATOM      6  C4  UNL d   1      -0.481  -0.336  -0.124  0.00  0.00    -0.004 A 
ENDROOT
TORSDOF 0
ENDMDL
