MODEL 1
REMARK minimizedAffinity -2.96768808
REMARK minimizedRMSD -1
REMARK  0 active torsions:
REMARK  status: ('A' for Active; 'I' for Inactive)
ROOT
ATOM      1  C   UNL d   1      -0.020   2.309  -2.248  0.00  0.00     0.172 C 
ATOM      2  N   UNL d   1      -0.122   1.306  -1.213  0.00  0.00    -0.070 N 
ATOM      3  C1  UNL d   1      -0.665   0.058  -1.362  0.00  0.00    -0.004 A 
ATOM      4  C2  UNL d   1      -0.572  -0.589  -0.149  0.00  0.00    -0.047 A 
ATOM      5  C3  UNL d   1       0.047   0.301   0.761  0.00  0.00    -0.047 A 
ATOM      6  C4  UNL d   1       0.315   1.467   0.075  0.00  0.00    -0.004 A 
ENDROOT
TORSDOF 0
ENDMDL
