MODEL 1
REMARK minimizedAffinity -2.84939599
REMARK minimizedRMSD -1
REMARK  0 active torsions:
REMARK  status: ('A' for Active; 'I' for Inactive)
ROOT
ATOM      1  C   UNL d   1       0.997   0.770  -1.050  0.00  0.00     0.172 C 
ATOM      2  N   UNL d   1       0.318   1.933  -1.573  0.00  0.00    -0.070 N 
ATOM      3  C1  UNL d   1       0.723   3.231  -1.416  0.00  0.00    -0.004 A 
ATOM      4  C2  UNL d   1      -0.189   4.039  -2.060  0.00  0.00    -0.047 A 
ATOM      5  C3  UNL d   1      -1.176   3.197  -2.623  0.00  0.00    -0.047 A 
ATOM      6  C4  UNL d   1      -0.838   1.898  -2.307  0.00  0.00    -0.004 A 
ENDROOT
TORSDOF 0
ENDMDL
