MODEL 1
REMARK minimizedAffinity -2.78325701
REMARK minimizedRMSD -1
REMARK  0 active torsions:
REMARK  status: ('A' for Active; 'I' for Inactive)
ROOT
ATOM      1  C   UNL d   1       0.048  -0.232  -1.746  0.00  0.00     0.172 C 
ATOM      2  N   UNL d   1      -0.273   1.121  -2.138  0.00  0.00    -0.070 N 
ATOM      3  C1  UNL d   1      -1.532   1.654  -2.208  0.00  0.00    -0.004 A 
ATOM      4  C2  UNL d   1      -1.413   2.964  -2.619  0.00  0.00    -0.047 A 
ATOM      5  C3  UNL d   1      -0.035   3.227  -2.804  0.00  0.00    -0.047 A 
ATOM      6  C4  UNL d   1       0.649   2.068  -2.499  0.00  0.00    -0.004 A 
ENDROOT
TORSDOF 0
ENDMDL
