MODEL 1
REMARK minimizedAffinity 21.5711002
REMARK minimizedRMSD -1
REMARK  0 active torsions:
REMARK  status: ('A' for Active; 'I' for Inactive)
ROOT
ATOM      1  C   UNL d   1      -3.665   1.049  -3.106  0.00  0.00     0.124 A 
ATOM      2  C1  UNL d   1      -3.506   1.212  -1.736  0.00  0.00     0.062 A 
ATOM      3  C2  UNL d   1      -4.172   2.238  -1.072  0.00  0.00     0.162 A 
ATOM      4  C3  UNL d   1      -5.003   3.109  -1.776  0.00  0.00    -0.034 A 
ATOM      5  C4  UNL d   1      -5.157   2.939  -3.153  0.00  0.00     0.162 A 
ATOM      6  C5  UNL d   1      -4.490   1.912  -3.812  0.00  0.00     0.062 A 
ATOM      7  F   UNL d   1      -4.645   1.756  -5.135  0.00  0.00    -0.097 F 
ATOM      8  F1  UNL d   1      -5.949   3.759  -3.860  0.00  0.00    -0.096 F 
ATOM      9  I   UNL d   1      -6.000   4.645  -0.786  0.00  0.00    -0.060 I 
ATOM     10  F2  UNL d   1      -4.000   2.372   0.251  0.00  0.00    -0.096 F 
ATOM     11  F3  UNL d   1      -2.709   0.379  -1.051  0.00  0.00    -0.097 F 
ATOM     12  F4  UNL d   1      -3.023   0.061  -3.742  0.00  0.00    -0.092 F 
ENDROOT
TORSDOF 0
ENDMDL
