MODEL 1
REMARK minimizedAffinity 17.0955391
REMARK minimizedRMSD -1
REMARK  0 active torsions:
REMARK  status: ('A' for Active; 'I' for Inactive)
ROOT
ATOM      1  C   UNL d   1      -4.882   3.911  -3.161  0.00  0.00     0.124 A 
ATOM      2  C1  UNL d   1      -3.982   2.906  -3.489  0.00  0.00     0.062 A 
ATOM      3  C2  UNL d   1      -3.332   2.193  -2.486  0.00  0.00     0.162 A 
ATOM      4  C3  UNL d   1      -3.580   2.483  -1.144  0.00  0.00    -0.034 A 
ATOM      5  C4  UNL d   1      -4.484   3.496  -0.821  0.00  0.00     0.162 A 
ATOM      6  C5  UNL d   1      -5.132   4.205  -1.828  0.00  0.00     0.062 A 
ATOM      7  F   UNL d   1      -6.000   5.176  -1.509  0.00  0.00    -0.097 F 
ATOM      8  F1  UNL d   1      -4.746   3.799   0.459  0.00  0.00    -0.096 F 
ATOM      9  I   UNL d   1      -2.610   1.419   0.359  0.00  0.00    -0.060 I 
ATOM     10  F2  UNL d   1      -2.469   1.227  -2.832  0.00  0.00    -0.096 F 
ATOM     11  F3  UNL d   1      -3.738   2.621  -4.776  0.00  0.00    -0.097 F 
ATOM     12  F4  UNL d   1      -5.505   4.596  -4.128  0.00  0.00    -0.092 F 
ENDROOT
TORSDOF 0
ENDMDL
