MODEL 1
REMARK minimizedAffinity 28.4054947
REMARK minimizedRMSD -1
REMARK  0 active torsions:
REMARK  status: ('A' for Active; 'I' for Inactive)
ROOT
ATOM      1  C   UNL d   1       1.960  -1.665   1.573  0.00  0.00     0.124 A 
ATOM      2  C1  UNL d   1       1.080  -1.369   2.605  0.00  0.00     0.062 A 
ATOM      3  C2  UNL d   1       0.752  -0.046   2.887  0.00  0.00     0.162 A 
ATOM      4  C3  UNL d   1       1.302   0.991   2.134  0.00  0.00    -0.034 A 
ATOM      5  C4  UNL d   1       2.187   0.686   1.099  0.00  0.00     0.162 A 
ATOM      6  C5  UNL d   1       2.512  -0.638   0.821  0.00  0.00     0.062 A 
ATOM      7  F   UNL d   1       3.363  -0.923  -0.176  0.00  0.00    -0.097 F 
ATOM      8  F1  UNL d   1       2.735   1.658   0.355  0.00  0.00    -0.096 F 
ATOM      9  I   UNL d   1       0.814   2.971   2.552  0.00  0.00    -0.060 I 
ATOM     10  F2  UNL d   1      -0.101   0.211   3.890  0.00  0.00    -0.096 F 
ATOM     11  F3  UNL d   1       0.546  -2.359   3.334  0.00  0.00    -0.097 F 
ATOM     12  F4  UNL d   1       2.275  -2.939   1.305  0.00  0.00    -0.092 F 
ENDROOT
TORSDOF 0
ENDMDL
