MODEL 1
REMARK minimizedAffinity 7.02605581
REMARK minimizedRMSD -1
REMARK  0 active torsions:
REMARK  status: ('A' for Active; 'I' for Inactive)
ROOT
ATOM      1  C   UNL d   1       4.296   4.969  -2.883  0.00  0.00     0.124 A 
ATOM      2  C1  UNL d   1       3.433   3.901  -2.683  0.00  0.00     0.062 A 
ATOM      3  C2  UNL d   1       3.428   2.829  -3.571  0.00  0.00     0.162 A 
ATOM      4  C3  UNL d   1       4.291   2.819  -4.667  0.00  0.00    -0.034 A 
ATOM      5  C4  UNL d   1       5.155   3.897  -4.862  0.00  0.00     0.162 A 
ATOM      6  C5  UNL d   1       5.156   4.966  -3.972  0.00  0.00     0.062 A 
ATOM      7  F   UNL d   1       5.991   5.997  -4.167  0.00  0.00    -0.097 F 
ATOM      8  F1  UNL d   1       5.998   3.920  -5.906  0.00  0.00    -0.096 F 
ATOM      9  I   UNL d   1       4.286   1.218  -5.997  0.00  0.00    -0.060 I 
ATOM     10  F2  UNL d   1       2.583   1.810  -3.353  0.00  0.00    -0.096 F 
ATOM     11  F3  UNL d   1       2.600   3.901  -1.633  0.00  0.00    -0.097 F 
ATOM     12  F4  UNL d   1       4.298   5.999  -2.028  0.00  0.00    -0.092 F 
ENDROOT
TORSDOF 0
ENDMDL
