MODEL 1
REMARK minimizedAffinity 28.4160881
REMARK minimizedRMSD -1
REMARK  0 active torsions:
REMARK  status: ('A' for Active; 'I' for Inactive)
ROOT
ATOM      1  C   UNL d   1       0.783  -3.557   2.903  0.00  0.00     0.124 A 
ATOM      2  C1  UNL d   1       0.304  -2.719   3.901  0.00  0.00     0.062 A 
ATOM      3  C2  UNL d   1       0.274  -1.342   3.703  0.00  0.00     0.162 A 
ATOM      4  C3  UNL d   1       0.724  -0.793   2.502  0.00  0.00    -0.034 A 
ATOM      5  C4  UNL d   1       1.205  -1.643   1.504  0.00  0.00     0.162 A 
ATOM      6  C5  UNL d   1       1.233  -3.019   1.706  0.00  0.00     0.062 A 
ATOM      7  F   UNL d   1       1.696  -3.827   0.741  0.00  0.00    -0.097 F 
ATOM      8  F1  UNL d   1       1.645  -1.149   0.337  0.00  0.00    -0.096 F 
ATOM      9  I   UNL d   1       0.681   1.266   2.202  0.00  0.00    -0.060 I 
ATOM     10  F2  UNL d   1      -0.194  -0.556   4.684  0.00  0.00    -0.096 F 
ATOM     11  F3  UNL d   1      -0.130  -3.237   5.058  0.00  0.00    -0.097 F 
ATOM     12  F4  UNL d   1       0.811  -4.882   3.096  0.00  0.00    -0.092 F 
ENDROOT
TORSDOF 0
ENDMDL
