MODEL 1
REMARK minimizedAffinity 22.5433426
REMARK minimizedRMSD -1
REMARK  0 active torsions:
REMARK  status: ('A' for Active; 'I' for Inactive)
ROOT
ATOM      1  C   UNL d   1       0.405   4.968  -1.494  0.00  0.00     0.124 A 
ATOM      2  C1  UNL d   1      -0.555   4.481  -0.618  0.00  0.00     0.062 A 
ATOM      3  C2  UNL d   1      -0.202   3.564   0.369  0.00  0.00     0.162 A 
ATOM      4  C3  UNL d   1       1.119   3.129   0.485  0.00  0.00    -0.034 A 
ATOM      5  C4  UNL d   1       2.078   3.623  -0.400  0.00  0.00     0.162 A 
ATOM      6  C5  UNL d   1       1.720   4.538  -1.385  0.00  0.00     0.062 A 
ATOM      7  F   UNL d   1       2.649   5.008  -2.230  0.00  0.00    -0.097 F 
ATOM      8  F1  UNL d   1       3.357   3.226  -0.316  0.00  0.00    -0.096 F 
ATOM      9  I   UNL d   1       1.650   1.760   1.959  0.00  0.00    -0.060 I 
ATOM     10  F2  UNL d   1      -1.150   3.111   1.202  0.00  0.00    -0.096 F 
ATOM     11  F3  UNL d   1      -1.826   4.893  -0.722  0.00  0.00    -0.097 F 
ATOM     12  F4  UNL d   1       0.063   5.848  -2.443  0.00  0.00    -0.092 F 
ENDROOT
TORSDOF 0
ENDMDL
