MODEL 1
REMARK minimizedAffinity 19.2159348
REMARK minimizedRMSD -1
REMARK  0 active torsions:
REMARK  status: ('A' for Active; 'I' for Inactive)
ROOT
ATOM      1  C   UNL d   1       2.464   5.209  -3.906  0.00  0.00     0.124 A 
ATOM      2  C1  UNL d   1       3.756   5.497  -4.323  0.00  0.00     0.062 A 
ATOM      3  C2  UNL d   1       4.760   5.722  -3.386  0.00  0.00     0.162 A 
ATOM      4  C3  UNL d   1       4.477   5.660  -2.022  0.00  0.00    -0.034 A 
ATOM      5  C4  UNL d   1       3.175   5.370  -1.610  0.00  0.00     0.162 A 
ATOM      6  C5  UNL d   1       2.175   5.146  -2.550  0.00  0.00     0.062 A 
ATOM      7  F   UNL d   1       0.927   4.868  -2.145  0.00  0.00    -0.097 F 
ATOM      8  F1  UNL d   1       2.868   5.302  -0.306  0.00  0.00    -0.096 F 
ATOM      9  I   UNL d   1       5.976   5.996  -0.618  0.00  0.00    -0.060 I 
ATOM     10  F2  UNL d   1       6.000   5.999  -3.818  0.00  0.00    -0.096 F 
ATOM     11  F3  UNL d   1       4.038   5.559  -5.633  0.00  0.00    -0.097 F 
ATOM     12  F4  UNL d   1       1.500   4.993  -4.810  0.00  0.00    -0.092 F 
ENDROOT
TORSDOF 0
ENDMDL
