MODEL 1
REMARK minimizedAffinity 22.7044773
REMARK minimizedRMSD -1
REMARK  0 active torsions:
REMARK  status: ('A' for Active; 'I' for Inactive)
ROOT
ATOM      1  C   UNL d   1       0.825  -3.124   3.511  0.00  0.00     0.124 A 
ATOM      2  C1  UNL d   1       1.499  -2.676   2.383  0.00  0.00     0.062 A 
ATOM      3  C2  UNL d   1       1.588  -1.313   2.115  0.00  0.00     0.162 A 
ATOM      4  C3  UNL d   1       1.002  -0.387   2.978  0.00  0.00    -0.034 A 
ATOM      5  C4  UNL d   1       0.326  -0.844   4.111  0.00  0.00     0.162 A 
ATOM      6  C5  UNL d   1       0.240  -2.208   4.374  0.00  0.00     0.062 A 
ATOM      7  F   UNL d   1      -0.412  -2.638   5.464  0.00  0.00    -0.097 F 
ATOM      8  F1  UNL d   1      -0.249   0.019   4.961  0.00  0.00    -0.096 F 
ATOM      9  I   UNL d   1       1.133   1.652   2.582  0.00  0.00    -0.060 I 
ATOM     10  F2  UNL d   1       2.245  -0.910   1.018  0.00  0.00    -0.096 F 
ATOM     11  F3  UNL d   1       2.065  -3.559   1.548  0.00  0.00    -0.097 F 
ATOM     12  F4  UNL d   1       0.740  -4.436   3.766  0.00  0.00    -0.092 F 
ENDROOT
TORSDOF 0
ENDMDL
