MODEL 1
REMARK minimizedAffinity 4.93660259
REMARK minimizedRMSD -1
REMARK  0 active torsions:
REMARK  status: ('A' for Active; 'I' for Inactive)
ROOT
ATOM      1  C   UNL d   1       0.883  -1.312   4.113  0.00  0.00     0.124 A 
ATOM      2  C1  UNL d   1       1.011  -1.755   2.803  0.00  0.00     0.062 A 
ATOM      3  C2  UNL d   1       1.565  -0.924   1.834  0.00  0.00     0.162 A 
ATOM      4  C3  UNL d   1       1.997   0.359   2.171  0.00  0.00    -0.034 A 
ATOM      5  C4  UNL d   1       1.865   0.798   3.489  0.00  0.00     0.162 A 
ATOM      6  C5  UNL d   1       1.311  -0.037   4.454  0.00  0.00     0.062 A 
ATOM      7  F   UNL d   1       1.188   0.393   5.719  0.00  0.00    -0.097 F 
ATOM      8  F1  UNL d   1       2.271   2.025   3.847  0.00  0.00    -0.096 F 
ATOM      9  I   UNL d   1       2.827   1.605   0.724  0.00  0.00    -0.060 I 
ATOM     10  F2  UNL d   1       1.676  -1.378   0.577  0.00  0.00    -0.096 F 
ATOM     11  F3  UNL d   1       0.598  -2.986   2.470  0.00  0.00    -0.097 F 
ATOM     12  F4  UNL d   1       0.349  -2.113   5.043  0.00  0.00    -0.092 F 
ENDROOT
TORSDOF 0
ENDMDL
