MODEL 1
REMARK minimizedAffinity 19.540987
REMARK minimizedRMSD -1
REMARK  0 active torsions:
REMARK  status: ('A' for Active; 'I' for Inactive)
ROOT
ATOM      1  C   UNL d   1      -3.551   2.557  -0.665  0.00  0.00     0.124 A 
ATOM      2  C1  UNL d   1      -3.183   1.340  -1.222  0.00  0.00     0.062 A 
ATOM      3  C2  UNL d   1      -3.763   0.910  -2.412  0.00  0.00     0.162 A 
ATOM      4  C3  UNL d   1      -4.717   1.698  -3.054  0.00  0.00    -0.034 A 
ATOM      5  C4  UNL d   1      -5.084   2.920  -2.488  0.00  0.00     0.162 A 
ATOM      6  C5  UNL d   1      -4.501   3.345  -1.299  0.00  0.00     0.062 A 
ATOM      7  F   UNL d   1      -4.859   4.522  -0.763  0.00  0.00    -0.097 F 
ATOM      8  F1  UNL d   1      -5.998   3.703  -3.080  0.00  0.00    -0.096 F 
ATOM      9  I   UNL d   1      -5.587   1.059  -4.834  0.00  0.00    -0.060 I 
ATOM     10  F2  UNL d   1      -3.388  -0.271  -2.927  0.00  0.00    -0.096 F 
ATOM     11  F3  UNL d   1      -2.266   0.575  -0.611  0.00  0.00    -0.097 F 
ATOM     12  F4  UNL d   1      -2.992   2.967   0.480  0.00  0.00    -0.092 F 
ENDROOT
TORSDOF 0
ENDMDL
