MODEL 1
REMARK minimizedAffinity 29.835516
REMARK minimizedRMSD -1
REMARK  0 active torsions:
REMARK  status: ('A' for Active; 'I' for Inactive)
ROOT
ATOM      1  C   UNL d   1      -2.379   2.688   1.051  0.00  0.00     0.124 A 
ATOM      2  C1  UNL d   1      -3.699   2.587   1.468  0.00  0.00     0.062 A 
ATOM      3  C2  UNL d   1      -4.734   2.647   0.539  0.00  0.00     0.162 A 
ATOM      4  C3  UNL d   1      -4.453   2.809  -0.817  0.00  0.00    -0.034 A 
ATOM      5  C4  UNL d   1      -3.123   2.912  -1.230  0.00  0.00     0.162 A 
ATOM      6  C5  UNL d   1      -2.092   2.851  -0.297  0.00  0.00     0.062 A 
ATOM      7  F   UNL d   1      -0.818   2.950  -0.702  0.00  0.00    -0.097 F 
ATOM      8  F1  UNL d   1      -2.817   3.068  -2.526  0.00  0.00    -0.096 F 
ATOM      9  I   UNL d   1      -5.997   2.899  -2.210  0.00  0.00    -0.060 I 
ATOM     10  F2  UNL d   1      -6.000   2.545   0.971  0.00  0.00    -0.096 F 
ATOM     11  F3  UNL d   1      -3.979   2.430   2.770  0.00  0.00    -0.097 F 
ATOM     12  F4  UNL d   1      -1.386   2.631   1.947  0.00  0.00    -0.092 F 
ENDROOT
TORSDOF 0
ENDMDL
