MODEL 1
REMARK minimizedAffinity 8.91620445
REMARK minimizedRMSD -1
REMARK  0 active torsions:
REMARK  status: ('A' for Active; 'I' for Inactive)
ROOT
ATOM      1  C   UNL d   1      -1.539  -2.669  -5.994  0.00  0.00     0.020 A 
ATOM      2  C1  UNL d   1      -2.036  -1.367  -5.982  0.00  0.00     0.020 A 
ATOM      3  C2  UNL d   1      -3.414  -1.145  -5.974  0.00  0.00     0.034 A 
ATOM      4  C3  UNL d   1      -4.302  -2.227  -5.980  0.00  0.00     0.017 A 
ATOM      5  C4  UNL d   1      -3.802  -3.535  -5.992  0.00  0.00     0.017 A 
ATOM      6  C5  UNL d   1      -2.421  -3.751  -5.999  0.00  0.00     0.034 A 
ATOM      7 Cl   UNL d   1      -4.835  -4.921  -5.999  0.00  0.00    -0.070 Cl
ATOM      8 Cl1  UNL d   1      -5.994  -1.879  -5.969  0.00  0.00    -0.070 Cl
ENDROOT
TORSDOF 0
ENDMDL
