MODEL 1
REMARK minimizedAffinity 19.2749043
REMARK minimizedRMSD -1
REMARK  0 active torsions:
REMARK  status: ('A' for Active; 'I' for Inactive)
ROOT
ATOM      1  C   UNL d   1       1.910   2.336  -1.665  0.00  0.00     0.020 A 
ATOM      2  C1  UNL d   1       3.017   1.540  -1.956  0.00  0.00     0.020 A 
ATOM      3  C2  UNL d   1       4.017   2.018  -2.806  0.00  0.00     0.034 A 
ATOM      4  C3  UNL d   1       3.912   3.296  -3.368  0.00  0.00     0.017 A 
ATOM      5  C4  UNL d   1       2.800   4.094  -3.075  0.00  0.00     0.017 A 
ATOM      6  C5  UNL d   1       1.802   3.611  -2.223  0.00  0.00     0.034 A 
ATOM      7 Cl   UNL d   1       2.600   5.681  -3.730  0.00  0.00    -0.070 Cl
ATOM      8 Cl1  UNL d   1       5.185   3.822  -4.410  0.00  0.00    -0.070 Cl
ENDROOT
TORSDOF 0
ENDMDL
