MODEL 1
REMARK minimizedAffinity 11.3099165
REMARK minimizedRMSD -1
REMARK  0 active torsions:
REMARK  status: ('A' for Active; 'I' for Inactive)
ROOT
ATOM      1  C   UNL d   1      -4.275   0.759   3.453  0.00  0.00     0.020 A 
ATOM      2  C1  UNL d   1      -5.301   0.952   2.529  0.00  0.00     0.020 A 
ATOM      3  C2  UNL d   1      -5.014   0.981   1.162  0.00  0.00     0.034 A 
ATOM      4  C3  UNL d   1      -3.697   0.817   0.717  0.00  0.00     0.017 A 
ATOM      5  C4  UNL d   1      -2.668   0.623   1.645  0.00  0.00     0.017 A 
ATOM      6  C5  UNL d   1      -2.962   0.595   3.012  0.00  0.00     0.034 A 
ATOM      7 Cl   UNL d   1      -1.019   0.413   1.171  0.00  0.00    -0.070 Cl
ATOM      8 Cl1  UNL d   1      -3.414   0.864  -0.987  0.00  0.00    -0.070 Cl
ENDROOT
TORSDOF 0
ENDMDL
