MODEL 1
REMARK minimizedAffinity 1.59115124
REMARK minimizedRMSD -1
REMARK  0 active torsions:
REMARK  status: ('A' for Active; 'I' for Inactive)
ROOT
ATOM      1  C   UNL d   1      -2.988   0.955   1.386  0.00  0.00     0.020 A 
ATOM      2  C1  UNL d   1      -2.753   1.139   2.748  0.00  0.00     0.020 A 
ATOM      3  C2  UNL d   1      -1.468   0.959   3.266  0.00  0.00     0.034 A 
ATOM      4  C3  UNL d   1      -0.414   0.594   2.421  0.00  0.00     0.017 A 
ATOM      5  C4  UNL d   1      -0.651   0.409   1.054  0.00  0.00     0.017 A 
ATOM      6  C5  UNL d   1      -1.939   0.590   0.541  0.00  0.00     0.034 A 
ATOM      7 Cl   UNL d   1       0.600  -0.043  -0.050  0.00  0.00    -0.070 Cl
ATOM      8 Cl1  UNL d   1       1.149   0.388   3.130  0.00  0.00    -0.070 Cl
ENDROOT
TORSDOF 0
ENDMDL
