MODEL 1
REMARK minimizedAffinity 14.8930702
REMARK minimizedRMSD -1
REMARK  0 active torsions:
REMARK  status: ('A' for Active; 'I' for Inactive)
ROOT
ATOM      1  C   UNL d   1       5.999  -3.837   3.956  0.00  0.00     0.020 A 
ATOM      2  C1  UNL d   1       5.734  -3.566   2.614  0.00  0.00     0.020 A 
ATOM      3  C2  UNL d   1       5.470  -2.257   2.206  0.00  0.00     0.034 A 
ATOM      4  C3  UNL d   1       5.469  -1.214   3.140  0.00  0.00     0.017 A 
ATOM      5  C4  UNL d   1       5.736  -1.488   4.486  0.00  0.00     0.017 A 
ATOM      6  C5  UNL d   1       6.000  -2.800   4.890  0.00  0.00     0.034 A 
ATOM      7 Cl   UNL d   1       5.753  -0.254   5.697  0.00  0.00    -0.070 Cl
ATOM      8 Cl1  UNL d   1       5.135   0.380   2.564  0.00  0.00    -0.070 Cl
ENDROOT
TORSDOF 0
ENDMDL
