MODEL 1
REMARK minimizedAffinity 8.25724602
REMARK minimizedRMSD -1
REMARK  0 active torsions:
REMARK  status: ('A' for Active; 'I' for Inactive)
ROOT
ATOM      1  C   UNL d   1      -4.793   1.437   1.038  0.00  0.00     0.020 A 
ATOM      2  C1  UNL d   1      -5.649   0.608   1.764  0.00  0.00     0.020 A 
ATOM      3  C2  UNL d   1      -5.203   0.004   2.941  0.00  0.00     0.034 A 
ATOM      4  C3  UNL d   1      -3.898   0.228   3.396  0.00  0.00     0.017 A 
ATOM      5  C4  UNL d   1      -3.040   1.059   2.667  0.00  0.00     0.017 A 
ATOM      6  C5  UNL d   1      -3.492   1.661   1.489  0.00  0.00     0.034 A 
ATOM      7 Cl   UNL d   1      -1.417   1.382   3.165  0.00  0.00    -0.070 Cl
ATOM      8 Cl1  UNL d   1      -3.414  -0.551   4.860  0.00  0.00    -0.070 Cl
ENDROOT
TORSDOF 0
ENDMDL
