MODEL 1
REMARK minimizedAffinity 10.7905703
REMARK minimizedRMSD -1
REMARK  0 active torsions:
REMARK  status: ('A' for Active; 'I' for Inactive)
ROOT
ATOM      1  C   UNL d   1      -5.247   0.140   5.458  0.00  0.00     0.020 A 
ATOM      2  C1  UNL d   1      -5.088   0.715   4.198  0.00  0.00     0.020 A 
ATOM      3  C2  UNL d   1      -3.915   0.494   3.473  0.00  0.00     0.034 A 
ATOM      4  C3  UNL d   1      -2.897  -0.303   4.008  0.00  0.00     0.017 A 
ATOM      5  C4  UNL d   1      -3.058  -0.880   5.273  0.00  0.00     0.017 A 
ATOM      6  C5  UNL d   1      -4.234  -0.655   5.995  0.00  0.00     0.034 A 
ATOM      7 Cl   UNL d   1      -1.846  -1.876   5.999  0.00  0.00    -0.070 Cl
ATOM      8 Cl1  UNL d   1      -1.473  -0.534   3.056  0.00  0.00    -0.070 Cl
ENDROOT
TORSDOF 0
ENDMDL
