MODEL 1
REMARK minimizedAffinity 1.58328044
REMARK minimizedRMSD -1
REMARK  0 active torsions:
REMARK  status: ('A' for Active; 'I' for Inactive)
ROOT
ATOM      1  C   UNL d   1      -3.129  -3.449   0.353  0.00  0.00     0.020 A 
ATOM      2  C1  UNL d   1      -1.762  -3.571   0.596  0.00  0.00     0.020 A 
ATOM      3  C2  UNL d   1      -1.017  -2.451   0.970  0.00  0.00     0.034 A 
ATOM      4  C3  UNL d   1      -1.639  -1.204   1.101  0.00  0.00     0.017 A 
ATOM      5  C4  UNL d   1      -3.011  -1.082   0.856  0.00  0.00     0.017 A 
ATOM      6  C5  UNL d   1      -3.752  -2.208   0.483  0.00  0.00     0.034 A 
ATOM      7 Cl   UNL d   1      -3.849   0.423   0.998  0.00  0.00    -0.070 Cl
ATOM      8 Cl1  UNL d   1      -0.656   0.139   1.567  0.00  0.00    -0.070 Cl
ENDROOT
TORSDOF 0
ENDMDL
