MODEL 1
REMARK minimizedAffinity 0.81984669
REMARK minimizedRMSD -1
REMARK  0 active torsions:
REMARK  status: ('A' for Active; 'I' for Inactive)
ROOT
ATOM      1  C   UNL d   1      -1.624   0.582   1.402  0.00  0.00     0.020 A 
ATOM      2  C1  UNL d   1      -1.454   0.991   2.724  0.00  0.00     0.020 A 
ATOM      3  C2  UNL d   1      -2.547   1.462   3.455  0.00  0.00     0.034 A 
ATOM      4  C3  UNL d   1      -3.814   1.525   2.865  0.00  0.00     0.017 A 
ATOM      5  C4  UNL d   1      -3.984   1.115   1.538  0.00  0.00     0.017 A 
ATOM      6  C5  UNL d   1      -2.886   0.644   0.810  0.00  0.00     0.034 A 
ATOM      7 Cl   UNL d   1      -5.517   1.164   0.741  0.00  0.00    -0.070 Cl
ATOM      8 Cl1  UNL d   1      -5.121   2.118   3.828  0.00  0.00    -0.070 Cl
ENDROOT
TORSDOF 0
ENDMDL
