MODEL 1
REMARK minimizedAffinity 11.0996323
REMARK minimizedRMSD -1
REMARK  0 active torsions:
REMARK  status: ('A' for Active; 'I' for Inactive)
ROOT
ATOM      1  C   UNL d   1      -0.650   1.186   2.949  0.00  0.00     0.020 A 
ATOM      2  C1  UNL d   1      -0.565   0.586   1.694  0.00  0.00     0.020 A 
ATOM      3  C2  UNL d   1      -1.726   0.333   0.960  0.00  0.00     0.034 A 
ATOM      4  C3  UNL d   1      -2.977   0.680   1.482  0.00  0.00     0.017 A 
ATOM      5  C4  UNL d   1      -3.062   1.282   2.743  0.00  0.00     0.017 A 
ATOM      6  C5  UNL d   1      -1.896   1.533   3.473  0.00  0.00     0.034 A 
ATOM      7 Cl   UNL d   1      -4.570   1.738   3.452  0.00  0.00    -0.070 Cl
ATOM      8 Cl1  UNL d   1      -4.372   0.338   0.520  0.00  0.00    -0.070 Cl
ENDROOT
TORSDOF 0
ENDMDL
