MODEL 1
REMARK minimizedAffinity 3.88802958
REMARK minimizedRMSD -1
REMARK  0 active torsions:
REMARK  status: ('A' for Active; 'I' for Inactive)
ROOT
ATOM      1  C   UNL d   1      -2.419   0.979   2.337  0.00  0.00     0.020 A 
ATOM      2  C1  UNL d   1      -3.772   1.121   2.031  0.00  0.00     0.020 A 
ATOM      3  C2  UNL d   1      -4.414   0.165   1.241  0.00  0.00     0.034 A 
ATOM      4  C3  UNL d   1      -3.702  -0.938   0.753  0.00  0.00     0.017 A 
ATOM      5  C4  UNL d   1      -2.344  -1.079   1.061  0.00  0.00     0.017 A 
ATOM      6  C5  UNL d   1      -1.707  -0.119   1.853  0.00  0.00     0.034 A 
ATOM      7 Cl   UNL d   1      -1.400  -2.412   0.497  0.00  0.00    -0.070 Cl
ATOM      8 Cl1  UNL d   1      -4.559  -2.082  -0.218  0.00  0.00    -0.070 Cl
ENDROOT
TORSDOF 0
ENDMDL
