MODEL 1
REMARK minimizedAffinity 13.300209
REMARK minimizedRMSD -1
REMARK  0 active torsions:
REMARK  status: ('A' for Active; 'I' for Inactive)
ROOT
ATOM      1  C   UNL d   1       4.988  -0.653   3.164  0.00  0.00     0.020 A 
ATOM      2  C1  UNL d   1       5.479  -0.113   1.977  0.00  0.00     0.020 A 
ATOM      3  C2  UNL d   1       4.659   0.694   1.185  0.00  0.00     0.034 A 
ATOM      4  C3  UNL d   1       3.343   0.964   1.581  0.00  0.00     0.017 A 
ATOM      5  C4  UNL d   1       2.852   0.421   2.774  0.00  0.00     0.017 A 
ATOM      6  C5  UNL d   1       3.677  -0.387   3.562  0.00  0.00     0.034 A 
ATOM      7 Cl   UNL d   1       1.240   0.709   3.328  0.00  0.00    -0.070 Cl
ATOM      8 Cl1  UNL d   1       2.386   1.971   0.554  0.00  0.00    -0.070 Cl
ENDROOT
TORSDOF 0
ENDMDL
