MODEL 1
REMARK minimizedAffinity 9.50514603
REMARK minimizedRMSD -1
REMARK  0 active torsions:
REMARK  status: ('A' for Active; 'I' for Inactive)
ROOT
ATOM      1  C   UNL d   1      -1.561   0.161   1.136  0.00  0.00     0.020 A 
ATOM      2  C1  UNL d   1      -1.452  -0.107   2.500  0.00  0.00     0.020 A 
ATOM      3  C2  UNL d   1      -2.563   0.043   3.333  0.00  0.00     0.034 A 
ATOM      4  C3  UNL d   1      -3.788   0.463   2.802  0.00  0.00     0.017 A 
ATOM      5  C4  UNL d   1      -3.897   0.731   1.433  0.00  0.00     0.017 A 
ATOM      6  C5  UNL d   1      -2.782   0.579   0.604  0.00  0.00     0.034 A 
ATOM      7 Cl   UNL d   1      -5.376   1.253   0.706  0.00  0.00    -0.070 Cl
ATOM      8 Cl1  UNL d   1      -5.121   0.627   3.890  0.00  0.00    -0.070 Cl
ENDROOT
TORSDOF 0
ENDMDL
