MODEL 1
REMARK minimizedAffinity 9.29977036
REMARK minimizedRMSD -1
REMARK  0 active torsions:
REMARK  status: ('A' for Active; 'I' for Inactive)
ROOT
ATOM      1  C   UNL d   1      -3.961  -3.152  -0.015  0.00  0.00     0.020 A 
ATOM      2  C1  UNL d   1      -2.642  -3.331   0.401  0.00  0.00     0.020 A 
ATOM      3  C2  UNL d   1      -1.941  -2.269   0.976  0.00  0.00     0.034 A 
ATOM      4  C3  UNL d   1      -2.559  -1.024   1.138  0.00  0.00     0.017 A 
ATOM      5  C4  UNL d   1      -3.882  -0.845   0.720  0.00  0.00     0.017 A 
ATOM      6  C5  UNL d   1      -4.580  -1.911   0.145  0.00  0.00     0.034 A 
ATOM      7 Cl   UNL d   1      -4.711   0.663   0.887  0.00  0.00    -0.070 Cl
ATOM      8 Cl1  UNL d   1      -1.632   0.245   1.857  0.00  0.00    -0.070 Cl
ENDROOT
TORSDOF 0
ENDMDL
