MODEL 1
REMARK minimizedAffinity 5.76642609
REMARK minimizedRMSD -1
REMARK  0 active torsions:
REMARK  status: ('A' for Active; 'I' for Inactive)
ROOT
ATOM      1  C   UNL d   1      -1.224  -0.034   2.119  0.00  0.00     0.020 A 
ATOM      2  C1  UNL d   1      -1.610   1.298   2.268  0.00  0.00     0.020 A 
ATOM      3  C2  UNL d   1      -2.876   1.710   1.847  0.00  0.00     0.034 A 
ATOM      4  C3  UNL d   1      -3.761   0.790   1.274  0.00  0.00     0.017 A 
ATOM      5  C4  UNL d   1      -3.373  -0.547   1.124  0.00  0.00     0.017 A 
ATOM      6  C5  UNL d   1      -2.104  -0.954   1.548  0.00  0.00     0.034 A 
ATOM      7 Cl   UNL d   1      -4.410  -1.740   0.426  0.00  0.00    -0.070 Cl
ATOM      8 Cl1  UNL d   1      -5.310   1.369   0.775  0.00  0.00    -0.070 Cl
ENDROOT
TORSDOF 0
ENDMDL
