MODEL 1
REMARK minimizedAffinity 6.46934319
REMARK minimizedRMSD -1
REMARK  0 active torsions:
REMARK  status: ('A' for Active; 'I' for Inactive)
ROOT
ATOM      1  C   UNL d   1       0.554   2.630   3.720  0.00  0.00     0.020 A 
ATOM      2  C1  UNL d   1      -0.528   3.113   2.985  0.00  0.00     0.020 A 
ATOM      3  C2  UNL d   1      -1.402   2.221   2.361  0.00  0.00     0.034 A 
ATOM      4  C3  UNL d   1      -1.197   0.841   2.470  0.00  0.00     0.017 A 
ATOM      5  C4  UNL d   1      -0.111   0.357   3.208  0.00  0.00     0.017 A 
ATOM      6  C5  UNL d   1       0.762   1.255   3.831  0.00  0.00     0.034 A 
ATOM      7 Cl   UNL d   1       0.208  -1.332   3.388  0.00  0.00    -0.070 Cl
ATOM      8 Cl1  UNL d   1      -2.318  -0.204   1.672  0.00  0.00    -0.070 Cl
ENDROOT
TORSDOF 0
ENDMDL
