MODEL 1
REMARK minimizedAffinity -4.19865465
REMARK minimizedRMSD -1
REMARK  1 active torsions:
REMARK  status: ('A' for Active; 'I' for Inactive)
REMARK    1  A    between atoms: C1_2  and  C2_3 
ROOT
ATOM      1  C2  UNL d   1       0.717   0.669  -1.604  0.00  0.00    -0.073 A 
ATOM      2  C3  UNL d   1      -0.397   1.440  -1.255  0.00  0.00    -0.002 A 
ATOM      3  C4  UNL d   1      -1.348   0.942  -0.364  0.00  0.00     0.004 A 
ATOM      4  C5  UNL d   1      -1.193  -0.328   0.192  0.00  0.00    -0.004 A 
ATOM      5  C6  UNL d   1      -0.080  -1.109  -0.136  0.00  0.00    -0.075 A 
ATOM      6  C7  UNL d   1       0.101  -2.478   0.451  0.00  0.00     0.076 C 
ATOM      7  C8  UNL d   1       0.870  -0.603  -1.033  0.00  0.00     0.001 A 
ENDROOT
BRANCH   1   8
ATOM      8  C1  UNL d   1       1.750   1.205  -2.560  0.00  0.00     0.053 C 
ATOM      9  C   UNL d   1       2.853   0.195  -2.834  0.00  0.00     0.018 C 
ENDBRANCH   1   8
TORSDOF 1
ENDMDL
