MODEL 1
REMARK minimizedAffinity -5.15655375
REMARK minimizedRMSD -1
REMARK  1 active torsions:
REMARK  status: ('A' for Active; 'I' for Inactive)
REMARK    1  A    between atoms: C1_2  and  C2_3 
ROOT
ATOM      1  C2  UNL d   1       0.237  -0.497  -0.432  0.00  0.00    -0.073 A 
ATOM      2  C3  UNL d   1       1.186  -1.454  -0.811  0.00  0.00    -0.002 A 
ATOM      3  C4  UNL d   1       2.099  -1.176  -1.828  0.00  0.00     0.004 A 
ATOM      4  C5  UNL d   1       2.079   0.062  -2.471  0.00  0.00    -0.004 A 
ATOM      5  C6  UNL d   1       1.147   1.035  -2.099  0.00  0.00    -0.075 A 
ATOM      6  C7  UNL d   1       1.110   2.370  -2.782  0.00  0.00     0.076 C 
ATOM      7  C8  UNL d   1       0.230   0.747  -1.078  0.00  0.00     0.001 A 
ENDROOT
BRANCH   1   8
ATOM      8  C1  UNL d   1      -0.748  -0.790   0.670  0.00  0.00     0.053 C 
ATOM      9  C   UNL d   1      -1.463   0.465   1.144  0.00  0.00     0.018 C 
ENDBRANCH   1   8
TORSDOF 1
ENDMDL
