MODEL 1
REMARK minimizedAffinity 0.0883402675
REMARK minimizedRMSD -1
REMARK  1 active torsions:
REMARK  status: ('A' for Active; 'I' for Inactive)
REMARK    1  A    between atoms: C1_2  and  C2_3 
ROOT
ATOM      1  C2  UNL d   1       1.565  -0.324  -1.980  0.00  0.00    -0.073 A 
ATOM      2  C3  UNL d   1       1.821  -1.674  -1.713  0.00  0.00    -0.002 A 
ATOM      3  C4  UNL d   1       1.197  -2.310  -0.639  0.00  0.00     0.004 A 
ATOM      4  C5  UNL d   1       0.307  -1.607   0.173  0.00  0.00    -0.004 A 
ATOM      5  C6  UNL d   1       0.029  -0.261  -0.086  0.00  0.00    -0.075 A 
ATOM      6  C7  UNL d   1      -0.925   0.510   0.779  0.00  0.00     0.076 C 
ATOM      7  C8  UNL d   1       0.662   0.372  -1.164  0.00  0.00     0.001 A 
ENDROOT
BRANCH   1   8
ATOM      8  C1  UNL d   1       2.232   0.365  -3.142  0.00  0.00     0.053 C 
ATOM      9  C   UNL d   1       1.485   1.620  -3.565  0.00  0.00     0.018 C 
ENDBRANCH   1   8
TORSDOF 1
ENDMDL
