MODEL 1
REMARK minimizedAffinity -3.30768895
REMARK minimizedRMSD -1
REMARK  1 active torsions:
REMARK  status: ('A' for Active; 'I' for Inactive)
REMARK    1  A    between atoms: C1_2  and  C2_3 
ROOT
ATOM      1  C2  UNL d   1      -1.038   0.191   0.558  0.00  0.00    -0.073 A 
ATOM      2  C3  UNL d   1      -2.169   0.964   0.271  0.00  0.00    -0.002 A 
ATOM      3  C4  UNL d   1      -2.836   1.644   1.291  0.00  0.00     0.004 A 
ATOM      4  C5  UNL d   1      -2.376   1.564   2.605  0.00  0.00    -0.004 A 
ATOM      5  C6  UNL d   1      -1.241   0.807   2.910  0.00  0.00    -0.075 A 
ATOM      6  C7  UNL d   1      -0.734   0.709   4.320  0.00  0.00     0.076 C 
ATOM      7  C8  UNL d   1      -0.578   0.124   1.881  0.00  0.00     0.001 A 
ENDROOT
BRANCH   1   8
ATOM      8  C1  UNL d   1      -0.311  -0.540  -0.541  0.00  0.00     0.053 C 
ATOM      9  C   UNL d   1       0.608  -1.621   0.005  0.00  0.00     0.018 C 
ENDBRANCH   1   8
TORSDOF 1
ENDMDL
