MODEL 1
REMARK minimizedAffinity -2.80171967
REMARK minimizedRMSD -1
REMARK  1 active torsions:
REMARK  status: ('A' for Active; 'I' for Inactive)
REMARK    1  A    between atoms: C1_2  and  C2_3 
ROOT
ATOM      1  C2  UNL d   1       0.190   1.090  -1.039  0.00  0.00    -0.073 A 
ATOM      2  C3  UNL d   1       0.509   2.025  -2.031  0.00  0.00    -0.002 A 
ATOM      3  C4  UNL d   1       1.357   1.676  -3.083  0.00  0.00     0.004 A 
ATOM      4  C5  UNL d   1       1.888   0.389  -3.158  0.00  0.00    -0.004 A 
ATOM      5  C6  UNL d   1       1.572  -0.563  -2.184  0.00  0.00    -0.075 A 
ATOM      6  C7  UNL d   1       2.138  -1.952  -2.250  0.00  0.00     0.076 C 
ATOM      7  C8  UNL d   1       0.722  -0.204  -1.129  0.00  0.00     0.001 A 
ENDROOT
BRANCH   1   8
ATOM      8  C1  UNL d   1      -0.730   1.461   0.095  0.00  0.00     0.053 C 
ATOM      9  C   UNL d   1      -1.663   0.319   0.468  0.00  0.00     0.018 C 
ENDBRANCH   1   8
TORSDOF 1
ENDMDL
