MODEL 1
REMARK minimizedAffinity -3.79739451
REMARK minimizedRMSD -1
REMARK  1 active torsions:
REMARK  status: ('A' for Active; 'I' for Inactive)
REMARK    1  A    between atoms: C1_2  and  C2_3 
ROOT
ATOM      1  C2  UNL d   1       0.454   0.336  -1.288  0.00  0.00    -0.073 A 
ATOM      2  C3  UNL d   1       0.991  -0.952  -1.391  0.00  0.00    -0.002 A 
ATOM      3  C4  UNL d   1       0.639  -1.938  -0.467  0.00  0.00     0.004 A 
ATOM      4  C5  UNL d   1      -0.256  -1.648   0.562  0.00  0.00    -0.004 A 
ATOM      5  C6  UNL d   1      -0.812  -0.370   0.675  0.00  0.00    -0.075 A 
ATOM      6  C7  UNL d   1      -1.775  -0.042   1.778  0.00  0.00     0.076 C 
ATOM      7  C8  UNL d   1      -0.452   0.615  -0.255  0.00  0.00     0.001 A 
ENDROOT
BRANCH   1   8
ATOM      8  C1  UNL d   1       0.825   1.402  -2.286  0.00  0.00     0.053 C 
ATOM      9  C   UNL d   1       1.710   0.859  -3.397  0.00  0.00     0.018 C 
ENDBRANCH   1   8
TORSDOF 1
ENDMDL
