MODEL 1
REMARK minimizedAffinity -2.16116834
REMARK minimizedRMSD -1
REMARK  0 active torsions:
REMARK  status: ('A' for Active; 'I' for Inactive)
ROOT
ATOM      1  C   UNL d   1      -1.403   1.689   1.601  0.00  0.00    -0.002 A 
ATOM      2  C1  UNL d   1      -1.881   2.223   0.413  0.00  0.00     0.010 A 
ATOM      3  C2  UNL d   1      -1.380   1.786  -0.815  0.00  0.00     0.041 A 
ATOM      4  C3  UNL d   1      -0.382   0.792  -0.828  0.00  0.00    -0.075 A 
ATOM      5  S   UNL d   1       0.380   0.102  -2.213  0.00  0.00     0.015 SA
ATOM      6  C4  UNL d   1       1.357  -0.918  -1.260  0.00  0.00     0.022 A 
ATOM      7  C5  UNL d   1       1.122  -0.749   0.084  0.00  0.00     0.026 A 
ATOM      8  C6  UNL d   1       0.115   0.239   0.355  0.00  0.00    -0.082 A 
ATOM      9  C7  UNL d   1      -0.412   0.704   1.584  0.00  0.00     0.045 A 
ENDROOT
TORSDOF 0
ENDMDL
