MODEL 1
REMARK minimizedAffinity -0.294472814
REMARK minimizedRMSD -1
REMARK  0 active torsions:
REMARK  status: ('A' for Active; 'I' for Inactive)
ROOT
ATOM      1  C   UNL d   1      -1.923   2.627   1.180  0.00  0.00    -0.002 A 
ATOM      2  C1  UNL d   1      -0.643   3.020   1.543  0.00  0.00     0.010 A 
ATOM      3  C2  UNL d   1       0.465   2.249   1.185  0.00  0.00     0.041 A 
ATOM      4  C3  UNL d   1       0.262   1.067   0.447  0.00  0.00    -0.075 A 
ATOM      5  S   UNL d   1       1.469  -0.035  -0.104  0.00  0.00     0.015 SA
ATOM      6  C4  UNL d   1       0.314  -1.052  -0.835  0.00  0.00     0.022 A 
ATOM      7  C5  UNL d   1      -0.967  -0.578  -0.673  0.00  0.00     0.026 A 
ATOM      8  C6  UNL d   1      -1.017   0.651   0.068  0.00  0.00    -0.082 A 
ATOM      9  C7  UNL d   1      -2.120   1.454   0.447  0.00  0.00     0.045 A 
ENDROOT
TORSDOF 0
ENDMDL
