MODEL 1
REMARK minimizedAffinity -3.96030092
REMARK minimizedRMSD -1
REMARK  0 active torsions:
REMARK  status: ('A' for Active; 'I' for Inactive)
ROOT
ATOM      1  C   UNL d   1      -0.743   2.260   2.235  0.00  0.00    -0.002 A 
ATOM      2  C1  UNL d   1      -1.242   2.849   1.081  0.00  0.00     0.010 A 
ATOM      3  C2  UNL d   1      -1.090   2.224  -0.158  0.00  0.00     0.041 A 
ATOM      4  C3  UNL d   1      -0.423   0.984  -0.219  0.00  0.00    -0.075 A 
ATOM      5  S   UNL d   1      -0.121   0.034  -1.626  0.00  0.00     0.015 SA
ATOM      6  C4  UNL d   1       0.677  -1.176  -0.728  0.00  0.00     0.022 A 
ATOM      7  C5  UNL d   1       0.721  -0.878   0.613  0.00  0.00     0.026 A 
ATOM      8  C6  UNL d   1       0.087   0.371   0.929  0.00  0.00    -0.082 A 
ATOM      9  C7  UNL d   1      -0.082   1.031   2.170  0.00  0.00     0.045 A 
ENDROOT
TORSDOF 0
ENDMDL
