MODEL 1
REMARK minimizedAffinity -4.82631111
REMARK minimizedRMSD -1
REMARK  0 active torsions:
REMARK  status: ('A' for Active; 'I' for Inactive)
ROOT
ATOM      1  C   UNL d   1      -1.143   2.590   1.648  0.00  0.00    -0.002 A 
ATOM      2  C1  UNL d   1      -1.573   2.912   0.369  0.00  0.00     0.010 A 
ATOM      3  C2  UNL d   1      -1.176   2.145  -0.728  0.00  0.00     0.041 A 
ATOM      4  C3  UNL d   1      -0.332   1.037  -0.515  0.00  0.00    -0.075 A 
ATOM      5  S   UNL d   1       0.282  -0.046  -1.708  0.00  0.00     0.015 SA
ATOM      6  C4  UNL d   1       1.128  -0.963  -0.547  0.00  0.00     0.022 A 
ATOM      7  C5  UNL d   1       0.958  -0.469   0.724  0.00  0.00     0.026 A 
ATOM      8  C6  UNL d   1       0.113   0.692   0.764  0.00  0.00    -0.082 A 
ATOM      9  C7  UNL d   1      -0.306   1.490   1.855  0.00  0.00     0.045 A 
ENDROOT
TORSDOF 0
ENDMDL
