MODEL 1
REMARK minimizedAffinity 9.81245232
REMARK minimizedRMSD -1
REMARK  0 active torsions:
REMARK  status: ('A' for Active; 'I' for Inactive)
ROOT
ATOM      1  C   UNL d   1      -5.252  -0.015   4.266  0.00  0.00     0.023 A 
ATOM      2  C1  UNL d   1      -4.502   0.910   3.539  0.00  0.00     0.003 A 
ATOM      3  C2  UNL d   1      -4.313   2.201   4.035  0.00  0.00     0.048 A 
ATOM      4  C3  UNL d   1      -4.876   2.561   5.259  0.00  0.00     0.023 A 
ATOM      5  C4  UNL d   1      -5.626   1.639   5.991  0.00  0.00     0.048 A 
ATOM      6  C5  UNL d   1      -5.813   0.349   5.490  0.00  0.00     0.003 A 
ATOM      7  I   UNL d   1      -4.596   4.483   6.000  0.00  0.00    -0.146 I 
ENDROOT
TORSDOF 0
ENDMDL
