MODEL 1
REMARK minimizedAffinity 10.3981991
REMARK minimizedRMSD -1
REMARK  0 active torsions:
REMARK  status: ('A' for Active; 'I' for Inactive)
ROOT
ATOM      1  C   UNL d   1       2.087   1.157   1.617  0.00  0.00     0.023 A 
ATOM      2  C1  UNL d   1       1.842   2.308   0.868  0.00  0.00     0.003 A 
ATOM      3  C2  UNL d   1       2.286   2.390  -0.453  0.00  0.00     0.048 A 
ATOM      4  C3  UNL d   1       2.974   1.318  -1.019  0.00  0.00     0.023 A 
ATOM      5  C4  UNL d   1       3.221   0.164  -0.274  0.00  0.00     0.048 A 
ATOM      6  C5  UNL d   1       2.776   0.087   1.047  0.00  0.00     0.003 A 
ATOM      7  I   UNL d   1       3.637   1.438  -2.986  0.00  0.00    -0.146 I 
ENDROOT
TORSDOF 0
ENDMDL
