MODEL 1
REMARK minimizedAffinity 16.2685661
REMARK minimizedRMSD -1
REMARK  0 active torsions:
REMARK  status: ('A' for Active; 'I' for Inactive)
ROOT
ATOM      1  C   UNL d   1      -5.497  -0.363   4.184  0.00  0.00     0.023 A 
ATOM      2  C1  UNL d   1      -5.948  -0.081   5.474  0.00  0.00     0.003 A 
ATOM      3  C2  UNL d   1      -5.814   1.207   5.995  0.00  0.00     0.048 A 
ATOM      4  C3  UNL d   1      -5.230   2.209   5.221  0.00  0.00     0.023 A 
ATOM      5  C4  UNL d   1      -4.780   1.932   3.929  0.00  0.00     0.048 A 
ATOM      6  C5  UNL d   1      -4.914   0.642   3.413  0.00  0.00     0.003 A 
ATOM      7  I   UNL d   1      -5.031   4.128   5.994  0.00  0.00    -0.146 I 
ENDROOT
TORSDOF 0
ENDMDL
