MODEL 1
REMARK minimizedAffinity 0.484962583
REMARK minimizedRMSD -1
REMARK  0 active torsions:
REMARK  status: ('A' for Active; 'I' for Inactive)
ROOT
ATOM      1  C   UNL d   1       4.062   2.141  -3.735  0.00  0.00     0.023 A 
ATOM      2  C1  UNL d   1       3.241   3.023  -4.437  0.00  0.00     0.003 A 
ATOM      3  C2  UNL d   1       3.795   4.128  -5.087  0.00  0.00     0.048 A 
ATOM      4  C3  UNL d   1       5.171   4.344  -5.032  0.00  0.00     0.023 A 
ATOM      5  C4  UNL d   1       5.997   3.463  -4.331  0.00  0.00     0.048 A 
ATOM      6  C5  UNL d   1       5.438   2.361  -3.682  0.00  0.00     0.003 A 
ATOM      7  I   UNL d   1       5.999   5.987  -5.998  0.00  0.00    -0.146 I 
ENDROOT
TORSDOF 0
ENDMDL
