MODEL 1
REMARK minimizedAffinity 15.8467531
REMARK minimizedRMSD -1
REMARK  0 active torsions:
REMARK  status: ('A' for Active; 'I' for Inactive)
ROOT
ATOM      1  C   UNL d   1       0.417   2.903   2.266  0.00  0.00     0.023 A 
ATOM      2  C1  UNL d   1       0.498   1.707   2.979  0.00  0.00     0.003 A 
ATOM      3  C2  UNL d   1       1.553   0.823   2.744  0.00  0.00     0.048 A 
ATOM      4  C3  UNL d   1       2.524   1.142   1.797  0.00  0.00     0.023 A 
ATOM      5  C4  UNL d   1       2.448   2.338   1.082  0.00  0.00     0.048 A 
ATOM      6  C5  UNL d   1       1.391   3.218   1.319  0.00  0.00     0.003 A 
ATOM      7  I   UNL d   1       4.096  -0.172   1.446  0.00  0.00    -0.146 I 
ENDROOT
TORSDOF 0
ENDMDL
