MODEL 1
REMARK minimizedAffinity 11.5728073
REMARK minimizedRMSD -1
REMARK  0 active torsions:
REMARK  status: ('A' for Active; 'I' for Inactive)
ROOT
ATOM      1  C   UNL d   1       2.070   5.496  -4.890  0.00  0.00     0.023 A 
ATOM      2  C1  UNL d   1       2.782   5.029  -5.996  0.00  0.00     0.003 A 
ATOM      3  C2  UNL d   1       3.316   3.739  -5.990  0.00  0.00     0.048 A 
ATOM      4  C3  UNL d   1       3.134   2.920  -4.876  0.00  0.00     0.023 A 
ATOM      5  C4  UNL d   1       2.422   3.383  -3.768  0.00  0.00     0.048 A 
ATOM      6  C5  UNL d   1       1.891   4.674  -3.778  0.00  0.00     0.003 A 
ATOM      7  I   UNL d   1       3.928   1.000  -4.865  0.00  0.00    -0.146 I 
ENDROOT
TORSDOF 0
ENDMDL
