MODEL 1
REMARK minimizedAffinity 11.8863745
REMARK minimizedRMSD -1
REMARK  0 active torsions:
REMARK  status: ('A' for Active; 'I' for Inactive)
ROOT
ATOM      1  C   UNL d   1      -3.110  -5.204  -2.012  0.00  0.00     0.023 A 
ATOM      2  C1  UNL d   1      -2.632  -4.043  -2.619  0.00  0.00     0.003 A 
ATOM      3  C2  UNL d   1      -3.460  -3.306  -3.468  0.00  0.00     0.048 A 
ATOM      4  C3  UNL d   1      -4.765  -3.737  -3.706  0.00  0.00     0.023 A 
ATOM      5  C4  UNL d   1      -5.247  -4.898  -3.100  0.00  0.00     0.048 A 
ATOM      6  C5  UNL d   1      -4.415  -5.632  -2.252  0.00  0.00     0.003 A 
ATOM      7  I   UNL d   1      -6.000  -2.643  -4.970  0.00  0.00    -0.146 I 
ENDROOT
TORSDOF 0
ENDMDL
