MODEL 1
REMARK minimizedAffinity 14.4317999
REMARK minimizedRMSD -1
REMARK  0 active torsions:
REMARK  status: ('A' for Active; 'I' for Inactive)
ROOT
ATOM      1  C   UNL d   1       3.492   1.401  -3.953  0.00  0.00     0.023 A 
ATOM      2  C1  UNL d   1       4.082   1.014  -2.750  0.00  0.00     0.003 A 
ATOM      3  C2  UNL d   1       3.697   1.622  -1.554  0.00  0.00     0.048 A 
ATOM      4  C3  UNL d   1       2.720   2.617  -1.567  0.00  0.00     0.023 A 
ATOM      5  C4  UNL d   1       2.125   3.007  -2.768  0.00  0.00     0.048 A 
ATOM      6  C5  UNL d   1       2.514   2.397  -3.962  0.00  0.00     0.003 A 
ATOM      7  I   UNL d   1       2.145   3.524   0.212  0.00  0.00    -0.146 I 
ENDROOT
TORSDOF 0
ENDMDL
