MODEL 1
REMARK minimizedAffinity 17.6693363
REMARK minimizedRMSD -1
REMARK  0 active torsions:
REMARK  status: ('A' for Active; 'I' for Inactive)
ROOT
ATOM      1  C   UNL d   1       2.174   3.667  -3.524  0.00  0.00     0.023 A 
ATOM      2  C1  UNL d   1       2.225   3.398  -4.891  0.00  0.00     0.003 A 
ATOM      3  C2  UNL d   1       2.973   2.318  -5.364  0.00  0.00     0.048 A 
ATOM      4  C3  UNL d   1       3.666   1.510  -4.464  0.00  0.00     0.023 A 
ATOM      5  C4  UNL d   1       3.616   1.775  -3.094  0.00  0.00     0.048 A 
ATOM      6  C5  UNL d   1       2.868   2.856  -2.626  0.00  0.00     0.003 A 
ATOM      7  I   UNL d   1       4.779  -0.099  -5.165  0.00  0.00    -0.146 I 
ENDROOT
TORSDOF 0
ENDMDL
