MODEL 1
REMARK minimizedAffinity 14.060132
REMARK minimizedRMSD -1
REMARK  0 active torsions:
REMARK  status: ('A' for Active; 'I' for Inactive)
ROOT
ATOM      1  C   UNL d   1      -2.239  -2.578  -3.747  0.00  0.00     0.023 A 
ATOM      2  C1  UNL d   1      -1.360  -1.707  -3.103  0.00  0.00     0.003 A 
ATOM      3  C2  UNL d   1      -1.275  -1.703  -1.709  0.00  0.00     0.048 A 
ATOM      4  C3  UNL d   1      -2.071  -2.574  -0.965  0.00  0.00     0.023 A 
ATOM      5  C4  UNL d   1      -2.952  -3.448  -1.605  0.00  0.00     0.048 A 
ATOM      6  C5  UNL d   1      -3.034  -3.447  -2.999  0.00  0.00     0.003 A 
ATOM      7  I   UNL d   1      -1.946  -2.570   1.109  0.00  0.00    -0.146 I 
ENDROOT
TORSDOF 0
ENDMDL
