MODEL 1
REMARK minimizedAffinity 21.1143017
REMARK minimizedRMSD -1
REMARK  0 active torsions:
REMARK  status: ('A' for Active; 'I' for Inactive)
ROOT
ATOM      1  C   UNL d   1      -1.562  -3.913   2.336  0.00  0.00     0.023 A 
ATOM      2  C1  UNL d   1      -2.425  -4.862   1.788  0.00  0.00     0.003 A 
ATOM      3  C2  UNL d   1      -2.833  -4.751   0.457  0.00  0.00     0.048 A 
ATOM      4  C3  UNL d   1      -2.372  -3.690  -0.321  0.00  0.00     0.023 A 
ATOM      5  C4  UNL d   1      -1.507  -2.739   0.222  0.00  0.00     0.048 A 
ATOM      6  C5  UNL d   1      -1.103  -2.853   1.554  0.00  0.00     0.003 A 
ATOM      7  I   UNL d   1      -2.976  -3.524  -2.303  0.00  0.00    -0.146 I 
ENDROOT
TORSDOF 0
ENDMDL
