MODEL 1
REMARK minimizedAffinity 6.82127714
REMARK minimizedRMSD -1
REMARK  0 active torsions:
REMARK  status: ('A' for Active; 'I' for Inactive)
ROOT
ATOM      1  C   UNL d   1      -1.104  -2.560   0.050  0.00  0.00     0.023 A 
ATOM      2  C1  UNL d   1       0.118  -3.060  -0.403  0.00  0.00     0.003 A 
ATOM      3  C2  UNL d   1       0.357  -3.187  -1.773  0.00  0.00     0.048 A 
ATOM      4  C3  UNL d   1      -0.629  -2.812  -2.684  0.00  0.00     0.023 A 
ATOM      5  C4  UNL d   1      -1.852  -2.310  -2.236  0.00  0.00     0.048 A 
ATOM      6  C5  UNL d   1      -2.087  -2.186  -0.866  0.00  0.00     0.003 A 
ATOM      7  I   UNL d   1      -0.276  -3.000  -4.724  0.00  0.00    -0.146 I 
ENDROOT
TORSDOF 0
ENDMDL
