MODEL 1
REMARK minimizedAffinity 4.60367918
REMARK minimizedRMSD -1
REMARK  0 active torsions:
REMARK  status: ('A' for Active; 'I' for Inactive)
ROOT
ATOM      1  C   UNL d   1       5.999   1.669   0.373  0.00  0.00     0.023 A 
ATOM      2  C1  UNL d   1       5.845   0.343   0.777  0.00  0.00     0.003 A 
ATOM      3  C2  UNL d   1       4.672  -0.062   1.416  0.00  0.00     0.048 A 
ATOM      4  C3  UNL d   1       3.656   0.864   1.648  0.00  0.00     0.023 A 
ATOM      5  C4  UNL d   1       3.805   2.193   1.245  0.00  0.00     0.048 A 
ATOM      6  C5  UNL d   1       4.981   2.593   0.607  0.00  0.00     0.003 A 
ATOM      7  I   UNL d   1       1.908   0.264   2.599  0.00  0.00    -0.146 I 
ENDROOT
TORSDOF 0
ENDMDL
