MODEL 1
REMARK minimizedAffinity 7.02836752
REMARK minimizedRMSD -1
REMARK  0 active torsions:
REMARK  status: ('A' for Active; 'I' for Inactive)
ROOT
ATOM      1  C   UNL d   1      -1.798  -1.167   0.827  0.00  0.00     0.023 A 
ATOM      2  C1  UNL d   1      -0.775  -1.663   1.635  0.00  0.00     0.003 A 
ATOM      3  C2  UNL d   1      -0.610  -3.041   1.789  0.00  0.00     0.048 A 
ATOM      4  C3  UNL d   1      -1.472  -3.918   1.131  0.00  0.00     0.023 A 
ATOM      5  C4  UNL d   1      -2.497  -3.426   0.321  0.00  0.00     0.048 A 
ATOM      6  C5  UNL d   1      -2.658  -2.048   0.171  0.00  0.00     0.003 A 
ATOM      7  I   UNL d   1      -1.230  -5.969   1.359  0.00  0.00    -0.146 I 
ENDROOT
TORSDOF 0
ENDMDL
