MODEL 1
REMARK minimizedAffinity 16.9385662
REMARK minimizedRMSD -1
REMARK  0 active torsions:
REMARK  status: ('A' for Active; 'I' for Inactive)
ROOT
ATOM      1  C   UNL d   1      -2.272   5.802  -0.834  0.00  0.00     0.023 A 
ATOM      2  C1  UNL d   1      -3.655   5.763  -1.009  0.00  0.00     0.003 A 
ATOM      3  C2  UNL d   1      -4.200   5.820  -2.293  0.00  0.00     0.048 A 
ATOM      4  C3  UNL d   1      -3.355   5.915  -3.399  0.00  0.00     0.023 A 
ATOM      5  C4  UNL d   1      -1.971   5.953  -3.229  0.00  0.00     0.048 A 
ATOM      6  C5  UNL d   1      -1.430   5.897  -1.943  0.00  0.00     0.003 A 
ATOM      7  I   UNL d   1      -4.164   6.000  -5.312  0.00  0.00    -0.146 I 
ENDROOT
TORSDOF 0
ENDMDL
