MODEL 1
REMARK minimizedAffinity 4.41028118
REMARK minimizedRMSD -1
REMARK  0 active torsions:
REMARK  status: ('A' for Active; 'I' for Inactive)
ROOT
ATOM      1  C   UNL d   1       3.865   0.967  -5.983  0.00  0.00     0.023 A 
ATOM      2  C1  UNL d   1       5.114   1.589  -5.978  0.00  0.00     0.003 A 
ATOM      3  C2  UNL d   1       5.201   2.983  -5.983  0.00  0.00     0.048 A 
ATOM      4  C3  UNL d   1       4.036   3.749  -5.992  0.00  0.00     0.023 A 
ATOM      5  C4  UNL d   1       2.784   3.131  -5.996  0.00  0.00     0.048 A 
ATOM      6  C5  UNL d   1       2.702   1.737  -5.992  0.00  0.00     0.003 A 
ATOM      7  I   UNL d   1       4.164   5.823  -5.999  0.00  0.00    -0.146 I 
ENDROOT
TORSDOF 0
ENDMDL
