MODEL 1
REMARK minimizedAffinity -5.64871693
REMARK minimizedRMSD -1
REMARK  0 active torsions:
REMARK  status: ('A' for Active; 'I' for Inactive)
ROOT
ATOM      1  C1  DEN d   1      -0.403   3.395  -3.097  0.00  0.00     0.130 A 
ATOM      2  C2  DEN d   1      -1.331   4.450  -3.496  0.00  0.00    -0.031 A 
ATOM      3  C3  DEN d   1      -2.212   4.741  -2.347  0.00  0.00     0.027 A 
ATOM      4  C4  DEN d   1      -2.226   3.670  -0.000  0.00  0.00     0.027 A 
ATOM      5  C5  DEN d   1      -1.632   2.724   0.805  0.00  0.00    -0.003 A 
ATOM      6  C6  DEN d   1      -0.618   1.918   0.359  0.00  0.00     0.001 A 
ATOM      7  C7  DEN d   1      -0.136   2.075  -0.913  0.00  0.00     0.017 A 
ATOM      8  C8  DEN d   1      -0.735   3.022  -1.734  0.00  0.00    -0.094 A 
ATOM      9  C9  DEN d   1      -1.751   3.835  -1.261  0.00  0.00    -0.072 A 
ENDROOT
TORSDOF 0
ENDMDL
