MODEL 1
REMARK minimizedAffinity -2.52689505
REMARK minimizedRMSD -1
REMARK  0 active torsions:
REMARK  status: ('A' for Active; 'I' for Inactive)
ROOT
ATOM      1  C1  DEN d   1      -3.636   2.917  -1.574  0.00  0.00     0.130 A 
ATOM      2  C2  DEN d   1      -4.409   3.773  -2.469  0.00  0.00    -0.031 A 
ATOM      3  C3  DEN d   1      -3.566   4.090  -3.639  0.00  0.00     0.027 A 
ATOM      4  C4  DEN d   1      -1.152   3.339  -4.151  0.00  0.00     0.027 A 
ATOM      5  C5  DEN d   1      -0.079   2.614  -3.682  0.00  0.00    -0.003 A 
ATOM      6  C6  DEN d   1      -0.103   1.974  -2.471  0.00  0.00     0.001 A 
ATOM      7  C7  DEN d   1      -1.240   2.007  -1.709  0.00  0.00     0.017 A 
ATOM      8  C8  DEN d   1      -2.324   2.742  -2.172  0.00  0.00    -0.094 A 
ATOM      9  C9  DEN d   1      -2.284   3.372  -3.403  0.00  0.00    -0.072 A 
ENDROOT
TORSDOF 0
ENDMDL
