MODEL 1
REMARK minimizedAffinity -6.4248004
REMARK minimizedRMSD -1
REMARK  0 active torsions:
REMARK  status: ('A' for Active; 'I' for Inactive)
ROOT
ATOM      1  C1  DEN d   1      -4.295   1.707  -2.098  0.00  0.00     0.130 A 
ATOM      2  C2  DEN d   1      -4.993   2.859  -2.662  0.00  0.00    -0.031 A 
ATOM      3  C3  DEN d   1      -3.978   3.834  -3.108  0.00  0.00     0.027 A 
ATOM      4  C4  DEN d   1      -1.407   3.671  -2.986  0.00  0.00     0.027 A 
ATOM      5  C5  DEN d   1      -0.350   2.887  -2.579  0.00  0.00    -0.003 A 
ATOM      6  C6  DEN d   1      -0.533   1.680  -1.958  0.00  0.00     0.001 A 
ATOM      7  C7  DEN d   1      -1.801   1.201  -1.766  0.00  0.00     0.017 A 
ATOM      8  C8  DEN d   1      -2.872   1.989  -2.167  0.00  0.00    -0.094 A 
ATOM      9  C9  DEN d   1      -2.667   3.201  -2.804  0.00  0.00    -0.072 A 
ENDROOT
TORSDOF 0
ENDMDL
