MODEL 1
REMARK minimizedAffinity 0.02772847
REMARK minimizedRMSD -1
REMARK  0 active torsions:
REMARK  status: ('A' for Active; 'I' for Inactive)
ROOT
ATOM      1  C1  DEN d   1      -3.380   4.526  -2.885  0.00  0.00     0.130 A 
ATOM      2  C2  DEN d   1      -4.389   3.510  -2.598  0.00  0.00    -0.031 A 
ATOM      3  C3  DEN d   1      -3.689   2.251  -2.271  0.00  0.00     0.027 A 
ATOM      4  C4  DEN d   1      -1.155   1.781  -2.177  0.00  0.00     0.027 A 
ATOM      5  C5  DEN d   1       0.096   2.330  -2.353  0.00  0.00    -0.003 A 
ATOM      6  C6  DEN d   1       0.274   3.629  -2.749  0.00  0.00     0.001 A 
ATOM      7  C7  DEN d   1      -0.816   4.436  -2.938  0.00  0.00     0.017 A 
ATOM      8  C8  DEN d   1      -2.081   3.888  -2.769  0.00  0.00    -0.094 A 
ATOM      9  C9  DEN d   1      -2.240   2.576  -2.356  0.00  0.00    -0.072 A 
ENDROOT
TORSDOF 0
ENDMDL
