MODEL 1
REMARK minimizedAffinity 2.0136745
REMARK minimizedRMSD -1
REMARK  0 active torsions:
REMARK  status: ('A' for Active; 'I' for Inactive)
ROOT
ATOM      1  C1  DEN d   1       2.759  -0.605  -0.231  0.00  0.00     0.130 A 
ATOM      2  C2  DEN d   1       2.006  -0.653  -1.481  0.00  0.00    -0.031 A 
ATOM      3  C3  DEN d   1       0.571  -0.746  -1.146  0.00  0.00     0.027 A 
ATOM      4  C4  DEN d   1      -0.552  -0.814   1.175  0.00  0.00     0.027 A 
ATOM      5  C5  DEN d   1      -0.324  -0.811   2.533  0.00  0.00    -0.003 A 
ATOM      6  C6  DEN d   1       0.940  -0.773   3.061  0.00  0.00     0.001 A 
ATOM      7  C7  DEN d   1       2.022  -0.692   2.225  0.00  0.00     0.017 A 
ATOM      8  C8  DEN d   1       1.800  -0.702   0.855  0.00  0.00    -0.094 A 
ATOM      9  C9  DEN d   1       0.515  -0.728   0.341  0.00  0.00    -0.072 A 
ENDROOT
TORSDOF 0
ENDMDL
