MODEL 1
REMARK minimizedAffinity -4.72326469
REMARK minimizedRMSD -1
REMARK  0 active torsions:
REMARK  status: ('A' for Active; 'I' for Inactive)
ROOT
ATOM      1  C1  DEN d   1      -1.239  -0.945  -0.432  0.00  0.00     0.130 A 
ATOM      2  C2  DEN d   1      -1.279   0.131  -1.418  0.00  0.00    -0.031 A 
ATOM      3  C3  DEN d   1      -0.490   1.262  -0.892  0.00  0.00     0.027 A 
ATOM      4  C4  DEN d   1       0.789   1.449   1.340  0.00  0.00     0.027 A 
ATOM      5  C5  DEN d   1       1.105   0.796   2.511  0.00  0.00    -0.003 A 
ATOM      6  C6  DEN d   1       0.638  -0.459   2.796  0.00  0.00     0.001 A 
ATOM      7  C7  DEN d   1      -0.135  -1.120   1.878  0.00  0.00     0.017 A 
ATOM      8  C8  DEN d   1      -0.464  -0.465   0.698  0.00  0.00    -0.094 A 
ATOM      9  C9  DEN d   1       0.029   0.799   0.424  0.00  0.00    -0.072 A 
ENDROOT
TORSDOF 0
ENDMDL
