MODEL 1
REMARK minimizedAffinity -3.37312889
REMARK minimizedRMSD -1
REMARK  0 active torsions:
REMARK  status: ('A' for Active; 'I' for Inactive)
ROOT
ATOM      1  C1  DEN d   1       1.047  -1.594  -1.420  0.00  0.00     0.130 A 
ATOM      2  C2  DEN d   1       2.504  -1.575  -1.324  0.00  0.00    -0.031 A 
ATOM      3  C3  DEN d   1       2.866  -1.046   0.006  0.00  0.00     0.027 A 
ATOM      4  C4  DEN d   1       1.321  -0.263   1.917  0.00  0.00     0.027 A 
ATOM      5  C5  DEN d   1       0.010  -0.081   2.298  0.00  0.00    -0.003 A 
ATOM      6  C6  DEN d   1      -1.038  -0.356   1.460  0.00  0.00     0.001 A 
ATOM      7  C7  DEN d   1      -0.794  -0.872   0.214  0.00  0.00     0.017 A 
ATOM      8  C8  DEN d   1       0.525  -1.051  -0.179  0.00  0.00    -0.094 A 
ATOM      9  C9  DEN d   1       1.571  -0.778   0.687  0.00  0.00    -0.072 A 
ENDROOT
TORSDOF 0
ENDMDL
