MODEL 1
REMARK minimizedAffinity -3.65808225
REMARK minimizedRMSD -1
REMARK  0 active torsions:
REMARK  status: ('A' for Active; 'I' for Inactive)
ROOT
ATOM      1  C1  DEN d   1       0.743  -0.826  -1.585  0.00  0.00     0.130 A 
ATOM      2  C2  DEN d   1       2.165  -1.097  -1.396  0.00  0.00    -0.031 A 
ATOM      3  C3  DEN d   1       2.449  -1.052   0.053  0.00  0.00     0.027 A 
ATOM      4  C4  DEN d   1       0.832  -0.597   2.010  0.00  0.00     0.027 A 
ATOM      5  C5  DEN d   1      -0.471  -0.302   2.344  0.00  0.00    -0.003 A 
ATOM      6  C6  DEN d   1      -1.446  -0.129   1.398  0.00  0.00     0.001 A 
ATOM      7  C7  DEN d   1      -1.142  -0.295   0.072  0.00  0.00     0.017 A 
ATOM      8  C8  DEN d   1       0.171  -0.584  -0.273  0.00  0.00    -0.094 A 
ATOM      9  C9  DEN d   1       1.140  -0.767   0.699  0.00  0.00    -0.072 A 
ENDROOT
TORSDOF 0
ENDMDL
