MODEL 1
REMARK minimizedAffinity 7.43229961
REMARK minimizedRMSD -1
REMARK  0 active torsions:
REMARK  status: ('A' for Active; 'I' for Inactive)
ROOT
ATOM      1  C1  DEN d   1      -2.885   2.027  -2.583  0.00  0.00     0.130 A 
ATOM      2  C2  DEN d   1      -3.746   2.933  -1.827  0.00  0.00    -0.031 A 
ATOM      3  C3  DEN d   1      -3.120   4.271  -1.836  0.00  0.00     0.027 A 
ATOM      4  C4  DEN d   1      -0.917   5.024  -2.945  0.00  0.00     0.027 A 
ATOM      5  C5  DEN d   1       0.166   4.608  -3.687  0.00  0.00    -0.003 A 
ATOM      6  C6  DEN d   1       0.324   3.305  -4.081  0.00  0.00     0.001 A 
ATOM      7  C7  DEN d   1      -0.640   2.382  -3.773  0.00  0.00     0.017 A 
ATOM      8  C8  DEN d   1      -1.731   2.793  -3.019  0.00  0.00    -0.094 A 
ATOM      9  C9  DEN d   1      -1.878   4.116  -2.640  0.00  0.00    -0.072 A 
ENDROOT
TORSDOF 0
ENDMDL
