MODEL 1
REMARK minimizedAffinity -4.32158661
REMARK minimizedRMSD -1
REMARK  0 active torsions:
REMARK  status: ('A' for Active; 'I' for Inactive)
ROOT
ATOM      1  C1  DEN d   1       2.276  -1.093  -0.502  0.00  0.00     0.130 A 
ATOM      2  C2  DEN d   1       1.810  -1.080  -1.886  0.00  0.00    -0.031 A 
ATOM      3  C3  DEN d   1       0.335  -1.015  -1.870  0.00  0.00     0.027 A 
ATOM      4  C4  DEN d   1      -1.264  -0.931   0.152  0.00  0.00     0.027 A 
ATOM      5  C5  DEN d   1      -1.336  -0.932   1.527  0.00  0.00    -0.003 A 
ATOM      6  C6  DEN d   1      -0.220  -1.020   2.316  0.00  0.00     0.001 A 
ATOM      7  C7  DEN d   1       1.020  -1.066   1.735  0.00  0.00     0.017 A 
ATOM      8  C8  DEN d   1       1.100  -1.073   0.349  0.00  0.00    -0.094 A 
ATOM      9  C9  DEN d   1      -0.039  -0.970  -0.431  0.00  0.00    -0.072 A 
ENDROOT
TORSDOF 0
ENDMDL
