MODEL 1
REMARK minimizedAffinity -4.89708805
REMARK minimizedRMSD -1
REMARK  0 active torsions:
REMARK  status: ('A' for Active; 'I' for Inactive)
ROOT
ATOM      1  C4' PXY d   1       0.770   3.093   0.255  0.00  0.00     0.077 C 
ATOM      2  C1' PXY d   1      -0.995  -2.410   0.140  0.00  0.00     0.077 C 
ATOM      3  C1  PXY d   1      -0.545  -0.963   0.168  0.00  0.00    -0.082 A 
ATOM      4  C2  PXY d   1       0.710  -0.663  -0.126  0.00  0.00     0.003 A 
ATOM      5  C3  PXY d   1       1.143   0.637  -0.074  0.00  0.00     0.003 A 
ATOM      6  C4  PXY d   1       0.269   1.646   0.230  0.00  0.00    -0.082 A 
ATOM      7  C5  PXY d   1      -1.016   1.349   0.521  0.00  0.00     0.003 A 
ATOM      8  C6  PXY d   1      -1.425   0.019   0.503  0.00  0.00     0.003 A 
ENDROOT
TORSDOF 0
ENDMDL
