MODEL 1
REMARK minimizedAffinity -4.44753599
REMARK minimizedRMSD -1
REMARK  0 active torsions:
REMARK  status: ('A' for Active; 'I' for Inactive)
ROOT
ATOM      1  C4' PXY d   1      -0.261  -2.148   0.313  0.00  0.00     0.077 C 
ATOM      2  C1' PXY d   1       0.360   3.564  -0.320  0.00  0.00     0.077 C 
ATOM      3  C1  PXY d   1       0.187   2.068  -0.145  0.00  0.00    -0.082 A 
ATOM      4  C2  PXY d   1       1.207   1.260  -0.383  0.00  0.00     0.003 A 
ATOM      5  C3  PXY d   1       1.059  -0.098  -0.261  0.00  0.00     0.003 A 
ATOM      6  C4  PXY d   1      -0.130  -0.630   0.159  0.00  0.00    -0.082 A 
ATOM      7  C5  PXY d   1      -1.173   0.188   0.414  0.00  0.00     0.003 A 
ATOM      8  C6  PXY d   1      -1.014   1.561   0.244  0.00  0.00     0.003 A 
ENDROOT
TORSDOF 0
ENDMDL
