MODEL 1
REMARK minimizedAffinity -4.14914227
REMARK minimizedRMSD -1
REMARK  0 active torsions:
REMARK  status: ('A' for Active; 'I' for Inactive)
ROOT
ATOM      1  C4' PXY d   1      -0.372  -1.860  -0.371  0.00  0.00     0.077 C 
ATOM      2  C1' PXY d   1       0.303   3.864   0.075  0.00  0.00     0.077 C 
ATOM      3  C1  PXY d   1       0.116   2.363  -0.033  0.00  0.00    -0.082 A 
ATOM      4  C2  PXY d   1       1.135   1.602  -0.397  0.00  0.00     0.003 A 
ATOM      5  C3  PXY d   1       0.975   0.247  -0.531  0.00  0.00     0.003 A 
ATOM      6  C4  PXY d   1      -0.226  -0.341  -0.239  0.00  0.00    -0.082 A 
ATOM      7  C5  PXY d   1      -1.268   0.428   0.143  0.00  0.00     0.003 A 
ATOM      8  C6  PXY d   1      -1.096   1.806   0.234  0.00  0.00     0.003 A 
ENDROOT
TORSDOF 0
ENDMDL
