MODEL 1
REMARK minimizedAffinity -4.9701128
REMARK minimizedRMSD -1
REMARK  0 active torsions:
REMARK  status: ('A' for Active; 'I' for Inactive)
ROOT
ATOM      1  C4' PXY d   1       0.167  -1.770   0.050  0.00  0.00     0.077 C 
ATOM      2  C1' PXY d   1       0.852   3.963   0.341  0.00  0.00     0.077 C 
ATOM      3  C1  PXY d   1       0.685   2.458   0.260  0.00  0.00    -0.082 A 
ATOM      4  C2  PXY d   1      -0.526   1.941   0.127  0.00  0.00     0.003 A 
ATOM      5  C3  PXY d   1      -0.698   0.581   0.085  0.00  0.00     0.003 A 
ATOM      6  C4  PXY d   1       0.385  -0.256   0.126  0.00  0.00    -0.082 A 
ATOM      7  C5  PXY d   1       1.624   0.264   0.251  0.00  0.00     0.003 A 
ATOM      8  C6  PXY d   1       1.774   1.646   0.333  0.00  0.00     0.003 A 
ENDROOT
TORSDOF 0
ENDMDL
