MODEL 1
REMARK minimizedAffinity -4.83293486
REMARK minimizedRMSD -1
REMARK  0 active torsions:
REMARK  status: ('A' for Active; 'I' for Inactive)
ROOT
ATOM      1  C4' PXY d   1      -0.365  -2.087  -0.740  0.00  0.00     0.077 C 
ATOM      2  C1' PXY d   1       0.278   3.580   0.200  0.00  0.00     0.077 C 
ATOM      3  C1  PXY d   1       0.100   2.093  -0.037  0.00  0.00    -0.082 A 
ATOM      4  C2  PXY d   1       1.096   1.389  -0.550  0.00  0.00     0.003 A 
ATOM      5  C3  PXY d   1       0.941   0.050  -0.801  0.00  0.00     0.003 A 
ATOM      6  C4  PXY d   1      -0.227  -0.586  -0.474  0.00  0.00    -0.082 A 
ATOM      7  C5  PXY d   1      -1.244   0.124   0.059  0.00  0.00     0.003 A 
ATOM      8  C6  PXY d   1      -1.081   1.490   0.268  0.00  0.00     0.003 A 
ENDROOT
TORSDOF 0
ENDMDL
