MODEL 1
REMARK minimizedAffinity -3.78574276
REMARK minimizedRMSD -1
REMARK  0 active torsions:
REMARK  status: ('A' for Active; 'I' for Inactive)
ROOT
ATOM      1  C4' PXY d   1      -0.885  -2.185   0.371  0.00  0.00     0.077 C 
ATOM      2  C1' PXY d   1       0.255   3.460  -0.133  0.00  0.00     0.077 C 
ATOM      3  C1  PXY d   1      -0.032   1.977  -0.006  0.00  0.00    -0.082 A 
ATOM      4  C2  PXY d   1      -1.285   1.554   0.034  0.00  0.00     0.003 A 
ATOM      5  C3  PXY d   1      -1.563   0.220   0.181  0.00  0.00     0.003 A 
ATOM      6  C4  PXY d   1      -0.548  -0.697   0.234  0.00  0.00    -0.082 A 
ATOM      7  C5  PXY d   1       0.734  -0.275   0.183  0.00  0.00     0.003 A 
ATOM      8  C6  PXY d   1       0.995   1.088   0.075  0.00  0.00     0.003 A 
ENDROOT
TORSDOF 0
ENDMDL
