MODEL 1
REMARK minimizedAffinity -3.56061244
REMARK minimizedRMSD -1
REMARK  0 active torsions:
REMARK  status: ('A' for Active; 'I' for Inactive)
ROOT
ATOM      1  C4' PXY d   1       0.281   3.360   0.093  0.00  0.00     0.077 C 
ATOM      2  C1' PXY d   1      -0.061  -2.403  -0.206  0.00  0.00     0.077 C 
ATOM      3  C1  PXY d   1       0.016  -0.891  -0.130  0.00  0.00    -0.082 A 
ATOM      4  C2  PXY d   1       1.170  -0.283  -0.351  0.00  0.00     0.003 A 
ATOM      5  C3  PXY d   1       1.265   1.082  -0.255  0.00  0.00     0.003 A 
ATOM      6  C4  PXY d   1       0.155   1.836   0.017  0.00  0.00    -0.082 A 
ATOM      7  C5  PXY d   1      -1.029   1.224   0.234  0.00  0.00     0.003 A 
ATOM      8  C6  PXY d   1      -1.095  -0.165   0.172  0.00  0.00     0.003 A 
ENDROOT
TORSDOF 0
ENDMDL
