MODEL 1
REMARK minimizedAffinity -3.8060503
REMARK minimizedRMSD -1
REMARK  0 active torsions:
REMARK  status: ('A' for Active; 'I' for Inactive)
ROOT
ATOM      1  C4' PXY d   1      -0.389  -2.511  -0.184  0.00  0.00     0.077 C 
ATOM      2  C1' PXY d   1      -0.048   3.236   0.343  0.00  0.00     0.077 C 
ATOM      3  C1  PXY d   1      -0.147   1.729   0.214  0.00  0.00    -0.082 A 
ATOM      4  C2  PXY d   1       0.903   1.037  -0.199  0.00  0.00     0.003 A 
ATOM      5  C3  PXY d   1       0.821  -0.323  -0.353  0.00  0.00     0.003 A 
ATOM      6  C4  PXY d   1      -0.332  -0.988  -0.029  0.00  0.00    -0.082 A 
ATOM      7  C5  PXY d   1      -1.404  -0.291   0.403  0.00  0.00     0.003 A 
ATOM      8  C6  PXY d   1      -1.313   1.093   0.512  0.00  0.00     0.003 A 
ENDROOT
TORSDOF 0
ENDMDL
