MODEL 1
REMARK minimizedAffinity -1.65591562
REMARK minimizedRMSD -1
REMARK  0 active torsions:
REMARK  status: ('A' for Active; 'I' for Inactive)
ROOT
ATOM      1  C4' PXY d   1      -2.827  -0.011   1.463  0.00  0.00     0.077 C 
ATOM      2  C1' PXY d   1       2.003   1.739  -1.188  0.00  0.00     0.077 C 
ATOM      3  C1  PXY d   1       0.737   1.268  -0.499  0.00  0.00    -0.082 A 
ATOM      4  C2  PXY d   1      -0.152   2.157  -0.086  0.00  0.00     0.003 A 
ATOM      5  C3  PXY d   1      -1.287   1.751   0.568  0.00  0.00     0.003 A 
ATOM      6  C4  PXY d   1      -1.540   0.418   0.753  0.00  0.00    -0.082 A 
ATOM      7  C5  PXY d   1      -0.643  -0.495   0.326  0.00  0.00     0.003 A 
ATOM      8  C6  PXY d   1       0.523  -0.060  -0.299  0.00  0.00     0.003 A 
ENDROOT
TORSDOF 0
ENDMDL
