MODEL 1
REMARK minimizedAffinity -2.77300096
REMARK minimizedRMSD -1
REMARK  0 active torsions:
REMARK  status: ('A' for Active; 'I' for Inactive)
ROOT
ATOM      1  C4' PXY d   1      -0.321  -2.189  -0.749  0.00  0.00     0.077 C 
ATOM      2  C1' PXY d   1       0.199   3.456   0.385  0.00  0.00     0.077 C 
ATOM      3  C1  PXY d   1       0.054   1.974   0.097  0.00  0.00    -0.082 A 
ATOM      4  C2  PXY d   1       1.040   1.324  -0.500  0.00  0.00     0.003 A 
ATOM      5  C3  PXY d   1       0.912  -0.008  -0.797  0.00  0.00     0.003 A 
ATOM      6  C4  PXY d   1      -0.214  -0.695  -0.431  0.00  0.00    -0.082 A 
ATOM      7  C5  PXY d   1      -1.220  -0.041   0.189  0.00  0.00     0.003 A 
ATOM      8  C6  PXY d   1      -1.088   1.320   0.444  0.00  0.00     0.003 A 
ENDROOT
TORSDOF 0
ENDMDL
