MODEL 1
REMARK minimizedAffinity -5.55062056
REMARK minimizedRMSD -1
REMARK  0 active torsions:
REMARK  status: ('A' for Active; 'I' for Inactive)
ROOT
ATOM      1  C4' PXY d   1       0.413   3.801  -0.019  0.00  0.00     0.077 C 
ATOM      2  C1' PXY d   1       0.136  -1.970  -0.205  0.00  0.00     0.077 C 
ATOM      3  C1  PXY d   1       0.222  -0.457  -0.154  0.00  0.00    -0.082 A 
ATOM      4  C2  PXY d   1      -0.866   0.251   0.106  0.00  0.00     0.003 A 
ATOM      5  C3  PXY d   1      -0.813   1.621   0.125  0.00  0.00     0.003 A 
ATOM      6  C4  PXY d   1       0.375   2.271  -0.072  0.00  0.00    -0.082 A 
ATOM      7  C5  PXY d   1       1.491   1.556  -0.327  0.00  0.00     0.003 A 
ATOM      8  C6  PXY d   1       1.409   0.167  -0.383  0.00  0.00     0.003 A 
ENDROOT
TORSDOF 0
ENDMDL
