MODEL 1
REMARK minimizedAffinity -5.13400888
REMARK minimizedRMSD -1
REMARK  0 active torsions:
REMARK  status: ('A' for Active; 'I' for Inactive)
ROOT
ATOM      1  C4' PXY d   1       0.592   4.136   0.008  0.00  0.00     0.077 C 
ATOM      2  C1' PXY d   1      -0.074  -1.602   0.211  0.00  0.00     0.077 C 
ATOM      3  C1  PXY d   1       0.088  -0.096   0.153  0.00  0.00    -0.082 A 
ATOM      4  C2  PXY d   1       1.297   0.427   0.025  0.00  0.00     0.003 A 
ATOM      5  C3  PXY d   1       1.465   1.788   0.003  0.00  0.00     0.003 A 
ATOM      6  C4  PXY d   1       0.379   2.621   0.061  0.00  0.00    -0.082 A 
ATOM      7  C5  PXY d   1      -0.858   2.094   0.182  0.00  0.00     0.003 A 
ATOM      8  C6  PXY d   1      -1.003   0.711   0.243  0.00  0.00     0.003 A 
ENDROOT
TORSDOF 0
ENDMDL
