MODEL 1
REMARK minimizedAffinity -3.6235311
REMARK minimizedRMSD -1
REMARK  0 active torsions:
REMARK  status: ('A' for Active; 'I' for Inactive)
ROOT
ATOM      1  C4' PXY d   1      -0.015   3.843  -0.503  0.00  0.00     0.077 C 
ATOM      2  C1' PXY d   1      -0.511  -1.885   0.095  0.00  0.00     0.077 C 
ATOM      3  C1  PXY d   1      -0.394  -0.382  -0.064  0.00  0.00    -0.082 A 
ATOM      4  C2  PXY d   1       0.764   0.149  -0.423  0.00  0.00     0.003 A 
ATOM      5  C3  PXY d   1       0.896   1.509  -0.540  0.00  0.00     0.003 A 
ATOM      6  C4  PXY d   1      -0.182   2.330  -0.339  0.00  0.00    -0.082 A 
ATOM      7  C5  PXY d   1      -1.369   1.794   0.017  0.00  0.00     0.003 A 
ATOM      8  C6  PXY d   1      -1.471   0.415   0.171  0.00  0.00     0.003 A 
ENDROOT
TORSDOF 0
ENDMDL
