MODEL 1
REMARK minimizedAffinity -4.52553225
REMARK minimizedRMSD -1
REMARK  0 active torsions:
REMARK  status: ('A' for Active; 'I' for Inactive)
ROOT
ATOM      1  C4' PXY d   1      -0.049  -2.535  -0.797  0.00  0.00     0.077 C 
ATOM      2  C1' PXY d   1      -0.186   3.048   0.698  0.00  0.00     0.077 C 
ATOM      3  C1  PXY d   1      -0.137   1.584   0.304  0.00  0.00    -0.082 A 
ATOM      4  C2  PXY d   1      -1.225   0.997  -0.168  0.00  0.00     0.003 A 
ATOM      5  C3  PXY d   1      -1.207  -0.333  -0.499  0.00  0.00     0.003 A 
ATOM      6  C4  PXY d   1      -0.049  -1.057  -0.396  0.00  0.00    -0.082 A 
ATOM      7  C5  PXY d   1       1.068  -0.463   0.075  0.00  0.00     0.003 A 
ATOM      8  C6  PXY d   1       1.018   0.878   0.444  0.00  0.00     0.003 A 
ENDROOT
TORSDOF 0
ENDMDL
