MODEL 1
REMARK minimizedAffinity -2.98234248
REMARK minimizedRMSD -1
REMARK  0 active torsions:
REMARK  status: ('A' for Active; 'I' for Inactive)
ROOT
ATOM      1  C4' PXY d   1       0.018  -2.936  -1.386  0.00  0.00     0.077 C 
ATOM      2  C1' PXY d   1      -0.325   2.403   0.804  0.00  0.00     0.077 C 
ATOM      3  C1  PXY d   1      -0.231   0.999   0.241  0.00  0.00    -0.082 A 
ATOM      4  C2  PXY d   1      -0.079   0.825  -1.062  0.00  0.00     0.003 A 
ATOM      5  C3  PXY d   1      -0.024  -0.439  -1.591  0.00  0.00     0.003 A 
ATOM      6  C4  PXY d   1      -0.072  -1.536  -0.773  0.00  0.00    -0.082 A 
ATOM      7  C5  PXY d   1      -0.217  -1.366   0.559  0.00  0.00     0.003 A 
ATOM      8  C6  PXY d   1      -0.312  -0.076   1.072  0.00  0.00     0.003 A 
ENDROOT
TORSDOF 0
ENDMDL
