MODEL 1
REMARK minimizedAffinity -2.24170136
REMARK minimizedRMSD -1
REMARK  0 active torsions:
REMARK  status: ('A' for Active; 'I' for Inactive)
ROOT
ATOM      1  C4' PXY d   1      -0.708  -2.239  -0.318  0.00  0.00     0.077 C 
ATOM      2  C1' PXY d   1       0.626   3.320   0.536  0.00  0.00     0.077 C 
ATOM      3  C1  PXY d   1       0.271   1.862   0.324  0.00  0.00    -0.082 A 
ATOM      4  C2  PXY d   1       0.948   1.145  -0.559  0.00  0.00     0.003 A 
ATOM      5  C3  PXY d   1       0.619  -0.166  -0.786  0.00  0.00     0.003 A 
ATOM      6  C4  PXY d   1      -0.378  -0.766  -0.064  0.00  0.00    -0.082 A 
ATOM      7  C5  PXY d   1      -1.066  -0.045   0.846  0.00  0.00     0.003 A 
ATOM      8  C6  PXY d   1      -0.744   1.297   1.032  0.00  0.00     0.003 A 
ENDROOT
TORSDOF 0
ENDMDL
