MODEL 1
REMARK minimizedAffinity 6.34966183
REMARK minimizedRMSD -1
REMARK  0 active torsions:
REMARK  status: ('A' for Active; 'I' for Inactive)
ROOT
ATOM      1  C4' PXY d   1      -1.432  -3.593  -2.733  0.00  0.00     0.077 C 
ATOM      2  C1' PXY d   1      -4.943  -5.637   1.378  0.00  0.00     0.077 C 
ATOM      3  C1  PXY d   1      -4.015  -5.096   0.309  0.00  0.00    -0.082 A 
ATOM      4  C2  PXY d   1      -4.475  -4.892  -0.915  0.00  0.00     0.003 A 
ATOM      5  C3  PXY d   1      -3.641  -4.433  -1.901  0.00  0.00     0.003 A 
ATOM      6  C4  PXY d   1      -2.336  -4.129  -1.620  0.00  0.00    -0.082 A 
ATOM      7  C5  PXY d   1      -1.861  -4.324  -0.371  0.00  0.00     0.003 A 
ATOM      8  C6  PXY d   1      -2.714  -4.830   0.606  0.00  0.00     0.003 A 
ENDROOT
TORSDOF 0
ENDMDL
