MODEL 1
REMARK minimizedAffinity -5.56395817
REMARK minimizedRMSD -1
REMARK  0 active torsions:
REMARK  status: ('A' for Active; 'I' for Inactive)
ROOT
ATOM      1  C4' PXY d   1      -0.092  -1.969   0.446  0.00  0.00     0.077 C 
ATOM      2  C1' PXY d   1       0.451   3.744  -0.249  0.00  0.00     0.077 C 
ATOM      3  C1  PXY d   1       0.301   2.248  -0.056  0.00  0.00    -0.082 A 
ATOM      4  C2  PXY d   1       1.250   1.434  -0.489  0.00  0.00     0.003 A 
ATOM      5  C3  PXY d   1       1.115   0.076  -0.353  0.00  0.00     0.003 A 
ATOM      6  C4  PXY d   1       0.022  -0.451   0.282  0.00  0.00    -0.082 A 
ATOM      7  C5  PXY d   1      -0.946   0.373   0.736  0.00  0.00     0.003 A 
ATOM      8  C6  PXY d   1      -0.809   1.746   0.550  0.00  0.00     0.003 A 
ENDROOT
TORSDOF 0
ENDMDL
