MODEL 1
REMARK minimizedAffinity 0.617334008
REMARK minimizedRMSD -1
REMARK  0 active torsions:
REMARK  status: ('A' for Active; 'I' for Inactive)
ROOT
ATOM      1  C4' PXY d   1      -1.371  -3.310  -0.540  0.00  0.00     0.077 C 
ATOM      2  C1' PXY d   1       1.370   1.762  -0.121  0.00  0.00     0.077 C 
ATOM      3  C1  PXY d   1       0.642   0.436  -0.222  0.00  0.00    -0.082 A 
ATOM      4  C2  PXY d   1       1.287  -0.632  -0.663  0.00  0.00     0.003 A 
ATOM      5  C3  PXY d   1       0.636  -1.832  -0.791  0.00  0.00     0.003 A 
ATOM      6  C4  PXY d   1      -0.674  -1.952  -0.413  0.00  0.00    -0.082 A 
ATOM      7  C5  PXY d   1      -1.336  -0.870   0.048  0.00  0.00     0.003 A 
ATOM      8  C6  PXY d   1      -0.669   0.348   0.132  0.00  0.00     0.003 A 
ENDROOT
TORSDOF 0
ENDMDL
