MODEL 1
REMARK minimizedAffinity 0.891581118
REMARK minimizedRMSD -1
REMARK  0 active torsions:
REMARK  status: ('A' for Active; 'I' for Inactive)
ROOT
ATOM      1  C4' PXY d   1       1.660   0.148  -0.007  0.00  0.00     0.077 C 
ATOM      2  C1' PXY d   1      -1.642  -4.120  -2.080  0.00  0.00     0.077 C 
ATOM      3  C1  PXY d   1      -0.785  -2.998  -1.528  0.00  0.00    -0.082 A 
ATOM      4  C2  PXY d   1       0.145  -2.448  -2.292  0.00  0.00     0.003 A 
ATOM      5  C3  PXY d   1       0.950  -1.454  -1.798  0.00  0.00     0.003 A 
ATOM      6  C4  PXY d   1       0.766  -0.982  -0.526  0.00  0.00    -0.082 A 
ATOM      7  C5  PXY d   1      -0.188  -1.530   0.256  0.00  0.00     0.003 A 
ATOM      8  C6  PXY d   1      -0.967  -2.566  -0.250  0.00  0.00     0.003 A 
ENDROOT
TORSDOF 0
ENDMDL
