MODEL 1
REMARK minimizedAffinity -1.85419965
REMARK minimizedRMSD -1
REMARK  0 active torsions:
REMARK  status: ('A' for Active; 'I' for Inactive)
ROOT
ATOM      1  C   UNL d   1       0.836  -2.046   1.021  0.00  0.00     0.124 A 
ATOM      2  C1  UNL d   1      -0.436  -1.515   1.180  0.00  0.00     0.062 A 
ATOM      3  C2  UNL d   1      -0.790  -0.339   0.525  0.00  0.00     0.162 A 
ATOM      4  C3  UNL d   1       0.129   0.315  -0.295  0.00  0.00    -0.034 A 
ATOM      5  C4  UNL d   1       1.408  -0.225  -0.448  0.00  0.00     0.162 A 
ATOM      6  C5  UNL d   1       1.757  -1.401   0.208  0.00  0.00     0.062 A 
ATOM      7  F   UNL d   1       2.987  -1.912   0.053  0.00  0.00    -0.097 F 
ATOM      8  F1  UNL d   1       2.317   0.378  -1.229  0.00  0.00    -0.096 F 
ATOM      9  I   UNL d   1      -0.396   2.074  -1.275  0.00  0.00    -0.060 I 
ATOM     10  F2  UNL d   1      -2.027   0.151   0.697  0.00  0.00    -0.096 F 
ATOM     11  F3  UNL d   1      -1.327  -2.136   1.966  0.00  0.00    -0.097 F 
ATOM     12  F4  UNL d   1       1.175  -3.178   1.653  0.00  0.00    -0.092 F 
ENDROOT
TORSDOF 0
ENDMDL
