MODEL 1
REMARK minimizedAffinity -3.43951821
REMARK minimizedRMSD -1
REMARK  0 active torsions:
REMARK  status: ('A' for Active; 'I' for Inactive)
ROOT
ATOM      1  C   UNL d   1      -0.333  -1.409   2.477  0.00  0.00     0.124 A 
ATOM      2  C1  UNL d   1      -0.862  -0.346   1.759  0.00  0.00     0.062 A 
ATOM      3  C2  UNL d   1      -0.203   0.135   0.631  0.00  0.00     0.162 A 
ATOM      4  C3  UNL d   1       0.994  -0.448   0.214  0.00  0.00    -0.034 A 
ATOM      5  C4  UNL d   1       1.520  -1.517   0.942  0.00  0.00     0.162 A 
ATOM      6  C5  UNL d   1       0.857  -1.993   2.068  0.00  0.00     0.062 A 
ATOM      7  F   UNL d   1       1.370  -3.020   2.761  0.00  0.00    -0.097 F 
ATOM      8  F1  UNL d   1       2.669  -2.101   0.569  0.00  0.00    -0.096 F 
ATOM      9  I   UNL d   1       1.983   0.267  -1.472  0.00  0.00    -0.060 I 
ATOM     10  F2  UNL d   1      -0.737   1.163  -0.043  0.00  0.00    -0.096 F 
ATOM     11  F3  UNL d   1      -2.012   0.221   2.153  0.00  0.00    -0.097 F 
ATOM     12  F4  UNL d   1      -0.969  -1.868   3.562  0.00  0.00    -0.092 F 
ENDROOT
TORSDOF 0
ENDMDL
