MODEL 1
REMARK minimizedAffinity -5.27533865
REMARK minimizedRMSD -1
REMARK  0 active torsions:
REMARK  status: ('A' for Active; 'I' for Inactive)
ROOT
ATOM      1  C   UNL d   1       0.930  -2.757   1.778  0.00  0.00     0.124 A 
ATOM      2  C1  UNL d   1       1.472  -2.398   0.552  0.00  0.00     0.062 A 
ATOM      3  C2  UNL d   1       1.040  -1.243  -0.094  0.00  0.00     0.162 A 
ATOM      4  C3  UNL d   1       0.060  -0.437   0.486  0.00  0.00    -0.034 A 
ATOM      5  C4  UNL d   1      -0.481  -0.805   1.720  0.00  0.00     0.162 A 
ATOM      6  C5  UNL d   1      -0.046  -1.960   2.361  0.00  0.00     0.062 A 
ATOM      7  F   UNL d   1      -0.571  -2.305   3.546  0.00  0.00    -0.097 F 
ATOM      8  F1  UNL d   1      -1.425  -0.053   2.305  0.00  0.00    -0.096 F 
ATOM      9  I   UNL d   1      -0.589   1.290  -0.476  0.00  0.00    -0.060 I 
ATOM     10  F2  UNL d   1       1.581  -0.921  -1.278  0.00  0.00    -0.096 F 
ATOM     11  F3  UNL d   1       2.414  -3.166  -0.013  0.00  0.00    -0.097 F 
ATOM     12  F4  UNL d   1       1.347  -3.869   2.397  0.00  0.00    -0.092 F 
ENDROOT
TORSDOF 0
ENDMDL
