MODEL 1
REMARK minimizedAffinity -3.84790587
REMARK minimizedRMSD -1
REMARK  0 active torsions:
REMARK  status: ('A' for Active; 'I' for Inactive)
ROOT
ATOM      1  C   UNL d   1       1.019  -2.496   1.534  0.00  0.00     0.124 A 
ATOM      2  C1  UNL d   1       1.584  -2.035   0.353  0.00  0.00     0.062 A 
ATOM      3  C2  UNL d   1       1.130  -0.853  -0.224  0.00  0.00     0.162 A 
ATOM      4  C3  UNL d   1       0.106  -0.123   0.379  0.00  0.00    -0.034 A 
ATOM      5  C4  UNL d   1      -0.458  -0.594   1.567  0.00  0.00     0.162 A 
ATOM      6  C5  UNL d   1      -0.000  -1.776   2.140  0.00  0.00     0.062 A 
ATOM      7  F   UNL d   1      -0.547  -2.220   3.281  0.00  0.00    -0.097 F 
ATOM      8  F1  UNL d   1      -1.444   0.084   2.173  0.00  0.00    -0.096 F 
ATOM      9  I   UNL d   1      -0.576   1.646  -0.481  0.00  0.00    -0.060 I 
ATOM     10  F2  UNL d   1       1.693  -0.430  -1.366  0.00  0.00    -0.096 F 
ATOM     11  F3  UNL d   1       2.568  -2.730  -0.234  0.00  0.00    -0.097 F 
ATOM     12  F4  UNL d   1       1.457  -3.635   2.087  0.00  0.00    -0.092 F 
ENDROOT
TORSDOF 0
ENDMDL
