MODEL 1
REMARK minimizedAffinity 1.07217717
REMARK minimizedRMSD -1
REMARK  0 active torsions:
REMARK  status: ('A' for Active; 'I' for Inactive)
ROOT
ATOM      1  C   UNL d   1       1.077  -2.067   2.059  0.00  0.00     0.124 A 
ATOM      2  C1  UNL d   1       1.736  -1.790   0.869  0.00  0.00     0.062 A 
ATOM      3  C2  UNL d   1       1.210  -0.860  -0.022  0.00  0.00     0.162 A 
ATOM      4  C3  UNL d   1       0.018  -0.198   0.273  0.00  0.00    -0.034 A 
ATOM      5  C4  UNL d   1      -0.639  -0.483   1.472  0.00  0.00     0.162 A 
ATOM      6  C5  UNL d   1      -0.109  -1.414   2.359  0.00  0.00     0.062 A 
ATOM      7  F   UNL d   1      -0.747  -1.680   3.508  0.00  0.00    -0.097 F 
ATOM      8  F1  UNL d   1      -1.787   0.135   1.787  0.00  0.00    -0.096 F 
ATOM      9  I   UNL d   1      -0.772   1.194  -1.057  0.00  0.00    -0.060 I 
ATOM     10  F2  UNL d   1       1.868  -0.612  -1.165  0.00  0.00    -0.096 F 
ATOM     11  F3  UNL d   1       2.882  -2.421   0.576  0.00  0.00    -0.097 F 
ATOM     12  F4  UNL d   1       1.585  -2.964   2.914  0.00  0.00    -0.092 F 
ENDROOT
TORSDOF 0
ENDMDL
