MODEL 1
REMARK minimizedAffinity -1.83476388
REMARK minimizedRMSD -1
REMARK  0 active torsions:
REMARK  status: ('A' for Active; 'I' for Inactive)
ROOT
ATOM      1  C   UNL d   1      -2.293   1.141  -3.046  0.00  0.00     0.124 A 
ATOM      2  C1  UNL d   1      -1.743   2.048  -2.151  0.00  0.00     0.062 A 
ATOM      3  C2  UNL d   1      -0.988   1.597  -1.072  0.00  0.00     0.162 A 
ATOM      4  C3  UNL d   1      -0.778   0.231  -0.883  0.00  0.00    -0.034 A 
ATOM      5  C4  UNL d   1      -1.336  -0.675  -1.787  0.00  0.00     0.162 A 
ATOM      6  C5  UNL d   1      -2.090  -0.219  -2.863  0.00  0.00     0.062 A 
ATOM      7  F   UNL d   1      -2.621  -1.096  -3.727  0.00  0.00    -0.097 F 
ATOM      8  F1  UNL d   1      -1.154  -1.996  -1.634  0.00  0.00    -0.096 F 
ATOM      9  I   UNL d   1       0.350  -0.449   0.729  0.00  0.00    -0.060 I 
ATOM     10  F2  UNL d   1      -0.468   2.495  -0.223  0.00  0.00    -0.096 F 
ATOM     11  F3  UNL d   1      -1.939   3.363  -2.325  0.00  0.00    -0.097 F 
ATOM     12  F4  UNL d   1      -3.020   1.579  -4.082  0.00  0.00    -0.092 F 
ENDROOT
TORSDOF 0
ENDMDL
