MODEL 1
REMARK minimizedAffinity -3.76194572
REMARK minimizedRMSD -1
REMARK  0 active torsions:
REMARK  status: ('A' for Active; 'I' for Inactive)
ROOT
ATOM      1  C   UNL d   1      -0.414  -1.979   2.465  0.00  0.00     0.124 A 
ATOM      2  C1  UNL d   1      -0.915  -0.754   2.047  0.00  0.00     0.062 A 
ATOM      3  C2  UNL d   1      -0.272  -0.042   1.038  0.00  0.00     0.162 A 
ATOM      4  C3  UNL d   1       0.880  -0.554   0.440  0.00  0.00    -0.034 A 
ATOM      5  C4  UNL d   1       1.378  -1.787   0.867  0.00  0.00     0.162 A 
ATOM      6  C5  UNL d   1       0.732  -2.494   1.875  0.00  0.00     0.062 A 
ATOM      7  F   UNL d   1       1.217  -3.677   2.278  0.00  0.00    -0.097 F 
ATOM      8  F1  UNL d   1       2.483  -2.308   0.313  0.00  0.00    -0.096 F 
ATOM      9  I   UNL d   1       1.844   0.507  -1.068  0.00  0.00    -0.060 I 
ATOM     10  F2  UNL d   1      -0.778   1.139   0.654  0.00  0.00    -0.096 F 
ATOM     11  F3  UNL d   1      -2.021  -0.254   2.616  0.00  0.00    -0.097 F 
ATOM     12  F4  UNL d   1      -1.034  -2.661   3.436  0.00  0.00    -0.092 F 
ENDROOT
TORSDOF 0
ENDMDL
