MODEL 1
REMARK minimizedAffinity 2.49943614
REMARK minimizedRMSD -1
REMARK  0 active torsions:
REMARK  status: ('A' for Active; 'I' for Inactive)
ROOT
ATOM      1  C   UNL d   1      -1.601   2.277  -3.540  0.00  0.00     0.124 A 
ATOM      2  C1  UNL d   1      -0.662   2.720  -2.619  0.00  0.00     0.062 A 
ATOM      3  C2  UNL d   1      -0.301   1.914  -1.543  0.00  0.00     0.162 A 
ATOM      4  C3  UNL d   1      -0.879   0.654  -1.383  0.00  0.00    -0.034 A 
ATOM      5  C4  UNL d   1      -1.823   0.215  -2.313  0.00  0.00     0.162 A 
ATOM      6  C5  UNL d   1      -2.180   1.025  -3.386  0.00  0.00     0.062 A 
ATOM      7  F   UNL d   1      -3.088   0.595  -4.275  0.00  0.00    -0.097 F 
ATOM      8  F1  UNL d   1      -2.398  -0.990  -2.189  0.00  0.00    -0.096 F 
ATOM      9  I   UNL d   1      -0.342  -0.555   0.224  0.00  0.00    -0.060 I 
ATOM     10  F2  UNL d   1       0.608   2.368  -0.669  0.00  0.00    -0.096 F 
ATOM     11  F3  UNL d   1      -0.101   3.929  -2.764  0.00  0.00    -0.097 F 
ATOM     12  F4  UNL d   1      -1.947   3.055  -4.573  0.00  0.00    -0.092 F 
ENDROOT
TORSDOF 0
ENDMDL
