MODEL 1
REMARK minimizedAffinity -1.23700392
REMARK minimizedRMSD -1
REMARK  0 active torsions:
REMARK  status: ('A' for Active; 'I' for Inactive)
ROOT
ATOM      1  C   UNL d   1      -1.003   1.358   1.067  0.00  0.00     0.124 A 
ATOM      2  C1  UNL d   1       0.093   1.189   0.232  0.00  0.00     0.062 A 
ATOM      3  C2  UNL d   1       0.746  -0.038   0.174  0.00  0.00     0.162 A 
ATOM      4  C3  UNL d   1       0.305  -1.108   0.953  0.00  0.00    -0.034 A 
ATOM      5  C4  UNL d   1      -0.798  -0.931   1.791  0.00  0.00     0.162 A 
ATOM      6  C5  UNL d   1      -1.447   0.298   1.845  0.00  0.00     0.062 A 
ATOM      7  F   UNL d   1      -2.506   0.459   2.652  0.00  0.00    -0.097 F 
ATOM      8  F1  UNL d   1      -1.248  -1.938   2.553  0.00  0.00    -0.096 F 
ATOM      9  I   UNL d   1       1.279  -2.945   0.868  0.00  0.00    -0.060 I 
ATOM     10  F2  UNL d   1       1.803  -0.173  -0.642  0.00  0.00    -0.096 F 
ATOM     11  F3  UNL d   1       0.525   2.212  -0.520  0.00  0.00    -0.097 F 
ATOM     12  F4  UNL d   1      -1.629   2.541   1.122  0.00  0.00    -0.092 F 
ENDROOT
TORSDOF 0
ENDMDL
