MODEL 1
REMARK minimizedAffinity -4.45039368
REMARK minimizedRMSD -1
REMARK  0 active torsions:
REMARK  status: ('A' for Active; 'I' for Inactive)
ROOT
ATOM      1  C   UNL d   1      -1.667   1.154  -1.324  0.00  0.00     0.124 A 
ATOM      2  C1  UNL d   1      -1.000   0.315  -2.206  0.00  0.00     0.062 A 
ATOM      3  C2  UNL d   1      -0.070  -0.604  -1.730  0.00  0.00     0.162 A 
ATOM      4  C3  UNL d   1       0.198  -0.690  -0.363  0.00  0.00    -0.034 A 
ATOM      5  C4  UNL d   1      -0.476   0.158   0.517  0.00  0.00     0.162 A 
ATOM      6  C5  UNL d   1      -1.404   1.075   0.037  0.00  0.00     0.062 A 
ATOM      7  F   UNL d   1      -2.047   1.885   0.890  0.00  0.00    -0.097 F 
ATOM      8  F1  UNL d   1      -0.241   0.101   1.837  0.00  0.00    -0.096 F 
ATOM      9  I   UNL d   1       1.588  -2.064   0.353  0.00  0.00    -0.060 I 
ATOM     10  F2  UNL d   1       0.559  -1.403  -2.605  0.00  0.00    -0.096 F 
ATOM     11  F3  UNL d   1      -1.252   0.391  -3.521  0.00  0.00    -0.097 F 
ATOM     12  F4  UNL d   1      -2.561   2.039  -1.785  0.00  0.00    -0.092 F 
ENDROOT
TORSDOF 0
ENDMDL
