MODEL 1
REMARK minimizedAffinity -3.49782372
REMARK minimizedRMSD -1
REMARK  0 active torsions:
REMARK  status: ('A' for Active; 'I' for Inactive)
ROOT
ATOM      1  C   UNL d   1       0.163   1.068  -0.301  0.00  0.00     0.124 A 
ATOM      2  C1  UNL d   1      -0.836   0.485   0.466  0.00  0.00     0.062 A 
ATOM      3  C2  UNL d   1      -0.597  -0.713   1.134  0.00  0.00     0.162 A 
ATOM      4  C3  UNL d   1       0.647  -1.336   1.037  0.00  0.00    -0.034 A 
ATOM      5  C4  UNL d   1       1.646  -0.745   0.262  0.00  0.00     0.162 A 
ATOM      6  C5  UNL d   1       1.403   0.452  -0.403  0.00  0.00     0.062 A 
ATOM      7  F   UNL d   1       2.369   1.014  -1.144  0.00  0.00    -0.097 F 
ATOM      8  F1  UNL d   1       2.854  -1.318   0.148  0.00  0.00    -0.096 F 
ATOM      9  I   UNL d   1       1.008  -3.128   2.033  0.00  0.00    -0.060 I 
ATOM     10  F2  UNL d   1      -1.581  -1.253   1.868  0.00  0.00    -0.096 F 
ATOM     11  F3  UNL d   1      -2.035   1.077   0.565  0.00  0.00    -0.097 F 
ATOM     12  F4  UNL d   1      -0.070   2.220  -0.943  0.00  0.00    -0.092 F 
ENDROOT
TORSDOF 0
ENDMDL
