MODEL 1
REMARK minimizedAffinity -4.45741653
REMARK minimizedRMSD -1
REMARK  0 active torsions:
REMARK  status: ('A' for Active; 'I' for Inactive)
ROOT
ATOM      1  C   UNL d   1       0.785  -2.201   1.726  0.00  0.00     0.124 A 
ATOM      2  C1  UNL d   1       1.515  -1.761   0.631  0.00  0.00     0.062 A 
ATOM      3  C2  UNL d   1       1.089  -0.654  -0.096  0.00  0.00     0.162 A 
ATOM      4  C3  UNL d   1      -0.074   0.024   0.270  0.00  0.00    -0.034 A 
ATOM      5  C4  UNL d   1      -0.804  -0.425   1.373  0.00  0.00     0.162 A 
ATOM      6  C5  UNL d   1      -0.374  -1.533   2.096  0.00  0.00     0.062 A 
ATOM      7  F   UNL d   1      -1.081  -1.956   3.154  0.00  0.00    -0.097 F 
ATOM      8  F1  UNL d   1      -1.927   0.203   1.752  0.00  0.00    -0.096 F 
ATOM      9  I   UNL d   1      -0.715   1.680  -0.814  0.00  0.00    -0.060 I 
ATOM     10  F2  UNL d   1       1.815  -0.251  -1.150  0.00  0.00    -0.096 F 
ATOM     11  F3  UNL d   1       2.635  -2.406   0.272  0.00  0.00    -0.097 F 
ATOM     12  F4  UNL d   1       1.197  -3.267   2.424  0.00  0.00    -0.092 F 
ENDROOT
TORSDOF 0
ENDMDL
