MODEL 1
REMARK minimizedAffinity 3.08738422
REMARK minimizedRMSD -1
REMARK  0 active torsions:
REMARK  status: ('A' for Active; 'I' for Inactive)
ROOT
ATOM      1  C   UNL d   1      -1.177  -0.793   1.556  0.00  0.00     0.124 A 
ATOM      2  C1  UNL d   1      -2.163   0.180   1.470  0.00  0.00     0.062 A 
ATOM      3  C2  UNL d   1      -2.166   1.083   0.411  0.00  0.00     0.162 A 
ATOM      4  C3  UNL d   1      -1.179   1.017  -0.573  0.00  0.00    -0.034 A 
ATOM      5  C4  UNL d   1      -0.189   0.036  -0.479  0.00  0.00     0.162 A 
ATOM      6  C5  UNL d   1      -0.191  -0.864   0.581  0.00  0.00     0.062 A 
ATOM      7  F   UNL d   1       0.763  -1.803   0.662  0.00  0.00    -0.097 F 
ATOM      8  F1  UNL d   1       0.774  -0.056  -1.408  0.00  0.00    -0.096 F 
ATOM      9  I   UNL d   1      -1.179   2.365  -2.158  0.00  0.00    -0.060 I 
ATOM     10  F2  UNL d   1      -3.131   2.012   0.353  0.00  0.00    -0.096 F 
ATOM     11  F3  UNL d   1      -3.116   0.251   2.411  0.00  0.00    -0.097 F 
ATOM     12  F4  UNL d   1      -1.176  -1.660   2.577  0.00  0.00    -0.092 F 
ENDROOT
TORSDOF 0
ENDMDL
