MODEL 1
REMARK minimizedAffinity 13.3436594
REMARK minimizedRMSD -1
REMARK  2 active torsions:
REMARK  status: ('A' for Active; 'I' for Inactive)
REMARK    1  A    between atoms: C2'_3  and  C1'_4 
REMARK    2  A    between atoms: C1'_4  and  C1_5 
ROOT
ATOM      1  C1  I4B d   1      -3.017   3.547   1.379  0.00  0.00    -0.075 A 
ATOM      2  C2  I4B d   1      -3.764   4.519   1.995  0.00  0.00     0.003 A 
ATOM      3  C3  I4B d   1      -5.174   4.527   1.862  0.00  0.00     0.002 A 
ATOM      4  C4  I4B d   1      -5.786   3.579   1.067  0.00  0.00    -0.004 A 
ATOM      5  C5  I4B d   1      -5.029   2.580   0.462  0.00  0.00     0.002 A 
ATOM      6  C6  I4B d   1      -3.637   2.556   0.629  0.00  0.00     0.003 A 
ENDROOT
BRANCH   1   7
ATOM      7  C1' I4B d   1      -1.528   3.588   1.514  0.00  0.00     0.060 C 
BRANCH   7   8
ATOM      8  C2' I4B d   1      -0.927   3.262   0.162  0.00  0.00    -0.013 C 
ATOM      9  C4' I4B d   1      -0.636   4.515  -0.622  0.00  0.00     0.013 C 
ATOM     10  C3' I4B d   1       0.322   2.464   0.390  0.00  0.00     0.013 C 
ENDBRANCH   7   8
ENDBRANCH   1   7
TORSDOF 2
ENDMDL
