MODEL 1
REMARK minimizedAffinity 12.6988277
REMARK minimizedRMSD -1
REMARK  2 active torsions:
REMARK  status: ('A' for Active; 'I' for Inactive)
REMARK    1  A    between atoms: C2'_3  and  C1'_4 
REMARK    2  A    between atoms: C1'_4  and  C1_5 
ROOT
ATOM      1  C1  I4B d   1      -3.249   3.173   0.901  0.00  0.00    -0.075 A 
ATOM      2  C2  I4B d   1      -2.996   4.144   1.837  0.00  0.00     0.003 A 
ATOM      3  C3  I4B d   1      -4.047   4.966   2.312  0.00  0.00     0.002 A 
ATOM      4  C4  I4B d   1      -5.316   4.817   1.790  0.00  0.00    -0.004 A 
ATOM      5  C5  I4B d   1      -5.574   3.816   0.858  0.00  0.00     0.002 A 
ATOM      6  C6  I4B d   1      -4.537   2.980   0.420  0.00  0.00     0.003 A 
ENDROOT
BRANCH   1   7
ATOM      7  C1' I4B d   1      -2.109   2.345   0.397  0.00  0.00     0.060 C 
BRANCH   7   8
ATOM      8  C2' I4B d   1      -0.857   3.196   0.443  0.00  0.00    -0.013 C 
ATOM      9  C4' I4B d   1       0.379   2.343   0.559  0.00  0.00     0.013 C 
ATOM     10  C3' I4B d   1      -0.821   4.034  -0.801  0.00  0.00     0.013 C 
ENDBRANCH   7   8
ENDBRANCH   1   7
TORSDOF 2
ENDMDL
