MODEL 1
REMARK minimizedAffinity 10.648016
REMARK minimizedRMSD -1
REMARK  2 active torsions:
REMARK  status: ('A' for Active; 'I' for Inactive)
REMARK    1  A    between atoms: C2'_3  and  C1'_4 
REMARK    2  A    between atoms: C1'_4  and  C1_5 
ROOT
ATOM      1  C1  I4B d   1      -2.117   3.065   0.906  0.00  0.00    -0.075 A 
ATOM      2  C2  I4B d   1      -2.345   4.147   1.719  0.00  0.00     0.003 A 
ATOM      3  C3  I4B d   1      -3.670   4.567   1.991  0.00  0.00     0.002 A 
ATOM      4  C4  I4B d   1      -4.727   3.911   1.394  0.00  0.00    -0.004 A 
ATOM      5  C5  I4B d   1      -4.495   2.800   0.589  0.00  0.00     0.002 A 
ATOM      6  C6  I4B d   1      -3.182   2.366   0.353  0.00  0.00     0.003 A 
ENDROOT
BRANCH   1   7
ATOM      7  C1' I4B d   1      -0.705   2.669   0.613  0.00  0.00     0.060 C 
BRANCH   7   8
ATOM      8  C2' I4B d   1      -0.331   3.240  -0.740  0.00  0.00    -0.013 C 
ATOM      9  C4' I4B d   1       0.829   4.194  -0.628  0.00  0.00     0.013 C 
ATOM     10  C3' I4B d   1      -0.004   2.095  -1.651  0.00  0.00     0.013 C 
ENDBRANCH   7   8
ENDBRANCH   1   7
TORSDOF 2
ENDMDL
