MODEL 1
REMARK minimizedAffinity 5.51612949
REMARK minimizedRMSD -1
REMARK  2 active torsions:
REMARK  status: ('A' for Active; 'I' for Inactive)
REMARK    1  A    between atoms: C2'_3  and  C1'_4 
REMARK    2  A    between atoms: C1'_4  and  C1_5 
ROOT
ATOM      1  C1  I4B d   1       2.231   3.844   0.053  0.00  0.00    -0.075 A 
ATOM      2  C2  I4B d   1       2.343   5.018  -0.649  0.00  0.00     0.003 A 
ATOM      3  C3  I4B d   1       3.287   5.997  -0.255  0.00  0.00     0.002 A 
ATOM      4  C4  I4B d   1       4.059   5.783   0.869  0.00  0.00    -0.004 A 
ATOM      5  C5  I4B d   1       3.960   4.583   1.566  0.00  0.00     0.002 A 
ATOM      6  C6  I4B d   1       3.049   3.601   1.149  0.00  0.00     0.003 A 
ENDROOT
BRANCH   1   7
ATOM      7  C1' I4B d   1       1.200   2.846  -0.370  0.00  0.00     0.060 C 
BRANCH   7   8
ATOM      8  C2' I4B d   1       0.346   2.516   0.837  0.00  0.00    -0.013 C 
ATOM      9  C4' I4B d   1      -1.105   2.827   0.579  0.00  0.00     0.013 C 
ATOM     10  C3' I4B d   1       0.540   1.064   1.158  0.00  0.00     0.013 C 
ENDBRANCH   7   8
ENDBRANCH   1   7
TORSDOF 2
ENDMDL
