MODEL 1
REMARK minimizedAffinity 14.6058006
REMARK minimizedRMSD -1
REMARK  2 active torsions:
REMARK  status: ('A' for Active; 'I' for Inactive)
REMARK    1  A    between atoms: C2'_3  and  C1'_4 
REMARK    2  A    between atoms: C1'_4  and  C1_5 
ROOT
ATOM      1  C1  I4B d   1       1.886  -2.060   1.099  0.00  0.00    -0.075 A 
ATOM      2  C2  I4B d   1       1.847  -1.199   2.168  0.00  0.00     0.003 A 
ATOM      3  C3  I4B d   1       3.049  -0.758   2.773  0.00  0.00     0.002 A 
ATOM      4  C4  I4B d   1       4.258  -1.239   2.313  0.00  0.00    -0.004 A 
ATOM      5  C5  I4B d   1       4.297  -2.094   1.215  0.00  0.00     0.002 A 
ATOM      6  C6  I4B d   1       3.105  -2.497   0.596  0.00  0.00     0.003 A 
ENDROOT
BRANCH   1   7
ATOM      7  C1' I4B d   1       0.597  -2.531   0.505  0.00  0.00     0.060 C 
BRANCH   7   8
ATOM      8  C2' I4B d   1       0.899  -3.723  -0.379  0.00  0.00    -0.013 C 
ATOM      9  C4' I4B d   1       0.677  -5.018   0.357  0.00  0.00     0.013 C 
ATOM     10  C3' I4B d   1       0.022  -3.633  -1.592  0.00  0.00     0.013 C 
ENDBRANCH   7   8
ENDBRANCH   1   7
TORSDOF 2
ENDMDL
