MODEL 1
REMARK minimizedAffinity 10.064003
REMARK minimizedRMSD -1
REMARK  2 active torsions:
REMARK  status: ('A' for Active; 'I' for Inactive)
REMARK    1  A    between atoms: C2'_3  and  C1'_4 
REMARK    2  A    between atoms: C1'_4  and  C1_5 
ROOT
ATOM      1  C1  I4B d   1      -0.684   1.708  -2.373  0.00  0.00    -0.075 A 
ATOM      2  C2  I4B d   1      -1.709   2.620  -2.404  0.00  0.00     0.003 A 
ATOM      3  C3  I4B d   1      -1.832   3.589  -1.378  0.00  0.00     0.002 A 
ATOM      4  C4  I4B d   1      -0.943   3.578  -0.322  0.00  0.00    -0.004 A 
ATOM      5  C5  I4B d   1       0.109   2.667  -0.305  0.00  0.00     0.002 A 
ATOM      6  C6  I4B d   1       0.247   1.734  -1.343  0.00  0.00     0.003 A 
ENDROOT
BRANCH   1   7
ATOM      7  C1' I4B d   1      -0.603   0.678  -3.455  0.00  0.00     0.060 C 
BRANCH   7   8
ATOM      8  C2' I4B d   1      -1.786   0.879  -4.380  0.00  0.00    -0.013 C 
ATOM      9  C4' I4B d   1      -1.472   0.413  -5.777  0.00  0.00     0.013 C 
ATOM     10  C3' I4B d   1      -2.952   0.128  -3.808  0.00  0.00     0.013 C 
ENDBRANCH   7   8
ENDBRANCH   1   7
TORSDOF 2
ENDMDL
