MODEL 1
REMARK minimizedAffinity -3.94474459
REMARK minimizedRMSD -1
REMARK  0 active torsions:
REMARK  status: ('A' for Active; 'I' for Inactive)
ROOT
ATOM      1  C   UNL d   1      -1.010  -1.140   3.203  0.00  0.00     0.078 C 
ATOM      2  C1  UNL d   1      -0.007  -1.103   2.088  0.00  0.00    -0.077 A 
ATOM      3  C2  UNL d   1      -0.194  -0.273   0.977  0.00  0.00    -0.001 A 
ATOM      4  C3  UNL d   1       0.743  -0.256  -0.058  0.00  0.00     0.003 A 
ATOM      5  C4  UNL d   1       1.873  -1.068   0.009  0.00  0.00    -0.005 A 
ATOM      6  C5  UNL d   1       2.067  -1.899   1.110  0.00  0.00     0.003 A 
ATOM      7  C6  UNL d   1       1.131  -1.918   2.145  0.00  0.00    -0.001 A 
ENDROOT
TORSDOF 0
ENDMDL
