MODEL 1
REMARK minimizedAffinity -4.56698132
REMARK minimizedRMSD -1
REMARK  0 active torsions:
REMARK  status: ('A' for Active; 'I' for Inactive)
ROOT
ATOM      1  C   UNL d   1       0.731   4.488  -4.472  0.00  0.00     0.078 C 
ATOM      2  C1  UNL d   1      -0.421   3.654  -3.997  0.00  0.00    -0.077 A 
ATOM      3  C2  UNL d   1      -1.400   3.202  -4.890  0.00  0.00    -0.001 A 
ATOM      4  C3  UNL d   1      -2.472   2.434  -4.433  0.00  0.00     0.003 A 
ATOM      5  C4  UNL d   1      -2.576   2.112  -3.081  0.00  0.00    -0.005 A 
ATOM      6  C5  UNL d   1      -1.607   2.559  -2.185  0.00  0.00     0.003 A 
ATOM      7  C6  UNL d   1      -0.535   3.327  -2.640  0.00  0.00    -0.001 A 
ENDROOT
TORSDOF 0
ENDMDL
