MODEL 1
REMARK minimizedAffinity -5.4943738
REMARK minimizedRMSD -1
REMARK  0 active torsions:
REMARK  status: ('A' for Active; 'I' for Inactive)
ROOT
ATOM      1  C   UNL d   1      -1.209  -1.126   3.206  0.00  0.00     0.078 C 
ATOM      2  C1  UNL d   1      -0.137  -0.996   2.165  0.00  0.00    -0.077 A 
ATOM      3  C2  UNL d   1       0.970  -1.854   2.159  0.00  0.00    -0.001 A 
ATOM      4  C3  UNL d   1       1.964  -1.715   1.189  0.00  0.00     0.003 A 
ATOM      5  C4  UNL d   1       1.863  -0.719   0.220  0.00  0.00    -0.005 A 
ATOM      6  C5  UNL d   1       0.766   0.140   0.220  0.00  0.00     0.003 A 
ATOM      7  C6  UNL d   1      -0.230   0.003   1.188  0.00  0.00    -0.001 A 
ENDROOT
TORSDOF 0
ENDMDL
