MODEL 1
REMARK minimizedAffinity -5.59060049
REMARK minimizedRMSD -1
REMARK  0 active torsions:
REMARK  status: ('A' for Active; 'I' for Inactive)
ROOT
ATOM      1  C   UNL d   1       1.462  -2.711   0.999  0.00  0.00     0.078 C 
ATOM      2  C1  UNL d   1       0.717  -1.425   0.797  0.00  0.00    -0.077 A 
ATOM      3  C2  UNL d   1      -0.492  -1.180   1.459  0.00  0.00    -0.001 A 
ATOM      4  C3  UNL d   1      -1.179   0.017   1.254  0.00  0.00     0.003 A 
ATOM      5  C4  UNL d   1      -0.666   0.979   0.386  0.00  0.00    -0.005 A 
ATOM      6  C5  UNL d   1       0.535   0.743  -0.279  0.00  0.00     0.003 A 
ATOM      7  C6  UNL d   1       1.224  -0.453  -0.075  0.00  0.00    -0.001 A 
ENDROOT
TORSDOF 0
ENDMDL
