MODEL 1
REMARK minimizedAffinity -5.31585073
REMARK minimizedRMSD -1
REMARK  0 active torsions:
REMARK  status: ('A' for Active; 'I' for Inactive)
ROOT
ATOM      1  C   UNL d   1      -0.979  -1.977   2.938  0.00  0.00     0.078 C 
ATOM      2  C1  UNL d   1      -0.053  -1.639   1.808  0.00  0.00    -0.077 A 
ATOM      3  C2  UNL d   1       1.187  -2.276   1.676  0.00  0.00    -0.001 A 
ATOM      4  C3  UNL d   1       2.042  -1.944   0.624  0.00  0.00     0.003 A 
ATOM      5  C4  UNL d   1       1.667  -0.974  -0.304  0.00  0.00    -0.005 A 
ATOM      6  C5  UNL d   1       0.436  -0.334  -0.179  0.00  0.00     0.003 A 
ATOM      7  C6  UNL d   1      -0.420  -0.664   0.872  0.00  0.00    -0.001 A 
ENDROOT
TORSDOF 0
ENDMDL
