MODEL 1
REMARK minimizedAffinity -4.2745142
REMARK minimizedRMSD -1
REMARK  0 active torsions:
REMARK  status: ('A' for Active; 'I' for Inactive)
ROOT
ATOM      1  C   UNL d   1       1.552  -2.912   1.291  0.00  0.00     0.078 C 
ATOM      2  C1  UNL d   1       1.027  -1.647   0.681  0.00  0.00    -0.077 A 
ATOM      3  C2  UNL d   1      -0.330  -1.314   0.764  0.00  0.00    -0.001 A 
ATOM      4  C3  UNL d   1      -0.806  -0.138   0.183  0.00  0.00     0.003 A 
ATOM      5  C4  UNL d   1       0.069   0.715  -0.486  0.00  0.00    -0.005 A 
ATOM      6  C5  UNL d   1       1.421   0.392  -0.577  0.00  0.00     0.003 A 
ATOM      7  C6  UNL d   1       1.899  -0.784   0.004  0.00  0.00    -0.001 A 
ENDROOT
TORSDOF 0
ENDMDL
