MODEL 1
REMARK minimizedAffinity -4.87066507
REMARK minimizedRMSD -1
REMARK  0 active torsions:
REMARK  status: ('A' for Active; 'I' for Inactive)
ROOT
ATOM      1  C   UNL d   1       0.019   0.836  -0.353  0.00  0.00     0.078 C 
ATOM      2  C1  UNL d   1       0.254  -0.275   0.626  0.00  0.00    -0.077 A 
ATOM      3  C2  UNL d   1       1.461  -0.985   0.636  0.00  0.00    -0.001 A 
ATOM      4  C3  UNL d   1       1.662  -2.023   1.546  0.00  0.00     0.003 A 
ATOM      5  C4  UNL d   1       0.660  -2.363   2.453  0.00  0.00    -0.005 A 
ATOM      6  C5  UNL d   1      -0.546  -1.664   2.449  0.00  0.00     0.003 A 
ATOM      7  C6  UNL d   1      -0.748  -0.625   1.539  0.00  0.00    -0.001 A 
ENDROOT
TORSDOF 0
ENDMDL
