MODEL 1
REMARK minimizedAffinity -6.06793213
REMARK minimizedRMSD -1
REMARK  0 active torsions:
REMARK  status: ('A' for Active; 'I' for Inactive)
ROOT
ATOM      1  C   UNL d   1       1.505   0.387  -0.814  0.00  0.00     0.078 C 
ATOM      2  C1  UNL d   1       0.995  -0.519   0.267  0.00  0.00    -0.077 A 
ATOM      3  C2  UNL d   1       1.637  -1.729   0.556  0.00  0.00    -0.001 A 
ATOM      4  C3  UNL d   1       1.146  -2.567   1.559  0.00  0.00     0.003 A 
ATOM      5  C4  UNL d   1       0.010  -2.205   2.279  0.00  0.00    -0.005 A 
ATOM      6  C5  UNL d   1      -0.637  -1.003   1.998  0.00  0.00     0.003 A 
ATOM      7  C6  UNL d   1      -0.147  -0.164   0.995  0.00  0.00    -0.001 A 
ENDROOT
TORSDOF 0
ENDMDL
