MODEL 1
REMARK minimizedAffinity -5.20129156
REMARK minimizedRMSD -1
REMARK  0 active torsions:
REMARK  status: ('A' for Active; 'I' for Inactive)
ROOT
ATOM      1  C   UNL d   1      -1.367  -1.577   2.536  0.00  0.00     0.078 C 
ATOM      2  C1  UNL d   1      -0.146  -1.277   1.719  0.00  0.00    -0.077 A 
ATOM      3  C2  UNL d   1       1.054  -1.966   1.934  0.00  0.00    -0.001 A 
ATOM      4  C3  UNL d   1       2.185  -1.669   1.172  0.00  0.00     0.003 A 
ATOM      5  C4  UNL d   1       2.128  -0.683   0.190  0.00  0.00    -0.005 A 
ATOM      6  C5  UNL d   1       0.939   0.009  -0.031  0.00  0.00     0.003 A 
ATOM      7  C6  UNL d   1      -0.193  -0.286   0.730  0.00  0.00    -0.001 A 
ENDROOT
TORSDOF 0
ENDMDL
