MODEL 1
REMARK minimizedAffinity -3.57920027
REMARK minimizedRMSD -1
REMARK  0 active torsions:
REMARK  status: ('A' for Active; 'I' for Inactive)
ROOT
ATOM      1  C   UNL d   1      -1.140   0.466   0.567  0.00  0.00     0.078 C 
ATOM      2  C1  UNL d   1      -0.743  -0.714   1.403  0.00  0.00    -0.077 A 
ATOM      3  C2  UNL d   1      -1.513  -1.110   2.504  0.00  0.00    -0.001 A 
ATOM      4  C3  UNL d   1      -1.126  -2.204   3.279  0.00  0.00     0.003 A 
ATOM      5  C4  UNL d   1       0.033  -2.911   2.963  0.00  0.00    -0.005 A 
ATOM      6  C5  UNL d   1       0.807  -2.523   1.871  0.00  0.00     0.003 A 
ATOM      7  C6  UNL d   1       0.421  -1.429   1.095  0.00  0.00    -0.001 A 
ENDROOT
TORSDOF 0
ENDMDL
