MODEL 1
REMARK minimizedAffinity -4.41074657
REMARK minimizedRMSD -1
REMARK  0 active torsions:
REMARK  status: ('A' for Active; 'I' for Inactive)
ROOT
ATOM      1  C   UNL d   1       1.627  -2.648   0.602  0.00  0.00     0.078 C 
ATOM      2  C1  UNL d   1       1.042  -1.309   0.266  0.00  0.00    -0.077 A 
ATOM      3  C2  UNL d   1      -0.311  -1.033   0.499  0.00  0.00    -0.001 A 
ATOM      4  C3  UNL d   1      -0.843   0.215   0.173  0.00  0.00     0.003 A 
ATOM      5  C4  UNL d   1      -0.030   1.197  -0.389  0.00  0.00    -0.005 A 
ATOM      6  C5  UNL d   1       1.317   0.932  -0.627  0.00  0.00     0.003 A 
ATOM      7  C6  UNL d   1       1.851  -0.316  -0.301  0.00  0.00    -0.001 A 
ENDROOT
TORSDOF 0
ENDMDL
