MODEL 1
REMARK minimizedAffinity -3.52955961
REMARK minimizedRMSD -1
REMARK  0 active torsions:
REMARK  status: ('A' for Active; 'I' for Inactive)
ROOT
ATOM      1  C   UNL d   1       0.402  -2.616   0.746  0.00  0.00     0.078 C 
ATOM      2  C1  UNL d   1      -0.197  -1.242   0.681  0.00  0.00    -0.077 A 
ATOM      3  C2  UNL d   1       0.343  -0.259  -0.157  0.00  0.00    -0.001 A 
ATOM      4  C3  UNL d   1      -0.219   1.018  -0.199  0.00  0.00     0.003 A 
ATOM      5  C4  UNL d   1      -1.322   1.324   0.595  0.00  0.00    -0.005 A 
ATOM      6  C5  UNL d   1      -1.864   0.353   1.434  0.00  0.00     0.003 A 
ATOM      7  C6  UNL d   1      -1.304  -0.925   1.478  0.00  0.00    -0.001 A 
ENDROOT
TORSDOF 0
ENDMDL
