MODEL 1
REMARK minimizedAffinity -5.69213152
REMARK minimizedRMSD -1
REMARK  0 active torsions:
REMARK  status: ('A' for Active; 'I' for Inactive)
ROOT
ATOM      1  C   UNL d   1       1.405  -2.790   0.819  0.00  0.00     0.078 C 
ATOM      2  C1  UNL d   1       0.953  -1.392   0.520  0.00  0.00    -0.077 A 
ATOM      3  C2  UNL d   1      -0.360  -0.985   0.787  0.00  0.00    -0.001 A 
ATOM      4  C3  UNL d   1      -0.769   0.317   0.495  0.00  0.00     0.003 A 
ATOM      5  C4  UNL d   1       0.128   1.222  -0.068  0.00  0.00    -0.005 A 
ATOM      6  C5  UNL d   1       1.436   0.826  -0.340  0.00  0.00     0.003 A 
ATOM      7  C6  UNL d   1       1.847  -0.475  -0.048  0.00  0.00    -0.001 A 
ENDROOT
TORSDOF 0
ENDMDL
