MODEL 1
REMARK minimizedAffinity -5.35222006
REMARK minimizedRMSD -1
REMARK  0 active torsions:
REMARK  status: ('A' for Active; 'I' for Inactive)
ROOT
ATOM      1  C   UNL d   1      -0.587   1.100  -0.662  0.00  0.00     0.078 C 
ATOM      2  C1  UNL d   1       0.150  -0.104  -0.155  0.00  0.00    -0.077 A 
ATOM      3  C2  UNL d   1       1.476  -0.350  -0.533  0.00  0.00    -0.001 A 
ATOM      4  C3  UNL d   1       2.147  -1.479  -0.061  0.00  0.00     0.003 A 
ATOM      5  C4  UNL d   1       1.500  -2.372   0.791  0.00  0.00    -0.005 A 
ATOM      6  C5  UNL d   1       0.180  -2.136   1.171  0.00  0.00     0.003 A 
ATOM      7  C6  UNL d   1      -0.492  -1.008   0.700  0.00  0.00    -0.001 A 
ENDROOT
TORSDOF 0
ENDMDL
