MODEL 1
REMARK minimizedAffinity -4.18496418
REMARK minimizedRMSD -1
REMARK  0 active torsions:
REMARK  status: ('A' for Active; 'I' for Inactive)
ROOT
ATOM      1  C   UNL d   1      -0.792   0.640  -0.486  0.00  0.00     0.078 C 
ATOM      2  C1  UNL d   1      -0.291  -0.448   0.416  0.00  0.00    -0.077 A 
ATOM      3  C2  UNL d   1      -0.999  -0.814   1.567  0.00  0.00    -0.001 A 
ATOM      4  C3  UNL d   1      -0.516  -1.822   2.403  0.00  0.00     0.003 A 
ATOM      5  C4  UNL d   1       0.678  -2.472   2.098  0.00  0.00    -0.005 A 
ATOM      6  C5  UNL d   1       1.391  -2.113   0.956  0.00  0.00     0.003 A 
ATOM      7  C6  UNL d   1       0.910  -1.105   0.119  0.00  0.00    -0.001 A 
ENDROOT
TORSDOF 0
ENDMDL
