MODEL 1
REMARK minimizedAffinity -5.68766832
REMARK minimizedRMSD -1
REMARK  2 active torsions:
REMARK  status: ('A' for Active; 'I' for Inactive)
REMARK    1  A    between atoms: C1_2  and  C2_3 
REMARK    2  A    between atoms: C2_3  and  C3_4 
ROOT
ATOM      1  C3  UNL d   1      -0.065   0.021   0.047  0.00  0.00    -0.075 A 
ATOM      2  C4  UNL d   1       1.122  -0.347   0.697  0.00  0.00     0.002 A 
ATOM      3  C5  UNL d   1       1.119  -0.657   2.057  0.00  0.00     0.002 A 
ATOM      4  C6  UNL d   1      -0.067  -0.594   2.786  0.00  0.00    -0.004 A 
ATOM      5  C7  UNL d   1      -1.249  -0.213   2.155  0.00  0.00     0.002 A 
ATOM      6  C8  UNL d   1      -1.249   0.093   0.793  0.00  0.00     0.002 A 
ENDROOT
BRANCH   1   7
ATOM      7  C2  UNL d   1      -0.073   0.329  -1.431  0.00  0.00     0.056 C 
BRANCH   7   8
ATOM      8  C1  UNL d   1      -0.874   1.582  -1.802  0.00  0.00     0.007 C 
ATOM      9  C   UNL d   1       0.002   2.741  -2.259  0.00  0.00     0.009 C 
ENDBRANCH   7   8
ENDBRANCH   1   7
TORSDOF 2
ENDMDL
