MODEL 1
REMARK minimizedAffinity -2.68804884
REMARK minimizedRMSD -1
REMARK  2 active torsions:
REMARK  status: ('A' for Active; 'I' for Inactive)
REMARK    1  A    between atoms: C1_2  and  C2_3 
REMARK    2  A    between atoms: C2_3  and  C3_4 
ROOT
ATOM      1  C3  UNL d   1      -0.534   0.150  -0.056  0.00  0.00    -0.075 A 
ATOM      2  C4  UNL d   1      -1.303   0.040   1.112  0.00  0.00     0.002 A 
ATOM      3  C5  UNL d   1      -0.717  -0.370   2.309  0.00  0.00     0.002 A 
ATOM      4  C6  UNL d   1       0.640  -0.686   2.353  0.00  0.00    -0.004 A 
ATOM      5  C7  UNL d   1       1.409  -0.596   1.195  0.00  0.00     0.002 A 
ATOM      6  C8  UNL d   1       0.826  -0.182  -0.004  0.00  0.00     0.002 A 
ENDROOT
BRANCH   1   7
ATOM      7  C2  UNL d   1      -1.156   0.622  -1.349  0.00  0.00     0.056 C 
BRANCH   7   8
ATOM      8  C1  UNL d   1      -0.455   1.834  -1.972  0.00  0.00     0.007 C 
ATOM      9  C   UNL d   1      -1.389   2.707  -2.799  0.00  0.00     0.009 C 
ENDBRANCH   7   8
ENDBRANCH   1   7
TORSDOF 2
ENDMDL
