MODEL 1
REMARK minimizedAffinity -3.22869539
REMARK minimizedRMSD -1
REMARK  2 active torsions:
REMARK  status: ('A' for Active; 'I' for Inactive)
REMARK    1  A    between atoms: C1_2  and  C2_3 
REMARK    2  A    between atoms: C2_3  and  C3_4 
ROOT
ATOM      1  C3  UNL d   1      -0.312   0.381  -0.378  0.00  0.00    -0.075 A 
ATOM      2  C4  UNL d   1       0.948  -0.031   0.079  0.00  0.00     0.002 A 
ATOM      3  C5  UNL d   1       1.135  -0.387   1.415  0.00  0.00     0.002 A 
ATOM      4  C6  UNL d   1       0.071  -0.326   2.311  0.00  0.00    -0.004 A 
ATOM      5  C7  UNL d   1      -1.182   0.098   1.872  0.00  0.00     0.002 A 
ATOM      6  C8  UNL d   1      -1.373   0.451   0.535  0.00  0.00     0.002 A 
ENDROOT
BRANCH   1   7
ATOM      7  C2  UNL d   1      -0.528   0.740  -1.829  0.00  0.00     0.056 C 
BRANCH   7   8
ATOM      8  C1  UNL d   1      -0.024   2.136  -2.208  0.00  0.00     0.007 C 
ATOM      9  C   UNL d   1      -1.125   3.189  -2.223  0.00  0.00     0.009 C 
ENDBRANCH   7   8
ENDBRANCH   1   7
TORSDOF 2
ENDMDL
