MODEL 1
REMARK minimizedAffinity -2.4224987
REMARK minimizedRMSD -1
REMARK  2 active torsions:
REMARK  status: ('A' for Active; 'I' for Inactive)
REMARK    1  A    between atoms: C1_2  and  C2_3 
REMARK    2  A    between atoms: C2_3  and  C3_4 
ROOT
ATOM      1  C3  UNL d   1       1.863  -1.312   2.092  0.00  0.00    -0.075 A 
ATOM      2  C4  UNL d   1       0.581  -1.748   1.728  0.00  0.00     0.002 A 
ATOM      3  C5  UNL d   1      -0.551  -1.058   2.160  0.00  0.00     0.002 A 
ATOM      4  C6  UNL d   1      -0.418   0.069   2.969  0.00  0.00    -0.004 A 
ATOM      5  C7  UNL d   1       0.850   0.502   3.350  0.00  0.00     0.002 A 
ATOM      6  C8  UNL d   1       1.985  -0.184   2.915  0.00  0.00     0.002 A 
ENDROOT
BRANCH   1   7
ATOM      7  C2  UNL d   1       3.094  -2.037   1.603  0.00  0.00     0.056 C 
BRANCH   7   8
ATOM      8  C1  UNL d   1       2.909  -2.741   0.254  0.00  0.00     0.007 C 
ATOM      9  C   UNL d   1       2.524  -1.790  -0.871  0.00  0.00     0.009 C 
ENDBRANCH   7   8
ENDBRANCH   1   7
TORSDOF 2
ENDMDL
