MODEL 1
REMARK minimizedAffinity 0.85506165
REMARK minimizedRMSD -1
REMARK  1 active torsions:
REMARK  status: ('A' for Active; 'I' for Inactive)
REMARK    1  A    between atoms: C1_2  and  C2_3 
ROOT
ATOM      1  C2  UNL d   1      -0.751   2.619  -2.440  0.00  0.00    -0.073 A 
ATOM      2  C3  UNL d   1      -1.680   1.913  -3.214  0.00  0.00    -0.002 A 
ATOM      3  C4  UNL d   1      -2.613   1.075  -2.603  0.00  0.00     0.004 A 
ATOM      4  C5  UNL d   1      -2.632   0.938  -1.215  0.00  0.00    -0.004 A 
ATOM      5  C6  UNL d   1      -1.720   1.644  -0.425  0.00  0.00    -0.075 A 
ATOM      6  C7  UNL d   1      -1.726   1.506   1.070  0.00  0.00     0.076 C 
ATOM      7  C8  UNL d   1      -0.784   2.482  -1.045  0.00  0.00     0.001 A 
ENDROOT
BRANCH   1   8
ATOM      8  C1  UNL d   1       0.254   3.531  -3.094  0.00  0.00     0.053 C 
ATOM      9  C   UNL d   1       1.639   2.907  -3.149  0.00  0.00     0.018 C 
ENDBRANCH   1   8
TORSDOF 1
ENDMDL
