MODEL 1
REMARK minimizedAffinity 0.216292873
REMARK minimizedRMSD -1
REMARK  1 active torsions:
REMARK  status: ('A' for Active; 'I' for Inactive)
REMARK    1  A    between atoms: C1_2  and  C2_3 
ROOT
ATOM      1  C2  UNL d   1       0.484  -3.159  -0.256  0.00  0.00    -0.073 A 
ATOM      2  C3  UNL d   1      -0.419  -2.430   0.526  0.00  0.00    -0.002 A 
ATOM      3  C4  UNL d   1       0.030  -1.383   1.331  0.00  0.00     0.004 A 
ATOM      4  C5  UNL d   1       1.384  -1.048   1.357  0.00  0.00    -0.004 A 
ATOM      5  C6  UNL d   1       2.301  -1.757   0.574  0.00  0.00    -0.075 A 
ATOM      6  C7  UNL d   1       3.761  -1.411   0.592  0.00  0.00     0.076 C 
ATOM      7  C8  UNL d   1       1.842  -2.809  -0.230  0.00  0.00     0.001 A 
ENDROOT
BRANCH   1   8
ATOM      8  C1  UNL d   1       0.003  -4.287  -1.131  0.00  0.00     0.053 C 
ATOM      9  C   UNL d   1       0.499  -4.149  -2.562  0.00  0.00     0.018 C 
ENDBRANCH   1   8
TORSDOF 1
ENDMDL
