MODEL 1
REMARK minimizedAffinity -1.91332626
REMARK minimizedRMSD -1
REMARK  1 active torsions:
REMARK  status: ('A' for Active; 'I' for Inactive)
REMARK    1  A    between atoms: C1_2  and  C2_3 
ROOT
ATOM      1  C2  UNL d   1      -0.203  -1.223   1.156  0.00  0.00    -0.073 A 
ATOM      2  C3  UNL d   1      -0.695  -2.396   0.572  0.00  0.00    -0.002 A 
ATOM      3  C4  UNL d   1       0.150  -3.220  -0.173  0.00  0.00     0.004 A 
ATOM      4  C5  UNL d   1       1.494  -2.885  -0.335  0.00  0.00    -0.004 A 
ATOM      5  C6  UNL d   1       2.007  -1.723   0.250  0.00  0.00    -0.075 A 
ATOM      6  C7  UNL d   1       3.450  -1.347   0.083  0.00  0.00     0.076 C 
ATOM      7  C8  UNL d   1       1.152  -0.898   0.994  0.00  0.00     0.001 A 
ENDROOT
BRANCH   1   8
ATOM      8  C1  UNL d   1      -1.110  -0.333   1.966  0.00  0.00     0.053 C 
ATOM      9  C   UNL d   1      -2.165   0.343   1.104  0.00  0.00     0.018 C 
ENDBRANCH   1   8
TORSDOF 1
ENDMDL
