MODEL 1
REMARK minimizedAffinity 7.70159674
REMARK minimizedRMSD -1
REMARK  1 active torsions:
REMARK  status: ('A' for Active; 'I' for Inactive)
REMARK    1  A    between atoms: C1_2  and  C2_3 
ROOT
ATOM      1  C2  UNL d   1       0.829  -0.816   0.593  0.00  0.00    -0.073 A 
ATOM      2  C3  UNL d   1       2.121  -0.428   0.220  0.00  0.00    -0.002 A 
ATOM      3  C4  UNL d   1       3.069  -0.108   1.193  0.00  0.00     0.004 A 
ATOM      4  C5  UNL d   1       2.738  -0.178   2.546  0.00  0.00    -0.004 A 
ATOM      5  C6  UNL d   1       1.455  -0.575   2.939  0.00  0.00    -0.075 A 
ATOM      6  C7  UNL d   1       1.082  -0.654   4.390  0.00  0.00     0.076 C 
ATOM      7  C8  UNL d   1       0.508  -0.892   1.956  0.00  0.00     0.001 A 
ENDROOT
BRANCH   1   8
ATOM      8  C1  UNL d   1      -0.196  -1.168  -0.454  0.00  0.00     0.053 C 
ATOM      9  C   UNL d   1      -1.616  -0.935   0.037  0.00  0.00     0.018 C 
ENDBRANCH   1   8
TORSDOF 1
ENDMDL
