MODEL 1
REMARK minimizedAffinity 3.03522563
REMARK minimizedRMSD -1
REMARK  1 active torsions:
REMARK  status: ('A' for Active; 'I' for Inactive)
REMARK    1  A    between atoms: C1_2  and  C2_3 
ROOT
ATOM      1  C2  UNL d   1       0.860  -0.278   1.529  0.00  0.00    -0.073 A 
ATOM      2  C3  UNL d   1      -0.492   0.085   1.542  0.00  0.00    -0.002 A 
ATOM      3  C4  UNL d   1      -1.441  -0.709   0.898  0.00  0.00     0.004 A 
ATOM      4  C5  UNL d   1      -1.051  -1.875   0.240  0.00  0.00    -0.004 A 
ATOM      5  C6  UNL d   1       0.293  -2.261   0.226  0.00  0.00    -0.075 A 
ATOM      6  C7  UNL d   1       0.729  -3.512  -0.479  0.00  0.00     0.076 C 
ATOM      7  C8  UNL d   1       1.241  -1.457   0.873  0.00  0.00     0.001 A 
ENDROOT
BRANCH   1   8
ATOM      8  C1  UNL d   1       1.888   0.573   2.229  0.00  0.00     0.053 C 
ATOM      9  C   UNL d   1       3.233   0.539   1.521  0.00  0.00     0.018 C 
ENDBRANCH   1   8
TORSDOF 1
ENDMDL
