MODEL 1
REMARK minimizedAffinity 3.51178741
REMARK minimizedRMSD -1
REMARK  1 active torsions:
REMARK  status: ('A' for Active; 'I' for Inactive)
REMARK    1  A    between atoms: C1_2  and  C2_3 
ROOT
ATOM      1  C2  UNL d   1       2.285   0.323   1.404  0.00  0.00    -0.073 A 
ATOM      2  C3  UNL d   1       2.828  -0.519   0.426  0.00  0.00    -0.002 A 
ATOM      3  C4  UNL d   1       2.003  -1.374  -0.305  0.00  0.00     0.004 A 
ATOM      4  C5  UNL d   1       0.628  -1.393  -0.071  0.00  0.00    -0.004 A 
ATOM      5  C6  UNL d   1       0.065  -0.550   0.893  0.00  0.00    -0.075 A 
ATOM      6  C7  UNL d   1      -1.412  -0.560   1.158  0.00  0.00     0.076 C 
ATOM      7  C8  UNL d   1       0.900   0.304   1.625  0.00  0.00     0.001 A 
ENDROOT
BRANCH   1   8
ATOM      8  C1  UNL d   1       3.171   1.253   2.191  0.00  0.00     0.053 C 
ATOM      9  C   UNL d   1       3.279   2.623   1.542  0.00  0.00     0.018 C 
ENDBRANCH   1   8
TORSDOF 1
ENDMDL
