MODEL 1
REMARK minimizedAffinity -1.75082409
REMARK minimizedRMSD -1
REMARK  1 active torsions:
REMARK  status: ('A' for Active; 'I' for Inactive)
REMARK    1  A    between atoms: C1_2  and  C2_3 
ROOT
ATOM      1  C2  UNL d   1       1.719  -2.877  -0.091  0.00  0.00    -0.073 A 
ATOM      2  C3  UNL d   1       2.416  -1.669   0.013  0.00  0.00    -0.002 A 
ATOM      3  C4  UNL d   1       1.749  -0.499   0.379  0.00  0.00     0.004 A 
ATOM      4  C5  UNL d   1       0.382  -0.527   0.652  0.00  0.00    -0.004 A 
ATOM      5  C6  UNL d   1      -0.331  -1.727   0.565  0.00  0.00    -0.075 A 
ATOM      6  C7  UNL d   1      -1.802  -1.774   0.854  0.00  0.00     0.076 C 
ATOM      7  C8  UNL d   1       0.346  -2.897   0.194  0.00  0.00     0.001 A 
ENDROOT
BRANCH   1   8
ATOM      8  C1  UNL d   1       2.436  -4.144  -0.479  0.00  0.00     0.053 C 
ATOM      9  C   UNL d   1       3.947  -3.992  -0.398  0.00  0.00     0.018 C 
ENDBRANCH   1   8
TORSDOF 1
ENDMDL
