MODEL 1
REMARK minimizedAffinity 11.3475552
REMARK minimizedRMSD -1
REMARK  1 active torsions:
REMARK  status: ('A' for Active; 'I' for Inactive)
REMARK    1  A    between atoms: C1_2  and  C2_3 
ROOT
ATOM      1  C2  UNL d   1       0.684  -2.736   0.006  0.00  0.00    -0.073 A 
ATOM      2  C3  UNL d   1      -0.587  -2.272  -0.354  0.00  0.00    -0.002 A 
ATOM      3  C4  UNL d   1      -1.063  -1.061   0.149  0.00  0.00     0.004 A 
ATOM      4  C5  UNL d   1      -0.273  -0.298   1.009  0.00  0.00    -0.004 A 
ATOM      5  C6  UNL d   1       1.004  -0.739   1.370  0.00  0.00    -0.075 A 
ATOM      6  C7  UNL d   1       1.866   0.068   2.296  0.00  0.00     0.076 C 
ATOM      7  C8  UNL d   1       1.474  -1.958   0.864  0.00  0.00     0.001 A 
ENDROOT
BRANCH   1   8
ATOM      8  C1  UNL d   1       1.205  -4.041  -0.539  0.00  0.00     0.053 C 
ATOM      9  C   UNL d   1       0.254  -4.654  -1.556  0.00  0.00     0.018 C 
ENDBRANCH   1   8
TORSDOF 1
ENDMDL
