MODEL 1
REMARK minimizedAffinity -1.63928294
REMARK minimizedRMSD -1
REMARK  1 active torsions:
REMARK  status: ('A' for Active; 'I' for Inactive)
REMARK    1  A    between atoms: C1_2  and  C2_3 
ROOT
ATOM      1  C2  UNL d   1      -0.447  -0.597   1.194  0.00  0.00    -0.073 A 
ATOM      2  C3  UNL d   1      -1.120  -1.772   0.841  0.00  0.00    -0.002 A 
ATOM      3  C4  UNL d   1      -0.436  -2.816   0.216  0.00  0.00     0.004 A 
ATOM      4  C5  UNL d   1       0.927  -2.699  -0.055  0.00  0.00    -0.004 A 
ATOM      5  C6  UNL d   1       1.620  -1.537   0.300  0.00  0.00    -0.075 A 
ATOM      6  C7  UNL d   1       3.086  -1.394   0.013  0.00  0.00     0.076 C 
ATOM      7  C8  UNL d   1       0.926  -0.492   0.925  0.00  0.00     0.001 A 
ENDROOT
BRANCH   1   8
ATOM      8  C1  UNL d   1      -1.179   0.530   1.874  0.00  0.00     0.053 C 
ATOM      9  C   UNL d   1      -2.408   0.965   1.092  0.00  0.00     0.018 C 
ENDBRANCH   1   8
TORSDOF 1
ENDMDL
