MODEL 1
REMARK minimizedAffinity 1.8981663
REMARK minimizedRMSD -1
REMARK  1 active torsions:
REMARK  status: ('A' for Active; 'I' for Inactive)
REMARK    1  A    between atoms: C1_2  and  C2_3 
ROOT
ATOM      1  C2  UNL d   1       0.036  -1.039   0.893  0.00  0.00    -0.073 A 
ATOM      2  C3  UNL d   1       1.119  -0.153   0.900  0.00  0.00    -0.002 A 
ATOM      3  C4  UNL d   1       2.389  -0.590   0.522  0.00  0.00     0.004 A 
ATOM      4  C5  UNL d   1       2.588  -1.913   0.128  0.00  0.00    -0.004 A 
ATOM      5  C6  UNL d   1       1.516  -2.810   0.103  0.00  0.00    -0.075 A 
ATOM      6  C7  UNL d   1       1.714  -4.238  -0.316  0.00  0.00     0.076 C 
ATOM      7  C8  UNL d   1       0.244  -2.365   0.487  0.00  0.00     0.001 A 
ENDROOT
BRANCH   1   8
ATOM      8  C1  UNL d   1      -1.339  -0.571   1.294  0.00  0.00     0.053 C 
ATOM      9  C   UNL d   1      -1.570   0.890   0.939  0.00  0.00     0.018 C 
ENDBRANCH   1   8
TORSDOF 1
ENDMDL
