MODEL 1
REMARK minimizedAffinity 3.95163679
REMARK minimizedRMSD -1
REMARK  1 active torsions:
REMARK  status: ('A' for Active; 'I' for Inactive)
REMARK    1  A    between atoms: C1_2  and  C2_3 
ROOT
ATOM      1  C2  UNL d   1       2.256  -1.512  -0.053  0.00  0.00    -0.073 A 
ATOM      2  C3  UNL d   1       1.377  -1.801  -1.102  0.00  0.00    -0.002 A 
ATOM      3  C4  UNL d   1       0.032  -1.439  -1.014  0.00  0.00     0.004 A 
ATOM      4  C5  UNL d   1      -0.445  -0.779   0.118  0.00  0.00    -0.004 A 
ATOM      5  C6  UNL d   1       0.421  -0.470   1.172  0.00  0.00    -0.075 A 
ATOM      6  C7  UNL d   1      -0.077   0.238   2.398  0.00  0.00     0.076 C 
ATOM      7  C8  UNL d   1       1.770  -0.839   1.078  0.00  0.00     0.001 A 
ENDROOT
BRANCH   1   8
ATOM      8  C1  UNL d   1       3.711  -1.895  -0.145  0.00  0.00     0.053 C 
ATOM      9  C   UNL d   1       3.893  -3.384  -0.391  0.00  0.00     0.018 C 
ENDBRANCH   1   8
TORSDOF 1
ENDMDL
