MODEL 1
REMARK minimizedAffinity 9.64755249
REMARK minimizedRMSD -1
REMARK  1 active torsions:
REMARK  status: ('A' for Active; 'I' for Inactive)
REMARK    1  A    between atoms: C1_2  and  C2_3 
ROOT
ATOM      1  C2  UNL d   1      -0.472  -3.779   0.024  0.00  0.00    -0.076 A 
ATOM      2  C3  UNL d   1      -1.700  -3.118   0.199  0.00  0.00     0.004 A 
ATOM      3  C4  UNL d   1      -2.614  -3.014  -0.847  0.00  0.00    -0.003 A 
ATOM      4  C5  UNL d   1      -2.316  -3.569  -2.087  0.00  0.00     0.000 A 
ATOM      5  C6  UNL d   1      -1.109  -4.243  -2.274  0.00  0.00     0.000 A 
ATOM      6  C7  UNL d   1      -0.183  -4.372  -1.224  0.00  0.00    -0.073 A 
ATOM      7  C8  UNL d   1       1.105  -5.104  -1.483  0.00  0.00     0.078 C 
ENDROOT
BRANCH   1   8
ATOM      8  C1  UNL d   1       0.492  -3.837   1.187  0.00  0.00     0.053 C 
ATOM      9  C   UNL d   1       0.251  -5.041   2.084  0.00  0.00     0.018 C 
ENDBRANCH   1   8
TORSDOF 1
ENDMDL
