MODEL 1
REMARK minimizedAffinity -1.83062911
REMARK minimizedRMSD -1
REMARK  1 active torsions:
REMARK  status: ('A' for Active; 'I' for Inactive)
REMARK    1  A    between atoms: C1_2  and  C2_3 
ROOT
ATOM      1  C2  UNL d   1      -1.266  -0.197   1.192  0.00  0.00    -0.076 A 
ATOM      2  C3  UNL d   1      -0.296   0.806   1.367  0.00  0.00     0.004 A 
ATOM      3  C4  UNL d   1       1.055   0.543   1.146  0.00  0.00    -0.003 A 
ATOM      4  C5  UNL d   1       1.457  -0.726   0.745  0.00  0.00     0.000 A 
ATOM      5  C6  UNL d   1       0.507  -1.727   0.550  0.00  0.00     0.000 A 
ATOM      6  C7  UNL d   1      -0.861  -1.475   0.753  0.00  0.00    -0.073 A 
ATOM      7  C8  UNL d   1      -1.842  -2.594   0.534  0.00  0.00     0.078 C 
ENDROOT
BRANCH   1   8
ATOM      8  C1  UNL d   1      -2.713   0.139   1.474  0.00  0.00     0.053 C 
ATOM      9  C   UNL d   1      -3.147   1.442   0.820  0.00  0.00     0.018 C 
ENDBRANCH   1   8
TORSDOF 1
ENDMDL
