MODEL 1
REMARK minimizedAffinity 10.1909533
REMARK minimizedRMSD -1
REMARK  1 active torsions:
REMARK  status: ('A' for Active; 'I' for Inactive)
REMARK    1  A    between atoms: C1_2  and  C2_3 
ROOT
ATOM      1  C2  UNL d   1       0.438  -3.095  -0.193  0.00  0.00    -0.076 A 
ATOM      2  C3  UNL d   1       0.320  -1.967   0.638  0.00  0.00     0.004 A 
ATOM      3  C4  UNL d   1       1.373  -1.064   0.775  0.00  0.00    -0.003 A 
ATOM      4  C5  UNL d   1       2.561  -1.275   0.084  0.00  0.00     0.000 A 
ATOM      5  C6  UNL d   1       2.689  -2.379  -0.759  0.00  0.00     0.000 A 
ATOM      6  C7  UNL d   1       1.631  -3.289  -0.921  0.00  0.00    -0.073 A 
ATOM      7  C8  UNL d   1       1.826  -4.466  -1.838  0.00  0.00     0.078 C 
ENDROOT
BRANCH   1   8
ATOM      8  C1  UNL d   1      -0.728  -4.054  -0.282  0.00  0.00     0.053 C 
ATOM      9  C   UNL d   1      -1.641  -3.753  -1.461  0.00  0.00     0.018 C 
ENDBRANCH   1   8
TORSDOF 1
ENDMDL
