MODEL 1
REMARK minimizedAffinity 3.77886939
REMARK minimizedRMSD -1
REMARK  1 active torsions:
REMARK  status: ('A' for Active; 'I' for Inactive)
REMARK    1  A    between atoms: C1_2  and  C2_3 
ROOT
ATOM      1  C2  UNL d   1      -1.778  -3.893   0.873  0.00  0.00    -0.076 A 
ATOM      2  C3  UNL d   1      -1.991  -3.183  -0.322  0.00  0.00     0.004 A 
ATOM      3  C4  UNL d   1      -2.821  -3.691  -1.320  0.00  0.00    -0.003 A 
ATOM      4  C5  UNL d   1      -3.452  -4.917  -1.139  0.00  0.00     0.000 A 
ATOM      5  C6  UNL d   1      -3.267  -5.626   0.047  0.00  0.00     0.000 A 
ATOM      6  C7  UNL d   1      -2.446  -5.121   1.070  0.00  0.00    -0.073 A 
ATOM      7  C8  UNL d   1      -2.277  -5.931   2.326  0.00  0.00     0.078 C 
ENDROOT
BRANCH   1   8
ATOM      8  C1  UNL d   1      -0.846  -3.306   1.908  0.00  0.00     0.053 C 
ATOM      9  C   UNL d   1       0.469  -2.834   1.308  0.00  0.00     0.018 C 
ENDBRANCH   1   8
TORSDOF 1
ENDMDL
