MODEL 1
REMARK minimizedAffinity 6.20948029
REMARK minimizedRMSD -1
REMARK  1 active torsions:
REMARK  status: ('A' for Active; 'I' for Inactive)
REMARK    1  A    between atoms: C1_2  and  C2_3 
ROOT
ATOM      1  C2  UNL d   1      -0.784   2.392  -3.910  0.00  0.00    -0.076 A 
ATOM      2  C3  UNL d   1       0.339   1.811  -3.295  0.00  0.00     0.004 A 
ATOM      3  C4  UNL d   1       1.497   1.543  -4.023  0.00  0.00    -0.003 A 
ATOM      4  C5  UNL d   1       1.552   1.853  -5.378  0.00  0.00     0.000 A 
ATOM      5  C6  UNL d   1       0.454   2.446  -6.000  0.00  0.00     0.000 A 
ATOM      6  C7  UNL d   1      -0.716   2.738  -5.277  0.00  0.00    -0.073 A 
ATOM      7  C8  UNL d   1      -1.872   3.373  -6.000  0.00  0.00     0.078 C 
ENDROOT
BRANCH   1   8
ATOM      8  C1  UNL d   1      -2.022   2.634  -3.077  0.00  0.00     0.053 C 
ATOM      9  C   UNL d   1      -3.053   1.527  -3.230  0.00  0.00     0.018 C 
ENDBRANCH   1   8
TORSDOF 1
ENDMDL
