MODEL 1
REMARK minimizedAffinity 10.0148582
REMARK minimizedRMSD -1
REMARK  1 active torsions:
REMARK  status: ('A' for Active; 'I' for Inactive)
REMARK    1  A    between atoms: C1_2  and  C2_3 
ROOT
ATOM      1  C2  UNL d   1       5.529   3.620   0.701  0.00  0.00    -0.076 A 
ATOM      2  C3  UNL d   1       5.999   4.847   0.202  0.00  0.00     0.004 A 
ATOM      3  C4  UNL d   1       5.975   5.997   0.989  0.00  0.00    -0.003 A 
ATOM      4  C5  UNL d   1       5.481   5.939   2.288  0.00  0.00     0.000 A 
ATOM      5  C6  UNL d   1       5.028   4.726   2.805  0.00  0.00     0.000 A 
ATOM      6  C7  UNL d   1       5.060   3.553   2.030  0.00  0.00    -0.073 A 
ATOM      7  C8  UNL d   1       4.553   2.273   2.636  0.00  0.00     0.078 C 
ENDROOT
BRANCH   1   8
ATOM      8  C1  UNL d   1       5.554   2.412  -0.208  0.00  0.00     0.053 C 
ATOM      9  C   UNL d   1       5.995   2.756  -1.623  0.00  0.00     0.018 C 
ENDBRANCH   1   8
TORSDOF 1
ENDMDL
