MODEL 1
REMARK minimizedAffinity 0.777275741
REMARK minimizedRMSD -1
REMARK  1 active torsions:
REMARK  status: ('A' for Active; 'I' for Inactive)
REMARK    1  A    between atoms: C1_2  and  C2_3 
ROOT
ATOM      1  C2  UNL d   1       1.164   3.377   0.926  0.00  0.00    -0.076 A 
ATOM      2  C3  UNL d   1       0.043   3.512   1.764  0.00  0.00     0.004 A 
ATOM      3  C4  UNL d   1      -0.535   2.399   2.374  0.00  0.00    -0.003 A 
ATOM      4  C5  UNL d   1      -0.000   1.134   2.157  0.00  0.00     0.000 A 
ATOM      5  C6  UNL d   1       1.122   0.984   1.343  0.00  0.00     0.000 A 
ATOM      6  C7  UNL d   1       1.726   2.097   0.733  0.00  0.00    -0.073 A 
ATOM      7  C8  UNL d   1       2.931   1.876  -0.139  0.00  0.00     0.078 C 
ENDROOT
BRANCH   1   8
ATOM      8  C1  UNL d   1       1.731   4.615   0.270  0.00  0.00     0.053 C 
ATOM      9  C   UNL d   1       2.911   5.192   1.035  0.00  0.00     0.018 C 
ENDBRANCH   1   8
TORSDOF 1
ENDMDL
