MODEL 1
REMARK minimizedAffinity 9.38974857
REMARK minimizedRMSD -1
REMARK  1 active torsions:
REMARK  status: ('A' for Active; 'I' for Inactive)
REMARK    1  A    between atoms: C1_2  and  C2_3 
ROOT
ATOM      1  C2  UNL d   1      -2.742  -0.556   1.419  0.00  0.00    -0.076 A 
ATOM      2  C3  UNL d   1      -4.058  -0.955   1.126  0.00  0.00     0.004 A 
ATOM      3  C4  UNL d   1      -5.063  -0.012   0.915  0.00  0.00    -0.003 A 
ATOM      4  C5  UNL d   1      -4.768   1.345   0.991  0.00  0.00     0.000 A 
ATOM      5  C6  UNL d   1      -3.464   1.758   1.263  0.00  0.00     0.000 A 
ATOM      6  C7  UNL d   1      -2.436   0.821   1.463  0.00  0.00    -0.073 A 
ATOM      7  C8  UNL d   1      -1.049   1.322   1.758  0.00  0.00     0.078 C 
ENDROOT
BRANCH   1   8
ATOM      8  C1  UNL d   1      -1.701  -1.624   1.665  0.00  0.00     0.053 C 
ATOM      9  C   UNL d   1      -1.787  -2.765   0.664  0.00  0.00     0.018 C 
ENDBRANCH   1   8
TORSDOF 1
ENDMDL
