MODEL 1
REMARK minimizedAffinity 5.2123313
REMARK minimizedRMSD -1
REMARK  1 active torsions:
REMARK  status: ('A' for Active; 'I' for Inactive)
REMARK    1  A    between atoms: C1_2  and  C2_3 
ROOT
ATOM      1  C2  UNL d   1      -0.962   2.514  -4.734  0.00  0.00    -0.076 A 
ATOM      2  C3  UNL d   1      -1.734   1.393  -4.384  0.00  0.00     0.004 A 
ATOM      3  C4  UNL d   1      -3.049   1.260  -4.828  0.00  0.00    -0.003 A 
ATOM      4  C5  UNL d   1      -3.613   2.247  -5.629  0.00  0.00     0.000 A 
ATOM      5  C6  UNL d   1      -2.856   3.358  -6.000  0.00  0.00     0.000 A 
ATOM      6  C7  UNL d   1      -1.524   3.499  -5.575  0.00  0.00    -0.073 A 
ATOM      7  C8  UNL d   1      -0.755   4.720  -6.000  0.00  0.00     0.078 C 
ENDROOT
BRANCH   1   8
ATOM      8  C1  UNL d   1       0.449   2.617  -4.201  0.00  0.00     0.053 C 
ATOM      9  C   UNL d   1       1.494   2.243  -5.241  0.00  0.00     0.018 C 
ENDBRANCH   1   8
TORSDOF 1
ENDMDL
