MODEL 1
REMARK minimizedAffinity 11.7236519
REMARK minimizedRMSD -1
REMARK  1 active torsions:
REMARK  status: ('A' for Active; 'I' for Inactive)
REMARK    1  A    between atoms: C1_2  and  C2_3 
ROOT
ATOM      1  C2  UNL d   1      -2.973  -5.060  -0.263  0.00  0.00    -0.076 A 
ATOM      2  C3  UNL d   1      -1.651  -4.720   0.071  0.00  0.00     0.004 A 
ATOM      3  C4  UNL d   1      -0.898  -3.878  -0.746  0.00  0.00    -0.003 A 
ATOM      4  C5  UNL d   1      -1.457  -3.361  -1.910  0.00  0.00     0.000 A 
ATOM      5  C6  UNL d   1      -2.773  -3.674  -2.247  0.00  0.00     0.000 A 
ATOM      6  C7  UNL d   1      -3.551  -4.508  -1.426  0.00  0.00    -0.073 A 
ATOM      7  C8  UNL d   1      -4.963  -4.817  -1.842  0.00  0.00     0.078 C 
ENDROOT
BRANCH   1   8
ATOM      8  C1  UNL d   1      -3.731  -6.000   0.648  0.00  0.00     0.053 C 
ATOM      9  C   UNL d   1      -4.949  -5.343   1.279  0.00  0.00     0.018 C 
ENDBRANCH   1   8
TORSDOF 1
ENDMDL
