MODEL 1
REMARK minimizedAffinity 7.03465843
REMARK minimizedRMSD -1
REMARK  1 active torsions:
REMARK  status: ('A' for Active; 'I' for Inactive)
REMARK    1  A    between atoms: C1_2  and  C2_3 
ROOT
ATOM      1  C2  UNL d   1      -1.266   2.294  -4.072  0.00  0.00    -0.076 A 
ATOM      2  C3  UNL d   1      -0.175   1.613  -3.504  0.00  0.00     0.004 A 
ATOM      3  C4  UNL d   1       1.042   1.522  -4.176  0.00  0.00    -0.003 A 
ATOM      4  C5  UNL d   1       1.189   2.110  -5.427  0.00  0.00     0.000 A 
ATOM      5  C6  UNL d   1       0.123   2.804  -5.999  0.00  0.00     0.000 A 
ATOM      6  C7  UNL d   1      -1.106   2.919  -5.327  0.00  0.00    -0.073 A 
ATOM      7  C8  UNL d   1      -2.225   3.674  -5.993  0.00  0.00     0.078 C 
ENDROOT
BRANCH   1   8
ATOM      8  C1  UNL d   1      -2.570   2.337  -3.308  0.00  0.00     0.053 C 
ATOM      9  C   UNL d   1      -3.485   1.171  -3.650  0.00  0.00     0.018 C 
ENDBRANCH   1   8
TORSDOF 1
ENDMDL
