MODEL 1
REMARK minimizedAffinity 7.58988619
REMARK minimizedRMSD -1
REMARK  3 active torsions:
REMARK  status: ('A' for Active; 'I' for Inactive)
REMARK    1  A    between atoms: C3'_2  and  C2'_3 
REMARK    2  A    between atoms: C2'_3  and  C1'_4 
REMARK    3  A    between atoms: C1'_4  and  C1_5 
ROOT
ATOM      1  C1  N4B d   1      -2.016   0.058  -3.315  0.00  0.00    -0.075 A 
ATOM      2  C2  N4B d   1      -3.187  -0.516  -2.771  0.00  0.00     0.002 A 
ATOM      3  C3  N4B d   1      -4.405  -0.278  -3.359  0.00  0.00     0.002 A 
ATOM      4  C4  N4B d   1      -4.480   0.543  -4.474  0.00  0.00    -0.004 A 
ATOM      5  C5  N4B d   1      -3.341   1.072  -5.008  0.00  0.00     0.002 A 
ATOM      6  C6  N4B d   1      -2.110   0.838  -4.431  0.00  0.00     0.002 A 
ENDROOT
BRANCH   1   7
ATOM      7  C1' N4B d   1      -0.673  -0.105  -2.657  0.00  0.00     0.057 C 
BRANCH   7   8
ATOM      8  C2' N4B d   1      -0.081  -1.453  -3.055  0.00  0.00     0.009 C 
BRANCH   8   9
ATOM      9  C3' N4B d   1       1.415  -1.514  -2.798  0.00  0.00     0.004 C 
ATOM     10  C4' N4B d   1       1.756  -1.489  -1.338  0.00  0.00     0.003 C 
ENDBRANCH   8   9
ENDBRANCH   7   8
ENDBRANCH   1   7
TORSDOF 3
ENDMDL
