MODEL 1
REMARK minimizedAffinity 0.135593817
REMARK minimizedRMSD -1
REMARK  3 active torsions:
REMARK  status: ('A' for Active; 'I' for Inactive)
REMARK    1  A    between atoms: C3'_2  and  C2'_3 
REMARK    2  A    between atoms: C2'_3  and  C1'_4 
REMARK    3  A    between atoms: C1'_4  and  C1_5 
ROOT
ATOM      1  C1  N4B d   1      -2.159   0.369  -2.972  0.00  0.00    -0.075 A 
ATOM      2  C2  N4B d   1      -2.638   0.087  -1.674  0.00  0.00     0.002 A 
ATOM      3  C3  N4B d   1      -3.856   0.578  -1.270  0.00  0.00     0.002 A 
ATOM      4  C4  N4B d   1      -4.599   1.365  -2.136  0.00  0.00    -0.004 A 
ATOM      5  C5  N4B d   1      -4.141   1.611  -3.397  0.00  0.00     0.002 A 
ATOM      6  C6  N4B d   1      -2.921   1.121  -3.818  0.00  0.00     0.002 A 
ENDROOT
BRANCH   1   7
ATOM      7  C1' N4B d   1      -0.796  -0.074  -3.428  0.00  0.00     0.057 C 
BRANCH   7   8
ATOM      8  C2' N4B d   1      -0.334  -1.244  -2.564  0.00  0.00     0.009 C 
BRANCH   8   9
ATOM      9  C3' N4B d   1       1.052  -1.728  -2.956  0.00  0.00     0.004 C 
ATOM     10  C4' N4B d   1       1.877  -2.144  -1.775  0.00  0.00     0.003 C 
ENDBRANCH   8   9
ENDBRANCH   7   8
ENDBRANCH   1   7
TORSDOF 3
ENDMDL
