MODEL 1
REMARK minimizedAffinity 2.53640532
REMARK minimizedRMSD -1
REMARK  3 active torsions:
REMARK  status: ('A' for Active; 'I' for Inactive)
REMARK    1  A    between atoms: C3'_2  and  C2'_3 
REMARK    2  A    between atoms: C2'_3  and  C1'_4 
REMARK    3  A    between atoms: C1'_4  and  C1_5 
ROOT
ATOM      1  C1  N4B d   1       1.756   0.144  -0.117  0.00  0.00    -0.075 A 
ATOM      2  C2  N4B d   1       2.979  -0.563  -0.147  0.00  0.00     0.002 A 
ATOM      3  C3  N4B d   1       2.988  -1.905  -0.440  0.00  0.00     0.002 A 
ATOM      4  C4  N4B d   1       1.792  -2.562  -0.687  0.00  0.00    -0.004 A 
ATOM      5  C5  N4B d   1       0.619  -1.866  -0.681  0.00  0.00     0.002 A 
ATOM      6  C6  N4B d   1       0.594  -0.517  -0.392  0.00  0.00     0.002 A 
ENDROOT
BRANCH   1   7
ATOM      7  C1' N4B d   1       1.687   1.592   0.284  0.00  0.00     0.057 C 
BRANCH   7   8
ATOM      8  C2' N4B d   1       0.280   2.119   0.015  0.00  0.00     0.009 C 
BRANCH   8   9
ATOM      9  C3' N4B d   1      -0.389   2.626   1.281  0.00  0.00     0.004 C 
ATOM     10  C4' N4B d   1      -0.281   1.658   2.422  0.00  0.00     0.003 C 
ENDBRANCH   8   9
ENDBRANCH   7   8
ENDBRANCH   1   7
TORSDOF 3
ENDMDL
