MODEL 1
REMARK minimizedAffinity 7.00895834
REMARK minimizedRMSD -1
REMARK  0 active torsions:
REMARK  status: ('A' for Active; 'I' for Inactive)
ROOT
ATOM      1  C   UNL d   1       1.936  -5.292   0.427  0.00  0.00     0.078 C 
ATOM      2  C1  UNL d   1       1.630  -3.959   1.042  0.00  0.00    -0.077 A 
ATOM      3  C2  UNL d   1       2.616  -2.971   1.149  0.00  0.00    -0.001 A 
ATOM      4  C3  UNL d   1       2.319  -1.738   1.733  0.00  0.00     0.003 A 
ATOM      5  C4  UNL d   1       1.037  -1.483   2.215  0.00  0.00    -0.005 A 
ATOM      6  C5  UNL d   1       0.050  -2.461   2.115  0.00  0.00     0.003 A 
ATOM      7  C6  UNL d   1       0.345  -3.694   1.531  0.00  0.00    -0.001 A 
ENDROOT
TORSDOF 0
ENDMDL
