MODEL 1
REMARK minimizedAffinity 0.803542376
REMARK minimizedRMSD -1
REMARK  0 active torsions:
REMARK  status: ('A' for Active; 'I' for Inactive)
ROOT
ATOM      1  C   UNL d   1       1.649   4.465  -5.972  0.00  0.00     0.078 C 
ATOM      2  C1  UNL d   1       3.144   4.581  -5.983  0.00  0.00    -0.077 A 
ATOM      3  C2  UNL d   1       3.955   3.441  -5.965  0.00  0.00    -0.001 A 
ATOM      4  C3  UNL d   1       5.346   3.564  -5.966  0.00  0.00     0.003 A 
ATOM      5  C4  UNL d   1       5.937   4.825  -5.983  0.00  0.00    -0.005 A 
ATOM      6  C5  UNL d   1       5.137   5.966  -5.997  0.00  0.00     0.003 A 
ATOM      7  C6  UNL d   1       3.746   5.845  -5.997  0.00  0.00    -0.001 A 
ENDROOT
TORSDOF 0
ENDMDL
