MODEL 1
REMARK minimizedAffinity 6.49373627
REMARK minimizedRMSD -1
REMARK  0 active torsions:
REMARK  status: ('A' for Active; 'I' for Inactive)
ROOT
ATOM      1  C   UNL d   1       2.887  -1.593   3.796  0.00  0.00     0.078 C 
ATOM      2  C1  UNL d   1       2.175  -1.863   2.504  0.00  0.00    -0.077 A 
ATOM      3  C2  UNL d   1       1.861  -3.171   2.115  0.00  0.00    -0.001 A 
ATOM      4  C3  UNL d   1       1.207  -3.409   0.905  0.00  0.00     0.003 A 
ATOM      5  C4  UNL d   1       0.862  -2.344   0.074  0.00  0.00    -0.005 A 
ATOM      6  C5  UNL d   1       1.173  -1.040   0.453  0.00  0.00     0.003 A 
ATOM      7  C6  UNL d   1       1.827  -0.800   1.662  0.00  0.00    -0.001 A 
ENDROOT
TORSDOF 0
ENDMDL
