MODEL 1
REMARK minimizedAffinity 7.41730738
REMARK minimizedRMSD -1
REMARK  0 active torsions:
REMARK  status: ('A' for Active; 'I' for Inactive)
ROOT
ATOM      1  C   UNL d   1       3.838   6.000   5.268  0.00  0.00     0.078 C 
ATOM      2  C1  UNL d   1       2.747   5.361   4.461  0.00  0.00    -0.077 A 
ATOM      3  C2  UNL d   1       1.458   5.907   4.431  0.00  0.00    -0.001 A 
ATOM      4  C3  UNL d   1       0.449   5.297   3.684  0.00  0.00     0.003 A 
ATOM      5  C4  UNL d   1       0.719   4.136   2.962  0.00  0.00    -0.005 A 
ATOM      6  C5  UNL d   1       1.998   3.583   2.988  0.00  0.00     0.003 A 
ATOM      7  C6  UNL d   1       3.008   4.193   3.734  0.00  0.00    -0.001 A 
ENDROOT
TORSDOF 0
ENDMDL
