MODEL 1
REMARK minimizedAffinity 9.11339188
REMARK minimizedRMSD -1
REMARK  0 active torsions:
REMARK  status: ('A' for Active; 'I' for Inactive)
ROOT
ATOM      1  C   UNL d   1       3.720  -1.645   3.907  0.00  0.00     0.078 C 
ATOM      2  C1  UNL d   1       2.947  -1.639   2.622  0.00  0.00    -0.077 A 
ATOM      3  C2  UNL d   1       1.548  -1.577   2.623  0.00  0.00    -0.001 A 
ATOM      4  C3  UNL d   1       0.841  -1.582   1.419  0.00  0.00     0.003 A 
ATOM      5  C4  UNL d   1       1.524  -1.652   0.207  0.00  0.00    -0.005 A 
ATOM      6  C5  UNL d   1       2.916  -1.717   0.197  0.00  0.00     0.003 A 
ATOM      7  C6  UNL d   1       3.625  -1.711   1.399  0.00  0.00    -0.001 A 
ENDROOT
TORSDOF 0
ENDMDL
