MODEL 1
REMARK minimizedAffinity 3.46735144
REMARK minimizedRMSD -1
REMARK  0 active torsions:
REMARK  status: ('A' for Active; 'I' for Inactive)
ROOT
ATOM      1  C   UNL d   1       1.165   4.901  -5.888  0.00  0.00     0.078 C 
ATOM      2  C1  UNL d   1       2.662   4.826  -5.896  0.00  0.00    -0.077 A 
ATOM      3  C2  UNL d   1       3.324   3.597  -5.789  0.00  0.00    -0.001 A 
ATOM      4  C3  UNL d   1       4.718   3.543  -5.788  0.00  0.00     0.003 A 
ATOM      5  C4  UNL d   1       5.464   4.715  -5.894  0.00  0.00    -0.005 A 
ATOM      6  C5  UNL d   1       4.815   5.944  -5.999  0.00  0.00     0.003 A 
ATOM      7  C6  UNL d   1       3.420   6.000  -5.999  0.00  0.00    -0.001 A 
ENDROOT
TORSDOF 0
ENDMDL
