MODEL 1
REMARK minimizedAffinity 4.59955835
REMARK minimizedRMSD -1
REMARK  0 active torsions:
REMARK  status: ('A' for Active; 'I' for Inactive)
ROOT
ATOM      1  C   UNL d   1       4.463  -2.169   4.038  0.00  0.00     0.078 C 
ATOM      2  C1  UNL d   1       3.380  -2.235   3.003  0.00  0.00    -0.077 A 
ATOM      3  C2  UNL d   1       3.448  -3.148   1.944  0.00  0.00    -0.001 A 
ATOM      4  C3  UNL d   1       2.437  -3.191   0.982  0.00  0.00     0.003 A 
ATOM      5  C4  UNL d   1       1.351  -2.323   1.069  0.00  0.00    -0.005 A 
ATOM      6  C5  UNL d   1       1.276  -1.409   2.118  0.00  0.00     0.003 A 
ATOM      7  C6  UNL d   1       2.285  -1.364   3.081  0.00  0.00    -0.001 A 
ENDROOT
TORSDOF 0
ENDMDL
