MODEL 1
REMARK minimizedAffinity 3.72157097
REMARK minimizedRMSD -1
REMARK  0 active torsions:
REMARK  status: ('A' for Active; 'I' for Inactive)
ROOT
ATOM      1  C   UNL d   1       1.210   4.890  -5.287  0.00  0.00     0.078 C 
ATOM      2  C1  UNL d   1       0.210   3.826  -4.946  0.00  0.00    -0.077 A 
ATOM      3  C2  UNL d   1       0.037   2.709  -5.772  0.00  0.00    -0.001 A 
ATOM      4  C3  UNL d   1      -0.904   1.730  -5.448  0.00  0.00     0.003 A 
ATOM      5  C4  UNL d   1      -1.681   1.860  -4.298  0.00  0.00    -0.005 A 
ATOM      6  C5  UNL d   1      -1.517   2.969  -3.471  0.00  0.00     0.003 A 
ATOM      7  C6  UNL d   1      -0.576   3.948  -3.794  0.00  0.00    -0.001 A 
ENDROOT
TORSDOF 0
ENDMDL
