MODEL 1
REMARK minimizedAffinity 0.180502251
REMARK minimizedRMSD -1
REMARK  0 active torsions:
REMARK  status: ('A' for Active; 'I' for Inactive)
ROOT
ATOM      1  C   UNL d   1       1.511  -1.857   1.888  0.00  0.00     0.078 C 
ATOM      2  C1  UNL d   1       2.230  -3.086   1.417  0.00  0.00    -0.077 A 
ATOM      3  C2  UNL d   1       3.614  -3.077   1.209  0.00  0.00    -0.001 A 
ATOM      4  C3  UNL d   1       4.268  -4.226   0.761  0.00  0.00     0.003 A 
ATOM      5  C4  UNL d   1       3.546  -5.392   0.517  0.00  0.00    -0.005 A 
ATOM      6  C5  UNL d   1       2.167  -5.410   0.720  0.00  0.00     0.003 A 
ATOM      7  C6  UNL d   1       1.511  -4.262   1.167  0.00  0.00    -0.001 A 
ENDROOT
TORSDOF 0
ENDMDL
