MODEL 1
REMARK minimizedAffinity 12.941083
REMARK minimizedRMSD -1
REMARK  0 active torsions:
REMARK  status: ('A' for Active; 'I' for Inactive)
ROOT
ATOM      1  C2' OXE d   1       3.033   0.730  -0.060  0.00  0.00     0.078 C 
ATOM      2  C1' OXE d   1       5.376   2.239  -0.397  0.00  0.00     0.078 C 
ATOM      3  C1  OXE d   1       4.315   2.338  -1.465  0.00  0.00    -0.078 A 
ATOM      4  C2  OXE d   1       3.193   1.560  -1.315  0.00  0.00    -0.078 A 
ATOM      5  C3  OXE d   1       2.160   1.655  -2.243  0.00  0.00     0.003 A 
ATOM      6  C4  OXE d   1       2.319   2.418  -3.406  0.00  0.00    -0.002 A 
ATOM      7  C5  OXE d   1       3.472   3.187  -3.598  0.00  0.00    -0.002 A 
ATOM      8  C6  OXE d   1       4.459   3.192  -2.619  0.00  0.00     0.003 A 
ENDROOT
TORSDOF 0
ENDMDL
