MODEL 1
REMARK minimizedAffinity 6.31044865
REMARK minimizedRMSD -1
REMARK  0 active torsions:
REMARK  status: ('A' for Active; 'I' for Inactive)
ROOT
ATOM      1  C2' OXE d   1      -1.874  -0.372   4.116  0.00  0.00     0.078 C 
ATOM      2  C1' OXE d   1      -0.362  -1.636   2.117  0.00  0.00     0.078 C 
ATOM      3  C1  OXE d   1      -1.503  -0.751   1.682  0.00  0.00    -0.078 A 
ATOM      4  C2  OXE d   1      -2.267  -0.174   2.668  0.00  0.00    -0.078 A 
ATOM      5  C3  OXE d   1      -3.297   0.695   2.322  0.00  0.00     0.003 A 
ATOM      6  C4  OXE d   1      -3.660   0.866   0.981  0.00  0.00    -0.002 A 
ATOM      7  C5  OXE d   1      -2.921   0.255  -0.038  0.00  0.00    -0.002 A 
ATOM      8  C6  OXE d   1      -1.815  -0.520   0.293  0.00  0.00     0.003 A 
ENDROOT
TORSDOF 0
ENDMDL
