MODEL 1
REMARK minimizedAffinity 16.8991241
REMARK minimizedRMSD -1
REMARK  0 active torsions:
REMARK  status: ('A' for Active; 'I' for Inactive)
ROOT
ATOM      1  C2' OXE d   1      -1.229  -0.669   0.723  0.00  0.00     0.078 C 
ATOM      2  C1' OXE d   1      -0.790  -3.419   0.368  0.00  0.00     0.078 C 
ATOM      3  C1  OXE d   1      -0.247  -2.776   1.619  0.00  0.00    -0.078 A 
ATOM      4  C2  OXE d   1      -0.426  -1.421   1.762  0.00  0.00    -0.078 A 
ATOM      5  C3  OXE d   1       0.008  -0.787   2.923  0.00  0.00     0.003 A 
ATOM      6  C4  OXE d   1       0.758  -1.487   3.875  0.00  0.00    -0.002 A 
ATOM      7  C5  OXE d   1       0.986  -2.860   3.730  0.00  0.00    -0.002 A 
ATOM      8  C6  OXE d   1       0.455  -3.526   2.631  0.00  0.00     0.003 A 
ENDROOT
TORSDOF 0
ENDMDL
