MODEL 1
REMARK minimizedAffinity 10.7526417
REMARK minimizedRMSD -1
REMARK  0 active torsions:
REMARK  status: ('A' for Active; 'I' for Inactive)
ROOT
ATOM      1  C2' OXE d   1       2.109  -2.411   3.819  0.00  0.00     0.078 C 
ATOM      2  C1' OXE d   1       0.014  -0.640   4.416  0.00  0.00     0.078 C 
ATOM      3  C1  OXE d   1      -0.115  -1.490   3.177  0.00  0.00    -0.078 A 
ATOM      4  C2  OXE d   1       0.936  -2.320   2.867  0.00  0.00    -0.078 A 
ATOM      5  C3  OXE d   1       0.845  -3.165   1.765  0.00  0.00     0.003 A 
ATOM      6  C4  OXE d   1      -0.239  -3.067   0.884  0.00  0.00    -0.002 A 
ATOM      7  C5  OXE d   1      -1.301  -2.199   1.159  0.00  0.00    -0.002 A 
ATOM      8  C6  OXE d   1      -1.275  -1.437   2.321  0.00  0.00     0.003 A 
ENDROOT
TORSDOF 0
ENDMDL
