MODEL 1
REMARK minimizedAffinity 9.92165565
REMARK minimizedRMSD -1
REMARK  0 active torsions:
REMARK  status: ('A' for Active; 'I' for Inactive)
ROOT
ATOM      1  C2' OXE d   1      -0.594  -3.719  -0.419  0.00  0.00     0.078 C 
ATOM      2  C1' OXE d   1       2.059  -3.666   0.497  0.00  0.00     0.078 C 
ATOM      3  C1  OXE d   1       1.039  -2.845   1.247  0.00  0.00    -0.078 A 
ATOM      4  C2  OXE d   1      -0.248  -2.840   0.764  0.00  0.00    -0.078 A 
ATOM      5  C3  OXE d   1      -1.239  -2.144   1.449  0.00  0.00     0.003 A 
ATOM      6  C4  OXE d   1      -0.908  -1.326   2.536  0.00  0.00    -0.002 A 
ATOM      7  C5  OXE d   1       0.404  -1.286   3.021  0.00  0.00    -0.002 A 
ATOM      8  C6  OXE d   1       1.379  -2.071   2.415  0.00  0.00     0.003 A 
ENDROOT
TORSDOF 0
ENDMDL
