MODEL 1
REMARK minimizedAffinity 10.208828
REMARK minimizedRMSD -1
REMARK  0 active torsions:
REMARK  status: ('A' for Active; 'I' for Inactive)
ROOT
ATOM      1  C2' OXE d   1       0.514  -2.022   3.061  0.00  0.00     0.078 C 
ATOM      2  C1' OXE d   1      -0.770  -0.295   4.864  0.00  0.00     0.078 C 
ATOM      3  C1  OXE d   1      -1.290  -0.348   3.449  0.00  0.00    -0.078 A 
ATOM      4  C2  OXE d   1      -0.626  -1.161   2.562  0.00  0.00    -0.078 A 
ATOM      5  C3  OXE d   1      -1.098  -1.288   1.258  0.00  0.00     0.003 A 
ATOM      6  C4  OXE d   1      -2.146  -0.480   0.801  0.00  0.00    -0.002 A 
ATOM      7  C5  OXE d   1      -2.811   0.384   1.678  0.00  0.00    -0.002 A 
ATOM      8  C6  OXE d   1      -2.423   0.430   3.013  0.00  0.00     0.003 A 
ENDROOT
TORSDOF 0
ENDMDL
