MODEL 1
REMARK minimizedAffinity 10.1235104
REMARK minimizedRMSD -1
REMARK  0 active torsions:
REMARK  status: ('A' for Active; 'I' for Inactive)
ROOT
ATOM      1  C2' OXE d   1      -5.451  -3.081   5.437  0.00  0.00     0.078 C 
ATOM      2  C1' OXE d   1      -5.993  -5.831   5.589  0.00  0.00     0.078 C 
ATOM      3  C1  OXE d   1      -5.837  -5.220   4.219  0.00  0.00    -0.078 A 
ATOM      4  C2  OXE d   1      -5.618  -3.865   4.153  0.00  0.00    -0.078 A 
ATOM      5  C3  OXE d   1      -5.413  -3.259   2.916  0.00  0.00     0.003 A 
ATOM      6  C4  OXE d   1      -5.579  -3.989   1.733  0.00  0.00    -0.002 A 
ATOM      7  C5  OXE d   1      -5.841  -5.363   1.777  0.00  0.00    -0.002 A 
ATOM      8  C6  OXE d   1      -5.930  -6.000   3.010  0.00  0.00     0.003 A 
ENDROOT
TORSDOF 0
ENDMDL
