MODEL 1
REMARK minimizedAffinity 2.57585216
REMARK minimizedRMSD -1
REMARK  0 active torsions:
REMARK  status: ('A' for Active; 'I' for Inactive)
ROOT
ATOM      1  C2' OXE d   1       1.482   3.372  -3.760  0.00  0.00     0.078 C 
ATOM      2  C1' OXE d   1       1.222   6.000  -2.808  0.00  0.00     0.078 C 
ATOM      3  C1  OXE d   1       2.565   5.330  -2.665  0.00  0.00    -0.078 A 
ATOM      4  C2  OXE d   1       2.671   4.027  -3.090  0.00  0.00    -0.078 A 
ATOM      5  C3  OXE d   1       3.902   3.380  -3.031  0.00  0.00     0.003 A 
ATOM      6  C4  OXE d   1       4.994   3.990  -2.401  0.00  0.00    -0.002 A 
ATOM      7  C5  OXE d   1       4.896   5.302  -1.925  0.00  0.00    -0.002 A 
ATOM      8  C6  OXE d   1       3.704   5.999  -2.087  0.00  0.00     0.003 A 
ENDROOT
TORSDOF 0
ENDMDL
