MODEL 1
REMARK minimizedAffinity 13.9870691
REMARK minimizedRMSD -1
REMARK  0 active torsions:
REMARK  status: ('A' for Active; 'I' for Inactive)
ROOT
ATOM      1  C2' OXE d   1      -0.101  -2.111   1.477  0.00  0.00     0.078 C 
ATOM      2  C1' OXE d   1      -2.275  -3.141   0.031  0.00  0.00     0.078 C 
ATOM      3  C1  OXE d   1      -2.370  -1.720   0.527  0.00  0.00    -0.078 A 
ATOM      4  C2  OXE d   1      -1.321  -1.239   1.273  0.00  0.00    -0.078 A 
ATOM      5  C3  OXE d   1      -1.333   0.083   1.708  0.00  0.00     0.003 A 
ATOM      6  C4  OXE d   1      -2.469   0.879   1.524  0.00  0.00    -0.002 A 
ATOM      7  C5  OXE d   1      -3.565   0.397   0.800  0.00  0.00    -0.002 A 
ATOM      8  C6  OXE d   1      -3.514  -0.883   0.260  0.00  0.00     0.003 A 
ENDROOT
TORSDOF 0
ENDMDL
