MODEL 1
REMARK minimizedAffinity 13.9044313
REMARK minimizedRMSD -1
REMARK  0 active torsions:
REMARK  status: ('A' for Active; 'I' for Inactive)
ROOT
ATOM      1  C2' OXE d   1      -1.490  -0.046   1.397  0.00  0.00     0.078 C 
ATOM      2  C1' OXE d   1      -1.684   0.291   4.177  0.00  0.00     0.078 C 
ATOM      3  C1  OXE d   1      -0.762  -0.786   3.662  0.00  0.00    -0.078 A 
ATOM      4  C2  OXE d   1      -0.709  -0.975   2.302  0.00  0.00    -0.078 A 
ATOM      5  C3  OXE d   1       0.166  -1.918   1.770  0.00  0.00     0.003 A 
ATOM      6  C4  OXE d   1       0.877  -2.779   2.614  0.00  0.00    -0.002 A 
ATOM      7  C5  OXE d   1       0.807  -2.630   4.004  0.00  0.00    -0.002 A 
ATOM      8  C6  OXE d   1       0.026  -1.613   4.541  0.00  0.00     0.003 A 
ENDROOT
TORSDOF 0
ENDMDL
