MODEL 1
REMARK minimizedAffinity 2.81317854
REMARK minimizedRMSD -1
REMARK  0 active torsions:
REMARK  status: ('A' for Active; 'I' for Inactive)
ROOT
ATOM      1  C2' OXE d   1      -5.699  -3.192   5.991  0.00  0.00     0.078 C 
ATOM      2  C1' OXE d   1      -6.000  -5.983   5.956  0.00  0.00     0.078 C 
ATOM      3  C1  OXE d   1      -5.766  -5.284   4.640  0.00  0.00    -0.078 A 
ATOM      4  C2  OXE d   1      -5.667  -3.913   4.661  0.00  0.00    -0.078 A 
ATOM      5  C3  OXE d   1      -5.396  -3.224   3.483  0.00  0.00     0.003 A 
ATOM      6  C4  OXE d   1      -5.377  -3.897   2.256  0.00  0.00    -0.002 A 
ATOM      7  C5  OXE d   1      -5.516  -5.289   2.207  0.00  0.00    -0.002 A 
ATOM      8  C6  OXE d   1      -5.668  -6.000   3.392  0.00  0.00     0.003 A 
ENDROOT
TORSDOF 0
ENDMDL
