MODEL 1
REMARK minimizedAffinity 18.8506489
REMARK minimizedRMSD -1
REMARK  0 active torsions:
REMARK  status: ('A' for Active; 'I' for Inactive)
ROOT
ATOM      1  C2' OXE d   1      -0.859   4.917  -2.289  0.00  0.00     0.078 C 
ATOM      2  C1' OXE d   1      -3.646   5.246  -2.229  0.00  0.00     0.078 C 
ATOM      3  C1  OXE d   1      -2.995   5.006  -3.568  0.00  0.00    -0.078 A 
ATOM      4  C2  OXE d   1      -1.626   4.892  -3.594  0.00  0.00    -0.078 A 
ATOM      5  C3  OXE d   1      -0.979   4.616  -4.795  0.00  0.00     0.003 A 
ATOM      6  C4  OXE d   1      -1.694   4.605  -5.999  0.00  0.00    -0.002 A 
ATOM      7  C5  OXE d   1      -3.085   4.758  -6.000  0.00  0.00    -0.002 A 
ATOM      8  C6  OXE d   1      -3.754   4.916  -4.791  0.00  0.00     0.003 A 
ENDROOT
TORSDOF 0
ENDMDL
