MODEL 1
REMARK minimizedAffinity 11.9835854
REMARK minimizedRMSD -1
REMARK  0 active torsions:
REMARK  status: ('A' for Active; 'I' for Inactive)
ROOT
ATOM      1  C2' OXE d   1      -2.656   1.196   3.368  0.00  0.00     0.078 C 
ATOM      2  C1' OXE d   1      -3.364   0.399   0.771  0.00  0.00     0.078 C 
ATOM      3  C1  OXE d   1      -2.117  -0.198   1.375  0.00  0.00    -0.078 A 
ATOM      4  C2  OXE d   1      -1.753   0.233   2.628  0.00  0.00    -0.078 A 
ATOM      5  C3  OXE d   1      -0.641  -0.325   3.253  0.00  0.00     0.003 A 
ATOM      6  C4  OXE d   1       0.194  -1.207   2.557  0.00  0.00    -0.002 A 
ATOM      7  C5  OXE d   1      -0.137  -1.629   1.265  0.00  0.00    -0.002 A 
ATOM      8  C6  OXE d   1      -1.309  -1.168   0.677  0.00  0.00     0.003 A 
ENDROOT
TORSDOF 0
ENDMDL
