MODEL 1
REMARK minimizedAffinity 11.5464687
REMARK minimizedRMSD -1
REMARK  0 active torsions:
REMARK  status: ('A' for Active; 'I' for Inactive)
ROOT
ATOM      1  C2' OXE d   1       2.358   2.235  -2.923  0.00  0.00     0.078 C 
ATOM      2  C1' OXE d   1       2.904   1.422  -0.292  0.00  0.00     0.078 C 
ATOM      3  C1  OXE d   1       3.900   2.330  -0.969  0.00  0.00    -0.078 A 
ATOM      4  C2  OXE d   1       3.648   2.685  -2.272  0.00  0.00    -0.078 A 
ATOM      5  C3  OXE d   1       4.507   3.565  -2.925  0.00  0.00     0.003 A 
ATOM      6  C4  OXE d   1       5.702   3.969  -2.319  0.00  0.00    -0.002 A 
ATOM      7  C5  OXE d   1       5.997   3.587  -1.006  0.00  0.00    -0.002 A 
ATOM      8  C6  OXE d   1       5.088   2.805  -0.304  0.00  0.00     0.003 A 
ENDROOT
TORSDOF 0
ENDMDL
