MODEL 1
REMARK minimizedAffinity 2.69503522
REMARK minimizedRMSD -1
REMARK  0 active torsions:
REMARK  status: ('A' for Active; 'I' for Inactive)
ROOT
ATOM      1  C2' OXE d   1      -5.540  -5.747   1.999  0.00  0.00     0.078 C 
ATOM      2  C1' OXE d   1      -4.836  -3.054   2.361  0.00  0.00     0.078 C 
ATOM      3  C1  OXE d   1      -5.186  -3.860   3.586  0.00  0.00    -0.078 A 
ATOM      4  C2  OXE d   1      -5.575  -5.164   3.395  0.00  0.00    -0.078 A 
ATOM      5  C3  OXE d   1      -5.856  -5.968   4.496  0.00  0.00     0.003 A 
ATOM      6  C4  OXE d   1      -5.896  -5.419   5.783  0.00  0.00    -0.002 A 
ATOM      7  C5  OXE d   1      -5.541  -4.083   5.996  0.00  0.00    -0.002 A 
ATOM      8  C6  OXE d   1      -5.144  -3.303   4.916  0.00  0.00     0.003 A 
ENDROOT
TORSDOF 0
ENDMDL
