MODEL 1
REMARK minimizedAffinity 17.4813004
REMARK minimizedRMSD -1
REMARK  0 active torsions:
REMARK  status: ('A' for Active; 'I' for Inactive)
ROOT
ATOM      1  C2' OXE d   1      -0.764  -3.627   0.998  0.00  0.00     0.078 C 
ATOM      2  C1' OXE d   1      -0.830  -0.824   0.858  0.00  0.00     0.078 C 
ATOM      3  C1  OXE d   1      -0.642  -1.456   2.214  0.00  0.00    -0.078 A 
ATOM      4  C2  OXE d   1      -0.657  -2.828   2.280  0.00  0.00    -0.078 A 
ATOM      5  C3  OXE d   1      -0.433  -3.463   3.498  0.00  0.00     0.003 A 
ATOM      6  C4  OXE d   1      -0.346  -2.718   4.680  0.00  0.00    -0.002 A 
ATOM      7  C5  OXE d   1      -0.368  -1.319   4.641  0.00  0.00    -0.002 A 
ATOM      8  C6  OXE d   1      -0.472  -0.674   3.414  0.00  0.00     0.003 A 
ENDROOT
TORSDOF 0
ENDMDL
