MODEL 1
REMARK minimizedAffinity 17.4330311
REMARK minimizedRMSD -1
REMARK  0 active torsions:
REMARK  status: ('A' for Active; 'I' for Inactive)
ROOT
ATOM      1  C2' OXE d   1       0.918  -3.999   1.609  0.00  0.00     0.078 C 
ATOM      2  C1' OXE d   1      -1.521  -3.869   0.225  0.00  0.00     0.078 C 
ATOM      3  C1  OXE d   1      -1.070  -2.640   0.972  0.00  0.00    -0.078 A 
ATOM      4  C2  OXE d   1       0.102  -2.727   1.685  0.00  0.00    -0.078 A 
ATOM      5  C3  OXE d   1       0.591  -1.605   2.348  0.00  0.00     0.003 A 
ATOM      6  C4  OXE d   1      -0.175  -0.435   2.421  0.00  0.00    -0.002 A 
ATOM      7  C5  OXE d   1      -1.390  -0.338   1.735  0.00  0.00    -0.002 A 
ATOM      8  C6  OXE d   1      -1.831  -1.414   0.973  0.00  0.00     0.003 A 
ENDROOT
TORSDOF 0
ENDMDL
