MODEL 1
REMARK minimizedAffinity 13.6295528
REMARK minimizedRMSD -1
REMARK  0 active torsions:
REMARK  status: ('A' for Active; 'I' for Inactive)
ROOT
ATOM      1  C2' OXE d   1       2.568  -0.741   2.618  0.00  0.00     0.078 C 
ATOM      2  C1' OXE d   1       3.013   1.190   0.630  0.00  0.00     0.078 C 
ATOM      3  C1  OXE d   1       3.987   0.042   0.726  0.00  0.00    -0.078 A 
ATOM      4  C2  OXE d   1       3.788  -0.873   1.732  0.00  0.00    -0.078 A 
ATOM      5  C3  OXE d   1       4.625  -1.981   1.831  0.00  0.00     0.003 A 
ATOM      6  C4  OXE d   1       5.756  -2.091   1.014  0.00  0.00    -0.002 A 
ATOM      7  C5  OXE d   1       6.000  -1.148   0.009  0.00  0.00    -0.002 A 
ATOM      8  C6  OXE d   1       5.103  -0.101  -0.175  0.00  0.00     0.003 A 
ENDROOT
TORSDOF 0
ENDMDL
