MODEL 1
REMARK minimizedAffinity 6.2524581
REMARK minimizedRMSD -1
REMARK  0 active torsions:
REMARK  status: ('A' for Active; 'I' for Inactive)
ROOT
ATOM      1  C   UNL d   1      -3.553  -1.577  -4.998  0.00  0.00     0.124 A 
ATOM      2  C1  UNL d   1      -2.583  -0.658  -5.370  0.00  0.00     0.062 A 
ATOM      3  C2  UNL d   1      -2.757   0.695  -5.093  0.00  0.00     0.162 A 
ATOM      4  C3  UNL d   1      -3.907   1.137  -4.438  0.00  0.00    -0.034 A 
ATOM      5  C4  UNL d   1      -4.879   0.206  -4.068  0.00  0.00     0.162 A 
ATOM      6  C5  UNL d   1      -4.700  -1.145  -4.347  0.00  0.00     0.062 A 
ATOM      7  F   UNL d   1      -5.639  -2.032  -3.987  0.00  0.00    -0.097 F 
ATOM      8  F1  UNL d   1      -5.996   0.597  -3.437  0.00  0.00    -0.096 F 
ATOM      9  I   UNL d   1      -4.171   3.159  -4.022  0.00  0.00    -0.060 I 
ATOM     10  F2  UNL d   1      -1.803   1.561  -5.464  0.00  0.00    -0.096 F 
ATOM     11  F3  UNL d   1      -1.474  -1.073  -6.000  0.00  0.00    -0.097 F 
ATOM     12  F4  UNL d   1      -3.384  -2.878  -5.267  0.00  0.00    -0.092 F 
ENDROOT
TORSDOF 0
ENDMDL
