MODEL 1
REMARK minimizedAffinity 2.64817071
REMARK minimizedRMSD -1
REMARK  0 active torsions:
REMARK  status: ('A' for Active; 'I' for Inactive)
ROOT
ATOM      1  C   UNL d   1      -2.852  -0.319  -1.477  0.00  0.00     0.124 A 
ATOM      2  C1  UNL d   1      -3.537  -1.364  -2.080  0.00  0.00     0.062 A 
ATOM      3  C2  UNL d   1      -4.039  -1.220  -3.371  0.00  0.00     0.162 A 
ATOM      4  C3  UNL d   1      -3.855  -0.026  -4.068  0.00  0.00    -0.034 A 
ATOM      5  C4  UNL d   1      -3.165   1.021  -3.454  0.00  0.00     0.162 A 
ATOM      6  C5  UNL d   1      -2.666   0.872  -2.165  0.00  0.00     0.062 A 
ATOM      7  F   UNL d   1      -2.004   1.883  -1.583  0.00  0.00    -0.097 F 
ATOM      8  F1  UNL d   1      -2.970   2.182  -4.096  0.00  0.00    -0.096 F 
ATOM      9  I   UNL d   1      -4.603   0.193  -5.998  0.00  0.00    -0.060 I 
ATOM     10  F2  UNL d   1      -4.697  -2.247  -3.929  0.00  0.00    -0.096 F 
ATOM     11  F3  UNL d   1      -3.719  -2.516  -1.418  0.00  0.00    -0.097 F 
ATOM     12  F4  UNL d   1      -2.371  -0.460  -0.235  0.00  0.00    -0.092 F 
ENDROOT
TORSDOF 0
ENDMDL
