MODEL 1
REMARK minimizedAffinity 8.64519882
REMARK minimizedRMSD -1
REMARK  0 active torsions:
REMARK  status: ('A' for Active; 'I' for Inactive)
ROOT
ATOM      1  C   UNL d   1      -4.292  -1.212  -3.845  0.00  0.00     0.124 A 
ATOM      2  C1  UNL d   1      -3.349  -0.803  -2.912  0.00  0.00     0.062 A 
ATOM      3  C2  UNL d   1      -2.763   0.455  -3.014  0.00  0.00     0.162 A 
ATOM      4  C3  UNL d   1      -3.119   1.315  -4.053  0.00  0.00    -0.034 A 
ATOM      5  C4  UNL d   1      -4.067   0.897  -4.988  0.00  0.00     0.162 A 
ATOM      6  C5  UNL d   1      -4.649  -0.362  -4.882  0.00  0.00     0.062 A 
ATOM      7  F   UNL d   1      -5.560  -0.755  -5.785  0.00  0.00    -0.097 F 
ATOM      8  F1  UNL d   1      -4.432   1.698  -6.000  0.00  0.00    -0.096 F 
ATOM      9  I   UNL d   1      -2.245   3.198  -4.209  0.00  0.00    -0.060 I 
ATOM     10  F2  UNL d   1      -1.855   0.824  -2.098  0.00  0.00    -0.096 F 
ATOM     11  F3  UNL d   1      -3.001  -1.623  -1.909  0.00  0.00    -0.097 F 
ATOM     12  F4  UNL d   1      -4.853  -2.424  -3.745  0.00  0.00    -0.092 F 
ENDROOT
TORSDOF 0
ENDMDL
