MODEL 1
REMARK minimizedAffinity 9.28604889
REMARK minimizedRMSD -1
REMARK  0 active torsions:
REMARK  status: ('A' for Active; 'I' for Inactive)
ROOT
ATOM      1  C   UNL d   1      -4.315  -1.964  -2.551  0.00  0.00     0.124 A 
ATOM      2  C1  UNL d   1      -5.082  -1.792  -3.696  0.00  0.00     0.062 A 
ATOM      3  C2  UNL d   1      -4.900  -0.670  -4.498  0.00  0.00     0.162 A 
ATOM      4  C3  UNL d   1      -3.947   0.291  -4.159  0.00  0.00    -0.034 A 
ATOM      5  C4  UNL d   1      -3.181   0.112  -3.006  0.00  0.00     0.162 A 
ATOM      6  C5  UNL d   1      -3.366  -1.012  -2.207  0.00  0.00     0.062 A 
ATOM      7  F   UNL d   1      -2.625  -1.176  -1.102  0.00  0.00    -0.097 F 
ATOM      8  F1  UNL d   1      -2.256   1.016  -2.651  0.00  0.00    -0.096 F 
ATOM      9  I   UNL d   1      -3.673   1.971  -5.356  0.00  0.00    -0.060 I 
ATOM     10  F2  UNL d   1      -5.655  -0.530  -5.598  0.00  0.00    -0.096 F 
ATOM     11  F3  UNL d   1      -6.000  -2.711  -4.029  0.00  0.00    -0.097 F 
ATOM     12  F4  UNL d   1      -4.492  -3.045  -1.780  0.00  0.00    -0.092 F 
ENDROOT
TORSDOF 0
ENDMDL
