MODEL 1
REMARK minimizedAffinity 0.0306577757
REMARK minimizedRMSD -1
REMARK  0 active torsions:
REMARK  status: ('A' for Active; 'I' for Inactive)
ROOT
ATOM      1  C   UNL d   1       2.858  -2.349   0.969  0.00  0.00     0.124 A 
ATOM      2  C1  UNL d   1       2.279  -1.810   2.109  0.00  0.00     0.062 A 
ATOM      3  C2  UNL d   1       2.822  -2.076   3.363  0.00  0.00     0.162 A 
ATOM      4  C3  UNL d   1       3.951  -2.885   3.483  0.00  0.00    -0.034 A 
ATOM      5  C4  UNL d   1       4.527  -3.426   2.332  0.00  0.00     0.162 A 
ATOM      6  C5  UNL d   1       3.981  -3.157   1.081  0.00  0.00     0.062 A 
ATOM      7  F   UNL d   1       4.542  -3.679  -0.019  0.00  0.00    -0.097 F 
ATOM      8  F1  UNL d   1       5.614  -4.208   2.412  0.00  0.00    -0.096 F 
ATOM      9  I   UNL d   1       4.766  -3.286   5.356  0.00  0.00    -0.060 I 
ATOM     10  F2  UNL d   1       2.242  -1.541   4.447  0.00  0.00    -0.096 F 
ATOM     11  F3  UNL d   1       1.193  -1.030   2.003  0.00  0.00    -0.097 F 
ATOM     12  F4  UNL d   1       2.333  -2.092  -0.236  0.00  0.00    -0.092 F 
ENDROOT
TORSDOF 0
ENDMDL
