MODEL 1
REMARK minimizedAffinity 12.2561302
REMARK minimizedRMSD -1
REMARK  0 active torsions:
REMARK  status: ('A' for Active; 'I' for Inactive)
ROOT
ATOM      1  C   UNL d   1      -4.452  -1.645  -4.193  0.00  0.00     0.124 A 
ATOM      2  C1  UNL d   1      -4.844  -0.318  -4.080  0.00  0.00     0.062 A 
ATOM      3  C2  UNL d   1      -4.042   0.696  -4.595  0.00  0.00     0.162 A 
ATOM      4  C3  UNL d   1      -2.838   0.387  -5.229  0.00  0.00    -0.034 A 
ATOM      5  C4  UNL d   1      -2.449  -0.949  -5.338  0.00  0.00     0.162 A 
ATOM      6  C5  UNL d   1      -3.255  -1.959  -4.822  0.00  0.00     0.062 A 
ATOM      7  F   UNL d   1      -2.874  -3.240  -4.932  0.00  0.00    -0.097 F 
ATOM      8  F1  UNL d   1      -1.298  -1.281  -5.941  0.00  0.00    -0.096 F 
ATOM      9  I   UNL d   1      -1.635   1.900  -6.000  0.00  0.00    -0.060 I 
ATOM     10  F2  UNL d   1      -4.446   1.969  -4.471  0.00  0.00    -0.096 F 
ATOM     11  F3  UNL d   1      -6.000  -0.012  -3.473  0.00  0.00    -0.097 F 
ATOM     12  F4  UNL d   1      -5.225  -2.618  -3.696  0.00  0.00    -0.092 F 
ENDROOT
TORSDOF 0
ENDMDL
