MODEL 1
REMARK minimizedAffinity 7.23196793
REMARK minimizedRMSD -1
REMARK  0 active torsions:
REMARK  status: ('A' for Active; 'I' for Inactive)
ROOT
ATOM      1  C   UNL d   1      -3.806  -1.483  -1.898  0.00  0.00     0.124 A 
ATOM      2  C1  UNL d   1      -4.518  -1.472  -3.090  0.00  0.00     0.062 A 
ATOM      3  C2  UNL d   1      -4.587  -0.310  -3.853  0.00  0.00     0.162 A 
ATOM      4  C3  UNL d   1      -3.942   0.851  -3.427  0.00  0.00    -0.034 A 
ATOM      5  C4  UNL d   1      -3.229   0.833  -2.226  0.00  0.00     0.162 A 
ATOM      6  C5  UNL d   1      -3.163  -0.331  -1.467  0.00  0.00     0.062 A 
ATOM      7  F   UNL d   1      -2.475  -0.340  -0.316  0.00  0.00    -0.097 F 
ATOM      8  F1  UNL d   1      -2.597   1.931  -1.787  0.00  0.00    -0.096 F 
ATOM      9  I   UNL d   1      -4.043   2.591  -4.565  0.00  0.00    -0.060 I 
ATOM     10  F2  UNL d   1      -5.281  -0.328  -5.000  0.00  0.00    -0.096 F 
ATOM     11  F3  UNL d   1      -5.141  -2.583  -3.507  0.00  0.00    -0.097 F 
ATOM     12  F4  UNL d   1      -3.742  -2.602  -1.165  0.00  0.00    -0.092 F 
ENDROOT
TORSDOF 0
ENDMDL
