MODEL 1
REMARK minimizedAffinity 14.0602827
REMARK minimizedRMSD -1
REMARK  0 active torsions:
REMARK  status: ('A' for Active; 'I' for Inactive)
ROOT
ATOM      1  C   UNL d   1      -1.512   2.413   0.586  0.00  0.00     0.078 C 
ATOM      2  C1  UNL d   1      -2.416   3.599   0.751  0.00  0.00    -0.077 A 
ATOM      3  C2  UNL d   1      -3.754   3.438   1.130  0.00  0.00    -0.001 A 
ATOM      4  C3  UNL d   1      -4.586   4.550   1.270  0.00  0.00     0.003 A 
ATOM      5  C4  UNL d   1      -4.089   5.830   1.033  0.00  0.00    -0.005 A 
ATOM      6  C5  UNL d   1      -2.759   6.000   0.654  0.00  0.00     0.003 A 
ATOM      7  C6  UNL d   1      -1.926   4.889   0.513  0.00  0.00    -0.001 A 
ENDROOT
TORSDOF 0
ENDMDL
