MODEL 1
REMARK minimizedAffinity 10.9302006
REMARK minimizedRMSD -1
REMARK  0 active torsions:
REMARK  status: ('A' for Active; 'I' for Inactive)
ROOT
ATOM      1  C   UNL d   1      -3.005   1.965   0.525  0.00  0.00     0.078 C 
ATOM      2  C1  UNL d   1      -3.488   3.368   0.745  0.00  0.00    -0.077 A 
ATOM      3  C2  UNL d   1      -4.811   3.623   1.126  0.00  0.00    -0.001 A 
ATOM      4  C3  UNL d   1      -5.249   4.934   1.319  0.00  0.00     0.003 A 
ATOM      5  C4  UNL d   1      -4.372   6.000   1.131  0.00  0.00    -0.005 A 
ATOM      6  C5  UNL d   1      -3.054   5.756   0.749  0.00  0.00     0.003 A 
ATOM      7  C6  UNL d   1      -2.614   4.445   0.557  0.00  0.00    -0.001 A 
ENDROOT
TORSDOF 0
ENDMDL
