MODEL 1
REMARK minimizedAffinity 7.89823818
REMARK minimizedRMSD -1
REMARK  0 active torsions:
REMARK  status: ('A' for Active; 'I' for Inactive)
ROOT
ATOM      1  C   UNL d   1       1.036   2.068   2.864  0.00  0.00     0.078 C 
ATOM      2  C1  UNL d   1       0.137   2.227   1.675  0.00  0.00    -0.077 A 
ATOM      3  C2  UNL d   1       0.656   2.553   0.416  0.00  0.00    -0.001 A 
ATOM      4  C3  UNL d   1      -0.195   2.708  -0.679  0.00  0.00     0.003 A 
ATOM      5  C4  UNL d   1      -1.569   2.540  -0.527  0.00  0.00    -0.005 A 
ATOM      6  C5  UNL d   1      -2.096   2.218   0.722  0.00  0.00     0.003 A 
ATOM      7  C6  UNL d   1      -1.247   2.063   1.819  0.00  0.00    -0.001 A 
ENDROOT
TORSDOF 0
ENDMDL
