MODEL 1
REMARK minimizedAffinity 18.5965309
REMARK minimizedRMSD -1
REMARK  0 active torsions:
REMARK  status: ('A' for Active; 'I' for Inactive)
ROOT
ATOM      1  C   UNL d   1       5.687  -5.823  -2.047  0.00  0.00     0.078 C 
ATOM      2  C1  UNL d   1       5.801  -5.205  -0.685  0.00  0.00    -0.077 A 
ATOM      3  C2  UNL d   1       5.795  -5.997   0.469  0.00  0.00    -0.001 A 
ATOM      4  C3  UNL d   1       5.893  -5.407   1.731  0.00  0.00     0.003 A 
ATOM      5  C4  UNL d   1       5.996  -4.022   1.849  0.00  0.00    -0.005 A 
ATOM      6  C5  UNL d   1       6.000  -3.226   0.706  0.00  0.00     0.003 A 
ATOM      7  C6  UNL d   1       5.903  -3.814  -0.556  0.00  0.00    -0.001 A 
ENDROOT
TORSDOF 0
ENDMDL
