MODEL 1
REMARK minimizedAffinity 7.35827255
REMARK minimizedRMSD -1
REMARK  0 active torsions:
REMARK  status: ('A' for Active; 'I' for Inactive)
ROOT
ATOM      1  C   UNL d   1      -1.743  -3.896   4.591  0.00  0.00     0.078 C 
ATOM      2  C1  UNL d   1      -3.187  -3.806   4.985  0.00  0.00    -0.077 A 
ATOM      3  C2  UNL d   1      -4.078  -4.849   4.704  0.00  0.00    -0.001 A 
ATOM      4  C3  UNL d   1      -5.422  -4.746   5.067  0.00  0.00     0.003 A 
ATOM      5  C4  UNL d   1      -5.887  -3.602   5.712  0.00  0.00    -0.005 A 
ATOM      6  C5  UNL d   1      -5.009  -2.558   5.994  0.00  0.00     0.003 A 
ATOM      7  C6  UNL d   1      -3.665  -2.659   5.631  0.00  0.00    -0.001 A 
ENDROOT
TORSDOF 0
ENDMDL
