MODEL 1
REMARK minimizedAffinity -0.96236062
REMARK minimizedRMSD -1
REMARK  0 active torsions:
REMARK  status: ('A' for Active; 'I' for Inactive)
ROOT
ATOM      1  C   UNL d   1      -4.452   2.119  -4.678  0.00  0.00     0.078 C 
ATOM      2  C1  UNL d   1      -3.714   3.424  -4.707  0.00  0.00    -0.077 A 
ATOM      3  C2  UNL d   1      -4.145   4.478  -5.522  0.00  0.00    -0.001 A 
ATOM      4  C3  UNL d   1      -3.443   5.684  -5.546  0.00  0.00     0.003 A 
ATOM      5  C4  UNL d   1      -2.305   5.847  -4.759  0.00  0.00    -0.005 A 
ATOM      6  C5  UNL d   1      -1.867   4.803  -3.946  0.00  0.00     0.003 A 
ATOM      7  C6  UNL d   1      -2.568   3.597  -3.921  0.00  0.00    -0.001 A 
ENDROOT
TORSDOF 0
ENDMDL
