MODEL 1
REMARK minimizedAffinity 10.7867146
REMARK minimizedRMSD -1
REMARK  0 active torsions:
REMARK  status: ('A' for Active; 'I' for Inactive)
ROOT
ATOM      1  C   UNL d   1      -1.069   3.701  -2.669  0.00  0.00     0.078 C 
ATOM      2  C1  UNL d   1      -1.589   4.506  -3.823  0.00  0.00    -0.077 A 
ATOM      3  C2  UNL d   1      -2.960   4.574  -4.095  0.00  0.00    -0.001 A 
ATOM      4  C3  UNL d   1      -3.429   5.319  -5.179  0.00  0.00     0.003 A 
ATOM      5  C4  UNL d   1      -2.532   6.000  -6.000  0.00  0.00    -0.005 A 
ATOM      6  C5  UNL d   1      -1.165   5.935  -5.739  0.00  0.00     0.003 A 
ATOM      7  C6  UNL d   1      -0.695   5.191  -4.655  0.00  0.00    -0.001 A 
ENDROOT
TORSDOF 0
ENDMDL
