MODEL 1
REMARK minimizedAffinity 6.38379955
REMARK minimizedRMSD -1
REMARK  0 active torsions:
REMARK  status: ('A' for Active; 'I' for Inactive)
ROOT
ATOM      1  C   UNL d   1      -5.999  -4.076   5.084  0.00  0.00     0.078 C 
ATOM      2  C1  UNL d   1      -4.571  -3.619   5.062  0.00  0.00    -0.077 A 
ATOM      3  C2  UNL d   1      -3.666  -4.127   4.122  0.00  0.00    -0.001 A 
ATOM      4  C3  UNL d   1      -2.337  -3.699   4.119  0.00  0.00     0.003 A 
ATOM      5  C4  UNL d   1      -1.902  -2.763   5.055  0.00  0.00    -0.005 A 
ATOM      6  C5  UNL d   1      -2.794  -2.254   5.995  0.00  0.00     0.003 A 
ATOM      7  C6  UNL d   1      -4.124  -2.680   6.000  0.00  0.00    -0.001 A 
ENDROOT
TORSDOF 0
ENDMDL
