MODEL 1
REMARK minimizedAffinity -3.69809103
REMARK minimizedRMSD -1
REMARK  0 active torsions:
REMARK  status: ('A' for Active; 'I' for Inactive)
ROOT
ATOM      1  C   UNL d   1      -4.771   1.916  -4.653  0.00  0.00     0.078 C 
ATOM      2  C1  UNL d   1      -3.846   3.096  -4.634  0.00  0.00    -0.077 A 
ATOM      3  C2  UNL d   1      -2.740   3.132  -3.776  0.00  0.00    -0.001 A 
ATOM      4  C3  UNL d   1      -1.893   4.241  -3.761  0.00  0.00     0.003 A 
ATOM      5  C4  UNL d   1      -2.143   5.324  -4.602  0.00  0.00    -0.005 A 
ATOM      6  C5  UNL d   1      -3.242   5.299  -5.457  0.00  0.00     0.003 A 
ATOM      7  C6  UNL d   1      -4.091   4.190  -5.473  0.00  0.00    -0.001 A 
ENDROOT
TORSDOF 0
ENDMDL
