MODEL 1
REMARK minimizedAffinity -0.268002421
REMARK minimizedRMSD -1
REMARK  0 active torsions:
REMARK  status: ('A' for Active; 'I' for Inactive)
ROOT
ATOM      1  C   UNL d   1      -4.110   2.053  -5.246  0.00  0.00     0.078 C 
ATOM      2  C1  UNL d   1      -3.499   3.423  -5.245  0.00  0.00    -0.077 A 
ATOM      3  C2  UNL d   1      -2.354   3.702  -4.490  0.00  0.00    -0.001 A 
ATOM      4  C3  UNL d   1      -1.802   4.984  -4.492  0.00  0.00     0.003 A 
ATOM      5  C4  UNL d   1      -2.390   5.998  -5.246  0.00  0.00    -0.005 A 
ATOM      6  C5  UNL d   1      -3.532   5.730  -5.999  0.00  0.00     0.003 A 
ATOM      7  C6  UNL d   1      -4.085   4.448  -5.999  0.00  0.00    -0.001 A 
ENDROOT
TORSDOF 0
ENDMDL
