MODEL 1
REMARK minimizedAffinity -0.783019245
REMARK minimizedRMSD -1
REMARK  0 active torsions:
REMARK  status: ('A' for Active; 'I' for Inactive)
ROOT
ATOM      1  C   UNL d   1      -1.416   2.216  -2.616  0.00  0.00     0.078 C 
ATOM      2  C1  UNL d   1      -0.866   2.585  -1.271  0.00  0.00    -0.077 A 
ATOM      3  C2  UNL d   1      -0.719   1.624  -0.263  0.00  0.00    -0.001 A 
ATOM      4  C3  UNL d   1      -0.215   1.984   0.988  0.00  0.00     0.003 A 
ATOM      5  C4  UNL d   1       0.143   3.305   1.244  0.00  0.00    -0.005 A 
ATOM      6  C5  UNL d   1      -0.002   4.270   0.249  0.00  0.00     0.003 A 
ATOM      7  C6  UNL d   1      -0.505   3.912  -1.003  0.00  0.00    -0.001 A 
ENDROOT
TORSDOF 0
ENDMDL
