MODEL 1
REMARK minimizedAffinity 14.1757555
REMARK minimizedRMSD -1
REMARK  0 active torsions:
REMARK  status: ('A' for Active; 'I' for Inactive)
ROOT
ATOM      1  C   UNL d   1      -0.435   5.999  -5.593  0.00  0.00     0.078 C 
ATOM      2  C1  UNL d   1      -1.383   5.419  -4.587  0.00  0.00    -0.077 A 
ATOM      3  C2  UNL d   1      -2.637   5.999  -4.359  0.00  0.00    -0.001 A 
ATOM      4  C3  UNL d   1      -3.506   5.454  -3.412  0.00  0.00     0.003 A 
ATOM      5  C4  UNL d   1      -3.129   4.327  -2.685  0.00  0.00    -0.005 A 
ATOM      6  C5  UNL d   1      -1.883   3.744  -2.903  0.00  0.00     0.003 A 
ATOM      7  C6  UNL d   1      -1.013   4.288  -3.849  0.00  0.00    -0.001 A 
ENDROOT
TORSDOF 0
ENDMDL
