MODEL 1
REMARK minimizedAffinity 11.2680073
REMARK minimizedRMSD -1
REMARK  0 active torsions:
REMARK  status: ('A' for Active; 'I' for Inactive)
ROOT
ATOM      1  C   UNL d   1       1.397   4.280   1.232  0.00  0.00     0.078 C 
ATOM      2  C1  UNL d   1       0.563   3.286   1.985  0.00  0.00    -0.077 A 
ATOM      3  C2  UNL d   1      -0.700   2.903   1.517  0.00  0.00    -0.001 A 
ATOM      4  C3  UNL d   1      -1.469   1.984   2.232  0.00  0.00     0.003 A 
ATOM      5  C4  UNL d   1      -0.985   1.442   3.421  0.00  0.00    -0.005 A 
ATOM      6  C5  UNL d   1       0.270   1.819   3.896  0.00  0.00     0.003 A 
ATOM      7  C6  UNL d   1       1.041   2.738   3.182  0.00  0.00    -0.001 A 
ENDROOT
TORSDOF 0
ENDMDL
