MODEL 1
REMARK minimizedAffinity 15.2326584
REMARK minimizedRMSD -1
REMARK  0 active torsions:
REMARK  status: ('A' for Active; 'I' for Inactive)
ROOT
ATOM      1  C   UNL d   1      -4.937   5.999   3.198  0.00  0.00     0.078 C 
ATOM      2  C1  UNL d   1      -4.868   5.754   1.721  0.00  0.00    -0.077 A 
ATOM      3  C2  UNL d   1      -3.690   5.293   1.120  0.00  0.00    -0.001 A 
ATOM      4  C3  UNL d   1      -3.637   5.078  -0.258  0.00  0.00     0.003 A 
ATOM      5  C4  UNL d   1      -4.759   5.322  -1.047  0.00  0.00    -0.005 A 
ATOM      6  C5  UNL d   1      -5.935   5.783  -0.459  0.00  0.00     0.003 A 
ATOM      7  C6  UNL d   1      -5.990   5.999   0.919  0.00  0.00    -0.001 A 
ENDROOT
TORSDOF 0
ENDMDL
