MODEL 1
REMARK minimizedAffinity 6.00023127
REMARK minimizedRMSD -1
REMARK  0 active torsions:
REMARK  status: ('A' for Active; 'I' for Inactive)
ROOT
ATOM      1  C   UNL d   1      -5.922  -5.049   2.975  0.00  0.00     0.078 C 
ATOM      2  C1  UNL d   1      -5.941  -3.969   1.935  0.00  0.00    -0.077 A 
ATOM      3  C2  UNL d   1      -5.958  -2.617   2.299  0.00  0.00    -0.001 A 
ATOM      4  C3  UNL d   1      -5.986  -1.622   1.321  0.00  0.00     0.003 A 
ATOM      5  C4  UNL d   1      -5.998  -1.969  -0.029  0.00  0.00    -0.005 A 
ATOM      6  C5  UNL d   1      -5.984  -3.311  -0.401  0.00  0.00     0.003 A 
ATOM      7  C6  UNL d   1      -5.956  -4.307   0.576  0.00  0.00    -0.001 A 
ENDROOT
TORSDOF 0
ENDMDL
