MODEL 1
REMARK minimizedAffinity 1.21761405
REMARK minimizedRMSD -1
REMARK  0 active torsions:
REMARK  status: ('A' for Active; 'I' for Inactive)
ROOT
ATOM      1  C   UNL d   1      -5.998  -5.522   2.956  0.00  0.00     0.078 C 
ATOM      2  C1  UNL d   1      -5.991  -4.484   1.873  0.00  0.00    -0.077 A 
ATOM      3  C2  UNL d   1      -5.996  -3.118   2.184  0.00  0.00    -0.001 A 
ATOM      4  C3  UNL d   1      -6.000  -2.163   1.166  0.00  0.00     0.003 A 
ATOM      5  C4  UNL d   1      -5.999  -2.563  -0.169  0.00  0.00    -0.005 A 
ATOM      6  C5  UNL d   1      -5.997  -3.919  -0.487  0.00  0.00     0.003 A 
ATOM      7  C6  UNL d   1      -5.993  -4.876   0.529  0.00  0.00    -0.001 A 
ENDROOT
TORSDOF 0
ENDMDL
