MODEL 1
REMARK minimizedAffinity 11.5046139
REMARK minimizedRMSD -1
REMARK  0 active torsions:
REMARK  status: ('A' for Active; 'I' for Inactive)
ROOT
ATOM      1  C   UNL d   1      -2.316  -2.292   5.226  0.00  0.00     0.078 C 
ATOM      2  C1  UNL d   1      -3.606  -3.057   5.232  0.00  0.00    -0.077 A 
ATOM      3  C2  UNL d   1      -4.698  -2.622   5.992  0.00  0.00    -0.001 A 
ATOM      4  C3  UNL d   1      -5.890  -3.349   5.995  0.00  0.00     0.003 A 
ATOM      5  C4  UNL d   1      -6.000  -4.516   5.242  0.00  0.00    -0.005 A 
ATOM      6  C5  UNL d   1      -4.917  -4.957   4.484  0.00  0.00     0.003 A 
ATOM      7  C6  UNL d   1      -3.725  -4.232   4.479  0.00  0.00    -0.001 A 
ENDROOT
TORSDOF 0
ENDMDL
