MODEL 1
REMARK minimizedAffinity 12.5125866
REMARK minimizedRMSD -1
REMARK  0 active torsions:
REMARK  status: ('A' for Active; 'I' for Inactive)
ROOT
ATOM      1  C   UNL d   1       0.907   3.754  -1.109  0.00  0.00     0.078 C 
ATOM      2  C1  UNL d   1      -0.303   3.248  -0.382  0.00  0.00    -0.077 A 
ATOM      3  C2  UNL d   1      -0.270   2.036   0.318  0.00  0.00    -0.001 A 
ATOM      4  C3  UNL d   1      -1.407   1.573   0.982  0.00  0.00     0.003 A 
ATOM      5  C4  UNL d   1      -2.586   2.315   0.952  0.00  0.00    -0.005 A 
ATOM      6  C5  UNL d   1      -2.629   3.521   0.255  0.00  0.00     0.003 A 
ATOM      7  C6  UNL d   1      -1.493   3.986  -0.409  0.00  0.00    -0.001 A 
ENDROOT
TORSDOF 0
ENDMDL
