MODEL 1
REMARK minimizedAffinity 13.8383532
REMARK minimizedRMSD -1
REMARK  0 active torsions:
REMARK  status: ('A' for Active; 'I' for Inactive)
ROOT
ATOM      1  C1  DEN d   1      -2.558  -2.157  -1.290  0.00  0.00     0.130 A 
ATOM      2  C2  DEN d   1      -1.593  -1.969  -2.370  0.00  0.00    -0.031 A 
ATOM      3  C3  DEN d   1      -1.677  -0.564  -2.818  0.00  0.00     0.027 A 
ATOM      4  C4  DEN d   1      -3.195   1.330  -1.944  0.00  0.00     0.027 A 
ATOM      5  C5  DEN d   1      -4.187   1.647  -1.043  0.00  0.00    -0.003 A 
ATOM      6  C6  DEN d   1      -4.725   0.719  -0.192  0.00  0.00     0.001 A 
ATOM      7  C7  DEN d   1      -4.242  -0.563  -0.192  0.00  0.00     0.017 A 
ATOM      8  C8  DEN d   1      -3.247  -0.893  -1.103  0.00  0.00    -0.094 A 
ATOM      9  C9  DEN d   1      -2.707   0.063  -1.947  0.00  0.00    -0.072 A 
ENDROOT
TORSDOF 0
ENDMDL
