MODEL 1
REMARK minimizedAffinity 8.74501419
REMARK minimizedRMSD -1
REMARK  0 active torsions:
REMARK  status: ('A' for Active; 'I' for Inactive)
ROOT
ATOM      1  C1  DEN d   1       0.424   2.310  -0.477  0.00  0.00     0.130 A 
ATOM      2  C2  DEN d   1      -0.446   3.469  -0.301  0.00  0.00    -0.031 A 
ATOM      3  C3  DEN d   1      -1.839   3.032  -0.524  0.00  0.00     0.027 A 
ATOM      4  C4  DEN d   1      -2.728   0.685  -1.117  0.00  0.00     0.027 A 
ATOM      5  C5  DEN d   1      -2.368  -0.618  -1.383  0.00  0.00    -0.003 A 
ATOM      6  C6  DEN d   1      -1.060  -1.025  -1.399  0.00  0.00     0.001 A 
ATOM      7  C7  DEN d   1      -0.067  -0.131  -1.099  0.00  0.00     0.017 A 
ATOM      8  C8  DEN d   1      -0.422   1.186  -0.838  0.00  0.00    -0.094 A 
ATOM      9  C9  DEN d   1      -1.750   1.576  -0.815  0.00  0.00    -0.072 A 
ENDROOT
TORSDOF 0
ENDMDL
