MODEL 1
REMARK minimizedAffinity 2.21074128
REMARK minimizedRMSD -1
REMARK  0 active torsions:
REMARK  status: ('A' for Active; 'I' for Inactive)
ROOT
ATOM      1  C1  DEN d   1      -1.304   2.142   2.498  0.00  0.00     0.130 A 
ATOM      2  C2  DEN d   1      -0.348   1.675   3.499  0.00  0.00    -0.031 A 
ATOM      3  C3  DEN d   1       0.997   2.129   3.092  0.00  0.00     0.027 A 
ATOM      4  C4  DEN d   1       1.688   3.507   1.024  0.00  0.00     0.027 A 
ATOM      5  C5  DEN d   1       1.229   4.124  -0.118  0.00  0.00    -0.003 A 
ATOM      6  C6  DEN d   1      -0.091   4.095  -0.483  0.00  0.00     0.001 A 
ATOM      7  C7  DEN d   1      -1.005   3.474   0.325  0.00  0.00     0.017 A 
ATOM      8  C8  DEN d   1      -0.549   2.843   1.475  0.00  0.00    -0.094 A 
ATOM      9  C9  DEN d   1       0.788   2.894   1.833  0.00  0.00    -0.072 A 
ENDROOT
TORSDOF 0
ENDMDL
