MODEL 1
REMARK minimizedAffinity 14.0252666
REMARK minimizedRMSD -1
REMARK  0 active torsions:
REMARK  status: ('A' for Active; 'I' for Inactive)
ROOT
ATOM      1  C1  DEN d   1       3.182  -1.302   0.398  0.00  0.00     0.130 A 
ATOM      2  C2  DEN d   1       2.321  -2.148   1.220  0.00  0.00    -0.031 A 
ATOM      3  C3  DEN d   1       2.785  -3.543   1.081  0.00  0.00     0.027 A 
ATOM      4  C4  DEN d   1       4.745  -4.470  -0.316  0.00  0.00     0.027 A 
ATOM      5  C5  DEN d   1       5.757  -4.138  -1.189  0.00  0.00    -0.003 A 
ATOM      6  C6  DEN d   1       5.960  -2.852  -1.617  0.00  0.00     0.001 A 
ATOM      7  C7  DEN d   1       5.166  -1.844  -1.137  0.00  0.00     0.017 A 
ATOM      8  C8  DEN d   1       4.138  -2.173  -0.263  0.00  0.00    -0.094 A 
ATOM      9  C9  DEN d   1       3.957  -3.477   0.167  0.00  0.00    -0.072 A 
ENDROOT
TORSDOF 0
ENDMDL
