MODEL 1
REMARK minimizedAffinity 9.41407776
REMARK minimizedRMSD -1
REMARK  0 active torsions:
REMARK  status: ('A' for Active; 'I' for Inactive)
ROOT
ATOM      1  C1  DEN d   1       0.813   2.768   2.894  0.00  0.00     0.130 A 
ATOM      2  C2  DEN d   1       0.298   1.488   3.372  0.00  0.00    -0.031 A 
ATOM      3  C3  DEN d   1      -0.487   0.876   2.282  0.00  0.00     0.027 A 
ATOM      4  C4  DEN d   1      -0.947   1.777  -0.090  0.00  0.00     0.027 A 
ATOM      5  C5  DEN d   1      -0.729   2.828  -0.954  0.00  0.00    -0.003 A 
ATOM      6  C6  DEN d   1      -0.016   3.938  -0.587  0.00  0.00     0.001 A 
ATOM      7  C7  DEN d   1       0.543   4.004   0.661  0.00  0.00     0.017 A 
ATOM      8  C8  DEN d   1       0.321   2.952   1.540  0.00  0.00    -0.094 A 
ATOM      9  C9  DEN d   1      -0.392   1.832   1.147  0.00  0.00    -0.072 A 
ENDROOT
TORSDOF 0
ENDMDL
