MODEL 1
REMARK minimizedAffinity 15.359642
REMARK minimizedRMSD -1
REMARK  0 active torsions:
REMARK  status: ('A' for Active; 'I' for Inactive)
ROOT
ATOM      1  C1  DEN d   1      -0.697  -1.683  -2.190  0.00  0.00     0.130 A 
ATOM      2  C2  DEN d   1       0.709  -1.299  -2.274  0.00  0.00    -0.031 A 
ATOM      3  C3  DEN d   1       0.843   0.066  -1.726  0.00  0.00     0.027 A 
ATOM      4  C4  DEN d   1      -0.981   1.610  -0.755  0.00  0.00     0.027 A 
ATOM      5  C5  DEN d   1      -2.327   1.726  -0.485  0.00  0.00    -0.003 A 
ATOM      6  C6  DEN d   1      -3.221   0.735  -0.792  0.00  0.00     0.001 A 
ATOM      7  C7  DEN d   1      -2.774  -0.435  -1.347  0.00  0.00     0.017 A 
ATOM      8  C8  DEN d   1      -1.420  -0.556  -1.630  0.00  0.00    -0.094 A 
ATOM      9  C9  DEN d   1      -0.530   0.452  -1.301  0.00  0.00    -0.072 A 
ENDROOT
TORSDOF 0
ENDMDL
