MODEL 1
REMARK minimizedAffinity 15.9746943
REMARK minimizedRMSD -1
REMARK  0 active torsions:
REMARK  status: ('A' for Active; 'I' for Inactive)
ROOT
ATOM      1  C1  DEN d   1      -0.689   4.682  -2.086  0.00  0.00     0.130 A 
ATOM      2  C2  DEN d   1      -0.192   5.989  -1.668  0.00  0.00    -0.031 A 
ATOM      3  C3  DEN d   1       0.353   5.855  -0.302  0.00  0.00     0.027 A 
ATOM      4  C4  DEN d   1       0.479   3.758   1.195  0.00  0.00     0.027 A 
ATOM      5  C5  DEN d   1       0.174   2.418   1.277  0.00  0.00    -0.003 A 
ATOM      6  C6  DEN d   1      -0.466   1.751   0.266  0.00  0.00     0.001 A 
ATOM      7  C7  DEN d   1      -0.781   2.413  -0.891  0.00  0.00     0.017 A 
ATOM      8  C8  DEN d   1      -0.483   3.767  -0.978  0.00  0.00    -0.094 A 
ATOM      9  C9  DEN d   1       0.175   4.420   0.050  0.00  0.00    -0.072 A 
ENDROOT
TORSDOF 0
ENDMDL
