MODEL 1
REMARK minimizedAffinity 6.97959042
REMARK minimizedRMSD -1
REMARK  0 active torsions:
REMARK  status: ('A' for Active; 'I' for Inactive)
ROOT
ATOM      1  C1  DEN d   1      -2.915  -1.327  -2.887  0.00  0.00     0.130 A 
ATOM      2  C2  DEN d   1      -3.450  -0.890  -1.600  0.00  0.00    -0.031 A 
ATOM      3  C3  DEN d   1      -2.315  -0.470  -0.753  0.00  0.00     0.027 A 
ATOM      4  C4  DEN d   1       0.204  -0.451  -1.307  0.00  0.00     0.027 A 
ATOM      5  C5  DEN d   1       1.143  -0.742  -2.271  0.00  0.00    -0.003 A 
ATOM      6  C6  DEN d   1       0.802  -1.277  -3.485  0.00  0.00     0.001 A 
ATOM      7  C7  DEN d   1      -0.517  -1.494  -3.784  0.00  0.00     0.017 A 
ATOM      8  C8  DEN d   1      -1.469  -1.210  -2.815  0.00  0.00    -0.094 A 
ATOM      9  C9  DEN d   1      -1.105  -0.658  -1.598  0.00  0.00    -0.072 A 
ENDROOT
TORSDOF 0
ENDMDL
