MODEL 1
REMARK minimizedAffinity 6.66036367
REMARK minimizedRMSD -1
REMARK  0 active torsions:
REMARK  status: ('A' for Active; 'I' for Inactive)
ROOT
ATOM      1  C1  DEN d   1      -5.971  -1.309   5.713  0.00  0.00     0.130 A 
ATOM      2  C2  DEN d   1      -4.965  -0.388   5.193  0.00  0.00    -0.031 A 
ATOM      3  C3  DEN d   1      -3.802  -1.184   4.750  0.00  0.00     0.027 A 
ATOM      4  C4  DEN d   1      -3.467  -3.740   4.816  0.00  0.00     0.027 A 
ATOM      5  C5  DEN d   1      -4.040  -4.939   5.181  0.00  0.00    -0.003 A 
ATOM      6  C6  DEN d   1      -5.272  -5.008   5.776  0.00  0.00     0.001 A 
ATOM      7  C7  DEN d   1      -5.991  -3.861   5.982  0.00  0.00     0.017 A 
ATOM      8  C8  DEN d   1      -5.418  -2.648   5.623  0.00  0.00    -0.094 A 
ATOM      9  C9  DEN d   1      -4.176  -2.600   5.012  0.00  0.00    -0.072 A 
ENDROOT
TORSDOF 0
ENDMDL
