MODEL 1
REMARK minimizedAffinity 8.7474823
REMARK minimizedRMSD -1
REMARK  0 active torsions:
REMARK  status: ('A' for Active; 'I' for Inactive)
ROOT
ATOM      1  C1  DEN d   1       1.786   2.924  -0.070  0.00  0.00     0.130 A 
ATOM      2  C2  DEN d   1       1.060   3.752  -1.028  0.00  0.00    -0.031 A 
ATOM      3  C3  DEN d   1      -0.380   3.664  -0.710  0.00  0.00     0.027 A 
ATOM      4  C4  DEN d   1      -1.548   2.336   1.166  0.00  0.00     0.027 A 
ATOM      5  C5  DEN d   1      -1.350   1.475   2.223  0.00  0.00    -0.003 A 
ATOM      6  C6  DEN d   1      -0.106   1.014   2.566  0.00  0.00     0.001 A 
ATOM      7  C7  DEN d   1       0.993   1.447   1.873  0.00  0.00     0.017 A 
ATOM      8  C8  DEN d   1       0.800   2.309   0.801  0.00  0.00    -0.094 A 
ATOM      9  C9  DEN d   1      -0.463   2.773   0.478  0.00  0.00    -0.072 A 
ENDROOT
TORSDOF 0
ENDMDL
