MODEL 1
REMARK minimizedAffinity -1.5014658
REMARK minimizedRMSD -1
REMARK  1 active torsions:
REMARK  status: ('A' for Active; 'I' for Inactive)
REMARK    1  A    between atoms: C3_4  and  O_7 
ROOT
ATOM      1  C   UNL d   1       0.839  -0.817  -0.794  0.00  0.00    -0.033 A 
ATOM      2  C1  UNL d   1       0.397  -1.055   0.508  0.00  0.00     0.039 A 
ATOM      3  C2  UNL d   1      -0.468  -0.153   1.130  0.00  0.00    -0.080 A 
ATOM      4  C3  UNL d   1      -0.884   0.982   0.439  0.00  0.00     0.150 A 
ATOM      5  C4  UNL d   1      -0.450   1.224  -0.860  0.00  0.00    -0.007 A 
ATOM      6  C5  UNL d   1       0.415   0.322  -1.479  0.00  0.00     0.039 A 
ENDROOT
BRANCH   4   7
ATOM      7  O   UNL d   1      -1.724   1.893   1.006  0.00  0.00    -0.526 OA
ATOM      8  H5  UNL d   1      -1.918   1.610   1.915  0.00  0.00     0.418 HD
ENDBRANCH   4   7
TORSDOF 1
ENDMDL
