MODEL 1
REMARK minimizedAffinity -4.8755331
REMARK minimizedRMSD -1
REMARK  1 active torsions:
REMARK  status: ('A' for Active; 'I' for Inactive)
REMARK    1  A    between atoms: C3_4  and  O_7 
ROOT
ATOM      1  C   UNL d   1      -1.651   3.271   1.050  0.00  0.00    -0.033 A 
ATOM      2  C1  UNL d   1      -0.845   3.409  -0.082  0.00  0.00     0.039 A 
ATOM      3  C2  UNL d   1      -0.361   2.276  -0.739  0.00  0.00    -0.080 A 
ATOM      4  C3  UNL d   1      -0.691   1.013  -0.256  0.00  0.00     0.150 A 
ATOM      5  C4  UNL d   1      -1.497   0.868   0.869  0.00  0.00    -0.007 A 
ATOM      6  C5  UNL d   1      -1.978   2.001   1.524  0.00  0.00     0.039 A 
ENDROOT
BRANCH   4   7
ATOM      7  O   UNL d   1      -0.239  -0.122  -0.861  0.00  0.00    -0.526 OA
ATOM      8  H5  UNL d   1       0.329   0.133  -1.607  0.00  0.00     0.418 HD
ENDBRANCH   4   7
TORSDOF 1
ENDMDL
