MODEL 1
REMARK minimizedAffinity -3.60935593
REMARK minimizedRMSD -1
REMARK  1 active torsions:
REMARK  status: ('A' for Active; 'I' for Inactive)
REMARK    1  A    between atoms: C3_4  and  O_7 
ROOT
ATOM      1  C   UNL d   1       1.255   0.077  -1.179  0.00  0.00    -0.033 A 
ATOM      2  C1  UNL d   1       0.844   1.348  -1.584  0.00  0.00     0.039 A 
ATOM      3  C2  UNL d   1      -0.189   1.999  -0.907  0.00  0.00    -0.080 A 
ATOM      4  C3  UNL d   1      -0.801   1.368   0.173  0.00  0.00     0.150 A 
ATOM      5  C4  UNL d   1      -0.394   0.103   0.584  0.00  0.00    -0.007 A 
ATOM      6  C5  UNL d   1       0.637  -0.545  -0.094  0.00  0.00     0.039 A 
ENDROOT
BRANCH   4   7
ATOM      7  O   UNL d   1      -1.817   1.961   0.863  0.00  0.00    -0.526 OA
ATOM      8  H5  UNL d   1      -2.010   2.819   0.448  0.00  0.00     0.418 HD
ENDBRANCH   4   7
TORSDOF 1
ENDMDL
