MODEL 1
REMARK minimizedAffinity -3.27136493
REMARK minimizedRMSD -1
REMARK  1 active torsions:
REMARK  status: ('A' for Active; 'I' for Inactive)
REMARK    1  A    between atoms: C3_4  and  O_7 
ROOT
ATOM      1  C   UNL d   1      -1.366   1.777   1.978  0.00  0.00    -0.033 A 
ATOM      2  C1  UNL d   1      -1.420   0.441   2.380  0.00  0.00     0.039 A 
ATOM      3  C2  UNL d   1      -0.846  -0.553   1.584  0.00  0.00    -0.080 A 
ATOM      4  C3  UNL d   1      -0.222  -0.198   0.392  0.00  0.00     0.150 A 
ATOM      5  C4  UNL d   1      -0.161   1.131  -0.013  0.00  0.00    -0.007 A 
ATOM      6  C5  UNL d   1      -0.735   2.122   0.783  0.00  0.00     0.039 A 
ENDROOT
BRANCH   4   7
ATOM      7  O   UNL d   1       0.348  -1.133  -0.420  0.00  0.00    -0.526 OA
ATOM      8  H5  UNL d   1       0.203  -2.011  -0.028  0.00  0.00     0.418 HD
ENDBRANCH   4   7
TORSDOF 1
ENDMDL
