MODEL 1
REMARK minimizedAffinity -4.50026894
REMARK minimizedRMSD -1
REMARK  1 active torsions:
REMARK  status: ('A' for Active; 'I' for Inactive)
REMARK    1  A    between atoms: C3_4  and  O_7 
ROOT
ATOM      1  C   UNL d   1      -1.011  -0.323   1.542  0.00  0.00    -0.033 A 
ATOM      2  C1  UNL d   1      -1.565   0.959   1.533  0.00  0.00     0.039 A 
ATOM      3  C2  UNL d   1      -1.189   1.877   0.550  0.00  0.00    -0.080 A 
ATOM      4  C3  UNL d   1      -0.260   1.501  -0.416  0.00  0.00     0.150 A 
ATOM      5  C4  UNL d   1       0.293   0.225  -0.415  0.00  0.00    -0.007 A 
ATOM      6  C5  UNL d   1      -0.083  -0.690   0.567  0.00  0.00     0.039 A 
ENDROOT
BRANCH   4   7
ATOM      7  O   UNL d   1       0.141   2.364  -1.392  0.00  0.00    -0.526 OA
ATOM      8  H5  UNL d   1      -0.303   3.217  -1.250  0.00  0.00     0.418 HD
ENDBRANCH   4   7
TORSDOF 1
ENDMDL
