MODEL 1
REMARK minimizedAffinity -2.95884943
REMARK minimizedRMSD -1
REMARK  1 active torsions:
REMARK  status: ('A' for Active; 'I' for Inactive)
REMARK    1  A    between atoms: C3_4  and  O_7 
ROOT
ATOM      1  C   UNL d   1       0.400  -0.232  -0.359  0.00  0.00    -0.033 A 
ATOM      2  C1  UNL d   1       0.149   1.105  -0.672  0.00  0.00     0.039 A 
ATOM      3  C2  UNL d   1      -0.579   1.906   0.210  0.00  0.00    -0.080 A 
ATOM      4  C3  UNL d   1      -1.048   1.359   1.401  0.00  0.00     0.150 A 
ATOM      5  C4  UNL d   1      -0.798   0.029   1.722  0.00  0.00    -0.007 A 
ATOM      6  C5  UNL d   1      -0.072  -0.770   0.839  0.00  0.00     0.039 A 
ENDROOT
BRANCH   4   7
ATOM      7  O   UNL d   1      -1.767   2.100   2.291  0.00  0.00    -0.526 OA
ATOM      8  H5  UNL d   1      -1.886   2.992   1.923  0.00  0.00     0.418 HD
ENDBRANCH   4   7
TORSDOF 1
ENDMDL
