MODEL 1
REMARK minimizedAffinity -3.19249725
REMARK minimizedRMSD -1
REMARK  1 active torsions:
REMARK  status: ('A' for Active; 'I' for Inactive)
REMARK    1  A    between atoms: C3_4  and  O_7 
ROOT
ATOM      1  C   UNL d   1       0.673   0.027  -0.519  0.00  0.00    -0.033 A 
ATOM      2  C1  UNL d   1       0.373   1.388  -0.601  0.00  0.00     0.039 A 
ATOM      3  C2  UNL d   1      -0.359   2.007   0.414  0.00  0.00    -0.080 A 
ATOM      4  C3  UNL d   1      -0.784   1.254   1.505  0.00  0.00     0.150 A 
ATOM      5  C4  UNL d   1      -0.486  -0.102   1.596  0.00  0.00    -0.007 A 
ATOM      6  C5  UNL d   1       0.244  -0.718   0.580  0.00  0.00     0.039 A 
ENDROOT
BRANCH   4   7
ATOM      7  O   UNL d   1      -1.505   1.812   2.518  0.00  0.00    -0.526 OA
ATOM      8  H5  UNL d   1      -1.660   2.748   2.306  0.00  0.00     0.418 HD
ENDBRANCH   4   7
TORSDOF 1
ENDMDL
