MODEL 1
REMARK minimizedAffinity -4.2712512
REMARK minimizedRMSD -1
REMARK  1 active torsions:
REMARK  status: ('A' for Active; 'I' for Inactive)
REMARK    1  A    between atoms: C3_4  and  O_7 
ROOT
ATOM      1  C   UNL d   1       2.152  -1.786  -2.809  0.00  0.00    -0.033 A 
ATOM      2  C1  UNL d   1       1.546  -2.035  -4.042  0.00  0.00     0.039 A 
ATOM      3  C2  UNL d   1       0.364  -2.775  -4.105  0.00  0.00    -0.080 A 
ATOM      4  C3  UNL d   1      -0.202  -3.259  -2.929  0.00  0.00     0.150 A 
ATOM      5  C4  UNL d   1       0.394  -3.012  -1.696  0.00  0.00    -0.007 A 
ATOM      6  C5  UNL d   1       1.575  -2.274  -1.636  0.00  0.00     0.039 A 
ENDROOT
BRANCH   4   7
ATOM      7  O   UNL d   1      -1.353  -3.991  -2.940  0.00  0.00    -0.526 OA
ATOM      8  H5  UNL d   1      -1.635  -4.106  -3.863  0.00  0.00     0.418 HD
ENDBRANCH   4   7
TORSDOF 1
ENDMDL
