MODEL 1
REMARK minimizedAffinity -4.89515924
REMARK minimizedRMSD -1
REMARK  1 active torsions:
REMARK  status: ('A' for Active; 'I' for Inactive)
REMARK    1  A    between atoms: C3_4  and  O_7 
ROOT
ATOM      1  C   UNL d   1      -1.558   2.163   1.635  0.00  0.00    -0.033 A 
ATOM      2  C1  UNL d   1      -1.114   1.005   2.276  0.00  0.00     0.039 A 
ATOM      3  C2  UNL d   1      -0.511  -0.016   1.539  0.00  0.00    -0.080 A 
ATOM      4  C3  UNL d   1      -0.358   0.133   0.163  0.00  0.00     0.150 A 
ATOM      5  C4  UNL d   1      -0.794   1.286  -0.481  0.00  0.00    -0.007 A 
ATOM      6  C5  UNL d   1      -1.396   2.304   0.256  0.00  0.00     0.039 A 
ENDROOT
BRANCH   4   7
ATOM      7  O   UNL d   1       0.220  -0.838  -0.599  0.00  0.00    -0.526 OA
ATOM      8  H5  UNL d   1       0.446  -1.588  -0.023  0.00  0.00     0.418 HD
ENDBRANCH   4   7
TORSDOF 1
ENDMDL
