MODEL 1
REMARK minimizedAffinity -3.74781346
REMARK minimizedRMSD -1
REMARK  1 active torsions:
REMARK  status: ('A' for Active; 'I' for Inactive)
REMARK    1  A    between atoms: C3_4  and  O_7 
ROOT
ATOM      1  C   UNL d   1       0.572  -0.650   0.089  0.00  0.00    -0.033 A 
ATOM      2  C1  UNL d   1       0.206   0.265  -0.900  0.00  0.00     0.039 A 
ATOM      3  C2  UNL d   1      -0.640   1.331  -0.588  0.00  0.00    -0.080 A 
ATOM      4  C3  UNL d   1      -1.112   1.470   0.715  0.00  0.00     0.150 A 
ATOM      5  C4  UNL d   1      -0.748   0.564   1.706  0.00  0.00    -0.007 A 
ATOM      6  C5  UNL d   1       0.097  -0.500   1.392  0.00  0.00     0.039 A 
ENDROOT
BRANCH   4   7
ATOM      7  O   UNL d   1      -1.943   2.492   1.066  0.00  0.00    -0.526 OA
ATOM      8  H5  UNL d   1      -2.132   3.022   0.274  0.00  0.00     0.418 HD
ENDBRANCH   4   7
TORSDOF 1
ENDMDL
