MODEL 1
REMARK minimizedAffinity -4.92303467
REMARK minimizedRMSD -1
REMARK  1 active torsions:
REMARK  status: ('A' for Active; 'I' for Inactive)
REMARK    1  A    between atoms: C3_4  and  O_7 
ROOT
ATOM      1  C   UNL d   1       0.708  -0.717   0.310  0.00  0.00    -0.033 A 
ATOM      2  C1  UNL d   1       0.002  -1.210   1.409  0.00  0.00     0.039 A 
ATOM      3  C2  UNL d   1      -1.058  -0.478   1.946  0.00  0.00    -0.080 A 
ATOM      4  C3  UNL d   1      -1.404   0.744   1.375  0.00  0.00     0.150 A 
ATOM      5  C4  UNL d   1      -0.708   1.240   0.277  0.00  0.00    -0.007 A 
ATOM      6  C5  UNL d   1       0.351   0.508  -0.257  0.00  0.00     0.039 A 
ENDROOT
BRANCH   4   7
ATOM      7  O   UNL d   1      -2.428   1.496   1.868  0.00  0.00    -0.526 OA
ATOM      8  H5  UNL d   1      -2.798   1.042   2.643  0.00  0.00     0.418 HD
ENDBRANCH   4   7
TORSDOF 1
ENDMDL
