MODEL 1
REMARK minimizedAffinity -3.55973029
REMARK minimizedRMSD -1
REMARK  1 active torsions:
REMARK  status: ('A' for Active; 'I' for Inactive)
REMARK    1  A    between atoms: C3_4  and  O_7 
ROOT
ATOM      1  C   UNL d   1       0.855  -0.565   0.074  0.00  0.00    -0.033 A 
ATOM      2  C1  UNL d   1       0.373   0.361  -0.853  0.00  0.00     0.039 A 
ATOM      3  C2  UNL d   1      -0.731   1.156  -0.538  0.00  0.00    -0.080 A 
ATOM      4  C3  UNL d   1      -1.342   1.017   0.705  0.00  0.00     0.150 A 
ATOM      5  C4  UNL d   1      -0.864   0.099   1.635  0.00  0.00    -0.007 A 
ATOM      6  C5  UNL d   1       0.238  -0.695   1.319  0.00  0.00     0.039 A 
ENDROOT
BRANCH   4   7
ATOM      7  O   UNL d   1      -2.424   1.767   1.056  0.00  0.00    -0.526 OA
ATOM      8  H5  UNL d   1      -2.660   2.337   0.305  0.00  0.00     0.418 HD
ENDBRANCH   4   7
TORSDOF 1
ENDMDL
