MODEL 1
REMARK minimizedAffinity -5.24355555
REMARK minimizedRMSD -1
REMARK  1 active torsions:
REMARK  status: ('A' for Active; 'I' for Inactive)
REMARK    1  A    between atoms: C3_4  and  O_7 
ROOT
ATOM      1  C   UNL d   1      -1.252   0.795   1.361  0.00  0.00    -0.033 A 
ATOM      2  C1  UNL d   1      -0.351  -0.270   1.412  0.00  0.00     0.039 A 
ATOM      3  C2  UNL d   1       0.677  -0.363   0.472  0.00  0.00    -0.080 A 
ATOM      4  C3  UNL d   1       0.794   0.615  -0.512  0.00  0.00     0.150 A 
ATOM      5  C4  UNL d   1      -0.097   1.682  -0.566  0.00  0.00    -0.007 A 
ATOM      6  C5  UNL d   1      -1.124   1.772   0.373  0.00  0.00     0.039 A 
ENDROOT
BRANCH   4   7
ATOM      7  O   UNL d   1       1.778   0.565  -1.454  0.00  0.00    -0.526 OA
ATOM      8  H5  UNL d   1       2.301  -0.242  -1.309  0.00  0.00     0.418 HD
ENDBRANCH   4   7
TORSDOF 1
ENDMDL
