MODEL 1
REMARK minimizedAffinity -5.28886414
REMARK minimizedRMSD -1
REMARK  1 active torsions:
REMARK  status: ('A' for Active; 'I' for Inactive)
REMARK    1  A    between atoms: C3_4  and  O_7 
ROOT
ATOM      1  C   UNL d   1      -2.151   1.491   1.581  0.00  0.00    -0.033 A 
ATOM      2  C1  UNL d   1      -1.882   2.117   0.363  0.00  0.00     0.039 A 
ATOM      3  C2  UNL d   1      -0.790   1.711  -0.407  0.00  0.00    -0.080 A 
ATOM      4  C3  UNL d   1       0.023   0.679   0.052  0.00  0.00     0.150 A 
ATOM      5  C4  UNL d   1      -0.241   0.048   1.263  0.00  0.00    -0.007 A 
ATOM      6  C5  UNL d   1      -1.331   0.455   2.030  0.00  0.00     0.039 A 
ENDROOT
BRANCH   4   7
ATOM      7  O   UNL d   1       1.103   0.251  -0.662  0.00  0.00    -0.526 OA
ATOM      8  H5  UNL d   1       1.179   0.798  -1.462  0.00  0.00     0.418 HD
ENDBRANCH   4   7
TORSDOF 1
ENDMDL
