MODEL 1
REMARK minimizedAffinity -4.08176613
REMARK minimizedRMSD -1
REMARK  1 active torsions:
REMARK  status: ('A' for Active; 'I' for Inactive)
REMARK    1  A    between atoms: C3_4  and  O_7 
ROOT
ATOM      1  C   UNL d   1       0.821  -0.074  -0.223  0.00  0.00    -0.033 A 
ATOM      2  C1  UNL d   1       0.426   1.080  -0.903  0.00  0.00     0.039 A 
ATOM      3  C2  UNL d   1      -0.642   1.842  -0.426  0.00  0.00    -0.080 A 
ATOM      4  C3  UNL d   1      -1.305   1.441   0.731  0.00  0.00     0.150 A 
ATOM      5  C4  UNL d   1      -0.915   0.295   1.415  0.00  0.00    -0.007 A 
ATOM      6  C5  UNL d   1       0.152  -0.465   0.937  0.00  0.00     0.039 A 
ENDROOT
BRANCH   4   7
ATOM      7  O   UNL d   1      -2.356   2.150   1.232  0.00  0.00    -0.526 OA
ATOM      8  H5  UNL d   1      -2.532   2.900   0.639  0.00  0.00     0.418 HD
ENDBRANCH   4   7
TORSDOF 1
ENDMDL
