MODEL 1
REMARK minimizedAffinity -3.9044919
REMARK minimizedRMSD -1
REMARK  1 active torsions:
REMARK  status: ('A' for Active; 'I' for Inactive)
REMARK    1  A    between atoms: C3_4  and  O_7 
ROOT
ATOM      1  C   UNL d   1       0.699  -0.673  -0.235  0.00  0.00    -0.033 A 
ATOM      2  C1  UNL d   1       0.505   0.385  -1.124  0.00  0.00     0.039 A 
ATOM      3  C2  UNL d   1      -0.440   1.373  -0.841  0.00  0.00    -0.080 A 
ATOM      4  C3  UNL d   1      -1.182   1.291   0.335  0.00  0.00     0.150 A 
ATOM      5  C4  UNL d   1      -0.991   0.242   1.227  0.00  0.00    -0.007 A 
ATOM      6  C5  UNL d   1      -0.047  -0.744   0.942  0.00  0.00     0.039 A 
ENDROOT
BRANCH   4   7
ATOM      7  O   UNL d   1      -2.120   2.229   0.652  0.00  0.00    -0.526 OA
ATOM      8  H5  UNL d   1      -2.163   2.878  -0.070  0.00  0.00     0.418 HD
ENDBRANCH   4   7
TORSDOF 1
ENDMDL
