MODEL 1
REMARK minimizedAffinity -1.53315103
REMARK minimizedRMSD -1
REMARK  1 active torsions:
REMARK  status: ('A' for Active; 'I' for Inactive)
REMARK    1  A    between atoms: C1_2  and  C2_3 
ROOT
ATOM      1  C2  UNL d   1       1.062  -0.368   0.331  0.00  0.00    -0.081 A 
ATOM      2  C3  UNL d   1      -0.011  -1.156   0.764  0.00  0.00     0.006 A 
ATOM      3  C4  UNL d   1       0.219  -2.389   1.379  0.00  0.00     0.002 A 
ATOM      4  C5  UNL d   1       1.525  -2.850   1.579  0.00  0.00    -0.080 A 
ATOM      5  C6  UNL d   1       1.786  -4.157   2.266  0.00  0.00     0.076 C 
ATOM      6  C7  UNL d   1       2.596  -2.070   1.131  0.00  0.00     0.002 A 
ATOM      7  C8  UNL d   1       2.367  -0.838   0.515  0.00  0.00     0.006 A 
ENDROOT
BRANCH   1   8
ATOM      8  C1  UNL d   1       0.819   0.991  -0.275  0.00  0.00     0.054 C 
ATOM      9  C   UNL d   1      -0.585   1.490   0.031  0.00  0.00     0.018 C 
ENDBRANCH   1   8
TORSDOF 1
ENDMDL
