MODEL 1
REMARK minimizedAffinity -1.04477894
REMARK minimizedRMSD -1
REMARK  1 active torsions:
REMARK  status: ('A' for Active; 'I' for Inactive)
REMARK    1  A    between atoms: C1_2  and  C2_3 
ROOT
ATOM      1  C2  UNL d   1       2.442  -0.670   0.805  0.00  0.00    -0.081 A 
ATOM      2  C3  UNL d   1       1.572   0.204   0.143  0.00  0.00     0.006 A 
ATOM      3  C4  UNL d   1       0.189   0.025   0.225  0.00  0.00     0.002 A 
ATOM      4  C5  UNL d   1      -0.347  -1.026   0.976  0.00  0.00    -0.080 A 
ATOM      5  C6  UNL d   1      -1.831  -1.212   1.097  0.00  0.00     0.076 C 
ATOM      6  C7  UNL d   1       0.522  -1.910   1.624  0.00  0.00     0.002 A 
ATOM      7  C8  UNL d   1       1.905  -1.732   1.542  0.00  0.00     0.006 A 
ENDROOT
BRANCH   1   8
ATOM      8  C1  UNL d   1       3.931  -0.442   0.772  0.00  0.00     0.054 C 
ATOM      9  C   UNL d   1       4.511  -0.365   2.177  0.00  0.00     0.018 C 
ENDBRANCH   1   8
TORSDOF 1
ENDMDL
