MODEL 1
REMARK minimizedAffinity -5.77106237
REMARK minimizedRMSD -1
REMARK  1 active torsions:
REMARK  status: ('A' for Active; 'I' for Inactive)
REMARK    1  A    between atoms: C1_2  and  C2_3 
ROOT
ATOM      1  C2  UNL d   1      -0.093   1.096   0.316  0.00  0.00    -0.081 A 
ATOM      2  C3  UNL d   1      -0.677   0.059   1.052  0.00  0.00     0.006 A 
ATOM      3  C4  UNL d   1       0.063  -1.080   1.380  0.00  0.00     0.002 A 
ATOM      4  C5  UNL d   1       1.400  -1.197   0.984  0.00  0.00    -0.080 A 
ATOM      5  C6  UNL d   1       2.214  -2.401   1.356  0.00  0.00     0.076 C 
ATOM      6  C7  UNL d   1       1.978  -0.168   0.233  0.00  0.00     0.002 A 
ATOM      7  C8  UNL d   1       1.239   0.971  -0.095  0.00  0.00     0.006 A 
ENDROOT
BRANCH   1   8
ATOM      8  C1  UNL d   1      -0.868   2.354   0.016  0.00  0.00     0.054 C 
ATOM      9  C   UNL d   1      -0.262   3.111  -1.157  0.00  0.00     0.018 C 
ENDBRANCH   1   8
TORSDOF 1
ENDMDL
