MODEL 1
REMARK minimizedAffinity -3.83358455
REMARK minimizedRMSD -1
REMARK  1 active torsions:
REMARK  status: ('A' for Active; 'I' for Inactive)
REMARK    1  A    between atoms: C1_2  and  C2_3 
ROOT
ATOM      1  C2  UNL d   1       0.104   0.425  -0.570  0.00  0.00    -0.081 A 
ATOM      2  C3  UNL d   1      -0.916   1.167   0.038  0.00  0.00     0.006 A 
ATOM      3  C4  UNL d   1      -1.822   1.895  -0.737  0.00  0.00     0.002 A 
ATOM      4  C5  UNL d   1      -1.728   1.887  -2.133  0.00  0.00    -0.080 A 
ATOM      5  C6  UNL d   1      -2.712   2.639  -2.979  0.00  0.00     0.076 C 
ATOM      6  C7  UNL d   1      -0.698   1.159  -2.740  0.00  0.00     0.002 A 
ATOM      7  C8  UNL d   1       0.208   0.432  -1.965  0.00  0.00     0.006 A 
ENDROOT
BRANCH   1   8
ATOM      8  C1  UNL d   1       1.042  -0.412   0.261  0.00  0.00     0.054 C 
ATOM      9  C   UNL d   1       2.369  -0.628  -0.452  0.00  0.00     0.018 C 
ENDBRANCH   1   8
TORSDOF 1
ENDMDL
