MODEL 1
REMARK minimizedAffinity 1.66000795
REMARK minimizedRMSD -1
REMARK  1 active torsions:
REMARK  status: ('A' for Active; 'I' for Inactive)
REMARK    1  A    between atoms: C1_2  and  C2_3 
ROOT
ATOM      1  C2  UNL d   1       1.816  -0.788   1.149  0.00  0.00    -0.081 A 
ATOM      2  C3  UNL d   1       2.042   0.398   0.439  0.00  0.00     0.006 A 
ATOM      3  C4  UNL d   1       1.021   0.976  -0.317  0.00  0.00     0.002 A 
ATOM      4  C5  UNL d   1      -0.246   0.384  -0.370  0.00  0.00    -0.080 A 
ATOM      5  C6  UNL d   1      -1.360   1.011  -1.154  0.00  0.00     0.076 C 
ATOM      6  C7  UNL d   1      -0.467  -0.810   0.325  0.00  0.00     0.002 A 
ATOM      7  C8  UNL d   1       0.554  -1.389   1.081  0.00  0.00     0.006 A 
ENDROOT
BRANCH   1   8
ATOM      8  C1  UNL d   1       2.897  -1.379   2.018  0.00  0.00     0.054 C 
ATOM      9  C   UNL d   1       3.941  -0.337   2.389  0.00  0.00     0.018 C 
ENDBRANCH   1   8
TORSDOF 1
ENDMDL
