MODEL 1
REMARK minimizedAffinity -4.92037058
REMARK minimizedRMSD -1
REMARK  1 active torsions:
REMARK  status: ('A' for Active; 'I' for Inactive)
REMARK    1  A    between atoms: C1_2  and  C2_3 
ROOT
ATOM      1  C2  UNL d   1      -0.365   0.330  -0.280  0.00  0.00    -0.081 A 
ATOM      2  C3  UNL d   1      -0.990  -0.729   0.391  0.00  0.00     0.006 A 
ATOM      3  C4  UNL d   1      -0.234  -1.782   0.911  0.00  0.00     0.002 A 
ATOM      4  C5  UNL d   1       1.159  -1.792   0.775  0.00  0.00    -0.080 A 
ATOM      5  C6  UNL d   1       1.984  -2.901   1.355  0.00  0.00     0.076 C 
ATOM      6  C7  UNL d   1       1.781  -0.743   0.090  0.00  0.00     0.002 A 
ATOM      7  C8  UNL d   1       1.026   0.310  -0.431  0.00  0.00     0.006 A 
ENDROOT
BRANCH   1   8
ATOM      8  C1  UNL d   1      -1.171   1.499  -0.784  0.00  0.00     0.054 C 
ATOM      9  C   UNL d   1      -2.136   1.074  -1.882  0.00  0.00     0.018 C 
ENDBRANCH   1   8
TORSDOF 1
ENDMDL
