MODEL 1
REMARK minimizedAffinity -5.23975277
REMARK minimizedRMSD -1
REMARK  1 active torsions:
REMARK  status: ('A' for Active; 'I' for Inactive)
REMARK    1  A    between atoms: C1_2  and  C2_3 
ROOT
ATOM      1  C2  UNL d   1      -0.115  -1.554   1.170  0.00  0.00    -0.081 A 
ATOM      2  C3  UNL d   1      -1.043  -0.530   1.393  0.00  0.00     0.006 A 
ATOM      3  C4  UNL d   1      -1.477   0.275   0.337  0.00  0.00     0.002 A 
ATOM      4  C5  UNL d   1      -0.996   0.064  -0.960  0.00  0.00    -0.080 A 
ATOM      5  C6  UNL d   1      -1.477   0.901  -2.108  0.00  0.00     0.076 C 
ATOM      6  C7  UNL d   1      -0.056  -0.949  -1.180  0.00  0.00     0.002 A 
ATOM      7  C8  UNL d   1       0.379  -1.753  -0.124  0.00  0.00     0.006 A 
ENDROOT
BRANCH   1   8
ATOM      8  C1  UNL d   1       0.306  -2.465   2.295  0.00  0.00     0.054 C 
ATOM      9  C   UNL d   1       1.811  -2.694   2.289  0.00  0.00     0.018 C 
ENDBRANCH   1   8
TORSDOF 1
ENDMDL
