MODEL 1
REMARK minimizedAffinity -2.95904207
REMARK minimizedRMSD -1
REMARK  1 active torsions:
REMARK  status: ('A' for Active; 'I' for Inactive)
REMARK    1  A    between atoms: C1_2  and  C2_3 
ROOT
ATOM      1  C2  UNL d   1      -0.422   1.296  -0.459  0.00  0.00    -0.081 A 
ATOM      2  C3  UNL d   1       0.919   1.040  -0.771  0.00  0.00     0.006 A 
ATOM      3  C4  UNL d   1       1.557  -0.098  -0.273  0.00  0.00     0.002 A 
ATOM      4  C5  UNL d   1       0.865  -1.002   0.538  0.00  0.00    -0.080 A 
ATOM      5  C6  UNL d   1       1.530  -2.244   1.055  0.00  0.00     0.076 C 
ATOM      6  C7  UNL d   1      -0.470  -0.738   0.865  0.00  0.00     0.002 A 
ATOM      7  C8  UNL d   1      -1.109   0.400   0.368  0.00  0.00     0.006 A 
ENDROOT
BRANCH   1   8
ATOM      8  C1  UNL d   1      -1.132   2.488  -1.047  0.00  0.00     0.054 C 
ATOM      9  C   UNL d   1      -1.916   2.106  -2.295  0.00  0.00     0.018 C 
ENDBRANCH   1   8
TORSDOF 1
ENDMDL
