MODEL 1
REMARK minimizedAffinity 2.07674503
REMARK minimizedRMSD -1
REMARK  1 active torsions:
REMARK  status: ('A' for Active; 'I' for Inactive)
REMARK    1  A    between atoms: C1_2  and  C2_3 
ROOT
ATOM      1  C2  UNL d   1      -1.606   1.823  -1.997  0.00  0.00    -0.081 A 
ATOM      2  C3  UNL d   1      -0.379   1.910  -1.328  0.00  0.00     0.006 A 
ATOM      3  C4  UNL d   1      -0.068   1.018  -0.300  0.00  0.00     0.002 A 
ATOM      4  C5  UNL d   1      -0.974   0.019   0.072  0.00  0.00    -0.080 A 
ATOM      5  C6  UNL d   1      -0.640  -0.965   1.154  0.00  0.00     0.076 C 
ATOM      6  C7  UNL d   1      -2.207  -0.058  -0.585  0.00  0.00     0.002 A 
ATOM      7  C8  UNL d   1      -2.519   0.834  -1.613  0.00  0.00     0.006 A 
ENDROOT
BRANCH   1   8
ATOM      8  C1  UNL d   1      -1.918   2.742  -3.150  0.00  0.00     0.054 C 
ATOM      9  C   UNL d   1      -2.394   1.962  -4.367  0.00  0.00     0.018 C 
ENDBRANCH   1   8
TORSDOF 1
ENDMDL
