MODEL 1
REMARK minimizedAffinity -5.59188747
REMARK minimizedRMSD -1
REMARK  1 active torsions:
REMARK  status: ('A' for Active; 'I' for Inactive)
REMARK    1  A    between atoms: C1_2  and  C2_3 
ROOT
ATOM      1  C2  UNL d   1      -0.256   0.999  -0.257  0.00  0.00    -0.081 A 
ATOM      2  C3  UNL d   1       1.085   0.763  -0.581  0.00  0.00     0.006 A 
ATOM      3  C4  UNL d   1       1.740  -0.375  -0.104  0.00  0.00     0.002 A 
ATOM      4  C5  UNL d   1       1.063  -1.299   0.698  0.00  0.00    -0.080 A 
ATOM      5  C6  UNL d   1       1.745  -2.540   1.192  0.00  0.00     0.076 C 
ATOM      6  C7  UNL d   1      -0.273  -1.055   1.036  0.00  0.00     0.002 A 
ATOM      7  C8  UNL d   1      -0.928   0.082   0.560  0.00  0.00     0.006 A 
ENDROOT
BRANCH   1   8
ATOM      8  C1  UNL d   1      -0.984   2.191  -0.823  0.00  0.00     0.054 C 
ATOM      9  C   UNL d   1      -1.840   1.800  -2.019  0.00  0.00     0.018 C 
ENDBRANCH   1   8
TORSDOF 1
ENDMDL
