MODEL 1
REMARK minimizedAffinity -5.32041836
REMARK minimizedRMSD -1
REMARK  1 active torsions:
REMARK  status: ('A' for Active; 'I' for Inactive)
REMARK    1  A    between atoms: C1_2  and  C2_3 
ROOT
ATOM      1  C2  UNL d   1       0.009  -0.959   1.268  0.00  0.00    -0.081 A 
ATOM      2  C3  UNL d   1      -1.104  -0.149   1.521  0.00  0.00     0.006 A 
ATOM      3  C4  UNL d   1      -1.424   0.904   0.661  0.00  0.00     0.002 A 
ATOM      4  C5  UNL d   1      -0.640   1.160  -0.470  0.00  0.00    -0.080 A 
ATOM      5  C6  UNL d   1      -0.989   2.268  -1.418  0.00  0.00     0.076 C 
ATOM      6  C7  UNL d   1       0.483   0.361  -0.713  0.00  0.00     0.002 A 
ATOM      7  C8  UNL d   1       0.803  -0.692   0.147  0.00  0.00     0.006 A 
ENDROOT
BRANCH   1   8
ATOM      8  C1  UNL d   1       0.319  -2.136   2.158  0.00  0.00     0.054 C 
ATOM      9  C   UNL d   1       1.773  -2.563   2.024  0.00  0.00     0.018 C 
ENDBRANCH   1   8
TORSDOF 1
ENDMDL
