MODEL 1
REMARK minimizedAffinity -5.17880392
REMARK minimizedRMSD -1
REMARK  1 active torsions:
REMARK  status: ('A' for Active; 'I' for Inactive)
REMARK    1  A    between atoms: C1_2  and  C2_3 
ROOT
ATOM      1  C2  UNL d   1      -0.209   0.485  -0.197  0.00  0.00    -0.081 A 
ATOM      2  C3  UNL d   1       1.125   0.209  -0.522  0.00  0.00     0.006 A 
ATOM      3  C4  UNL d   1       1.708  -1.005  -0.151  0.00  0.00     0.002 A 
ATOM      4  C5  UNL d   1       0.965  -1.967   0.542  0.00  0.00    -0.080 A 
ATOM      5  C6  UNL d   1       1.570  -3.286   0.919  0.00  0.00     0.076 C 
ATOM      6  C7  UNL d   1      -0.362  -1.684   0.882  0.00  0.00     0.002 A 
ATOM      7  C8  UNL d   1      -0.945  -0.470   0.512  0.00  0.00     0.006 A 
ENDROOT
BRANCH   1   8
ATOM      8  C1  UNL d   1      -0.859   1.766  -0.652  0.00  0.00     0.054 C 
ATOM      9  C   UNL d   1      -1.688   1.550  -1.910  0.00  0.00     0.018 C 
ENDBRANCH   1   8
TORSDOF 1
ENDMDL
