MODEL 1
REMARK minimizedAffinity -5.49413204
REMARK minimizedRMSD -1
REMARK  1 active torsions:
REMARK  status: ('A' for Active; 'I' for Inactive)
REMARK    1  A    between atoms: C1_2  and  C2_3 
ROOT
ATOM      1  C2  UNL d   1      -0.693   1.127  -0.923  0.00  0.00    -0.081 A 
ATOM      2  C3  UNL d   1       0.660   1.198  -1.276  0.00  0.00     0.006 A 
ATOM      3  C4  UNL d   1       1.581   0.295  -0.738  0.00  0.00     0.002 A 
ATOM      4  C5  UNL d   1       1.163  -0.697   0.155  0.00  0.00    -0.080 A 
ATOM      5  C6  UNL d   1       2.135  -1.691   0.717  0.00  0.00     0.076 C 
ATOM      6  C7  UNL d   1      -0.186  -0.757   0.521  0.00  0.00     0.002 A 
ATOM      7  C8  UNL d   1      -1.107   0.145  -0.016  0.00  0.00     0.006 A 
ENDROOT
BRANCH   1   8
ATOM      8  C1  UNL d   1      -1.699   2.057  -1.551  0.00  0.00     0.054 C 
ATOM      9  C   UNL d   1      -1.853   1.782  -3.040  0.00  0.00     0.018 C 
ENDBRANCH   1   8
TORSDOF 1
ENDMDL
