MODEL 1
REMARK minimizedAffinity -3.65393305
REMARK minimizedRMSD -1
REMARK  1 active torsions:
REMARK  status: ('A' for Active; 'I' for Inactive)
REMARK    1  A    between atoms: C1_2  and  C2_3 
ROOT
ATOM      1  C2  UNL d   1      -0.648   0.758  -0.766  0.00  0.00    -0.081 A 
ATOM      2  C3  UNL d   1       0.731   0.796  -1.005  0.00  0.00     0.006 A 
ATOM      3  C4  UNL d   1       1.588  -0.091  -0.349  0.00  0.00     0.002 A 
ATOM      4  C5  UNL d   1       1.081  -1.034   0.551  0.00  0.00    -0.080 A 
ATOM      5  C6  UNL d   1       1.986  -2.011   1.240  0.00  0.00     0.076 C 
ATOM      6  C7  UNL d   1      -0.295  -1.060   0.803  0.00  0.00     0.002 A 
ATOM      7  C8  UNL d   1      -1.153  -0.173   0.148  0.00  0.00     0.006 A 
ENDROOT
BRANCH   1   8
ATOM      8  C1  UNL d   1      -1.582   1.669  -1.521  0.00  0.00     0.054 C 
ATOM      9  C   UNL d   1      -2.622   0.875  -2.297  0.00  0.00     0.018 C 
ENDBRANCH   1   8
TORSDOF 1
ENDMDL
