MODEL 1
REMARK minimizedAffinity -5.23960543
REMARK minimizedRMSD -1
REMARK  1 active torsions:
REMARK  status: ('A' for Active; 'I' for Inactive)
REMARK    1  A    between atoms: C1_2  and  C2_3 
ROOT
ATOM      1  C2  UNL d   1      -1.428   2.597  -2.802  0.00  0.00    -0.081 A 
ATOM      2  C3  UNL d   1      -1.166   2.643  -4.177  0.00  0.00     0.006 A 
ATOM      3  C4  UNL d   1      -0.514   3.744  -4.737  0.00  0.00     0.002 A 
ATOM      4  C5  UNL d   1      -0.108   4.814  -3.932  0.00  0.00    -0.080 A 
ATOM      5  C6  UNL d   1       0.620   5.988  -4.516  0.00  0.00     0.076 C 
ATOM      6  C7  UNL d   1      -0.385   4.776  -2.561  0.00  0.00     0.002 A 
ATOM      7  C8  UNL d   1      -1.037   3.675  -2.001  0.00  0.00     0.006 A 
ENDROOT
BRANCH   1   8
ATOM      8  C1  UNL d   1      -2.073   1.382  -2.185  0.00  0.00     0.054 C 
ATOM      9  C   UNL d   1      -3.349   0.999  -2.920  0.00  0.00     0.018 C 
ENDBRANCH   1   8
TORSDOF 1
ENDMDL
