MODEL 1
REMARK minimizedAffinity -4.50114536
REMARK minimizedRMSD -1
REMARK  1 active torsions:
REMARK  status: ('A' for Active; 'I' for Inactive)
REMARK    1  A    between atoms: C1_2  and  C2_3 
ROOT
ATOM      1  C2  UNL d   1       0.096  -0.092  -0.377  0.00  0.00    -0.073 A 
ATOM      2  C3  UNL d   1       0.927  -1.217  -0.442  0.00  0.00    -0.002 A 
ATOM      3  C4  UNL d   1       1.503  -1.599  -1.654  0.00  0.00     0.004 A 
ATOM      4  C5  UNL d   1       1.261  -0.858  -2.810  0.00  0.00    -0.004 A 
ATOM      5  C6  UNL d   1       0.444   0.275  -2.764  0.00  0.00    -0.075 A 
ATOM      6  C7  UNL d   1       0.171   1.082  -4.000  0.00  0.00     0.076 C 
ATOM      7  C8  UNL d   1      -0.134   0.651  -1.544  0.00  0.00     0.001 A 
ENDROOT
BRANCH   1   8
ATOM      8  C1  UNL d   1      -0.523   0.328   0.931  0.00  0.00     0.053 C 
ATOM      9  C   UNL d   1       0.284   1.417   1.619  0.00  0.00     0.018 C 
ENDBRANCH   1   8
TORSDOF 1
ENDMDL
