MODEL 1
REMARK minimizedAffinity -3.09053493
REMARK minimizedRMSD -1
REMARK  1 active torsions:
REMARK  status: ('A' for Active; 'I' for Inactive)
REMARK    1  A    between atoms: C1_2  and  C2_3 
ROOT
ATOM      1  C2  UNL d   1       0.325  -0.042   2.640  0.00  0.00    -0.073 A 
ATOM      2  C3  UNL d   1      -0.919   0.564   2.846  0.00  0.00    -0.002 A 
ATOM      3  C4  UNL d   1      -1.725   0.906   1.760  0.00  0.00     0.004 A 
ATOM      4  C5  UNL d   1      -1.300   0.639   0.459  0.00  0.00    -0.004 A 
ATOM      5  C6  UNL d   1      -0.065   0.023   0.233  0.00  0.00    -0.075 A 
ATOM      6  C7  UNL d   1       0.408  -0.269  -1.161  0.00  0.00     0.076 C 
ATOM      7  C8  UNL d   1       0.740  -0.315   1.329  0.00  0.00     0.001 A 
ENDROOT
BRANCH   1   8
ATOM      8  C1  UNL d   1       1.197  -0.419   3.810  0.00  0.00     0.053 C 
ATOM      9  C   UNL d   1       0.629  -1.595   4.589  0.00  0.00     0.018 C 
ENDBRANCH   1   8
TORSDOF 1
ENDMDL
