MODEL 1
REMARK minimizedAffinity -3.62757301
REMARK minimizedRMSD -1
REMARK  1 active torsions:
REMARK  status: ('A' for Active; 'I' for Inactive)
REMARK    1  A    between atoms: C1_2  and  C2_3 
ROOT
ATOM      1  C2  UNL d   1       0.199   0.610   1.354  0.00  0.00    -0.073 A 
ATOM      2  C3  UNL d   1       1.389   0.166   1.943  0.00  0.00    -0.002 A 
ATOM      3  C4  UNL d   1       2.270  -0.645   1.227  0.00  0.00     0.004 A 
ATOM      4  C5  UNL d   1       1.975  -1.016  -0.085  0.00  0.00    -0.004 A 
ATOM      5  C6  UNL d   1       0.796  -0.573  -0.694  0.00  0.00    -0.075 A 
ATOM      6  C7  UNL d   1       0.463  -0.964  -2.104  0.00  0.00     0.076 C 
ATOM      7  C8  UNL d   1      -0.084   0.240   0.032  0.00  0.00     0.001 A 
ENDROOT
BRANCH   1   8
ATOM      8  C1  UNL d   1      -0.752   1.492   2.121  0.00  0.00     0.053 C 
ATOM      9  C   UNL d   1      -1.275   0.810   3.376  0.00  0.00     0.018 C 
ENDBRANCH   1   8
TORSDOF 1
ENDMDL
