MODEL 1
REMARK minimizedAffinity -4.64498997
REMARK minimizedRMSD -1
REMARK  1 active torsions:
REMARK  status: ('A' for Active; 'I' for Inactive)
REMARK    1  A    between atoms: C1_2  and  C2_3 
ROOT
ATOM      1  C2  UNL d   1       0.094  -0.249  -1.473  0.00  0.00    -0.073 A 
ATOM      2  C3  UNL d   1      -1.244  -0.196  -1.068  0.00  0.00    -0.002 A 
ATOM      3  C4  UNL d   1      -1.567  -0.026   0.279  0.00  0.00     0.004 A 
ATOM      4  C5  UNL d   1      -0.557   0.099   1.233  0.00  0.00    -0.004 A 
ATOM      5  C6  UNL d   1       0.786   0.060   0.846  0.00  0.00    -0.075 A 
ATOM      6  C7  UNL d   1       1.885   0.190   1.860  0.00  0.00     0.076 C 
ATOM      7  C8  UNL d   1       1.103  -0.114  -0.508  0.00  0.00     0.001 A 
ENDROOT
BRANCH   1   8
ATOM      8  C1  UNL d   1       0.448  -0.426  -2.927  0.00  0.00     0.053 C 
ATOM      9  C   UNL d   1       1.493   0.578  -3.386  0.00  0.00     0.018 C 
ENDBRANCH   1   8
TORSDOF 1
ENDMDL
