MODEL 1
REMARK minimizedAffinity 7.86318827
REMARK minimizedRMSD -1
REMARK  1 active torsions:
REMARK  status: ('A' for Active; 'I' for Inactive)
REMARK    1  A    between atoms: C1_2  and  C2_3 
ROOT
ATOM      1  C2  UNL d   1      -1.753   3.224   0.097  0.00  0.00    -0.076 A 
ATOM      2  C3  UNL d   1      -0.657   4.103   0.117  0.00  0.00     0.004 A 
ATOM      3  C4  UNL d   1       0.266   4.123  -0.927  0.00  0.00    -0.003 A 
ATOM      4  C5  UNL d   1       0.107   3.265  -2.010  0.00  0.00     0.000 A 
ATOM      5  C6  UNL d   1      -0.985   2.399  -2.055  0.00  0.00     0.000 A 
ATOM      6  C7  UNL d   1      -1.934   2.377  -1.018  0.00  0.00    -0.073 A 
ATOM      7  C8  UNL d   1      -3.089   1.419  -1.116  0.00  0.00     0.078 C 
ENDROOT
BRANCH   1   8
ATOM      8  C1  UNL d   1      -2.707   3.228   1.270  0.00  0.00     0.053 C 
ATOM      9  C   UNL d   1      -3.470   4.537   1.397  0.00  0.00     0.018 C 
ENDBRANCH   1   8
TORSDOF 1
ENDMDL
