MODEL 1
REMARK minimizedAffinity 12.0567455
REMARK minimizedRMSD -1
REMARK  1 active torsions:
REMARK  status: ('A' for Active; 'I' for Inactive)
REMARK    1  A    between atoms: C1_2  and  C2_3 
ROOT
ATOM      1  C2  UNL d   1      -1.796   2.616  -1.804  0.00  0.00    -0.076 A 
ATOM      2  C3  UNL d   1      -2.292   2.974  -0.538  0.00  0.00     0.004 A 
ATOM      3  C4  UNL d   1      -1.452   3.025   0.573  0.00  0.00    -0.003 A 
ATOM      4  C5  UNL d   1      -0.102   2.721   0.436  0.00  0.00     0.000 A 
ATOM      5  C6  UNL d   1       0.411   2.382  -0.815  0.00  0.00     0.000 A 
ATOM      6  C7  UNL d   1      -0.419   2.341  -1.949  0.00  0.00    -0.073 A 
ATOM      7  C8  UNL d   1       0.186   1.963  -3.273  0.00  0.00     0.078 C 
ENDROOT
BRANCH   1   8
ATOM      8  C1  UNL d   1      -2.759   2.551  -2.967  0.00  0.00     0.053 C 
ATOM      9  C   UNL d   1      -3.406   1.182  -3.112  0.00  0.00     0.018 C 
ENDBRANCH   1   8
TORSDOF 1
ENDMDL
