MODEL 1
REMARK minimizedAffinity -0.382995039
REMARK minimizedRMSD -1
REMARK  1 active torsions:
REMARK  status: ('A' for Active; 'I' for Inactive)
REMARK    1  A    between atoms: C1_2  and  C2_3 
ROOT
ATOM      1  C2  UNL d   1      -2.174   2.495  -1.307  0.00  0.00    -0.076 A 
ATOM      2  C3  UNL d   1      -2.158   1.249  -0.655  0.00  0.00     0.004 A 
ATOM      3  C4  UNL d   1      -3.072   0.252  -0.991  0.00  0.00    -0.003 A 
ATOM      4  C5  UNL d   1      -4.017   0.484  -1.985  0.00  0.00     0.000 A 
ATOM      5  C6  UNL d   1      -4.036   1.707  -2.654  0.00  0.00     0.000 A 
ATOM      6  C7  UNL d   1      -3.111   2.718  -2.338  0.00  0.00    -0.073 A 
ATOM      7  C8  UNL d   1      -3.182   4.020  -3.087  0.00  0.00     0.078 C 
ENDROOT
BRANCH   1   8
ATOM      8  C1  UNL d   1      -1.176   3.548  -0.881  0.00  0.00     0.053 C 
ATOM      9  C   UNL d   1       0.236   2.996  -0.757  0.00  0.00     0.018 C 
ENDBRANCH   1   8
TORSDOF 1
ENDMDL
