MODEL 1
REMARK minimizedAffinity 12.605691
REMARK minimizedRMSD -1
REMARK  1 active torsions:
REMARK  status: ('A' for Active; 'I' for Inactive)
REMARK    1  A    between atoms: C1_2  and  C2_3 
ROOT
ATOM      1  C2  UNL d   1      -1.051   2.938  -2.977  0.00  0.00    -0.076 A 
ATOM      2  C3  UNL d   1      -0.164   3.896  -3.498  0.00  0.00     0.004 A 
ATOM      3  C4  UNL d   1      -0.626   4.944  -4.293  0.00  0.00    -0.003 A 
ATOM      4  C5  UNL d   1      -1.983   5.050  -4.579  0.00  0.00     0.000 A 
ATOM      5  C6  UNL d   1      -2.879   4.118  -4.057  0.00  0.00     0.000 A 
ATOM      6  C7  UNL d   1      -2.431   3.066  -3.240  0.00  0.00    -0.073 A 
ATOM      7  C8  UNL d   1      -3.441   2.086  -2.708  0.00  0.00     0.078 C 
ENDROOT
BRANCH   1   8
ATOM      8  C1  UNL d   1      -0.488   1.808  -2.144  0.00  0.00     0.053 C 
ATOM      9  C   UNL d   1      -0.692   2.027  -0.653  0.00  0.00     0.018 C 
ENDBRANCH   1   8
TORSDOF 1
ENDMDL
