MODEL 1
REMARK minimizedAffinity -0.220570669
REMARK minimizedRMSD -1
REMARK  1 active torsions:
REMARK  status: ('A' for Active; 'I' for Inactive)
REMARK    1  A    between atoms: C1_2  and  C2_3 
ROOT
ATOM      1  C2  UNL d   1       1.047   4.005  -0.104  0.00  0.00    -0.076 A 
ATOM      2  C3  UNL d   1       0.150   2.993   0.279  0.00  0.00     0.004 A 
ATOM      3  C4  UNL d   1       0.328   2.288   1.468  0.00  0.00    -0.003 A 
ATOM      4  C5  UNL d   1       1.407   2.584   2.294  0.00  0.00     0.000 A 
ATOM      5  C6  UNL d   1       2.297   3.597   1.939  0.00  0.00     0.000 A 
ATOM      6  C7  UNL d   1       2.122   4.328   0.752  0.00  0.00    -0.073 A 
ATOM      7  C8  UNL d   1       3.116   5.406   0.415  0.00  0.00     0.078 C 
ENDROOT
BRANCH   1   8
ATOM      8  C1  UNL d   1       0.818   4.717  -1.418  0.00  0.00     0.053 C 
ATOM      9  C   UNL d   1      -0.041   5.962  -1.264  0.00  0.00     0.018 C 
ENDBRANCH   1   8
TORSDOF 1
ENDMDL
