MODEL 1
REMARK minimizedAffinity 7.28646469
REMARK minimizedRMSD -1
REMARK  1 active torsions:
REMARK  status: ('A' for Active; 'I' for Inactive)
REMARK    1  A    between atoms: C1_2  and  C2_3 
ROOT
ATOM      1  C2  UNL d   1      -0.579   4.756  -0.879  0.00  0.00    -0.076 A 
ATOM      2  C3  UNL d   1       0.175   3.672  -1.362  0.00  0.00     0.004 A 
ATOM      3  C4  UNL d   1       0.334   2.514  -0.602  0.00  0.00    -0.003 A 
ATOM      4  C5  UNL d   1      -0.259   2.421   0.652  0.00  0.00     0.000 A 
ATOM      5  C6  UNL d   1      -1.025   3.480   1.139  0.00  0.00     0.000 A 
ATOM      6  C7  UNL d   1      -1.208   4.648   0.379  0.00  0.00    -0.073 A 
ATOM      7  C8  UNL d   1      -2.039   5.761   0.956  0.00  0.00     0.078 C 
ENDROOT
BRANCH   1   8
ATOM      8  C1  UNL d   1      -0.693   5.996  -1.736  0.00  0.00     0.053 C 
ATOM      9  C   UNL d   1      -1.700   5.834  -2.864  0.00  0.00     0.018 C 
ENDBRANCH   1   8
TORSDOF 1
ENDMDL
