MODEL 1
REMARK minimizedAffinity 14.7431679
REMARK minimizedRMSD -1
REMARK  1 active torsions:
REMARK  status: ('A' for Active; 'I' for Inactive)
REMARK    1  A    between atoms: C1_2  and  C2_3 
ROOT
ATOM      1  C2  UNL d   1       3.776  -4.828  -1.130  0.00  0.00    -0.076 A 
ATOM      2  C3  UNL d   1       3.088  -5.968  -1.580  0.00  0.00     0.004 A 
ATOM      3  C4  UNL d   1       1.696  -5.995  -1.623  0.00  0.00    -0.003 A 
ATOM      4  C5  UNL d   1       0.968  -4.881  -1.219  0.00  0.00     0.000 A 
ATOM      5  C6  UNL d   1       1.634  -3.735  -0.787  0.00  0.00     0.000 A 
ATOM      6  C7  UNL d   1       3.038  -3.686  -0.752  0.00  0.00    -0.073 A 
ATOM      7  C8  UNL d   1       3.705  -2.426  -0.271  0.00  0.00     0.078 C 
ENDROOT
BRANCH   1   8
ATOM      8  C1  UNL d   1       5.287  -4.866  -1.079  0.00  0.00     0.053 C 
ATOM      9  C   UNL d   1       5.810  -5.615   0.137  0.00  0.00     0.018 C 
ENDBRANCH   1   8
TORSDOF 1
ENDMDL
