MODEL 1
REMARK minimizedAffinity 1.18072689
REMARK minimizedRMSD -1
REMARK  0 active torsions:
REMARK  status: ('A' for Active; 'I' for Inactive)
ROOT
ATOM      1  C4' PXY d   1       5.998  -2.492   6.000  0.00  0.00     0.077 C 
ATOM      2  C1' PXY d   1       1.674  -0.995   2.468  0.00  0.00     0.077 C 
ATOM      3  C1  PXY d   1       2.801  -1.384   3.404  0.00  0.00    -0.082 A 
ATOM      4  C2  PXY d   1       4.044  -1.422   2.952  0.00  0.00     0.003 A 
ATOM      5  C3  PXY d   1       5.071  -1.802   3.777  0.00  0.00     0.003 A 
ATOM      6  C4  PXY d   1       4.830  -2.096   5.093  0.00  0.00    -0.082 A 
ATOM      7  C5  PXY d   1       3.566  -2.049   5.564  0.00  0.00     0.003 A 
ATOM      8  C6  PXY d   1       2.533  -1.701   4.700  0.00  0.00     0.003 A 
ENDROOT
TORSDOF 0
ENDMDL
