MODEL 1
REMARK minimizedAffinity 1.2659936
REMARK minimizedRMSD -1
REMARK  0 active torsions:
REMARK  status: ('A' for Active; 'I' for Inactive)
ROOT
ATOM      1  C4' PXY d   1       1.528  -1.142   2.393  0.00  0.00     0.077 C 
ATOM      2  C1' PXY d   1       5.739  -2.777   6.000  0.00  0.00     0.077 C 
ATOM      3  C1  PXY d   1       4.626  -2.355   5.061  0.00  0.00    -0.082 A 
ATOM      4  C2  PXY d   1       4.917  -1.995   3.821  0.00  0.00     0.003 A 
ATOM      5  C3  PXY d   1       3.926  -1.580   2.969  0.00  0.00     0.003 A 
ATOM      6  C4  PXY d   1       2.618  -1.584   3.373  0.00  0.00    -0.082 A 
ATOM      7  C5  PXY d   1       2.312  -1.960   4.633  0.00  0.00     0.003 A 
ATOM      8  C6  PXY d   1       3.337  -2.338   5.496  0.00  0.00     0.003 A 
ENDROOT
TORSDOF 0
ENDMDL
