MODEL 1
REMARK minimizedAffinity 1.70896626
REMARK minimizedRMSD -1
REMARK  0 active torsions:
REMARK  status: ('A' for Active; 'I' for Inactive)
ROOT
ATOM      1  C4' PXY d   1       2.037  -0.138   2.726  0.00  0.00     0.077 C 
ATOM      2  C1' PXY d   1       5.952  -2.853   6.000  0.00  0.00     0.077 C 
ATOM      3  C1  PXY d   1       4.916  -2.149   5.146  0.00  0.00    -0.082 A 
ATOM      4  C2  PXY d   1       5.291  -1.534   4.036  0.00  0.00     0.003 A 
ATOM      5  C3  PXY d   1       4.373  -0.865   3.269  0.00  0.00     0.003 A 
ATOM      6  C4  PXY d   1       3.047  -0.870   3.614  0.00  0.00    -0.082 A 
ATOM      7  C5  PXY d   1       2.655  -1.504   4.739  0.00  0.00     0.003 A 
ATOM      8  C6  PXY d   1       3.609  -2.143   5.526  0.00  0.00     0.003 A 
ENDROOT
TORSDOF 0
ENDMDL
