MODEL 1
REMARK minimizedAffinity 4.00114346
REMARK minimizedRMSD -1
REMARK  0 active torsions:
REMARK  status: ('A' for Active; 'I' for Inactive)
ROOT
ATOM      1  C4' PXY d   1       1.415  -1.919  -0.230  0.00  0.00     0.077 C 
ATOM      2  C1' PXY d   1       4.540  -6.000  -2.875  0.00  0.00     0.077 C 
ATOM      3  C1  PXY d   1       3.728  -4.921  -2.186  0.00  0.00    -0.082 A 
ATOM      4  C2  PXY d   1       2.998  -5.227  -1.126  0.00  0.00     0.003 A 
ATOM      5  C3  PXY d   1       2.233  -4.270  -0.510  0.00  0.00     0.003 A 
ATOM      6  C4  PXY d   1       2.258  -2.974  -0.951  0.00  0.00    -0.082 A 
ATOM      7  C5  PXY d   1       3.008  -2.651  -2.026  0.00  0.00     0.003 A 
ATOM      8  C6  PXY d   1       3.745  -3.646  -2.662  0.00  0.00     0.003 A 
ENDROOT
TORSDOF 0
ENDMDL
