MODEL 1
REMARK minimizedAffinity 0.65866816
REMARK minimizedRMSD -1
REMARK  0 active torsions:
REMARK  status: ('A' for Active; 'I' for Inactive)
ROOT
ATOM      1  C4' PXY d   1       1.238  -4.459   5.641  0.00  0.00     0.077 C 
ATOM      2  C1' PXY d   1       2.593  -0.525   1.628  0.00  0.00     0.077 C 
ATOM      3  C1  PXY d   1       2.236  -1.566   2.671  0.00  0.00    -0.082 A 
ATOM      4  C2  PXY d   1       1.757  -1.180   3.843  0.00  0.00     0.003 A 
ATOM      5  C3  PXY d   1       1.459  -2.106   4.809  0.00  0.00     0.003 A 
ATOM      6  C4  PXY d   1       1.603  -3.444   4.554  0.00  0.00    -0.082 A 
ATOM      7  C5  PXY d   1       2.080  -3.846   3.357  0.00  0.00     0.003 A 
ATOM      8  C6  PXY d   1       2.416  -2.888   2.405  0.00  0.00     0.003 A 
ENDROOT
TORSDOF 0
ENDMDL
