MODEL 1
REMARK minimizedAffinity 1.03239977
REMARK minimizedRMSD -1
REMARK  0 active torsions:
REMARK  status: ('A' for Active; 'I' for Inactive)
ROOT
ATOM      1  C4' PXY d   1       3.061  -0.528   1.624  0.00  0.00     0.077 C 
ATOM      2  C1' PXY d   1       1.086  -4.566   5.259  0.00  0.00     0.077 C 
ATOM      3  C1  PXY d   1       1.613  -3.515   4.301  0.00  0.00    -0.082 A 
ATOM      4  C2  PXY d   1       1.419  -2.233   4.566  0.00  0.00     0.003 A 
ATOM      5  C3  PXY d   1       1.861  -1.271   3.695  0.00  0.00     0.003 A 
ATOM      6  C4  PXY d   1       2.555  -1.623   2.568  0.00  0.00    -0.082 A 
ATOM      7  C5  PXY d   1       2.765  -2.929   2.296  0.00  0.00     0.003 A 
ATOM      8  C6  PXY d   1       2.272  -3.891   3.172  0.00  0.00     0.003 A 
ENDROOT
TORSDOF 0
ENDMDL
