MODEL 1
REMARK minimizedAffinity 9.18174934
REMARK minimizedRMSD -1
REMARK  0 active torsions:
REMARK  status: ('A' for Active; 'I' for Inactive)
ROOT
ATOM      1  C4' PXY d   1       3.106  -5.296   3.045  0.00  0.00     0.077 C 
ATOM      2  C1' PXY d   1       2.060   0.261   1.846  0.00  0.00     0.077 C 
ATOM      3  C1  PXY d   1       2.340  -1.193   2.171  0.00  0.00    -0.082 A 
ATOM      4  C2  PXY d   1       2.363  -2.089   1.198  0.00  0.00     0.003 A 
ATOM      5  C3  PXY d   1       2.584  -3.412   1.478  0.00  0.00     0.003 A 
ATOM      6  C4  PXY d   1       2.836  -3.816   2.762  0.00  0.00    -0.082 A 
ATOM      7  C5  PXY d   1       2.825  -2.907   3.759  0.00  0.00     0.003 A 
ATOM      8  C6  PXY d   1       2.558  -1.574   3.459  0.00  0.00     0.003 A 
ENDROOT
TORSDOF 0
ENDMDL
