MODEL 1
REMARK minimizedAffinity 3.73276114
REMARK minimizedRMSD -1
REMARK  1 active torsions:
REMARK  status: ('A' for Active; 'I' for Inactive)
REMARK    1  A    between atoms: N_2  and  C1_3 
ROOT
ATOM      1  C1  UNL d   1       0.243  -3.686   6.000  0.00  0.00     0.143 A 
ATOM      2  C2  UNL d   1       1.003  -2.513   5.937  0.00  0.00    -0.057 A 
ATOM      3  C3  UNL d   1       0.394  -1.253   5.922  0.00  0.00     0.033 A 
ATOM      4  C4  UNL d   1      -0.992  -1.143   5.940  0.00  0.00    -0.042 A 
ATOM      5  C5  UNL d   1      -1.769  -2.296   5.977  0.00  0.00     0.033 A 
ATOM      6  C6  UNL d   1      -1.155  -3.552   5.999  0.00  0.00    -0.057 A 
ENDROOT
BRANCH   1   7
ATOM      7  N   UNL d   1       0.785  -4.971   5.918  0.00  0.00    -0.732 N 
ATOM      8  C   UNL d   1       0.130  -6.000   5.140  0.00  0.00     0.284 C 
ATOM      9  H3  UNL d   1       1.798  -4.959   5.822  0.00  0.00     0.395 HD
ENDBRANCH   1   7
TORSDOF 1
ENDMDL
