MODEL 1
REMARK minimizedAffinity 13.5640059
REMARK minimizedRMSD -1
REMARK  1 active torsions:
REMARK  status: ('A' for Active; 'I' for Inactive)
REMARK    1  A    between atoms: N_2  and  C1_3 
ROOT
ATOM      1  C1  UNL d   1      -4.522   1.452  -1.021  0.00  0.00     0.143 A 
ATOM      2  C2  UNL d   1      -4.042   1.248   0.277  0.00  0.00    -0.057 A 
ATOM      3  C3  UNL d   1      -4.364   0.092   0.998  0.00  0.00     0.033 A 
ATOM      4  C4  UNL d   1      -5.198  -0.872   0.441  0.00  0.00    -0.042 A 
ATOM      5  C5  UNL d   1      -5.707  -0.680  -0.838  0.00  0.00     0.033 A 
ATOM      6  C6  UNL d   1      -5.377   0.474  -1.555  0.00  0.00    -0.057 A 
ENDROOT
BRANCH   1   7
ATOM      7  N   UNL d   1      -4.319   2.625  -1.751  0.00  0.00    -0.732 N 
ATOM      8  C   UNL d   1      -5.271   3.041  -2.758  0.00  0.00     0.284 C 
ATOM      9  H3  UNL d   1      -3.965   3.385  -1.174  0.00  0.00     0.395 HD
ENDBRANCH   1   7
TORSDOF 1
ENDMDL
