MODEL 1
REMARK minimizedAffinity 8.76262283
REMARK minimizedRMSD -1
REMARK  1 active torsions:
REMARK  status: ('A' for Active; 'I' for Inactive)
REMARK    1  A    between atoms: N_2  and  C1_3 
ROOT
ATOM      1  C1  UNL d   1       4.659   1.022   0.354  0.00  0.00     0.143 A 
ATOM      2  C2  UNL d   1       4.141  -0.029   1.118  0.00  0.00    -0.057 A 
ATOM      3  C3  UNL d   1       4.522  -0.213   2.453  0.00  0.00     0.033 A 
ATOM      4  C4  UNL d   1       5.453   0.638   3.040  0.00  0.00    -0.042 A 
ATOM      5  C5  UNL d   1       6.000   1.674   2.292  0.00  0.00     0.033 A 
ATOM      6  C6  UNL d   1       5.610   1.856   0.962  0.00  0.00    -0.057 A 
ENDROOT
BRANCH   1   7
ATOM      7  N   UNL d   1       4.395   1.199  -1.006  0.00  0.00    -0.732 N 
ATOM      8  C   UNL d   1       5.252   2.033  -1.821  0.00  0.00     0.284 C 
ATOM      9  H3  UNL d   1       4.101   0.337  -1.460  0.00  0.00     0.395 HD
ENDBRANCH   1   7
TORSDOF 1
ENDMDL
