MODEL 1
REMARK minimizedAffinity 14.7088041
REMARK minimizedRMSD -1
REMARK  1 active torsions:
REMARK  status: ('A' for Active; 'I' for Inactive)
REMARK    1  A    between atoms: N_2  and  C1_3 
ROOT
ATOM      1  C1  UNL d   1      -1.273  -5.202  -1.805  0.00  0.00     0.143 A 
ATOM      2  C2  UNL d   1      -2.103  -5.945  -2.651  0.00  0.00    -0.057 A 
ATOM      3  C3  UNL d   1      -2.776  -5.342  -3.721  0.00  0.00     0.033 A 
ATOM      4  C4  UNL d   1      -2.651  -3.975  -3.947  0.00  0.00    -0.042 A 
ATOM      5  C5  UNL d   1      -1.851  -3.213  -3.104  0.00  0.00     0.033 A 
ATOM      6  C6  UNL d   1      -1.177  -3.821  -2.041  0.00  0.00    -0.057 A 
ENDROOT
BRANCH   1   7
ATOM      7  N   UNL d   1      -0.656  -5.724  -0.665  0.00  0.00    -0.732 N 
ATOM      8  C   UNL d   1      -1.081  -5.315   0.656  0.00  0.00     0.284 C 
ATOM      9  H3  UNL d   1      -0.462  -6.719  -0.750  0.00  0.00     0.395 HD
ENDBRANCH   1   7
TORSDOF 1
ENDMDL
