MODEL 1
REMARK minimizedAffinity 8.82186317
REMARK minimizedRMSD -1
REMARK  1 active torsions:
REMARK  status: ('A' for Active; 'I' for Inactive)
REMARK    1  A    between atoms: N_2  and  C1_3 
ROOT
ATOM      1  C1  UNL d   1       4.912   1.029   0.749  0.00  0.00     0.143 A 
ATOM      2  C2  UNL d   1       4.900  -0.147   1.506  0.00  0.00    -0.057 A 
ATOM      3  C3  UNL d   1       5.391  -0.172   2.817  0.00  0.00     0.033 A 
ATOM      4  C4  UNL d   1       5.932   0.977   3.385  0.00  0.00    -0.042 A 
ATOM      5  C5  UNL d   1       5.977   2.151   2.642  0.00  0.00     0.033 A 
ATOM      6  C6  UNL d   1       5.479   2.171   1.336  0.00  0.00    -0.057 A 
ENDROOT
BRANCH   1   7
ATOM      7  N   UNL d   1       4.528   1.095  -0.593  0.00  0.00    -0.732 N 
ATOM      8  C   UNL d   1       5.330   1.821  -1.554  0.00  0.00     0.284 C 
ATOM      9  H3  UNL d   1       4.168   0.208  -0.938  0.00  0.00     0.395 HD
ENDBRANCH   1   7
TORSDOF 1
ENDMDL
