MODEL 1
REMARK minimizedAffinity 11.4196911
REMARK minimizedRMSD -1
REMARK  1 active torsions:
REMARK  status: ('A' for Active; 'I' for Inactive)
REMARK    1  A    between atoms: N_2  and  C1_3 
ROOT
ATOM      1  C1  UNL d   1       5.010   1.078  -0.051  0.00  0.00     0.143 A 
ATOM      2  C2  UNL d   1       5.994   1.584   0.805  0.00  0.00    -0.057 A 
ATOM      3  C3  UNL d   1       5.999   1.273   2.170  0.00  0.00     0.033 A 
ATOM      4  C4  UNL d   1       4.999   0.470   2.710  0.00  0.00    -0.042 A 
ATOM      5  C5  UNL d   1       3.997  -0.024   1.883  0.00  0.00     0.033 A 
ATOM      6  C6  UNL d   1       4.001   0.286   0.520  0.00  0.00    -0.057 A 
ENDROOT
BRANCH   1   7
ATOM      7  N   UNL d   1       4.894   1.431  -1.398  0.00  0.00    -0.732 N 
ATOM      8  C   UNL d   1       5.693   2.503  -1.950  0.00  0.00     0.284 C 
ATOM      9  H3  UNL d   1       4.809   0.620  -2.006  0.00  0.00     0.395 HD
ENDBRANCH   1   7
TORSDOF 1
ENDMDL
