MODEL 1
REMARK minimizedAffinity -2.26162982
REMARK minimizedRMSD -1
REMARK  1 active torsions:
REMARK  status: ('A' for Active; 'I' for Inactive)
REMARK    1  A    between atoms: C1_2  and  C2_3 
ROOT
ATOM      1  C2  UNL d   1      -0.550   0.597   0.881  0.00  0.00    -0.077 A 
ATOM      2  C3  UNL d   1      -1.508  -0.091   1.639  0.00  0.00     0.002 A 
ATOM      3  C4  UNL d   1      -1.286  -1.413   2.027  0.00  0.00     0.002 A 
ATOM      4  C5  UNL d   1      -0.105  -2.058   1.665  0.00  0.00    -0.004 A 
ATOM      5  C6  UNL d   1       0.853  -1.384   0.909  0.00  0.00     0.002 A 
ATOM      6  C7  UNL d   1       0.632  -0.062   0.519  0.00  0.00     0.002 A 
ENDROOT
BRANCH   1   7
ATOM      7  C1  UNL d   1      -0.766   2.039   0.503  0.00  0.00     0.055 C 
ATOM      8  C   UNL d   1       0.304   2.936   1.108  0.00  0.00     0.019 C 
ENDBRANCH   1   7
TORSDOF 1
ENDMDL
