MODEL 1
REMARK minimizedAffinity -4.02096033
REMARK minimizedRMSD -1
REMARK  1 active torsions:
REMARK  status: ('A' for Active; 'I' for Inactive)
REMARK    1  A    between atoms: C1_2  and  C2_3 
ROOT
ATOM      1  C2  UNL d   1       0.824   1.640   1.014  0.00  0.00    -0.077 A 
ATOM      2  C3  UNL d   1       1.779   0.615   1.074  0.00  0.00     0.002 A 
ATOM      3  C4  UNL d   1       1.394  -0.719   0.917  0.00  0.00     0.002 A 
ATOM      4  C5  UNL d   1       0.057  -1.038   0.695  0.00  0.00    -0.004 A 
ATOM      5  C6  UNL d   1      -0.900  -0.026   0.636  0.00  0.00     0.002 A 
ATOM      6  C7  UNL d   1      -0.518   1.307   0.794  0.00  0.00     0.002 A 
ENDROOT
BRANCH   1   7
ATOM      7  C1  UNL d   1       1.244   3.081   1.134  0.00  0.00     0.055 C 
ATOM      8  C   UNL d   1       1.957   3.343   2.453  0.00  0.00     0.019 C 
ENDBRANCH   1   7
TORSDOF 1
ENDMDL
