MODEL 1
REMARK minimizedAffinity -4.02317047
REMARK minimizedRMSD -1
REMARK  1 active torsions:
REMARK  status: ('A' for Active; 'I' for Inactive)
REMARK    1  A    between atoms: C1_2  and  C2_3 
ROOT
ATOM      1  C2  UNL d   1      -1.498  -0.371  -0.205  0.00  0.00    -0.077 A 
ATOM      2  C3  UNL d   1      -0.615  -0.665   0.843  0.00  0.00     0.002 A 
ATOM      3  C4  UNL d   1       0.759  -0.476   0.683  0.00  0.00     0.002 A 
ATOM      4  C5  UNL d   1       1.261   0.012  -0.522  0.00  0.00    -0.004 A 
ATOM      5  C6  UNL d   1       0.391   0.306  -1.571  0.00  0.00     0.002 A 
ATOM      6  C7  UNL d   1      -0.983   0.116  -1.413  0.00  0.00     0.002 A 
ENDROOT
BRANCH   1   7
ATOM      7  C1  UNL d   1      -2.985  -0.528  -0.018  0.00  0.00     0.055 C 
ATOM      8  C   UNL d   1      -3.635  -1.148  -1.246  0.00  0.00     0.019 C 
ENDBRANCH   1   7
TORSDOF 1
ENDMDL
