MODEL 1
REMARK minimizedAffinity -5.66408253
REMARK minimizedRMSD -1
REMARK  1 active torsions:
REMARK  status: ('A' for Active; 'I' for Inactive)
REMARK    1  A    between atoms: C1_2  and  C2_3 
ROOT
ATOM      1  C2  UNL d   1       0.909   0.010  -2.261  0.00  0.00    -0.077 A 
ATOM      2  C3  UNL d   1       1.931  -0.689  -2.918  0.00  0.00     0.002 A 
ATOM      3  C4  UNL d   1       1.999  -0.695  -4.313  0.00  0.00     0.002 A 
ATOM      4  C5  UNL d   1       1.051   0.001  -5.061  0.00  0.00    -0.004 A 
ATOM      5  C6  UNL d   1       0.030   0.698  -4.416  0.00  0.00     0.002 A 
ATOM      6  C7  UNL d   1      -0.040   0.704  -3.023  0.00  0.00     0.002 A 
ENDROOT
BRANCH   1   7
ATOM      7  C1  UNL d   1       0.863   0.058  -0.756  0.00  0.00     0.055 C 
ATOM      8  C   UNL d   1      -0.561  -0.095  -0.241  0.00  0.00     0.019 C 
ENDBRANCH   1   7
TORSDOF 1
ENDMDL
