MODEL 1
REMARK minimizedAffinity -4.40191031
REMARK minimizedRMSD -1
REMARK  1 active torsions:
REMARK  status: ('A' for Active; 'I' for Inactive)
REMARK    1  A    between atoms: C1_2  and  C2_3 
ROOT
ATOM      1  C2  UNL d   1      -0.381  -0.147  -1.421  0.00  0.00    -0.077 A 
ATOM      2  C3  UNL d   1      -1.749  -0.422  -1.288  0.00  0.00     0.002 A 
ATOM      3  C4  UNL d   1      -2.282  -0.769  -0.044  0.00  0.00     0.002 A 
ATOM      4  C5  UNL d   1      -1.455  -0.839   1.075  0.00  0.00    -0.004 A 
ATOM      5  C6  UNL d   1      -0.093  -0.569   0.952  0.00  0.00     0.002 A 
ATOM      6  C7  UNL d   1       0.442  -0.224  -0.290  0.00  0.00     0.002 A 
ENDROOT
BRANCH   1   7
ATOM      7  C1  UNL d   1       0.186   0.276  -2.751  0.00  0.00     0.055 C 
ATOM      8  C   UNL d   1       1.542  -0.368  -3.004  0.00  0.00     0.019 C 
ENDBRANCH   1   7
TORSDOF 1
ENDMDL
