MODEL 1
REMARK minimizedAffinity -4.71683693
REMARK minimizedRMSD -1
REMARK  1 active torsions:
REMARK  status: ('A' for Active; 'I' for Inactive)
REMARK    1  A    between atoms: C1_2  and  C2_3 
ROOT
ATOM      1  C2  UNL d   1      -1.226  -0.108  -0.389  0.00  0.00    -0.077 A 
ATOM      2  C3  UNL d   1      -0.991  -0.145  -1.771  0.00  0.00     0.002 A 
ATOM      3  C4  UNL d   1       0.305  -0.311  -2.263  0.00  0.00     0.002 A 
ATOM      4  C5  UNL d   1       1.375  -0.445  -1.381  0.00  0.00    -0.004 A 
ATOM      5  C6  UNL d   1       1.152  -0.408  -0.005  0.00  0.00     0.002 A 
ATOM      6  C7  UNL d   1      -0.142  -0.241   0.488  0.00  0.00     0.002 A 
ENDROOT
BRANCH   1   7
ATOM      7  C1  UNL d   1      -2.629   0.021   0.144  0.00  0.00     0.055 C 
ATOM      8  C   UNL d   1      -3.558  -1.005  -0.488  0.00  0.00     0.019 C 
ENDBRANCH   1   7
TORSDOF 1
ENDMDL
