MODEL 1
REMARK minimizedAffinity -5.52839279
REMARK minimizedRMSD -1
REMARK  1 active torsions:
REMARK  status: ('A' for Active; 'I' for Inactive)
REMARK    1  A    between atoms: C1_2  and  C2_3 
ROOT
ATOM      1  C2  UNL d   1      -0.049   0.137  -0.371  0.00  0.00    -0.077 A 
ATOM      2  C3  UNL d   1       1.280  -0.086   0.014  0.00  0.00     0.002 A 
ATOM      3  C4  UNL d   1       2.283  -0.212  -0.950  0.00  0.00     0.002 A 
ATOM      4  C5  UNL d   1       1.967  -0.112  -2.303  0.00  0.00    -0.004 A 
ATOM      5  C6  UNL d   1       0.648   0.108  -2.696  0.00  0.00     0.002 A 
ATOM      6  C7  UNL d   1      -0.356   0.233  -1.735  0.00  0.00     0.002 A 
ENDROOT
BRANCH   1   7
ATOM      7  C1  UNL d   1      -1.124   0.322   0.668  0.00  0.00     0.055 C 
ATOM      8  C   UNL d   1      -2.412  -0.380   0.263  0.00  0.00     0.019 C 
ENDBRANCH   1   7
TORSDOF 1
ENDMDL
