MODEL 1
REMARK minimizedAffinity -3.46810746
REMARK minimizedRMSD -1
REMARK  1 active torsions:
REMARK  status: ('A' for Active; 'I' for Inactive)
REMARK    1  A    between atoms: C1_2  and  C2_3 
ROOT
ATOM      1  C2  UNL d   1       2.951   0.355  -1.188  0.00  0.00    -0.077 A 
ATOM      2  C3  UNL d   1       3.687   1.521  -0.935  0.00  0.00     0.002 A 
ATOM      3  C4  UNL d   1       3.386   2.321   0.169  0.00  0.00     0.002 A 
ATOM      4  C5  UNL d   1       2.353   1.961   1.031  0.00  0.00    -0.004 A 
ATOM      5  C6  UNL d   1       1.614   0.803   0.788  0.00  0.00     0.002 A 
ATOM      6  C7  UNL d   1       1.913   0.004  -0.317  0.00  0.00     0.002 A 
ENDROOT
BRANCH   1   7
ATOM      7  C1  UNL d   1       3.306  -0.535  -2.351  0.00  0.00     0.055 C 
ATOM      8  C   UNL d   1       2.362  -0.315  -3.524  0.00  0.00     0.019 C 
ENDBRANCH   1   7
TORSDOF 1
ENDMDL
