MODEL 1
REMARK minimizedAffinity -4.07343769
REMARK minimizedRMSD -1
REMARK  1 active torsions:
REMARK  status: ('A' for Active; 'I' for Inactive)
REMARK    1  A    between atoms: C1_2  and  C2_3 
ROOT
ATOM      1  C2  UNL d   1      -0.701  -0.283  -0.225  0.00  0.00    -0.077 A 
ATOM      2  C3  UNL d   1      -1.551  -0.585   0.848  0.00  0.00     0.002 A 
ATOM      3  C4  UNL d   1      -2.836  -1.080   0.614  0.00  0.00     0.002 A 
ATOM      4  C5  UNL d   1      -3.280  -1.280  -0.692  0.00  0.00    -0.004 A 
ATOM      5  C6  UNL d   1      -2.443  -0.980  -1.766  0.00  0.00     0.002 A 
ATOM      6  C7  UNL d   1      -1.159  -0.485  -1.534  0.00  0.00     0.002 A 
ENDROOT
BRANCH   1   7
ATOM      7  C1  UNL d   1       0.702   0.204   0.026  0.00  0.00     0.055 C 
ATOM      8  C   UNL d   1       1.499  -0.802   0.844  0.00  0.00     0.019 C 
ENDBRANCH   1   7
TORSDOF 1
ENDMDL
