MODEL 1
REMARK minimizedAffinity -3.99534941
REMARK minimizedRMSD -1
REMARK  1 active torsions:
REMARK  status: ('A' for Active; 'I' for Inactive)
REMARK    1  A    between atoms: C1_2  and  C2_3 
ROOT
ATOM      1  C2  UNL d   1      -0.154  -0.390   0.489  0.00  0.00    -0.077 A 
ATOM      2  C3  UNL d   1      -0.081  -1.411   1.447  0.00  0.00     0.002 A 
ATOM      3  C4  UNL d   1      -1.198  -2.204   1.720  0.00  0.00     0.002 A 
ATOM      4  C5  UNL d   1      -2.392  -1.988   1.036  0.00  0.00    -0.004 A 
ATOM      5  C6  UNL d   1      -2.475  -0.974   0.083  0.00  0.00     0.002 A 
ATOM      6  C7  UNL d   1      -1.361  -0.179  -0.190  0.00  0.00     0.002 A 
ENDROOT
BRANCH   1   7
ATOM      7  C1  UNL d   1       1.063   0.434   0.158  0.00  0.00     0.055 C 
ATOM      8  C   UNL d   1       1.351   1.457   1.247  0.00  0.00     0.019 C 
ENDBRANCH   1   7
TORSDOF 1
ENDMDL
