MODEL 1
REMARK minimizedAffinity -3.48670983
REMARK minimizedRMSD -1
REMARK  1 active torsions:
REMARK  status: ('A' for Active; 'I' for Inactive)
REMARK    1  A    between atoms: C1_2  and  C2_3 
ROOT
ATOM      1  C2  UNL d   1      -0.575  -0.022  -1.359  0.00  0.00    -0.077 A 
ATOM      2  C3  UNL d   1      -1.774  -0.745  -1.424  0.00  0.00     0.002 A 
ATOM      3  C4  UNL d   1      -2.645  -0.768  -0.332  0.00  0.00     0.002 A 
ATOM      4  C5  UNL d   1      -2.328  -0.066   0.829  0.00  0.00    -0.004 A 
ATOM      5  C6  UNL d   1      -1.136   0.654   0.904  0.00  0.00     0.002 A 
ATOM      6  C7  UNL d   1      -0.264   0.677  -0.185  0.00  0.00     0.002 A 
ENDROOT
BRANCH   1   7
ATOM      7  C1  UNL d   1       0.342   0.045  -2.552  0.00  0.00     0.055 C 
ATOM      8  C   UNL d   1       1.691  -0.591  -2.249  0.00  0.00     0.019 C 
ENDBRANCH   1   7
TORSDOF 1
ENDMDL
