MODEL 1
REMARK minimizedAffinity -5.46949005
REMARK minimizedRMSD -1
REMARK  1 active torsions:
REMARK  status: ('A' for Active; 'I' for Inactive)
REMARK    1  A    between atoms: C1_2  and  C2_3 
ROOT
ATOM      1  C2  UNL d   1      -0.602  -0.769   0.333  0.00  0.00    -0.077 A 
ATOM      2  C3  UNL d   1      -1.433  -1.390   1.275  0.00  0.00     0.002 A 
ATOM      3  C4  UNL d   1      -2.811  -1.466   1.060  0.00  0.00     0.002 A 
ATOM      4  C5  UNL d   1      -3.368  -0.926  -0.097  0.00  0.00    -0.004 A 
ATOM      5  C6  UNL d   1      -2.549  -0.304  -1.039  0.00  0.00     0.002 A 
ATOM      6  C7  UNL d   1      -1.172  -0.226  -0.826  0.00  0.00     0.002 A 
ENDROOT
BRANCH   1   7
ATOM      7  C1  UNL d   1       0.890  -0.730   0.539  0.00  0.00     0.055 C 
ATOM      8  C   UNL d   1       1.359  -1.888   1.409  0.00  0.00     0.019 C 
ENDBRANCH   1   7
TORSDOF 1
ENDMDL
