MODEL 1
REMARK minimizedAffinity 6.24687099
REMARK minimizedRMSD -1
REMARK  2 active torsions:
REMARK  status: ('A' for Active; 'I' for Inactive)
REMARK    1  A    between atoms: C2'_3  and  C1'_4 
REMARK    2  A    between atoms: C1'_4  and  C1_5 
ROOT
ATOM      1  C1  I4B d   1       3.186  -3.379  -0.366  0.00  0.00    -0.075 A 
ATOM      2  C2  I4B d   1       3.937  -4.080  -1.277  0.00  0.00     0.003 A 
ATOM      3  C3  I4B d   1       3.576  -5.402  -1.632  0.00  0.00     0.002 A 
ATOM      4  C4  I4B d   1       2.494  -5.999  -1.018  0.00  0.00    -0.004 A 
ATOM      5  C5  I4B d   1       1.720  -5.279  -0.111  0.00  0.00     0.002 A 
ATOM      6  C6  I4B d   1       2.061  -3.957   0.208  0.00  0.00     0.003 A 
ENDROOT
BRANCH   1   7
ATOM      7  C1' I4B d   1       3.615  -1.996   0.010  0.00  0.00     0.060 C 
BRANCH   7   8
ATOM      8  C2' I4B d   1       4.578  -2.107   1.175  0.00  0.00    -0.013 C 
ATOM      9  C4' I4B d   1       6.000  -1.893   0.729  0.00  0.00     0.013 C 
ATOM     10  C3' I4B d   1       4.175  -1.095   2.206  0.00  0.00     0.013 C 
ENDBRANCH   7   8
ENDBRANCH   1   7
TORSDOF 2
ENDMDL
