MODEL 1
REMARK minimizedAffinity 7.24180746
REMARK minimizedRMSD -1
REMARK  2 active torsions:
REMARK  status: ('A' for Active; 'I' for Inactive)
REMARK    1  A    between atoms: C2'_3  and  C1'_4 
REMARK    2  A    between atoms: C1'_4  and  C1_5 
ROOT
ATOM      1  C1  I4B d   1      -0.769   2.451   1.558  0.00  0.00    -0.075 A 
ATOM      2  C2  I4B d   1       0.573   2.471   1.269  0.00  0.00     0.003 A 
ATOM      3  C3  I4B d   1       1.130   3.554   0.547  0.00  0.00     0.002 A 
ATOM      4  C4  I4B d   1       0.306   4.563   0.093  0.00  0.00    -0.004 A 
ATOM      5  C5  I4B d   1      -1.050   4.553   0.406  0.00  0.00     0.002 A 
ATOM      6  C6  I4B d   1      -1.589   3.496   1.154  0.00  0.00     0.003 A 
ENDROOT
BRANCH   1   7
ATOM      7  C1' I4B d   1      -1.330   1.275   2.294  0.00  0.00     0.060 C 
BRANCH   7   8
ATOM      8  C2' I4B d   1      -2.574   0.816   1.560  0.00  0.00    -0.013 C 
ATOM      9  C4' I4B d   1      -2.311   0.661   0.086  0.00  0.00     0.013 C 
ATOM     10  C3' I4B d   1      -3.018  -0.480   2.170  0.00  0.00     0.013 C 
ENDBRANCH   7   8
ENDBRANCH   1   7
TORSDOF 2
ENDMDL
