MODEL 1
REMARK minimizedAffinity 2.05022836
REMARK minimizedRMSD -1
REMARK  2 active torsions:
REMARK  status: ('A' for Active; 'I' for Inactive)
REMARK    1  A    between atoms: C2'_3  and  C1'_4 
REMARK    2  A    between atoms: C1'_4  and  C1_5 
ROOT
ATOM      1  C1  I4B d   1      -0.421   1.854  -0.226  0.00  0.00    -0.075 A 
ATOM      2  C2  I4B d   1      -1.746   1.524  -0.363  0.00  0.00     0.003 A 
ATOM      3  C3  I4B d   1      -2.123   0.382  -1.111  0.00  0.00     0.002 A 
ATOM      4  C4  I4B d   1      -1.152  -0.368  -1.742  0.00  0.00    -0.004 A 
ATOM      5  C5  I4B d   1       0.193  -0.045  -1.583  0.00  0.00     0.002 A 
ATOM      6  C6  I4B d   1       0.562   1.065  -0.810  0.00  0.00     0.003 A 
ENDROOT
BRANCH   1   7
ATOM      7  C1' I4B d   1      -0.060   3.085   0.543  0.00  0.00     0.060 C 
BRANCH   7   8
ATOM      8  C2' I4B d   1       0.118   4.218  -0.447  0.00  0.00    -0.013 C 
ATOM      9  C4' I4B d   1      -1.171   4.969  -0.653  0.00  0.00     0.013 C 
ATOM     10  C3' I4B d   1       1.194   5.123   0.074  0.00  0.00     0.013 C 
ENDBRANCH   7   8
ENDBRANCH   1   7
TORSDOF 2
ENDMDL
