MODEL 1
REMARK minimizedAffinity 13.0982723
REMARK minimizedRMSD -1
REMARK  2 active torsions:
REMARK  status: ('A' for Active; 'I' for Inactive)
REMARK    1  A    between atoms: C2'_3  and  C1'_4 
REMARK    2  A    between atoms: C1'_4  and  C1_5 
ROOT
ATOM      1  C1  I4B d   1       2.183   1.957   2.497  0.00  0.00    -0.075 A 
ATOM      2  C2  I4B d   1       2.911   3.110   2.339  0.00  0.00     0.003 A 
ATOM      3  C3  I4B d   1       2.425   4.153   1.513  0.00  0.00     0.002 A 
ATOM      4  C4  I4B d   1       1.239   3.981   0.828  0.00  0.00    -0.004 A 
ATOM      5  C5  I4B d   1       0.491   2.821   1.008  0.00  0.00     0.002 A 
ATOM      6  C6  I4B d   1       0.960   1.807   1.856  0.00  0.00     0.003 A 
ENDROOT
BRANCH   1   7
ATOM      7  C1' I4B d   1       2.742   0.863   3.350  0.00  0.00     0.060 C 
BRANCH   7   8
ATOM      8  C2' I4B d   1       1.678   0.464   4.352  0.00  0.00    -0.013 C 
ATOM      9  C4' I4B d   1       1.520  -1.033   4.413  0.00  0.00     0.013 C 
ATOM     10  C3' I4B d   1       2.068   1.022   5.689  0.00  0.00     0.013 C 
ENDBRANCH   7   8
ENDBRANCH   1   7
TORSDOF 2
ENDMDL
