MODEL 1
REMARK minimizedAffinity 11.3468304
REMARK minimizedRMSD -1
REMARK  2 active torsions:
REMARK  status: ('A' for Active; 'I' for Inactive)
REMARK    1  A    between atoms: C2'_3  and  C1'_4 
REMARK    2  A    between atoms: C1'_4  and  C1_5 
ROOT
ATOM      1  C1  I4B d   1      -0.147   1.848   0.055  0.00  0.00    -0.075 A 
ATOM      2  C2  I4B d   1      -1.407   1.414  -0.275  0.00  0.00     0.003 A 
ATOM      3  C3  I4B d   1      -1.578   0.215  -1.008  0.00  0.00     0.002 A 
ATOM      4  C4  I4B d   1      -0.468  -0.488  -1.431  0.00  0.00    -0.004 A 
ATOM      5  C5  I4B d   1       0.807  -0.059  -1.076  0.00  0.00     0.002 A 
ATOM      6  C6  I4B d   1       0.969   1.110  -0.317  0.00  0.00     0.003 A 
ENDROOT
BRANCH   1   7
ATOM      7  C1' I4B d   1      -0.001   3.136   0.802  0.00  0.00     0.060 C 
BRANCH   7   8
ATOM      8  C2' I4B d   1       0.599   4.157  -0.143  0.00  0.00    -0.013 C 
ATOM      9  C4' I4B d   1      -0.465   5.047  -0.731  0.00  0.00     0.013 C 
ATOM     10  C3' I4B d   1       1.611   4.957   0.623  0.00  0.00     0.013 C 
ENDBRANCH   7   8
ENDBRANCH   1   7
TORSDOF 2
ENDMDL
