MODEL 1
REMARK minimizedAffinity 14.4640932
REMARK minimizedRMSD -1
REMARK  2 active torsions:
REMARK  status: ('A' for Active; 'I' for Inactive)
REMARK    1  A    between atoms: C2'_3  and  C1'_4 
REMARK    2  A    between atoms: C1'_4  and  C1_5 
ROOT
ATOM      1  C1  I4B d   1       0.396   4.491   0.184  0.00  0.00    -0.075 A 
ATOM      2  C2  I4B d   1       0.993   5.726   0.229  0.00  0.00     0.003 A 
ATOM      3  C3  I4B d   1       2.298   5.868   0.761  0.00  0.00     0.002 A 
ATOM      4  C4  I4B d   1       2.944   4.765   1.280  0.00  0.00    -0.004 A 
ATOM      5  C5  I4B d   1       2.346   3.509   1.213  0.00  0.00     0.002 A 
ATOM      6  C6  I4B d   1       1.069   3.369   0.650  0.00  0.00     0.003 A 
ENDROOT
BRANCH   1   7
ATOM      7  C1' I4B d   1      -0.996   4.383  -0.354  0.00  0.00     0.060 C 
BRANCH   7   8
ATOM      8  C2' I4B d   1      -1.497   5.784  -0.636  0.00  0.00    -0.013 C 
ATOM      9  C4' I4B d   1      -1.722   5.996  -2.110  0.00  0.00     0.013 C 
ATOM     10  C3' I4B d   1      -2.765   5.988   0.139  0.00  0.00     0.013 C 
ENDBRANCH   7   8
ENDBRANCH   1   7
TORSDOF 2
ENDMDL
