MODEL 1
REMARK minimizedAffinity -2.99598408
REMARK minimizedRMSD -1
REMARK  1 active torsions:
REMARK  status: ('A' for Active; 'I' for Inactive)
REMARK    1  A    between atoms: C1_2  and  C2_3 
ROOT
ATOM      1  C2  UNL d   1       1.487   0.746   1.192  0.00  0.00    -0.081 A 
ATOM      2  C3  UNL d   1       1.480  -0.448   0.461  0.00  0.00     0.006 A 
ATOM      3  C4  UNL d   1       0.376  -0.793  -0.322  0.00  0.00     0.002 A 
ATOM      4  C5  UNL d   1      -0.735   0.053  -0.394  0.00  0.00    -0.080 A 
ATOM      5  C6  UNL d   1      -1.914  -0.291  -1.255  0.00  0.00     0.076 C 
ATOM      6  C7  UNL d   1      -0.736   1.238   0.350  0.00  0.00     0.002 A 
ATOM      7  C8  UNL d   1       0.367   1.583   1.134  0.00  0.00     0.006 A 
ENDROOT
BRANCH   1   8
ATOM      8  C1  UNL d   1       2.702   1.152   1.987  0.00  0.00     0.054 C 
ATOM      9  C   UNL d   1       2.311   1.909   3.248  0.00  0.00     0.018 C 
ENDBRANCH   1   8
TORSDOF 1
ENDMDL
