MODEL 1
REMARK minimizedAffinity -5.42440033
REMARK minimizedRMSD -1
REMARK  1 active torsions:
REMARK  status: ('A' for Active; 'I' for Inactive)
REMARK    1  A    between atoms: C1_2  and  C2_3 
ROOT
ATOM      1  C2  UNL d   1       1.697   0.540   0.653  0.00  0.00    -0.081 A 
ATOM      2  C3  UNL d   1       1.110  -0.707   0.408  0.00  0.00     0.006 A 
ATOM      3  C4  UNL d   1      -0.137  -0.793  -0.215  0.00  0.00     0.002 A 
ATOM      4  C5  UNL d   1      -0.814   0.365  -0.611  0.00  0.00    -0.080 A 
ATOM      5  C6  UNL d   1      -2.139   0.286  -1.309  0.00  0.00     0.076 C 
ATOM      6  C7  UNL d   1      -0.236   1.612  -0.351  0.00  0.00     0.002 A 
ATOM      7  C8  UNL d   1       1.011   1.699   0.273  0.00  0.00     0.006 A 
ENDROOT
BRANCH   1   8
ATOM      8  C1  UNL d   1       3.071   0.634   1.266  0.00  0.00     0.054 C 
ATOM      9  C   UNL d   1       3.520  -0.708   1.826  0.00  0.00     0.018 C 
ENDBRANCH   1   8
TORSDOF 1
ENDMDL
