MODEL 1
REMARK minimizedAffinity 2.02205515
REMARK minimizedRMSD -1
REMARK  1 active torsions:
REMARK  status: ('A' for Active; 'I' for Inactive)
REMARK    1  A    between atoms: C1_2  and  C2_3 
ROOT
ATOM      1  C2  UNL d   1       1.664  -0.920   1.670  0.00  0.00    -0.081 A 
ATOM      2  C3  UNL d   1       1.145  -2.163   2.055  0.00  0.00     0.006 A 
ATOM      3  C4  UNL d   1       0.015  -2.686   1.422  0.00  0.00     0.002 A 
ATOM      4  C5  UNL d   1      -0.610  -1.980   0.389  0.00  0.00    -0.080 A 
ATOM      5  C6  UNL d   1      -1.805  -2.544  -0.320  0.00  0.00     0.076 C 
ATOM      6  C7  UNL d   1      -0.102  -0.731   0.015  0.00  0.00     0.002 A 
ATOM      7  C8  UNL d   1       1.027  -0.207   0.648  0.00  0.00     0.006 A 
ENDROOT
BRANCH   1   8
ATOM      8  C1  UNL d   1       2.920  -0.383   2.306  0.00  0.00     0.054 C 
ATOM      9  C   UNL d   1       2.633   0.861   3.134  0.00  0.00     0.018 C 
ENDBRANCH   1   8
TORSDOF 1
ENDMDL
