MODEL 1
REMARK minimizedAffinity -2.9723196
REMARK minimizedRMSD -1
REMARK  1 active torsions:
REMARK  status: ('A' for Active; 'I' for Inactive)
REMARK    1  A    between atoms: C1_2  and  C2_3 
ROOT
ATOM      1  C2  UNL d   1      -1.471   0.234  -0.514  0.00  0.00    -0.081 A 
ATOM      2  C3  UNL d   1      -0.876   1.352   0.085  0.00  0.00     0.006 A 
ATOM      3  C4  UNL d   1       0.368   1.242   0.710  0.00  0.00     0.002 A 
ATOM      4  C5  UNL d   1       1.042   0.016   0.741  0.00  0.00    -0.080 A 
ATOM      5  C6  UNL d   1       2.392  -0.109   1.382  0.00  0.00     0.076 C 
ATOM      6  C7  UNL d   1       0.440  -1.104   0.158  0.00  0.00     0.002 A 
ATOM      7  C8  UNL d   1      -0.805  -0.995  -0.467  0.00  0.00     0.006 A 
ENDROOT
BRANCH   1   8
ATOM      8  C1  UNL d   1      -2.782   0.364  -1.245  0.00  0.00     0.054 C 
ATOM      9  C   UNL d   1      -2.730  -0.326  -2.601  0.00  0.00     0.018 C 
ENDBRANCH   1   8
TORSDOF 1
ENDMDL
