MODEL 1
REMARK minimizedAffinity 5.49860477
REMARK minimizedRMSD -1
REMARK  0 active torsions:
REMARK  status: ('A' for Active; 'I' for Inactive)
ROOT
ATOM      1  C1  DEN d   1       0.613   0.317   1.770  0.00  0.00     0.130 A 
ATOM      2  C2  DEN d   1       1.351   0.344   3.030  0.00  0.00    -0.031 A 
ATOM      3  C3  DEN d   1       0.383   0.573   4.122  0.00  0.00     0.027 A 
ATOM      4  C4  DEN d   1      -2.174   0.882   3.984  0.00  0.00     0.027 A 
ATOM      5  C5  DEN d   1      -3.253   0.949   3.130  0.00  0.00    -0.003 A 
ATOM      6  C6  DEN d   1      -3.115   0.845   1.771  0.00  0.00     0.001 A 
ATOM      7  C7  DEN d   1      -1.877   0.623   1.229  0.00  0.00     0.017 A 
ATOM      8  C8  DEN d   1      -0.784   0.562   2.084  0.00  0.00    -0.094 A 
ATOM      9  C9  DEN d   1      -0.945   0.657   3.455  0.00  0.00    -0.072 A 
ENDROOT
TORSDOF 0
ENDMDL
