MODEL 1
REMARK minimizedAffinity 0.996432602
REMARK minimizedRMSD -1
REMARK  0 active torsions:
REMARK  status: ('A' for Active; 'I' for Inactive)
ROOT
ATOM      1  C1  DEN d   1      -3.823   1.744   2.143  0.00  0.00     0.130 A 
ATOM      2  C2  DEN d   1      -4.156   0.464   1.524  0.00  0.00    -0.031 A 
ATOM      3  C3  DEN d   1      -2.937  -0.370   1.515  0.00  0.00     0.027 A 
ATOM      4  C4  DEN d   1      -0.580   0.193   2.398  0.00  0.00     0.027 A 
ATOM      5  C5  DEN d   1       0.192   1.164   2.997  0.00  0.00    -0.003 A 
ATOM      6  C6  DEN d   1      -0.307   2.398   3.320  0.00  0.00     0.001 A 
ATOM      7  C7  DEN d   1      -1.627   2.678   3.087  0.00  0.00     0.017 A 
ATOM      8  C8  DEN d   1      -2.410   1.707   2.476  0.00  0.00    -0.094 A 
ATOM      9  C9  DEN d   1      -1.890   0.461   2.168  0.00  0.00    -0.072 A 
ENDROOT
TORSDOF 0
ENDMDL
