MODEL 1
REMARK minimizedAffinity 12.6885223
REMARK minimizedRMSD -1
REMARK  0 active torsions:
REMARK  status: ('A' for Active; 'I' for Inactive)
ROOT
ATOM      1  C1  DEN d   1       2.210  -5.749   1.331  0.00  0.00     0.130 A 
ATOM      2  C2  DEN d   1       1.184  -5.877   2.363  0.00  0.00    -0.031 A 
ATOM      3  C3  DEN d   1       1.862  -6.000   3.669  0.00  0.00     0.027 A 
ATOM      4  C4  DEN d   1       4.388  -6.000   4.192  0.00  0.00     0.027 A 
ATOM      5  C5  DEN d   1       5.648  -5.928   3.641  0.00  0.00    -0.003 A 
ATOM      6  C6  DEN d   1       5.850  -5.827   2.289  0.00  0.00     0.001 A 
ATOM      7  C7  DEN d   1       4.773  -5.749   1.446  0.00  0.00     0.017 A 
ATOM      8  C8  DEN d   1       3.499  -5.828   1.994  0.00  0.00    -0.094 A 
ATOM      9  C9  DEN d   1       3.316  -5.918   3.363  0.00  0.00    -0.072 A 
ENDROOT
TORSDOF 0
ENDMDL
