MODEL 1
REMARK minimizedAffinity 11.4238777
REMARK minimizedRMSD -1
REMARK  0 active torsions:
REMARK  status: ('A' for Active; 'I' for Inactive)
ROOT
ATOM      1  C1  DEN d   1      -1.432   0.313   1.034  0.00  0.00     0.130 A 
ATOM      2  C2  DEN d   1      -0.674   0.150   2.272  0.00  0.00    -0.031 A 
ATOM      3  C3  DEN d   1      -1.610   0.299   3.404  0.00  0.00     0.027 A 
ATOM      4  C4  DEN d   1      -4.148   0.759   3.361  0.00  0.00     0.027 A 
ATOM      5  C5  DEN d   1      -5.234   0.984   2.544  0.00  0.00    -0.003 A 
ATOM      6  C6  DEN d   1      -5.124   1.036   1.180  0.00  0.00     0.001 A 
ATOM      7  C7  DEN d   1      -3.908   0.814   0.588  0.00  0.00     0.017 A 
ATOM      8  C8  DEN d   1      -2.807   0.593   1.405  0.00  0.00    -0.094 A 
ATOM      9  C9  DEN d   1      -2.941   0.532   2.782  0.00  0.00    -0.072 A 
ENDROOT
TORSDOF 0
ENDMDL
