MODEL 1
REMARK minimizedAffinity 19.1324749
REMARK minimizedRMSD -1
REMARK  0 active torsions:
REMARK  status: ('A' for Active; 'I' for Inactive)
ROOT
ATOM      1  C1  DEN d   1      -5.828  -1.473  -5.744  0.00  0.00     0.130 A 
ATOM      2  C2  DEN d   1      -4.959  -0.300  -5.690  0.00  0.00    -0.031 A 
ATOM      3  C3  DEN d   1      -3.559  -0.765  -5.753  0.00  0.00     0.027 A 
ATOM      4  C4  DEN d   1      -2.656  -3.174  -5.933  0.00  0.00     0.027 A 
ATOM      5  C5  DEN d   1      -3.010  -4.504  -5.999  0.00  0.00    -0.003 A 
ATOM      6  C6  DEN d   1      -4.316  -4.915  -5.950  0.00  0.00     0.001 A 
ATOM      7  C7  DEN d   1      -5.318  -3.984  -5.878  0.00  0.00     0.017 A 
ATOM      8  C8  DEN d   1      -4.969  -2.642  -5.804  0.00  0.00    -0.094 A 
ATOM      9  C9  DEN d   1      -3.644  -2.246  -5.867  0.00  0.00    -0.072 A 
ENDROOT
TORSDOF 0
ENDMDL
