MODEL 1
REMARK minimizedAffinity 11.7664003
REMARK minimizedRMSD -1
REMARK  0 active torsions:
REMARK  status: ('A' for Active; 'I' for Inactive)
ROOT
ATOM      1  C1  DEN d   1      -0.865  -0.691   2.760  0.00  0.00     0.130 A 
ATOM      2  C2  DEN d   1       0.130   0.169   2.127  0.00  0.00    -0.031 A 
ATOM      3  C3  DEN d   1      -0.581   1.289   1.478  0.00  0.00     0.027 A 
ATOM      4  C4  DEN d   1      -3.112   1.774   1.396  0.00  0.00     0.027 A 
ATOM      5  C5  DEN d   1      -4.355   1.321   1.780  0.00  0.00    -0.003 A 
ATOM      6  C6  DEN d   1      -4.523   0.156   2.482  0.00  0.00     0.001 A 
ATOM      7  C7  DEN d   1      -3.426  -0.571   2.861  0.00  0.00     0.017 A 
ATOM      8  C8  DEN d   1      -2.171  -0.124   2.472  0.00  0.00    -0.094 A 
ATOM      9  C9  DEN d   1      -2.021   1.062   1.773  0.00  0.00    -0.072 A 
ENDROOT
TORSDOF 0
ENDMDL
