MODEL 1
REMARK minimizedAffinity 4.26797104
REMARK minimizedRMSD -1
REMARK  0 active torsions:
REMARK  status: ('A' for Active; 'I' for Inactive)
ROOT
ATOM      1  C1  DEN d   1      -4.026   0.346   3.429  0.00  0.00     0.130 A 
ATOM      2  C2  DEN d   1      -5.008   0.326   2.349  0.00  0.00    -0.031 A 
ATOM      3  C3  DEN d   1      -4.277   0.235   1.069  0.00  0.00     0.027 A 
ATOM      4  C4  DEN d   1      -1.733   0.119   0.658  0.00  0.00     0.027 A 
ATOM      5  C5  DEN d   1      -0.497   0.117   1.265  0.00  0.00    -0.003 A 
ATOM      6  C6  DEN d   1      -0.350   0.225   2.623  0.00  0.00     0.001 A 
ATOM      7  C7  DEN d   1      -1.460   0.293   3.422  0.00  0.00     0.017 A 
ATOM      8  C8  DEN d   1      -2.710   0.303   2.817  0.00  0.00    -0.094 A 
ATOM      9  C9  DEN d   1      -2.838   0.181   1.444  0.00  0.00    -0.072 A 
ENDROOT
TORSDOF 0
ENDMDL
