MODEL 1
REMARK minimizedAffinity 5.47188854
REMARK minimizedRMSD -1
REMARK  0 active torsions:
REMARK  status: ('A' for Active; 'I' for Inactive)
ROOT
ATOM      1  C1  DEN d   1      -3.045   2.297   2.469  0.00  0.00     0.130 A 
ATOM      2  C2  DEN d   1      -3.564   1.283   1.555  0.00  0.00    -0.031 A 
ATOM      3  C3  DEN d   1      -2.543   0.225   1.419  0.00  0.00     0.027 A 
ATOM      4  C4  DEN d   1      -0.222   0.057   2.531  0.00  0.00     0.027 A 
ATOM      5  C5  DEN d   1       0.665   0.684   3.378  0.00  0.00    -0.003 A 
ATOM      6  C6  DEN d   1       0.394   1.899   3.950  0.00  0.00     0.001 A 
ATOM      7  C7  DEN d   1      -0.813   2.504   3.718  0.00  0.00     0.017 A 
ATOM      8  C8  DEN d   1      -1.709   1.882   2.859  0.00  0.00    -0.094 A 
ATOM      9  C9  DEN d   1      -1.422   0.648   2.301  0.00  0.00    -0.072 A 
ENDROOT
TORSDOF 0
ENDMDL
