MODEL 1
REMARK minimizedAffinity 15.3639498
REMARK minimizedRMSD -1
REMARK  0 active torsions:
REMARK  status: ('A' for Active; 'I' for Inactive)
ROOT
ATOM      1  C1  DEN d   1      -5.999  -3.456   2.506  0.00  0.00     0.130 A 
ATOM      2  C2  DEN d   1      -5.956  -4.806   3.060  0.00  0.00    -0.031 A 
ATOM      3  C3  DEN d   1      -5.928  -4.695   4.533  0.00  0.00     0.027 A 
ATOM      4  C4  DEN d   1      -5.951  -2.573   5.999  0.00  0.00     0.027 A 
ATOM      5  C5  DEN d   1      -5.973  -1.196   5.981  0.00  0.00    -0.003 A 
ATOM      6  C6  DEN d   1      -5.970  -0.481   4.813  0.00  0.00     0.001 A 
ATOM      7  C7  DEN d   1      -5.991  -1.142   3.613  0.00  0.00     0.017 A 
ATOM      8  C8  DEN d   1      -5.962  -2.530   3.623  0.00  0.00    -0.094 A 
ATOM      9  C9  DEN d   1      -5.978  -3.235   4.815  0.00  0.00    -0.072 A 
ENDROOT
TORSDOF 0
ENDMDL
