MODEL 1
REMARK minimizedAffinity 12.3075371
REMARK minimizedRMSD -1
REMARK  0 active torsions:
REMARK  status: ('A' for Active; 'I' for Inactive)
ROOT
ATOM      1  C1  DEN d   1      -2.779   0.947   2.035  0.00  0.00     0.130 A 
ATOM      2  C2  DEN d   1      -2.502  -0.296   1.321  0.00  0.00    -0.031 A 
ATOM      3  C3  DEN d   1      -1.101  -0.677   1.594  0.00  0.00     0.027 A 
ATOM      4  C4  DEN d   1       0.654   0.530   3.049  0.00  0.00     0.027 A 
ATOM      5  C5  DEN d   1       0.887   1.629   3.846  0.00  0.00    -0.003 A 
ATOM      6  C6  DEN d   1      -0.066   2.588   4.065  0.00  0.00     0.001 A 
ATOM      7  C7  DEN d   1      -1.313   2.443   3.518  0.00  0.00     0.017 A 
ATOM      8  C8  DEN d   1      -1.554   1.341   2.707  0.00  0.00    -0.094 A 
ATOM      9  C9  DEN d   1      -0.581   0.376   2.508  0.00  0.00    -0.072 A 
ENDROOT
TORSDOF 0
ENDMDL
