MODEL 1
REMARK minimizedAffinity 8.52325916
REMARK minimizedRMSD -1
REMARK  0 active torsions:
REMARK  status: ('A' for Active; 'I' for Inactive)
ROOT
ATOM      1  C1  DEN d   1      -1.516  -2.167   1.138  0.00  0.00     0.130 A 
ATOM      2  C2  DEN d   1      -2.626  -3.104   0.994  0.00  0.00    -0.031 A 
ATOM      3  C3  DEN d   1      -3.885  -2.336   1.071  0.00  0.00     0.027 A 
ATOM      4  C4  DEN d   1      -4.220   0.201   1.393  0.00  0.00     0.027 A 
ATOM      5  C5  DEN d   1      -3.575   1.405   1.574  0.00  0.00    -0.003 A 
ATOM      6  C6  DEN d   1      -2.211   1.497   1.655  0.00  0.00     0.001 A 
ATOM      7  C7  DEN d   1      -1.445   0.371   1.511  0.00  0.00     0.017 A 
ATOM      8  C8  DEN d   1      -2.088  -0.847   1.335  0.00  0.00    -0.094 A 
ATOM      9  C9  DEN d   1      -3.468  -0.918   1.243  0.00  0.00    -0.072 A 
ENDROOT
TORSDOF 0
ENDMDL
