MODEL 1
REMARK minimizedAffinity 2.9384594
REMARK minimizedRMSD -1
REMARK  0 active torsions:
REMARK  status: ('A' for Active; 'I' for Inactive)
ROOT
ATOM      1  C1  DEN d   1      -1.986  -0.399   1.788  0.00  0.00     0.130 A 
ATOM      2  C2  DEN d   1      -3.282   0.233   1.558  0.00  0.00    -0.031 A 
ATOM      3  C3  DEN d   1      -3.258   1.568   2.189  0.00  0.00     0.027 A 
ATOM      4  C4  DEN d   1      -1.348   2.714   3.490  0.00  0.00     0.027 A 
ATOM      5  C5  DEN d   1      -0.060   2.565   3.955  0.00  0.00    -0.003 A 
ATOM      6  C6  DEN d   1       0.659   1.415   3.761  0.00  0.00     0.001 A 
ATOM      7  C7  DEN d   1       0.109   0.384   3.045  0.00  0.00     0.017 A 
ATOM      8  C8  DEN d   1      -1.192   0.523   2.580  0.00  0.00    -0.094 A 
ATOM      9  C9  DEN d   1      -1.897   1.699   2.775  0.00  0.00    -0.072 A 
ENDROOT
TORSDOF 0
ENDMDL
