MODEL 1
REMARK minimizedAffinity 5.14566135
REMARK minimizedRMSD -1
REMARK  0 active torsions:
REMARK  status: ('A' for Active; 'I' for Inactive)
ROOT
ATOM      1  C1  DEN d   1      -5.734   0.937   1.692  0.00  0.00     0.130 A 
ATOM      2  C2  DEN d   1      -5.987   1.755   2.875  0.00  0.00    -0.031 A 
ATOM      3  C3  DEN d   1      -4.691   2.025   3.530  0.00  0.00     0.027 A 
ATOM      4  C4  DEN d   1      -2.329   1.264   2.826  0.00  0.00     0.027 A 
ATOM      5  C5  DEN d   1      -1.612   0.543   1.897  0.00  0.00    -0.003 A 
ATOM      6  C6  DEN d   1      -2.217  -0.120   0.863  0.00  0.00     0.001 A 
ATOM      7  C7  DEN d   1      -3.575  -0.038   0.706  0.00  0.00     0.017 A 
ATOM      8  C8  DEN d   1      -4.306   0.681   1.643  0.00  0.00    -0.094 A 
ATOM      9  C9  DEN d   1      -3.674   1.354   2.675  0.00  0.00    -0.072 A 
ENDROOT
TORSDOF 0
ENDMDL
