MODEL 1
REMARK minimizedAffinity 4.53187323
REMARK minimizedRMSD -1
REMARK  0 active torsions:
REMARK  status: ('A' for Active; 'I' for Inactive)
ROOT
ATOM      1  C1  DEN d   1       1.809   0.243   3.475  0.00  0.00     0.130 A 
ATOM      2  C2  DEN d   1       0.508   0.499   2.863  0.00  0.00    -0.031 A 
ATOM      3  C3  DEN d   1       0.673   0.435   1.397  0.00  0.00     0.027 A 
ATOM      4  C4  DEN d   1       2.804  -0.040   0.023  0.00  0.00     0.027 A 
ATOM      5  C5  DEN d   1       4.153  -0.306   0.100  0.00  0.00    -0.003 A 
ATOM      6  C6  DEN d   1       4.817  -0.374   1.296  0.00  0.00     0.001 A 
ATOM      7  C7  DEN d   1       4.123  -0.218   2.467  0.00  0.00     0.017 A 
ATOM      8  C8  DEN d   1       2.764   0.059   2.397  0.00  0.00    -0.094 A 
ATOM      9  C9  DEN d   1       2.109   0.111   1.179  0.00  0.00    -0.072 A 
ENDROOT
TORSDOF 0
ENDMDL
