MODEL 1
REMARK minimizedAffinity 6.74616385
REMARK minimizedRMSD -1
REMARK  0 active torsions:
REMARK  status: ('A' for Active; 'I' for Inactive)
ROOT
ATOM      1  C1  DEN d   1      -2.703  -1.892   0.383  0.00  0.00     0.130 A 
ATOM      2  C2  DEN d   1      -4.029  -2.388   0.027  0.00  0.00    -0.031 A 
ATOM      3  C3  DEN d   1      -5.031  -1.486   0.631  0.00  0.00     0.027 A 
ATOM      4  C4  DEN d   1      -4.658   0.621   2.071  0.00  0.00     0.027 A 
ATOM      5  C5  DEN d   1      -3.707   1.431   2.650  0.00  0.00    -0.003 A 
ATOM      6  C6  DEN d   1      -2.366   1.173   2.544  0.00  0.00     0.001 A 
ATOM      7  C7  DEN d   1      -1.937   0.103   1.804  0.00  0.00     0.017 A 
ATOM      8  C8  DEN d   1      -2.891  -0.722   1.223  0.00  0.00    -0.094 A 
ATOM      9  C9  DEN d   1      -4.241  -0.438   1.332  0.00  0.00    -0.072 A 
ENDROOT
TORSDOF 0
ENDMDL
