MODEL 1
REMARK minimizedAffinity -6.52726889
REMARK minimizedRMSD -1
REMARK  3 active torsions:
REMARK  status: ('A' for Active; 'I' for Inactive)
REMARK    1  A    between atoms: C3'_2  and  C2'_3 
REMARK    2  A    between atoms: C2'_3  and  C1'_4 
REMARK    3  A    between atoms: C1'_4  and  C1_5 
ROOT
ATOM      1  C1  N4B d   1      -1.096  -0.050   1.026  0.00  0.00    -0.075 A 
ATOM      2  C2  N4B d   1      -1.505   0.422   2.293  0.00  0.00     0.002 A 
ATOM      3  C3  N4B d   1      -0.573   0.639   3.278  0.00  0.00     0.002 A 
ATOM      4  C4  N4B d   1       0.765   0.374   3.027  0.00  0.00    -0.004 A 
ATOM      5  C5  N4B d   1       1.154  -0.058   1.793  0.00  0.00     0.002 A 
ATOM      6  C6  N4B d   1       0.229  -0.276   0.792  0.00  0.00     0.002 A 
ENDROOT
BRANCH   1   7
ATOM      7  C1' N4B d   1      -2.088  -0.384  -0.054  0.00  0.00     0.057 C 
BRANCH   7   8
ATOM      8  C2' N4B d   1      -1.631  -1.645  -0.781  0.00  0.00     0.009 C 
BRANCH   8   9
ATOM      9  C3' N4B d   1      -2.564  -2.817  -0.527  0.00  0.00     0.004 C 
ATOM     10  C4' N4B d   1      -3.907  -2.640  -1.170  0.00  0.00     0.003 C 
ENDBRANCH   8   9
ENDBRANCH   7   8
ENDBRANCH   1   7
TORSDOF 3
ENDMDL
