MODEL 1
REMARK minimizedAffinity -4.80283308
REMARK minimizedRMSD -1
REMARK  0 active torsions:
REMARK  status: ('A' for Active; 'I' for Inactive)
ROOT
ATOM      1  N1  IND d   1       1.669  -0.533   1.549  0.00  0.00    -0.196 N 
ATOM      2  C2  IND d   1       1.942  -0.650   0.214  0.00  0.00     0.054 A 
ATOM      3  C3  IND d   1       0.843  -0.357  -0.518  0.00  0.00    -0.031 A 
ATOM      4  C4  IND d   1      -1.479   0.434   0.263  0.00  0.00     0.051 A 
ATOM      5  C5  IND d   1      -2.219   0.655   1.390  0.00  0.00    -0.031 A 
ATOM      6  C6  IND d   1      -1.689   0.490   2.654  0.00  0.00     0.015 A 
ATOM      7  C7  IND d   1      -0.391   0.108   2.837  0.00  0.00    -0.016 A 
ATOM      8  C8  IND d   1       0.362  -0.124   1.695  0.00  0.00    -0.047 A 
ATOM      9  C9  IND d   1      -0.183   0.000   0.410  0.00  0.00    -0.096 A 
ATOM     10  HN1 IND d   1       2.221  -0.690   2.189  0.00  0.00     0.298 HD
ENDROOT
TORSDOF 0
ENDMDL
