MODEL 1
REMARK minimizedAffinity 0.300020456
REMARK minimizedRMSD -1
REMARK  0 active torsions:
REMARK  status: ('A' for Active; 'I' for Inactive)
ROOT
ATOM      1  N1  IND d   1       0.472  -0.757  -0.381  0.00  0.00    -0.196 N 
ATOM      2  C2  IND d   1      -0.689  -0.588   0.321  0.00  0.00     0.054 A 
ATOM      3  C3  IND d   1      -0.609   0.512   1.103  0.00  0.00    -0.031 A 
ATOM      4  C4  IND d   1       1.290   2.237   1.310  0.00  0.00     0.051 A 
ATOM      5  C5  IND d   1       2.568   2.488   0.894  0.00  0.00    -0.031 A 
ATOM      6  C6  IND d   1       3.224   1.655   0.011  0.00  0.00     0.015 A 
ATOM      7  C7  IND d   1       2.620   0.541  -0.499  0.00  0.00    -0.016 A 
ATOM      8  C8  IND d   1       1.326   0.279  -0.073  0.00  0.00    -0.047 A 
ATOM      9  C9  IND d   1       0.670   1.098   0.856  0.00  0.00    -0.096 A 
ATOM     10  HN1 IND d   1       0.640  -1.402  -0.924  0.00  0.00     0.298 HD
ENDROOT
TORSDOF 0
ENDMDL
