MODEL 1
REMARK minimizedAffinity 6.58788967
REMARK minimizedRMSD -1
REMARK  0 active torsions:
REMARK  status: ('A' for Active; 'I' for Inactive)
ROOT
ATOM      1  N1  IND d   1      -3.225   0.011   1.383  0.00  0.00    -0.196 N 
ATOM      2  C2  IND d   1      -2.939   0.339   0.088  0.00  0.00     0.054 A 
ATOM      3  C3  IND d   1      -1.605   0.290  -0.126  0.00  0.00    -0.031 A 
ATOM      4  C4  IND d   1       0.284  -0.402   1.481  0.00  0.00     0.051 A 
ATOM      5  C5  IND d   1       0.519  -0.749   2.782  0.00  0.00    -0.031 A 
ATOM      6  C6  IND d   1      -0.504  -0.867   3.701  0.00  0.00     0.015 A 
ATOM      7  C7  IND d   1      -1.806  -0.650   3.349  0.00  0.00    -0.016 A 
ATOM      8  C8  IND d   1      -2.047  -0.290   2.031  0.00  0.00    -0.047 A 
ATOM      9  C9  IND d   1      -1.009  -0.128   1.104  0.00  0.00    -0.096 A 
ATOM     10  HN1 IND d   1      -4.010  -0.005   1.735  0.00  0.00     0.298 HD
ENDROOT
TORSDOF 0
ENDMDL
