MODEL 1
REMARK minimizedAffinity -2.89619064
REMARK minimizedRMSD -1
REMARK  0 active torsions:
REMARK  status: ('A' for Active; 'I' for Inactive)
ROOT
ATOM      1  N1  IND d   1      -1.217  -1.068   1.411  0.00  0.00    -0.196 N 
ATOM      2  C2  IND d   1      -1.071  -0.837   0.071  0.00  0.00     0.054 A 
ATOM      3  C3  IND d   1      -0.422   0.331  -0.136  0.00  0.00    -0.031 A 
ATOM      4  C4  IND d   1       0.579   1.972   1.576  0.00  0.00     0.051 A 
ATOM      5  C5  IND d   1       0.666   2.207   2.920  0.00  0.00    -0.031 A 
ATOM      6  C6  IND d   1       0.120   1.344   3.848  0.00  0.00     0.015 A 
ATOM      7  C7  IND d   1      -0.525   0.202   3.465  0.00  0.00    -0.016 A 
ATOM      8  C8  IND d   1      -0.621  -0.037   2.102  0.00  0.00    -0.047 A 
ATOM      9  C9  IND d   1      -0.107   0.858   1.154  0.00  0.00    -0.096 A 
ATOM     10  HN1 IND d   1      -1.615  -1.745   1.762  0.00  0.00     0.298 HD
ENDROOT
TORSDOF 0
ENDMDL
