MODEL 1
REMARK minimizedAffinity -0.140552297
REMARK minimizedRMSD -1
REMARK  0 active torsions:
REMARK  status: ('A' for Active; 'I' for Inactive)
ROOT
ATOM      1  N1  IND d   1       1.143  -1.125   0.504  0.00  0.00    -0.196 N 
ATOM      2  C2  IND d   1       1.125  -1.670  -0.750  0.00  0.00     0.054 A 
ATOM      3  C3  IND d   1      -0.088  -1.495  -1.321  0.00  0.00    -0.031 A 
ATOM      4  C4  IND d   1      -2.157  -0.257  -0.420  0.00  0.00     0.051 A 
ATOM      5  C5  IND d   1      -2.634   0.375   0.694  0.00  0.00    -0.031 A 
ATOM      6  C6  IND d   1      -1.860   0.545   1.824  0.00  0.00     0.015 A 
ATOM      7  C7  IND d   1      -0.570   0.097   1.877  0.00  0.00    -0.016 A 
ATOM      8  C8  IND d   1      -0.085  -0.551   0.750  0.00  0.00    -0.047 A 
ATOM      9  C9  IND d   1      -0.880  -0.764  -0.384  0.00  0.00    -0.096 A 
ATOM     10  HN1 IND d   1       1.809  -1.139   1.047  0.00  0.00     0.298 HD
ENDROOT
TORSDOF 0
ENDMDL
