MODEL 1
REMARK minimizedAffinity -0.654321492
REMARK minimizedRMSD -1
REMARK  0 active torsions:
REMARK  status: ('A' for Active; 'I' for Inactive)
ROOT
ATOM      1  N1  IND d   1       1.126  -1.860   3.574  0.00  0.00    -0.196 N 
ATOM      2  C2  IND d   1       1.056  -1.434   4.872  0.00  0.00     0.054 A 
ATOM      3  C3  IND d   1       0.282  -0.329   4.963  0.00  0.00    -0.031 A 
ATOM      4  C4  IND d   1      -1.048   0.892   3.128  0.00  0.00     0.051 A 
ATOM      5  C5  IND d   1      -1.268   0.897   1.780  0.00  0.00    -0.031 A 
ATOM      6  C6  IND d   1      -0.691  -0.037   0.943  0.00  0.00     0.015 A 
ATOM      7  C7  IND d   1       0.121  -1.022   1.429  0.00  0.00    -0.016 A 
ATOM      8  C8  IND d   1       0.352  -1.026   2.797  0.00  0.00    -0.047 A 
ATOM      9  C9  IND d   1      -0.197  -0.055   3.645  0.00  0.00    -0.096 A 
ATOM     10  HN1 IND d   1       1.577  -2.534   3.291  0.00  0.00     0.298 HD
ENDROOT
TORSDOF 0
ENDMDL
