MODEL 1
REMARK minimizedAffinity 1.58238304
REMARK minimizedRMSD -1
REMARK  0 active torsions:
REMARK  status: ('A' for Active; 'I' for Inactive)
ROOT
ATOM      1  N1  IND d   1       0.090  -0.534   0.225  0.00  0.00    -0.196 N 
ATOM      2  C2  IND d   1      -0.790   0.024  -0.661  0.00  0.00     0.054 A 
ATOM      3  C3  IND d   1      -1.907   0.433  -0.018  0.00  0.00    -0.031 A 
ATOM      4  C4  IND d   1      -2.461   0.379   2.495  0.00  0.00     0.051 A 
ATOM      5  C5  IND d   1      -1.984  -0.070   3.694  0.00  0.00    -0.031 A 
ATOM      6  C6  IND d   1      -0.764  -0.708   3.800  0.00  0.00     0.015 A 
ATOM      7  C7  IND d   1       0.031  -0.910   2.708  0.00  0.00    -0.016 A 
ATOM      8  C8  IND d   1      -0.454  -0.462   1.488  0.00  0.00    -0.047 A 
ATOM      9  C9  IND d   1      -1.709   0.148   1.367  0.00  0.00    -0.096 A 
ATOM     10  HN1 IND d   1       0.855  -0.874   0.025  0.00  0.00     0.298 HD
ENDROOT
TORSDOF 0
ENDMDL
