MODEL 1
REMARK minimizedAffinity 2.75270915
REMARK minimizedRMSD -1
REMARK  0 active torsions:
REMARK  status: ('A' for Active; 'I' for Inactive)
ROOT
ATOM      1  N1  IND d   1      -3.243  -0.148   1.557  0.00  0.00    -0.196 N 
ATOM      2  C2  IND d   1      -2.561   0.203   2.688  0.00  0.00     0.054 A 
ATOM      3  C3  IND d   1      -1.228   0.182   2.459  0.00  0.00    -0.031 A 
ATOM      4  C4  IND d   1       0.049  -0.302   0.277  0.00  0.00     0.051 A 
ATOM      5  C5  IND d   1      -0.140  -0.706  -1.015  0.00  0.00    -0.031 A 
ATOM      6  C6  IND d   1      -1.398  -0.948  -1.527  0.00  0.00     0.015 A 
ATOM      7  C7  IND d   1      -2.521  -0.782  -0.765  0.00  0.00    -0.016 A 
ATOM      8  C8  IND d   1      -2.332  -0.378   0.549  0.00  0.00    -0.047 A 
ATOM      9  C9  IND d   1      -1.055  -0.173   1.086  0.00  0.00    -0.096 A 
ATOM     10  HN1 IND d   1      -4.097  -0.214   1.486  0.00  0.00     0.298 HD
ENDROOT
TORSDOF 0
ENDMDL
