MODEL 1
REMARK minimizedAffinity 0.111706063
REMARK minimizedRMSD -1
REMARK  0 active torsions:
REMARK  status: ('A' for Active; 'I' for Inactive)
ROOT
ATOM      1  N1  IND d   1       0.687  -1.227   3.736  0.00  0.00    -0.196 N 
ATOM      2  C2  IND d   1       0.968  -1.740   4.971  0.00  0.00     0.054 A 
ATOM      3  C3  IND d   1      -0.168  -2.141   5.584  0.00  0.00    -0.031 A 
ATOM      4  C4  IND d   1      -2.587  -2.145   4.703  0.00  0.00     0.051 A 
ATOM      5  C5  IND d   1      -3.348  -1.741   3.642  0.00  0.00    -0.031 A 
ATOM      6  C6  IND d   1      -2.791  -1.135   2.534  0.00  0.00     0.015 A 
ATOM      7  C7  IND d   1      -1.445  -0.920   2.441  0.00  0.00    -0.016 A 
ATOM      8  C8  IND d   1      -0.670  -1.323   3.520  0.00  0.00    -0.047 A 
ATOM      9  C9  IND d   1      -1.235  -1.900   4.665  0.00  0.00    -0.096 A 
ATOM     10  HN1 IND d   1       1.261  -0.900   3.186  0.00  0.00     0.298 HD
ENDROOT
TORSDOF 0
ENDMDL
