MODEL 1
REMARK minimizedAffinity 5.68552351
REMARK minimizedRMSD -1
REMARK  0 active torsions:
REMARK  status: ('A' for Active; 'I' for Inactive)
ROOT
ATOM      1  N1  IND d   1       0.368   0.864   1.077  0.00  0.00    -0.196 N 
ATOM      2  C2  IND d   1      -0.127   1.828   1.911  0.00  0.00     0.054 A 
ATOM      3  C3  IND d   1      -1.469   1.919   1.781  0.00  0.00    -0.031 A 
ATOM      4  C4  IND d   1      -3.072   0.514   0.337  0.00  0.00     0.051 A 
ATOM      5  C5  IND d   1      -3.084  -0.462  -0.620  0.00  0.00    -0.031 A 
ATOM      6  C6  IND d   1      -1.924  -1.059  -1.067  0.00  0.00     0.015 A 
ATOM      7  C7  IND d   1      -0.703  -0.710  -0.564  0.00  0.00    -0.016 A 
ATOM      8  C8  IND d   1      -0.686   0.286   0.403  0.00  0.00    -0.047 A 
ATOM      9  C9  IND d   1      -1.856   0.926   0.830  0.00  0.00    -0.096 A 
ATOM     10  HN1 IND d   1       1.197   0.655   0.988  0.00  0.00     0.298 HD
ENDROOT
TORSDOF 0
ENDMDL
