MODEL 1
REMARK minimizedAffinity 11.6787748
REMARK minimizedRMSD -1
REMARK  0 active torsions:
REMARK  status: ('A' for Active; 'I' for Inactive)
ROOT
ATOM      1  N1  IND d   1       3.925   4.607   1.837  0.00  0.00    -0.196 N 
ATOM      2  C2  IND d   1       2.721   4.025   1.552  0.00  0.00     0.054 A 
ATOM      3  C3  IND d   1       2.462   3.028   2.428  0.00  0.00    -0.031 A 
ATOM      4  C4  IND d   1       3.825   2.247   4.468  0.00  0.00     0.051 A 
ATOM      5  C5  IND d   1       5.013   2.451   5.111  0.00  0.00    -0.031 A 
ATOM      6  C6  IND d   1       5.916   3.405   4.690  0.00  0.00     0.015 A 
ATOM      7  C7  IND d   1       5.659   4.202   3.611  0.00  0.00    -0.016 A 
ATOM      8  C8  IND d   1       4.456   3.993   2.950  0.00  0.00    -0.047 A 
ATOM      9  C9  IND d   1       3.555   2.998   3.348  0.00  0.00    -0.096 A 
ATOM     10  HN1 IND d   1       4.289   5.249   1.396  0.00  0.00     0.298 HD
ENDROOT
TORSDOF 0
ENDMDL
