MODEL 1
REMARK minimizedAffinity 2.17982125
REMARK minimizedRMSD -1
REMARK  1 active torsions:
REMARK  status: ('A' for Active; 'I' for Inactive)
REMARK    1  A    between atoms: C1_2  and  C2_3 
ROOT
ATOM      1  C2  UNL d   1       0.871  -0.321   3.963  0.00  0.00    -0.077 A 
ATOM      2  C3  UNL d   1       1.943   0.075   3.150  0.00  0.00     0.002 A 
ATOM      3  C4  UNL d   1       1.822   1.187   2.316  0.00  0.00     0.002 A 
ATOM      4  C5  UNL d   1       0.634   1.915   2.289  0.00  0.00    -0.004 A 
ATOM      5  C6  UNL d   1      -0.438   1.528   3.092  0.00  0.00     0.002 A 
ATOM      6  C7  UNL d   1      -0.320   0.415   3.926  0.00  0.00     0.002 A 
ENDROOT
BRANCH   1   7
ATOM      7  C1  UNL d   1       1.016  -1.492   4.900  0.00  0.00     0.055 C 
ATOM      8  C   UNL d   1       1.716  -2.660   4.223  0.00  0.00     0.019 C 
ENDBRANCH   1   7
TORSDOF 1
ENDMDL
