MODEL 1
REMARK minimizedAffinity 10.0991735
REMARK minimizedRMSD -1
REMARK  1 active torsions:
REMARK  status: ('A' for Active; 'I' for Inactive)
REMARK    1  A    between atoms: C1_2  and  C2_3 
ROOT
ATOM      1  C2  UNL d   1      -0.353   2.731  -0.194  0.00  0.00    -0.077 A 
ATOM      2  C3  UNL d   1      -0.858   3.862   0.462  0.00  0.00     0.002 A 
ATOM      3  C4  UNL d   1      -1.018   5.066  -0.227  0.00  0.00     0.002 A 
ATOM      4  C5  UNL d   1      -0.680   5.148  -1.576  0.00  0.00    -0.004 A 
ATOM      5  C6  UNL d   1      -0.175   4.029  -2.238  0.00  0.00     0.002 A 
ATOM      6  C7  UNL d   1      -0.013   2.826  -1.550  0.00  0.00     0.002 A 
ENDROOT
BRANCH   1   7
ATOM      7  C1  UNL d   1      -0.226   1.419   0.534  0.00  0.00     0.055 C 
ATOM      8  C   UNL d   1      -0.140   0.251  -0.438  0.00  0.00     0.019 C 
ENDBRANCH   1   7
TORSDOF 1
ENDMDL
