MODEL 1
REMARK minimizedAffinity 11.2300148
REMARK minimizedRMSD -1
REMARK  1 active torsions:
REMARK  status: ('A' for Active; 'I' for Inactive)
REMARK    1  A    between atoms: C1_2  and  C2_3 
ROOT
ATOM      1  C2  UNL d   1      -1.637   4.800  -1.625  0.00  0.00    -0.077 A 
ATOM      2  C3  UNL d   1      -0.953   3.600  -1.388  0.00  0.00     0.002 A 
ATOM      3  C4  UNL d   1       0.241   3.599  -0.665  0.00  0.00     0.002 A 
ATOM      4  C5  UNL d   1       0.759   4.794  -0.170  0.00  0.00    -0.004 A 
ATOM      5  C6  UNL d   1       0.087   5.993  -0.402  0.00  0.00     0.002 A 
ATOM      6  C7  UNL d   1      -1.106   5.996  -1.126  0.00  0.00     0.002 A 
ENDROOT
BRANCH   1   7
ATOM      7  C1  UNL d   1      -2.951   4.798  -2.363  0.00  0.00     0.055 C 
ATOM      8  C   UNL d   1      -4.047   4.137  -1.539  0.00  0.00     0.019 C 
ENDBRANCH   1   7
TORSDOF 1
ENDMDL
