MODEL 1
REMARK minimizedAffinity -5.7623148
REMARK minimizedRMSD -1
REMARK  1 active torsions:
REMARK  status: ('A' for Active; 'I' for Inactive)
REMARK    1  A    between atoms: C1_2  and  C2_3 
ROOT
ATOM      1  C2  UNL d   1      -0.224  -0.014  -0.101  0.00  0.00    -0.076 A 
ATOM      2  C3  UNL d   1      -1.604  -0.225   0.064  0.00  0.00     0.004 A 
ATOM      3  C4  UNL d   1      -2.118  -0.697   1.271  0.00  0.00    -0.003 A 
ATOM      4  C5  UNL d   1      -1.260  -0.965   2.332  0.00  0.00     0.000 A 
ATOM      5  C6  UNL d   1       0.110  -0.745   2.191  0.00  0.00     0.000 A 
ATOM      6  C7  UNL d   1       0.642  -0.254   0.987  0.00  0.00    -0.073 A 
ATOM      7  C8  UNL d   1       2.128  -0.040   0.889  0.00  0.00     0.078 C 
ENDROOT
BRANCH   1   8
ATOM      8  C1  UNL d   1       0.279   0.474  -1.441  0.00  0.00     0.053 C 
ATOM      9  C   UNL d   1       0.210  -0.601  -2.515  0.00  0.00     0.018 C 
ENDBRANCH   1   8
TORSDOF 1
ENDMDL
