MODEL 1
REMARK minimizedAffinity -1.56413722
REMARK minimizedRMSD -1
REMARK  1 active torsions:
REMARK  status: ('A' for Active; 'I' for Inactive)
REMARK    1  A    between atoms: C1_2  and  C2_3 
ROOT
ATOM      1  C2  UNL d   1       0.184  -0.249  -0.730  0.00  0.00    -0.076 A 
ATOM      2  C3  UNL d   1       1.306  -0.554   0.061  0.00  0.00     0.004 A 
ATOM      3  C4  UNL d   1       1.331  -0.245   1.420  0.00  0.00    -0.003 A 
ATOM      4  C5  UNL d   1       0.234   0.372   2.011  0.00  0.00     0.000 A 
ATOM      5  C6  UNL d   1      -0.894   0.666   1.245  0.00  0.00     0.000 A 
ATOM      6  C7  UNL d   1      -0.942   0.347  -0.123  0.00  0.00    -0.073 A 
ATOM      7  C8  UNL d   1      -2.182   0.692  -0.902  0.00  0.00     0.078 C 
ENDROOT
BRANCH   1   8
ATOM      8  C1  UNL d   1       0.225  -0.583  -2.204  0.00  0.00     0.053 C 
ATOM      9  C   UNL d   1       1.574  -0.272  -2.834  0.00  0.00     0.018 C 
ENDBRANCH   1   8
TORSDOF 1
ENDMDL
