MODEL 1
REMARK minimizedAffinity -4.1522541
REMARK minimizedRMSD -1
REMARK  1 active torsions:
REMARK  status: ('A' for Active; 'I' for Inactive)
REMARK    1  A    between atoms: C1_2  and  C2_3 
ROOT
ATOM      1  C2  UNL d   1      -1.489  -0.101   1.476  0.00  0.00    -0.076 A 
ATOM      2  C3  UNL d   1      -0.546  -0.861   2.188  0.00  0.00     0.004 A 
ATOM      3  C4  UNL d   1      -0.824  -1.334   3.470  0.00  0.00    -0.003 A 
ATOM      4  C5  UNL d   1      -2.052  -1.053   4.060  0.00  0.00     0.000 A 
ATOM      5  C6  UNL d   1      -3.007  -0.315   3.361  0.00  0.00     0.000 A 
ATOM      6  C7  UNL d   1      -2.748   0.154   2.062  0.00  0.00    -0.073 A 
ATOM      7  C8  UNL d   1      -3.812   0.951   1.357  0.00  0.00     0.078 C 
ENDROOT
BRANCH   1   8
ATOM      8  C1  UNL d   1      -1.121   0.408   0.101  0.00  0.00     0.053 C 
ATOM      9  C   UNL d   1       0.364   0.263  -0.195  0.00  0.00     0.018 C 
ENDBRANCH   1   8
TORSDOF 1
ENDMDL
