MODEL 1
REMARK minimizedAffinity -2.62280989
REMARK minimizedRMSD -1
REMARK  1 active torsions:
REMARK  status: ('A' for Active; 'I' for Inactive)
REMARK    1  A    between atoms: C1_2  and  C2_3 
ROOT
ATOM      1  C2  UNL d   1       0.689  -0.108  -1.897  0.00  0.00    -0.076 A 
ATOM      2  C3  UNL d   1      -0.403  -0.991  -1.952  0.00  0.00     0.004 A 
ATOM      3  C4  UNL d   1      -0.501  -1.949  -2.960  0.00  0.00    -0.003 A 
ATOM      4  C5  UNL d   1       0.492  -2.040  -3.929  0.00  0.00     0.000 A 
ATOM      5  C6  UNL d   1       1.591  -1.183  -3.880  0.00  0.00     0.000 A 
ATOM      6  C7  UNL d   1       1.714  -0.223  -2.861  0.00  0.00    -0.073 A 
ATOM      7  C8  UNL d   1       2.918   0.679  -2.860  0.00  0.00     0.078 C 
ENDROOT
BRANCH   1   8
ATOM      8  C1  UNL d   1       0.728   0.928  -0.797  0.00  0.00     0.053 C 
ATOM      9  C   UNL d   1       0.617   0.310   0.589  0.00  0.00     0.018 C 
ENDBRANCH   1   8
TORSDOF 1
ENDMDL
