MODEL 1
REMARK minimizedAffinity -6.00230074
REMARK minimizedRMSD -1
REMARK  1 active torsions:
REMARK  status: ('A' for Active; 'I' for Inactive)
REMARK    1  A    between atoms: C1_2  and  C2_3 
ROOT
ATOM      1  C2  UNL d   1      -0.217   0.158  -0.160  0.00  0.00    -0.076 A 
ATOM      2  C3  UNL d   1       0.859   0.459   0.693  0.00  0.00     0.004 A 
ATOM      3  C4  UNL d   1       0.768   0.242   2.066  0.00  0.00    -0.003 A 
ATOM      4  C5  UNL d   1      -0.401  -0.280   2.610  0.00  0.00     0.000 A 
ATOM      5  C6  UNL d   1      -1.472  -0.601   1.777  0.00  0.00     0.000 A 
ATOM      6  C7  UNL d   1      -1.391  -0.404   0.387  0.00  0.00    -0.073 A 
ATOM      7  C8  UNL d   1      -2.578  -0.761  -0.463  0.00  0.00     0.078 C 
ENDROOT
BRANCH   1   8
ATOM      8  C1  UNL d   1      -0.071   0.440  -1.638  0.00  0.00     0.053 C 
ATOM      9  C   UNL d   1       0.610  -0.697  -2.384  0.00  0.00     0.018 C 
ENDBRANCH   1   8
TORSDOF 1
ENDMDL
