MODEL 1
REMARK minimizedAffinity 2.77811742
REMARK minimizedRMSD -1
REMARK  1 active torsions:
REMARK  status: ('A' for Active; 'I' for Inactive)
REMARK    1  A    between atoms: C1_2  and  C2_3 
ROOT
ATOM      1  C2  UNL d   1      -0.509   0.574   0.070  0.00  0.00    -0.076 A 
ATOM      2  C3  UNL d   1      -0.678   0.733   1.457  0.00  0.00     0.004 A 
ATOM      3  C4  UNL d   1       0.413   0.682   2.323  0.00  0.00    -0.003 A 
ATOM      4  C5  UNL d   1       1.691   0.472   1.816  0.00  0.00     0.000 A 
ATOM      5  C6  UNL d   1       1.879   0.330   0.442  0.00  0.00     0.000 A 
ATOM      6  C7  UNL d   1       0.792   0.395  -0.447  0.00  0.00    -0.073 A 
ATOM      7  C8  UNL d   1       1.052   0.230  -1.919  0.00  0.00     0.078 C 
ENDROOT
BRANCH   1   8
ATOM      8  C1  UNL d   1      -1.732   0.612  -0.818  0.00  0.00     0.053 C 
ATOM      9  C   UNL d   1      -3.025   0.434  -0.036  0.00  0.00     0.018 C 
ENDBRANCH   1   8
TORSDOF 1
ENDMDL
