MODEL 1
REMARK minimizedAffinity 0.0129579278
REMARK minimizedRMSD -1
REMARK  1 active torsions:
REMARK  status: ('A' for Active; 'I' for Inactive)
REMARK    1  A    between atoms: C1_2  and  C2_3 
ROOT
ATOM      1  C2  UNL d   1       0.699  -0.175  -1.033  0.00  0.00    -0.076 A 
ATOM      2  C3  UNL d   1       1.747  -1.083  -1.262  0.00  0.00     0.004 A 
ATOM      3  C4  UNL d   1       1.904  -1.700  -2.502  0.00  0.00    -0.003 A 
ATOM      4  C5  UNL d   1       1.015  -1.419  -3.534  0.00  0.00     0.000 A 
ATOM      5  C6  UNL d   1      -0.020  -0.507  -3.330  0.00  0.00     0.000 A 
ATOM      6  C7  UNL d   1      -0.183   0.136  -2.091  0.00  0.00    -0.073 A 
ATOM      7  C8  UNL d   1      -1.321   1.106  -1.925  0.00  0.00     0.078 C 
ENDROOT
BRANCH   1   8
ATOM      8  C1  UNL d   1       0.562   0.443   0.340  0.00  0.00     0.053 C 
ATOM      9  C   UNL d   1       1.409  -0.267   1.385  0.00  0.00     0.018 C 
ENDBRANCH   1   8
TORSDOF 1
ENDMDL
