MODEL 1
REMARK minimizedAffinity -5.29362631
REMARK minimizedRMSD -1
REMARK  1 active torsions:
REMARK  status: ('A' for Active; 'I' for Inactive)
REMARK    1  A    between atoms: C1_2  and  C2_3 
ROOT
ATOM      1  C2  UNL d   1      -0.222   0.167   0.036  0.00  0.00    -0.076 A 
ATOM      2  C3  UNL d   1      -1.615   0.072   0.194  0.00  0.00     0.004 A 
ATOM      3  C4  UNL d   1      -2.179  -0.213   1.436  0.00  0.00    -0.003 A 
ATOM      4  C5  UNL d   1      -1.359  -0.407   2.542  0.00  0.00     0.000 A 
ATOM      5  C6  UNL d   1       0.025  -0.299   2.408  0.00  0.00     0.000 A 
ATOM      6  C7  UNL d   1       0.609   0.004   1.165  0.00  0.00    -0.073 A 
ATOM      7  C8  UNL d   1       2.107   0.102   1.077  0.00  0.00     0.078 C 
ENDROOT
BRANCH   1   8
ATOM      8  C1  UNL d   1       0.334   0.451  -1.341  0.00  0.00     0.053 C 
ATOM      9  C   UNL d   1       0.529  -0.813  -2.163  0.00  0.00     0.018 C 
ENDBRANCH   1   8
TORSDOF 1
ENDMDL
