MODEL 1
REMARK minimizedAffinity -3.72622037
REMARK minimizedRMSD -1
REMARK  1 active torsions:
REMARK  status: ('A' for Active; 'I' for Inactive)
REMARK    1  A    between atoms: C1_2  and  C2_3 
ROOT
ATOM      1  C2  UNL d   1       0.155   0.413  -0.228  0.00  0.00    -0.076 A 
ATOM      2  C3  UNL d   1       1.058  -0.001   0.766  0.00  0.00     0.004 A 
ATOM      3  C4  UNL d   1       0.677  -0.049   2.106  0.00  0.00    -0.003 A 
ATOM      4  C5  UNL d   1      -0.613   0.315   2.473  0.00  0.00     0.000 A 
ATOM      5  C6  UNL d   1      -1.528   0.711   1.498  0.00  0.00     0.000 A 
ATOM      6  C7  UNL d   1      -1.165   0.750   0.141  0.00  0.00    -0.073 A 
ATOM      7  C8  UNL d   1      -2.190   1.190  -0.869  0.00  0.00     0.078 C 
ENDROOT
BRANCH   1   8
ATOM      8  C1  UNL d   1       0.633   0.472  -1.662  0.00  0.00     0.053 C 
ATOM      9  C   UNL d   1       0.623  -0.892  -2.336  0.00  0.00     0.018 C 
ENDBRANCH   1   8
TORSDOF 1
ENDMDL
