MODEL 1
REMARK minimizedAffinity -4.77059031
REMARK minimizedRMSD -1
REMARK  3 active torsions:
REMARK  status: ('A' for Active; 'I' for Inactive)
REMARK    1  A    between atoms: C3'_2  and  C2'_3 
REMARK    2  A    between atoms: C2'_3  and  C1'_4 
REMARK    3  A    between atoms: C1'_4  and  C1_5 
ROOT
ATOM      1  C1  N4B d   1       0.212  -0.310   0.431  0.00  0.00    -0.075 A 
ATOM      2  C2  N4B d   1      -0.291  -1.189   1.415  0.00  0.00     0.002 A 
ATOM      3  C3  N4B d   1       0.497  -2.207   1.893  0.00  0.00     0.002 A 
ATOM      4  C4  N4B d   1       1.779  -2.376   1.390  0.00  0.00    -0.004 A 
ATOM      5  C5  N4B d   1       2.266  -1.507   0.458  0.00  0.00     0.002 A 
ATOM      6  C6  N4B d   1       1.487  -0.477  -0.028  0.00  0.00     0.002 A 
ENDROOT
BRANCH   1   7
ATOM      7  C1' N4B d   1      -0.641   0.766  -0.184  0.00  0.00     0.057 C 
BRANCH   7   8
ATOM      8  C2' N4B d   1      -1.275   0.231  -1.465  0.00  0.00     0.009 C 
BRANCH   8   9
ATOM      9  C3' N4B d   1      -2.134   1.277  -2.154  0.00  0.00     0.004 C 
ATOM     10  C4' N4B d   1      -2.980   0.703  -3.251  0.00  0.00     0.003 C 
ENDBRANCH   8   9
ENDBRANCH   7   8
ENDBRANCH   1   7
TORSDOF 3
ENDMDL
