MODEL 1
REMARK minimizedAffinity -5.28994226
REMARK minimizedRMSD -1
REMARK  3 active torsions:
REMARK  status: ('A' for Active; 'I' for Inactive)
REMARK    1  A    between atoms: C3'_2  and  C2'_3 
REMARK    2  A    between atoms: C2'_3  and  C1'_4 
REMARK    3  A    between atoms: C1'_4  and  C1_5 
ROOT
ATOM      1  C1  N4B d   1      -0.671  -0.055   0.993  0.00  0.00    -0.075 A 
ATOM      2  C2  N4B d   1       0.492  -0.217   0.208  0.00  0.00     0.002 A 
ATOM      3  C3  N4B d   1       1.412  -1.182   0.536  0.00  0.00     0.002 A 
ATOM      4  C4  N4B d   1       1.201  -1.981   1.649  0.00  0.00    -0.004 A 
ATOM      5  C5  N4B d   1       0.063  -1.835   2.387  0.00  0.00     0.002 A 
ATOM      6  C6  N4B d   1      -0.873  -0.872   2.067  0.00  0.00     0.002 A 
ENDROOT
BRANCH   1   7
ATOM      7  C1' N4B d   1      -1.664   1.043   0.724  0.00  0.00     0.057 C 
BRANCH   7   8
ATOM      8  C2' N4B d   1      -1.406   1.623  -0.663  0.00  0.00     0.009 C 
BRANCH   8   9
ATOM      9  C3' N4B d   1      -2.661   1.625  -1.520  0.00  0.00     0.004 C 
ATOM     10  C4' N4B d   1      -2.417   2.143  -2.906  0.00  0.00     0.003 C 
ENDBRANCH   8   9
ENDBRANCH   7   8
ENDBRANCH   1   7
TORSDOF 3
ENDMDL
