MODEL 1
REMARK minimizedAffinity -5.16031551
REMARK minimizedRMSD -1
REMARK  3 active torsions:
REMARK  status: ('A' for Active; 'I' for Inactive)
REMARK    1  A    between atoms: C3'_2  and  C2'_3 
REMARK    2  A    between atoms: C2'_3  and  C1'_4 
REMARK    3  A    between atoms: C1'_4  and  C1_5 
ROOT
ATOM      1  C1  N4B d   1       0.510  -0.734   0.335  0.00  0.00    -0.075 A 
ATOM      2  C2  N4B d   1       1.601  -1.627   0.246  0.00  0.00     0.002 A 
ATOM      3  C3  N4B d   1       1.744  -2.630   1.173  0.00  0.00     0.002 A 
ATOM      4  C4  N4B d   1       0.824  -2.748   2.204  0.00  0.00    -0.004 A 
ATOM      5  C5  N4B d   1      -0.241  -1.897   2.268  0.00  0.00     0.002 A 
ATOM      6  C6  N4B d   1      -0.399  -0.887   1.341  0.00  0.00     0.002 A 
ENDROOT
BRANCH   1   7
ATOM      7  C1' N4B d   1       0.359   0.431  -0.605  0.00  0.00     0.057 C 
BRANCH   7   8
ATOM      8  C2' N4B d   1      -0.852   1.259  -0.186  0.00  0.00     0.009 C 
BRANCH   8   9
ATOM      9  C3' N4B d   1      -1.240   2.275  -1.246  0.00  0.00     0.004 C 
ATOM     10  C4' N4B d   1      -2.023   1.671  -2.372  0.00  0.00     0.003 C 
ENDBRANCH   8   9
ENDBRANCH   7   8
ENDBRANCH   1   7
TORSDOF 3
ENDMDL
