MODEL 1
REMARK minimizedAffinity -5.5066433
REMARK minimizedRMSD -1
REMARK  3 active torsions:
REMARK  status: ('A' for Active; 'I' for Inactive)
REMARK    1  A    between atoms: C3'_2  and  C2'_3 
REMARK    2  A    between atoms: C2'_3  and  C1'_4 
REMARK    3  A    between atoms: C1'_4  and  C1_5 
ROOT
ATOM      1  C1  N4B d   1       0.018  -0.372   0.488  0.00  0.00    -0.075 A 
ATOM      2  C2  N4B d   1       1.215  -1.118   0.546  0.00  0.00     0.002 A 
ATOM      3  C3  N4B d   1       1.263  -2.285   1.268  0.00  0.00     0.002 A 
ATOM      4  C4  N4B d   1       0.136  -2.714   1.954  0.00  0.00    -0.004 A 
ATOM      5  C5  N4B d   1      -1.024  -2.000   1.873  0.00  0.00     0.002 A 
ATOM      6  C6  N4B d   1      -1.087  -0.828   1.147  0.00  0.00     0.002 A 
ENDROOT
BRANCH   1   7
ATOM      7  C1' N4B d   1      -0.058   0.954  -0.218  0.00  0.00     0.057 C 
BRANCH   7   8
ATOM      8  C2' N4B d   1      -1.393   1.056  -0.950  0.00  0.00     0.009 C 
BRANCH   8   9
ATOM      9  C3' N4B d   1      -1.288   1.896  -2.211  0.00  0.00     0.004 C 
ATOM     10  C4' N4B d   1      -2.549   1.886  -3.023  0.00  0.00     0.003 C 
ENDBRANCH   8   9
ENDBRANCH   7   8
ENDBRANCH   1   7
TORSDOF 3
ENDMDL
