MODEL 1
REMARK minimizedAffinity -6.58014584
REMARK minimizedRMSD -1
REMARK  3 active torsions:
REMARK  status: ('A' for Active; 'I' for Inactive)
REMARK    1  A    between atoms: C3'_2  and  C2'_3 
REMARK    2  A    between atoms: C2'_3  and  C1'_4 
REMARK    3  A    between atoms: C1'_4  and  C1_5 
ROOT
ATOM      1  C1  N4B d   1       0.467  -0.505   0.181  0.00  0.00    -0.075 A 
ATOM      2  C2  N4B d   1      -0.530  -1.128   0.965  0.00  0.00     0.002 A 
ATOM      3  C3  N4B d   1      -0.197  -2.165   1.801  0.00  0.00     0.002 A 
ATOM      4  C4  N4B d   1       1.116  -2.608   1.856  0.00  0.00    -0.004 A 
ATOM      5  C5  N4B d   1       2.077  -1.985   1.115  0.00  0.00     0.002 A 
ATOM      6  C6  N4B d   1       1.758  -0.939   0.273  0.00  0.00     0.002 A 
ENDROOT
BRANCH   1   7
ATOM      7  C1' N4B d   1       0.137   0.576  -0.811  0.00  0.00     0.057 C 
BRANCH   7   8
ATOM      8  C2' N4B d   1      -1.372   0.798  -0.827  0.00  0.00     0.009 C 
BRANCH   8   9
ATOM      9  C3' N4B d   1      -1.838   1.444  -2.120  0.00  0.00     0.004 C 
ATOM     10  C4' N4B d   1      -3.107   0.842  -2.645  0.00  0.00     0.003 C 
ENDBRANCH   8   9
ENDBRANCH   7   8
ENDBRANCH   1   7
TORSDOF 3
ENDMDL
