MODEL 1
REMARK minimizedAffinity -5.84564924
REMARK minimizedRMSD -1
REMARK  3 active torsions:
REMARK  status: ('A' for Active; 'I' for Inactive)
REMARK    1  A    between atoms: C3'_2  and  C2'_3 
REMARK    2  A    between atoms: C2'_3  and  C1'_4 
REMARK    3  A    between atoms: C1'_4  and  C1_5 
ROOT
ATOM      1  C1  N4B d   1      -0.335  -0.390   1.113  0.00  0.00    -0.075 A 
ATOM      2  C2  N4B d   1       0.709  -1.047   0.426  0.00  0.00     0.002 A 
ATOM      3  C3  N4B d   1       1.379  -2.084   1.026  0.00  0.00     0.002 A 
ATOM      4  C4  N4B d   1       1.038  -2.468   2.314  0.00  0.00    -0.004 A 
ATOM      5  C5  N4B d   1       0.012  -1.845   2.961  0.00  0.00     0.002 A 
ATOM      6  C6  N4B d   1      -0.674  -0.803   2.369  0.00  0.00     0.002 A 
ENDROOT
BRANCH   1   7
ATOM      7  C1' N4B d   1      -1.040   0.805   0.532  0.00  0.00     0.057 C 
BRANCH   7   8
ATOM      8  C2' N4B d   1      -0.393   1.169  -0.801  0.00  0.00     0.009 C 
BRANCH   8   9
ATOM      9  C3' N4B d   1      -1.155   2.268  -1.522  0.00  0.00     0.004 C 
ATOM     10  C4' N4B d   1      -1.838   1.781  -2.765  0.00  0.00     0.003 C 
ENDBRANCH   8   9
ENDBRANCH   7   8
ENDBRANCH   1   7
TORSDOF 3
ENDMDL
