MODEL 1
REMARK minimizedAffinity -5.32250738
REMARK minimizedRMSD -1
REMARK  3 active torsions:
REMARK  status: ('A' for Active; 'I' for Inactive)
REMARK    1  A    between atoms: C3'_2  and  C2'_3 
REMARK    2  A    between atoms: C2'_3  and  C1'_4 
REMARK    3  A    between atoms: C1'_4  and  C1_5 
ROOT
ATOM      1  C1  N4B d   1       0.541  -0.442   0.493  0.00  0.00    -0.075 A 
ATOM      2  C2  N4B d   1       1.677  -1.280   0.466  0.00  0.00     0.002 A 
ATOM      3  C3  N4B d   1       1.725  -2.399   1.261  0.00  0.00     0.002 A 
ATOM      4  C4  N4B d   1       0.661  -2.687   2.103  0.00  0.00    -0.004 A 
ATOM      5  C5  N4B d   1      -0.444  -1.886   2.105  0.00  0.00     0.002 A 
ATOM      6  C6  N4B d   1      -0.507  -0.761   1.307  0.00  0.00     0.002 A 
ENDROOT
BRANCH   1   7
ATOM      7  C1' N4B d   1       0.479   0.838  -0.295  0.00  0.00     0.057 C 
BRANCH   7   8
ATOM      8  C2' N4B d   1      -0.974   1.290  -0.403  0.00  0.00     0.009 C 
BRANCH   8   9
ATOM      9  C3' N4B d   1      -1.232   2.072  -1.679  0.00  0.00     0.004 C 
ATOM     10  C4' N4B d   1      -2.392   1.536  -2.464  0.00  0.00     0.003 C 
ENDBRANCH   8   9
ENDBRANCH   7   8
ENDBRANCH   1   7
TORSDOF 3
ENDMDL
