MODEL 1
REMARK minimizedAffinity -4.76863098
REMARK minimizedRMSD -1
REMARK  3 active torsions:
REMARK  status: ('A' for Active; 'I' for Inactive)
REMARK    1  A    between atoms: C3'_2  and  C2'_3 
REMARK    2  A    between atoms: C2'_3  and  C1'_4 
REMARK    3  A    between atoms: C1'_4  and  C1_5 
ROOT
ATOM      1  C1  N4B d   1       0.291  -0.542   0.095  0.00  0.00    -0.075 A 
ATOM      2  C2  N4B d   1      -0.085  -0.483   1.455  0.00  0.00     0.002 A 
ATOM      3  C3  N4B d   1       0.013  -1.603   2.244  0.00  0.00     0.002 A 
ATOM      4  C4  N4B d   1       0.465  -2.792   1.693  0.00  0.00    -0.004 A 
ATOM      5  C5  N4B d   1       0.851  -2.835   0.385  0.00  0.00     0.002 A 
ATOM      6  C6  N4B d   1       0.761  -1.716  -0.419  0.00  0.00     0.002 A 
ENDROOT
BRANCH   1   7
ATOM      7  C1' N4B d   1       0.120   0.633  -0.829  0.00  0.00     0.057 C 
BRANCH   7   8
ATOM      8  C2' N4B d   1      -0.805   0.238  -1.976  0.00  0.00     0.009 C 
BRANCH   8   9
ATOM      9  C3' N4B d   1      -1.713   1.382  -2.393  0.00  0.00     0.004 C 
ATOM     10  C4' N4B d   1      -2.895   0.923  -3.194  0.00  0.00     0.003 C 
ENDBRANCH   8   9
ENDBRANCH   7   8
ENDBRANCH   1   7
TORSDOF 3
ENDMDL
