MODEL 1
REMARK minimizedAffinity -5.04014826
REMARK minimizedRMSD -1
REMARK  3 active torsions:
REMARK  status: ('A' for Active; 'I' for Inactive)
REMARK    1  A    between atoms: C3'_2  and  C2'_3 
REMARK    2  A    between atoms: C2'_3  and  C1'_4 
REMARK    3  A    between atoms: C1'_4  and  C1_5 
ROOT
ATOM      1  C1  N4B d   1       0.033  -0.076   0.806  0.00  0.00    -0.075 A 
ATOM      2  C2  N4B d   1       1.273  -0.294   0.165  0.00  0.00     0.002 A 
ATOM      3  C3  N4B d   1       2.091  -1.315   0.583  0.00  0.00     0.002 A 
ATOM      4  C4  N4B d   1       1.700  -2.116   1.646  0.00  0.00    -0.004 A 
ATOM      5  C5  N4B d   1       0.490  -1.914   2.243  0.00  0.00     0.002 A 
ATOM      6  C6  N4B d   1      -0.344  -0.894   1.831  0.00  0.00     0.002 A 
ENDROOT
BRANCH   1   7
ATOM      7  C1' N4B d   1      -0.856   1.082   0.441  0.00  0.00     0.057 C 
BRANCH   7   8
ATOM      8  C2' N4B d   1      -0.663   1.415  -1.036  0.00  0.00     0.009 C 
BRANCH   8   9
ATOM      9  C3' N4B d   1      -1.986   1.486  -1.779  0.00  0.00     0.004 C 
ATOM     10  C4' N4B d   1      -1.820   1.837  -3.228  0.00  0.00     0.003 C 
ENDBRANCH   8   9
ENDBRANCH   7   8
ENDBRANCH   1   7
TORSDOF 3
ENDMDL
