MODEL 1
REMARK minimizedAffinity -0.79442513
REMARK minimizedRMSD -1
REMARK  1 active torsions:
REMARK  status: ('A' for Active; 'I' for Inactive)
REMARK    1  A    between atoms: C1_2  and  C2_3 
ROOT
ATOM      1  C2  UNL d   1      -0.918  -1.584  -0.592  0.00  0.00    -0.073 A 
ATOM      2  C3  UNL d   1       0.428  -1.609  -0.974  0.00  0.00    -0.002 A 
ATOM      3  C4  UNL d   1       1.331  -0.692  -0.433  0.00  0.00     0.004 A 
ATOM      4  C5  UNL d   1       0.900   0.251   0.499  0.00  0.00    -0.004 A 
ATOM      5  C6  UNL d   1      -0.439   0.284   0.903  0.00  0.00    -0.075 A 
ATOM      6  C7  UNL d   1      -0.919   1.294   1.903  0.00  0.00     0.076 C 
ATOM      7  C8  UNL d   1      -1.340  -0.638   0.353  0.00  0.00     0.001 A 
ENDROOT
BRANCH   1   8
ATOM      8  C1  UNL d   1      -1.896  -2.576  -1.168  0.00  0.00     0.053 C 
ATOM      9  C   UNL d   1      -2.755  -1.959  -2.260  0.00  0.00     0.018 C 
ENDBRANCH   1   8
TORSDOF 1
ENDMDL
