MODEL 1
REMARK minimizedAffinity -2.82369733
REMARK minimizedRMSD -1
REMARK  1 active torsions:
REMARK  status: ('A' for Active; 'I' for Inactive)
REMARK    1  A    between atoms: C1_2  and  C2_3 
ROOT
ATOM      1  C2  UNL d   1       2.871   1.429   1.754  0.00  0.00    -0.073 A 
ATOM      2  C3  UNL d   1       2.233   2.115   2.794  0.00  0.00    -0.002 A 
ATOM      3  C4  UNL d   1       0.840   2.126   2.881  0.00  0.00     0.004 A 
ATOM      4  C5  UNL d   1       0.073   1.447   1.935  0.00  0.00    -0.004 A 
ATOM      5  C6  UNL d   1       0.692   0.746   0.896  0.00  0.00    -0.075 A 
ATOM      6  C7  UNL d   1      -0.119   0.012  -0.131  0.00  0.00     0.076 C 
ATOM      7  C8  UNL d   1       2.091   0.742   0.814  0.00  0.00     0.001 A 
ENDROOT
BRANCH   1   8
ATOM      8  C1  UNL d   1       4.375   1.409   1.660  0.00  0.00     0.053 C 
ATOM      9  C   UNL d   1       5.027   2.193   2.788  0.00  0.00     0.018 C 
ENDBRANCH   1   8
TORSDOF 1
ENDMDL
