MODEL 1
REMARK minimizedAffinity 3.93540978
REMARK minimizedRMSD -1
REMARK  1 active torsions:
REMARK  status: ('A' for Active; 'I' for Inactive)
REMARK    1  A    between atoms: C1_2  and  C2_3 
ROOT
ATOM      1  C2  UNL d   1       1.021   0.883   0.577  0.00  0.00    -0.073 A 
ATOM      2  C3  UNL d   1       1.635   1.215   1.790  0.00  0.00    -0.002 A 
ATOM      3  C4  UNL d   1       0.869   1.386   2.944  0.00  0.00     0.004 A 
ATOM      4  C5  UNL d   1      -0.515   1.220   2.899  0.00  0.00    -0.004 A 
ATOM      5  C6  UNL d   1      -1.145   0.877   1.699  0.00  0.00    -0.075 A 
ATOM      6  C7  UNL d   1      -2.634   0.697   1.633  0.00  0.00     0.076 C 
ATOM      7  C8  UNL d   1      -0.370   0.710   0.544  0.00  0.00     0.001 A 
ENDROOT
BRANCH   1   8
ATOM      8  C1  UNL d   1       1.845   0.692  -0.670  0.00  0.00     0.053 C 
ATOM      9  C   UNL d   1       1.794  -0.743  -1.172  0.00  0.00     0.018 C 
ENDBRANCH   1   8
TORSDOF 1
ENDMDL
