MODEL 1
REMARK minimizedAffinity 2.41930795
REMARK minimizedRMSD -1
REMARK  1 active torsions:
REMARK  status: ('A' for Active; 'I' for Inactive)
REMARK    1  A    between atoms: C1_2  and  C2_3 
ROOT
ATOM      1  C2  UNL d   1      -0.280   2.844   1.142  0.00  0.00    -0.073 A 
ATOM      2  C3  UNL d   1       0.923   2.314   1.620  0.00  0.00    -0.002 A 
ATOM      3  C4  UNL d   1       0.914   1.281   2.559  0.00  0.00     0.004 A 
ATOM      4  C5  UNL d   1      -0.295   0.764   3.023  0.00  0.00    -0.004 A 
ATOM      5  C6  UNL d   1      -1.508   1.273   2.547  0.00  0.00    -0.075 A 
ATOM      6  C7  UNL d   1      -2.818   0.730   3.038  0.00  0.00     0.076 C 
ATOM      7  C8  UNL d   1      -1.491   2.312   1.607  0.00  0.00     0.001 A 
ENDROOT
BRANCH   1   8
ATOM      8  C1  UNL d   1      -0.275   3.955   0.123  0.00  0.00     0.053 C 
ATOM      9  C   UNL d   1      -1.399   3.804  -0.890  0.00  0.00     0.018 C 
ENDBRANCH   1   8
TORSDOF 1
ENDMDL
