MODEL 1
REMARK minimizedAffinity 13.9341002
REMARK minimizedRMSD -1
REMARK  1 active torsions:
REMARK  status: ('A' for Active; 'I' for Inactive)
REMARK    1  A    between atoms: C1_2  and  C2_3 
ROOT
ATOM      1  C2  UNL d   1      -2.019   2.919   0.730  0.00  0.00    -0.073 A 
ATOM      2  C3  UNL d   1      -2.812   1.981   1.399  0.00  0.00    -0.002 A 
ATOM      3  C4  UNL d   1      -2.256   1.160   2.381  0.00  0.00     0.004 A 
ATOM      4  C5  UNL d   1      -0.905   1.272   2.708  0.00  0.00    -0.004 A 
ATOM      5  C6  UNL d   1      -0.098   2.212   2.058  0.00  0.00    -0.075 A 
ATOM      6  C7  UNL d   1       1.358   2.344   2.396  0.00  0.00     0.076 C 
ATOM      7  C8  UNL d   1      -0.663   3.031   1.071  0.00  0.00     0.001 A 
ENDROOT
BRANCH   1   8
ATOM      8  C1  UNL d   1      -2.616   3.813  -0.327  0.00  0.00     0.053 C 
ATOM      9  C   UNL d   1      -1.584   4.248  -1.355  0.00  0.00     0.018 C 
ENDBRANCH   1   8
TORSDOF 1
ENDMDL
