MODEL 1
REMARK minimizedAffinity 1.16397905
REMARK minimizedRMSD -1
REMARK  1 active torsions:
REMARK  status: ('A' for Active; 'I' for Inactive)
REMARK    1  A    between atoms: C1_2  and  C2_3 
ROOT
ATOM      1  C2  UNL d   1       0.829   0.484   1.442  0.00  0.00    -0.073 A 
ATOM      2  C3  UNL d   1       2.031   1.132   1.747  0.00  0.00    -0.002 A 
ATOM      3  C4  UNL d   1       3.159   0.936   0.949  0.00  0.00     0.004 A 
ATOM      4  C5  UNL d   1       3.096   0.097  -0.163  0.00  0.00    -0.004 A 
ATOM      5  C6  UNL d   1       1.900  -0.551  -0.490  0.00  0.00    -0.075 A 
ATOM      6  C7  UNL d   1       1.816  -1.459  -1.682  0.00  0.00     0.076 C 
ATOM      7  C8  UNL d   1       0.772  -0.351   0.317  0.00  0.00     0.001 A 
ENDROOT
BRANCH   1   8
ATOM      8  C1  UNL d   1      -0.394   0.697   2.297  0.00  0.00     0.053 C 
ATOM      9  C   UNL d   1      -0.822   2.156   2.324  0.00  0.00     0.018 C 
ENDBRANCH   1   8
TORSDOF 1
ENDMDL
