MODEL 1
REMARK minimizedAffinity 8.73175812
REMARK minimizedRMSD -1
REMARK  1 active torsions:
REMARK  status: ('A' for Active; 'I' for Inactive)
REMARK    1  A    between atoms: C1_2  and  C2_3 
ROOT
ATOM      1  C2  UNL d   1       1.315   1.143   1.382  0.00  0.00    -0.073 A 
ATOM      2  C3  UNL d   1       2.531   1.836   1.411  0.00  0.00    -0.002 A 
ATOM      3  C4  UNL d   1       3.568   1.474   0.551  0.00  0.00     0.004 A 
ATOM      4  C5  UNL d   1       3.400   0.423  -0.350  0.00  0.00    -0.004 A 
ATOM      5  C6  UNL d   1       2.188  -0.274  -0.402  0.00  0.00    -0.075 A 
ATOM      6  C7  UNL d   1       1.991  -1.408  -1.364  0.00  0.00     0.076 C 
ATOM      7  C8  UNL d   1       1.151   0.093   0.466  0.00  0.00     0.001 A 
ENDROOT
BRANCH   1   8
ATOM      8  C1  UNL d   1       0.189   1.534   2.304  0.00  0.00     0.053 C 
ATOM      9  C   UNL d   1      -0.684   2.626   1.706  0.00  0.00     0.018 C 
ENDBRANCH   1   8
TORSDOF 1
ENDMDL
