MODEL 1
REMARK minimizedAffinity 6.11756945
REMARK minimizedRMSD -1
REMARK  1 active torsions:
REMARK  status: ('A' for Active; 'I' for Inactive)
REMARK    1  A    between atoms: C1_2  and  C2_3 
ROOT
ATOM      1  C2  UNL d   1       1.388   0.483   0.551  0.00  0.00    -0.073 A 
ATOM      2  C3  UNL d   1       0.572  -0.549   1.029  0.00  0.00    -0.002 A 
ATOM      3  C4  UNL d   1      -0.402  -0.288   1.994  0.00  0.00     0.004 A 
ATOM      4  C5  UNL d   1      -0.575   1.006   2.484  0.00  0.00    -0.004 A 
ATOM      5  C6  UNL d   1       0.223   2.053   2.010  0.00  0.00    -0.075 A 
ATOM      6  C7  UNL d   1       0.051   3.450   2.529  0.00  0.00     0.076 C 
ATOM      7  C8  UNL d   1       1.200   1.782   1.043  0.00  0.00     0.001 A 
ENDROOT
BRANCH   1   8
ATOM      8  C1  UNL d   1       2.436   0.207  -0.496  0.00  0.00     0.053 C 
ATOM      9  C   UNL d   1       2.130  -1.052  -1.292  0.00  0.00     0.018 C 
ENDBRANCH   1   8
TORSDOF 1
ENDMDL
