MODEL 1
REMARK minimizedAffinity 3.3750093
REMARK minimizedRMSD -1
REMARK  1 active torsions:
REMARK  status: ('A' for Active; 'I' for Inactive)
REMARK    1  A    between atoms: C1_2  and  C2_3 
ROOT
ATOM      1  C2  UNL d   1      -4.022   3.691   2.242  0.00  0.00    -0.073 A 
ATOM      2  C3  UNL d   1      -4.455   4.291   3.430  0.00  0.00    -0.002 A 
ATOM      3  C4  UNL d   1      -5.243   5.442   3.392  0.00  0.00     0.004 A 
ATOM      4  C5  UNL d   1      -5.612   6.000   2.168  0.00  0.00    -0.004 A 
ATOM      5  C6  UNL d   1      -5.199   5.408   0.970  0.00  0.00    -0.075 A 
ATOM      6  C7  UNL d   1      -5.586   5.998  -0.354  0.00  0.00     0.076 C 
ATOM      7  C8  UNL d   1      -4.405   4.255   1.017  0.00  0.00     0.001 A 
ENDROOT
BRANCH   1   8
ATOM      8  C1  UNL d   1      -3.175   2.445   2.278  0.00  0.00     0.053 C 
ATOM      9  C   UNL d   1      -1.907   2.594   1.453  0.00  0.00     0.018 C 
ENDBRANCH   1   8
TORSDOF 1
ENDMDL
