MODEL 1
REMARK minimizedAffinity 0.407129049
REMARK minimizedRMSD -1
REMARK  1 active torsions:
REMARK  status: ('A' for Active; 'I' for Inactive)
REMARK    1  A    between atoms: C1_2  and  C2_3 
ROOT
ATOM      1  C2  UNL d   1       0.846   0.656   0.188  0.00  0.00    -0.073 A 
ATOM      2  C3  UNL d   1       1.623   1.792   0.443  0.00  0.00    -0.002 A 
ATOM      3  C4  UNL d   1       1.077   2.881   1.124  0.00  0.00     0.004 A 
ATOM      4  C5  UNL d   1      -0.247   2.844   1.561  0.00  0.00    -0.004 A 
ATOM      5  C6  UNL d   1      -1.036   1.713   1.326  0.00  0.00    -0.075 A 
ATOM      6  C7  UNL d   1      -2.462   1.658   1.788  0.00  0.00     0.076 C 
ATOM      7  C8  UNL d   1      -0.481   0.625   0.640  0.00  0.00     0.001 A 
ENDROOT
BRANCH   1   8
ATOM      8  C1  UNL d   1       1.433  -0.525  -0.540  0.00  0.00     0.053 C 
ATOM      9  C   UNL d   1       0.468  -1.699  -0.592  0.00  0.00     0.018 C 
ENDBRANCH   1   8
TORSDOF 1
ENDMDL
