MODEL 1
REMARK minimizedAffinity -2.52483153
REMARK minimizedRMSD -1
REMARK  1 active torsions:
REMARK  status: ('A' for Active; 'I' for Inactive)
REMARK    1  A    between atoms: C1_2  and  C2_3 
ROOT
ATOM      1  C2  UNL d   1       0.184  -0.161   0.752  0.00  0.00    -0.073 A 
ATOM      2  C3  UNL d   1       1.171   0.725   1.197  0.00  0.00    -0.002 A 
ATOM      3  C4  UNL d   1       0.833   1.807   2.010  0.00  0.00     0.004 A 
ATOM      4  C5  UNL d   1      -0.493   2.010   2.393  0.00  0.00    -0.004 A 
ATOM      5  C6  UNL d   1      -1.492   1.128   1.969  0.00  0.00    -0.075 A 
ATOM      6  C7  UNL d   1      -2.924   1.334   2.370  0.00  0.00     0.076 C 
ATOM      7  C8  UNL d   1      -1.145   0.045   1.150  0.00  0.00     0.001 A 
ENDROOT
BRANCH   1   8
ATOM      8  C1  UNL d   1       0.545  -1.335  -0.121  0.00  0.00     0.053 C 
ATOM      9  C   UNL d   1       1.845  -1.105  -0.876  0.00  0.00     0.018 C 
ENDBRANCH   1   8
TORSDOF 1
ENDMDL
