MODEL 1
REMARK minimizedAffinity -5.36424828
REMARK minimizedRMSD -1
REMARK  1 active torsions:
REMARK  status: ('A' for Active; 'I' for Inactive)
REMARK    1  A    between atoms: C1_2  and  C2_3 
ROOT
ATOM      1  C2  UNL d   1       0.630  -0.519   0.133  0.00  0.00    -0.076 A 
ATOM      2  C3  UNL d   1      -0.237  -0.127   1.167  0.00  0.00     0.004 A 
ATOM      3  C4  UNL d   1       0.006  -0.500   2.488  0.00  0.00    -0.003 A 
ATOM      4  C5  UNL d   1       1.121  -1.272   2.796  0.00  0.00     0.000 A 
ATOM      5  C6  UNL d   1       2.002  -1.655   1.785  0.00  0.00     0.000 A 
ATOM      6  C7  UNL d   1       1.780  -1.273   0.451  0.00  0.00    -0.073 A 
ATOM      7  C8  UNL d   1       2.759  -1.720  -0.600  0.00  0.00     0.078 C 
ENDROOT
BRANCH   1   8
ATOM      8  C1  UNL d   1       0.301  -0.107  -1.284  0.00  0.00     0.053 C 
ATOM      9  C   UNL d   1      -0.258   1.305  -1.365  0.00  0.00     0.018 C 
ENDBRANCH   1   8
TORSDOF 1
ENDMDL
