MODEL 1
REMARK minimizedAffinity -3.22916245
REMARK minimizedRMSD -1
REMARK  1 active torsions:
REMARK  status: ('A' for Active; 'I' for Inactive)
REMARK    1  A    between atoms: C1_2  and  C2_3 
ROOT
ATOM      1  C2  UNL d   1       0.262  -0.363   1.479  0.00  0.00    -0.076 A 
ATOM      2  C3  UNL d   1       1.287  -0.394   0.517  0.00  0.00     0.004 A 
ATOM      3  C4  UNL d   1       1.020  -0.128  -0.825  0.00  0.00    -0.003 A 
ATOM      4  C5  UNL d   1      -0.276   0.174  -1.227  0.00  0.00     0.000 A 
ATOM      5  C6  UNL d   1      -1.302   0.226  -0.284  0.00  0.00     0.000 A 
ATOM      6  C7  UNL d   1      -1.047  -0.023   1.075  0.00  0.00    -0.073 A 
ATOM      7  C8  UNL d   1      -2.193   0.042   2.048  0.00  0.00     0.078 C 
ENDROOT
BRANCH   1   8
ATOM      8  C1  UNL d   1       0.606  -0.686   2.915  0.00  0.00     0.053 C 
ATOM      9  C   UNL d   1       1.901  -0.029   3.366  0.00  0.00     0.018 C 
ENDBRANCH   1   8
TORSDOF 1
ENDMDL
