MODEL 1
REMARK minimizedAffinity -5.60525274
REMARK minimizedRMSD -1
REMARK  1 active torsions:
REMARK  status: ('A' for Active; 'I' for Inactive)
REMARK    1  A    between atoms: C1_2  and  C2_3 
ROOT
ATOM      1  C2  UNL d   1       0.110  -0.348   0.360  0.00  0.00    -0.076 A 
ATOM      2  C3  UNL d   1       1.488  -0.526   0.580  0.00  0.00     0.004 A 
ATOM      3  C4  UNL d   1       1.980  -0.812   1.852  0.00  0.00    -0.003 A 
ATOM      4  C5  UNL d   1       1.103  -0.926   2.925  0.00  0.00     0.000 A 
ATOM      5  C6  UNL d   1      -0.267  -0.770   2.722  0.00  0.00     0.000 A 
ATOM      6  C7  UNL d   1      -0.782  -0.498   1.443  0.00  0.00    -0.073 A 
ATOM      7  C8  UNL d   1      -2.269  -0.334   1.283  0.00  0.00     0.078 C 
ENDROOT
BRANCH   1   8
ATOM      8  C1  UNL d   1      -0.363  -0.013  -1.036  0.00  0.00     0.053 C 
ATOM      9  C   UNL d   1       0.024   1.396  -1.460  0.00  0.00     0.018 C 
ENDBRANCH   1   8
TORSDOF 1
ENDMDL
