MODEL 1
REMARK minimizedAffinity -5.75688219
REMARK minimizedRMSD -1
REMARK  1 active torsions:
REMARK  status: ('A' for Active; 'I' for Inactive)
REMARK    1  A    between atoms: C1_2  and  C2_3 
ROOT
ATOM      1  C2  UNL d   1      -0.389   0.019   0.261  0.00  0.00    -0.076 A 
ATOM      2  C3  UNL d   1       1.004   0.046   0.452  0.00  0.00     0.004 A 
ATOM      3  C4  UNL d   1       1.568  -0.334   1.668  0.00  0.00    -0.003 A 
ATOM      4  C5  UNL d   1       0.750  -0.749   2.713  0.00  0.00     0.000 A 
ATOM      5  C6  UNL d   1      -0.632  -0.799   2.535  0.00  0.00     0.000 A 
ATOM      6  C7  UNL d   1      -1.217  -0.435   1.310  0.00  0.00    -0.073 A 
ATOM      7  C8  UNL d   1      -2.713  -0.503   1.176  0.00  0.00     0.078 C 
ENDROOT
BRANCH   1   8
ATOM      8  C1  UNL d   1      -0.946   0.468  -1.071  0.00  0.00     0.053 C 
ATOM      9  C   UNL d   1      -0.118   1.575  -1.705  0.00  0.00     0.018 C 
ENDBRANCH   1   8
TORSDOF 1
ENDMDL
