MODEL 1
REMARK minimizedAffinity -2.72851968
REMARK minimizedRMSD -1
REMARK  1 active torsions:
REMARK  status: ('A' for Active; 'I' for Inactive)
REMARK    1  A    between atoms: C1_2  and  C2_3 
ROOT
ATOM      1  C2  UNL d   1      -0.062  -0.427   0.340  0.00  0.00    -0.076 A 
ATOM      2  C3  UNL d   1       1.337  -0.293   0.366  0.00  0.00     0.004 A 
ATOM      3  C4  UNL d   1       2.040  -0.338   1.568  0.00  0.00    -0.003 A 
ATOM      4  C5  UNL d   1       1.355  -0.517   2.765  0.00  0.00     0.000 A 
ATOM      5  C6  UNL d   1      -0.031  -0.669   2.756  0.00  0.00     0.000 A 
ATOM      6  C7  UNL d   1      -0.753  -0.643   1.551  0.00  0.00    -0.073 A 
ATOM      7  C8  UNL d   1      -2.247  -0.806   1.601  0.00  0.00     0.078 C 
ENDROOT
BRANCH   1   8
ATOM      8  C1  UNL d   1      -0.773  -0.343  -0.992  0.00  0.00     0.053 C 
ATOM      9  C   UNL d   1      -0.806   1.072  -1.547  0.00  0.00     0.018 C 
ENDBRANCH   1   8
TORSDOF 1
ENDMDL
