MODEL 1
REMARK minimizedAffinity -3.55258679
REMARK minimizedRMSD -1
REMARK  1 active torsions:
REMARK  status: ('A' for Active; 'I' for Inactive)
REMARK    1  A    between atoms: C1_2  and  C2_3 
ROOT
ATOM      1  C2  UNL d   1      -0.367   0.084  -0.244  0.00  0.00    -0.076 A 
ATOM      2  C3  UNL d   1      -1.477   0.342   0.579  0.00  0.00     0.004 A 
ATOM      3  C4  UNL d   1      -1.466  -0.007   1.928  0.00  0.00    -0.003 A 
ATOM      4  C5  UNL d   1      -0.345  -0.621   2.476  0.00  0.00     0.000 A 
ATOM      5  C6  UNL d   1       0.771  -0.869   1.678  0.00  0.00     0.000 A 
ATOM      6  C7  UNL d   1       0.783  -0.508   0.320  0.00  0.00    -0.073 A 
ATOM      7  C8  UNL d   1       2.011  -0.805  -0.495  0.00  0.00     0.078 C 
ENDROOT
BRANCH   1   8
ATOM      8  C1  UNL d   1      -0.447   0.461  -1.707  0.00  0.00     0.053 C 
ATOM      9  C   UNL d   1      -0.546   1.964  -1.916  0.00  0.00     0.018 C 
ENDBRANCH   1   8
TORSDOF 1
ENDMDL
