MODEL 1
REMARK minimizedAffinity -3.32697201
REMARK minimizedRMSD -1
REMARK  0 active torsions:
REMARK  status: ('A' for Active; 'I' for Inactive)
ROOT
ATOM      1  C   UNL d   1      -5.053   1.944  -5.586  0.00  0.00     0.077 C 
ATOM      2  C1  UNL d   1      -4.879   3.321  -5.017  0.00  0.00    -0.074 A 
ATOM      3  C2  UNL d   1      -4.229   4.323  -5.745  0.00  0.00    -0.005 A 
ATOM      4  C3  UNL d   1      -4.083   5.601  -5.206  0.00  0.00     0.006 A 
ATOM      5  C4  UNL d   1      -4.584   5.890  -3.936  0.00  0.00    -0.005 A 
ATOM      6  C5  UNL d   1      -5.237   4.901  -3.194  0.00  0.00    -0.074 A 
ATOM      7  C6  UNL d   1      -5.790   5.197  -1.832  0.00  0.00     0.077 C 
ATOM      8  C7  UNL d   1      -5.386   3.621  -3.745  0.00  0.00    -0.001 A 
ENDROOT
TORSDOF 0
ENDMDL
