MODEL 1
REMARK minimizedAffinity -1.69015181
REMARK minimizedRMSD -1
REMARK  0 active torsions:
REMARK  status: ('A' for Active; 'I' for Inactive)
ROOT
ATOM      1  C   UNL d   1      -5.634   5.969  -2.180  0.00  0.00     0.077 C 
ATOM      2  C1  UNL d   1      -5.204   5.421  -3.508  0.00  0.00    -0.074 A 
ATOM      3  C2  UNL d   1      -5.962   4.444  -4.161  0.00  0.00    -0.005 A 
ATOM      4  C3  UNL d   1      -5.555   3.950  -5.401  0.00  0.00     0.006 A 
ATOM      5  C4  UNL d   1      -4.388   4.428  -5.999  0.00  0.00    -0.005 A 
ATOM      6  C5  UNL d   1      -3.618   5.406  -5.361  0.00  0.00    -0.074 A 
ATOM      7  C6  UNL d   1      -2.367   5.938  -5.994  0.00  0.00     0.077 C 
ATOM      8  C7  UNL d   1      -4.037   5.902  -4.119  0.00  0.00    -0.001 A 
ENDROOT
TORSDOF 0
ENDMDL
