MODEL 1
REMARK minimizedAffinity 11.3115673
REMARK minimizedRMSD -1
REMARK  0 active torsions:
REMARK  status: ('A' for Active; 'I' for Inactive)
ROOT
ATOM      1  C   UNL d   1      -1.488  -5.838  -3.967  0.00  0.00     0.077 C 
ATOM      2  C1  UNL d   1      -2.368  -5.424  -2.826  0.00  0.00    -0.074 A 
ATOM      3  C2  UNL d   1      -2.142  -5.906  -1.533  0.00  0.00    -0.005 A 
ATOM      4  C3  UNL d   1      -2.963  -5.505  -0.479  0.00  0.00     0.006 A 
ATOM      5  C4  UNL d   1      -4.017  -4.619  -0.708  0.00  0.00    -0.005 A 
ATOM      6  C5  UNL d   1      -4.258  -4.126  -1.994  0.00  0.00    -0.074 A 
ATOM      7  C6  UNL d   1      -5.380  -3.166  -2.255  0.00  0.00     0.077 C 
ATOM      8  C7  UNL d   1      -3.424  -4.528  -3.046  0.00  0.00    -0.001 A 
ENDROOT
TORSDOF 0
ENDMDL
