MODEL 1
REMARK minimizedAffinity -3.62898397
REMARK minimizedRMSD -1
REMARK  0 active torsions:
REMARK  status: ('A' for Active; 'I' for Inactive)
ROOT
ATOM      1  C   UNL d   1      -5.629   1.876  -0.558  0.00  0.00     0.077 C 
ATOM      2  C1  UNL d   1      -5.388   2.838  -1.683  0.00  0.00    -0.074 A 
ATOM      3  C2  UNL d   1      -6.000   4.096  -1.697  0.00  0.00    -0.005 A 
ATOM      4  C3  UNL d   1      -5.758   4.984  -2.745  0.00  0.00     0.006 A 
ATOM      5  C4  UNL d   1      -4.903   4.625  -3.787  0.00  0.00    -0.005 A 
ATOM      6  C5  UNL d   1      -4.282   3.372  -3.790  0.00  0.00    -0.074 A 
ATOM      7  C6  UNL d   1      -3.353   2.974  -4.898  0.00  0.00     0.077 C 
ATOM      8  C7  UNL d   1      -4.524   2.488  -2.730  0.00  0.00    -0.001 A 
ENDROOT
TORSDOF 0
ENDMDL
