MODEL 1
REMARK minimizedAffinity 8.57439518
REMARK minimizedRMSD -1
REMARK  0 active torsions:
REMARK  status: ('A' for Active; 'I' for Inactive)
ROOT
ATOM      1  C   UNL d   1       5.573   6.000   3.620  0.00  0.00     0.077 C 
ATOM      2  C1  UNL d   1       5.311   5.189   2.385  0.00  0.00    -0.074 A 
ATOM      3  C2  UNL d   1       5.946   5.493   1.177  0.00  0.00    -0.005 A 
ATOM      4  C3  UNL d   1       5.700   4.724   0.040  0.00  0.00     0.006 A 
ATOM      5  C4  UNL d   1       4.817   3.645   0.099  0.00  0.00    -0.005 A 
ATOM      6  C5  UNL d   1       4.173   3.326   1.298  0.00  0.00    -0.074 A 
ATOM      7  C6  UNL d   1       3.228   2.163   1.381  0.00  0.00     0.077 C 
ATOM      8  C7  UNL d   1       4.431   4.099   2.439  0.00  0.00    -0.001 A 
ENDROOT
TORSDOF 0
ENDMDL
