MODEL 1
REMARK minimizedAffinity -2.23729014
REMARK minimizedRMSD -1
REMARK  0 active torsions:
REMARK  status: ('A' for Active; 'I' for Inactive)
ROOT
ATOM      1  C   UNL d   1       6.000   0.008  -3.777  0.00  0.00     0.077 C 
ATOM      2  C1  UNL d   1       4.892   0.927  -4.200  0.00  0.00    -0.074 A 
ATOM      3  C2  UNL d   1       4.788   1.366  -5.523  0.00  0.00    -0.005 A 
ATOM      4  C3  UNL d   1       3.747   2.213  -5.903  0.00  0.00     0.006 A 
ATOM      5  C4  UNL d   1       2.801   2.628  -4.965  0.00  0.00    -0.005 A 
ATOM      6  C5  UNL d   1       2.889   2.199  -3.637  0.00  0.00    -0.074 A 
ATOM      7  C6  UNL d   1       1.875   2.628  -2.619  0.00  0.00     0.077 C 
ATOM      8  C7  UNL d   1       3.934   1.342  -3.265  0.00  0.00    -0.001 A 
ENDROOT
TORSDOF 0
ENDMDL
