MODEL 1
REMARK minimizedAffinity 2.34371185
REMARK minimizedRMSD -1
REMARK  0 active torsions:
REMARK  status: ('A' for Active; 'I' for Inactive)
ROOT
ATOM      1  C   UNL d   1      -2.000  -3.158  -1.417  0.00  0.00     0.077 C 
ATOM      2  C1  UNL d   1      -1.884  -2.190  -0.278  0.00  0.00    -0.074 A 
ATOM      3  C2  UNL d   1      -3.008  -1.819   0.467  0.00  0.00    -0.005 A 
ATOM      4  C3  UNL d   1      -2.883  -0.925   1.530  0.00  0.00     0.006 A 
ATOM      5  C4  UNL d   1      -1.635  -0.393   1.858  0.00  0.00    -0.005 A 
ATOM      6  C5  UNL d   1      -0.500  -0.752   1.124  0.00  0.00    -0.074 A 
ATOM      7  C6  UNL d   1       0.850  -0.198   1.470  0.00  0.00     0.077 C 
ATOM      8  C7  UNL d   1      -0.633  -1.657   0.062  0.00  0.00    -0.001 A 
ENDROOT
TORSDOF 0
ENDMDL
