MODEL 1
REMARK minimizedAffinity 4.77447128
REMARK minimizedRMSD -1
REMARK  0 active torsions:
REMARK  status: ('A' for Active; 'I' for Inactive)
ROOT
ATOM      1  C   UNL d   1      -5.997   3.042   0.821  0.00  0.00     0.077 C 
ATOM      2  C1  UNL d   1      -5.641   3.256  -0.620  0.00  0.00    -0.074 A 
ATOM      3  C2  UNL d   1      -5.007   2.253  -1.360  0.00  0.00    -0.005 A 
ATOM      4  C3  UNL d   1      -4.691   2.462  -2.703  0.00  0.00     0.006 A 
ATOM      5  C4  UNL d   1      -5.005   3.675  -3.317  0.00  0.00    -0.005 A 
ATOM      6  C5  UNL d   1      -5.640   4.689  -2.594  0.00  0.00    -0.074 A 
ATOM      7  C6  UNL d   1      -5.993   5.995  -3.242  0.00  0.00     0.077 C 
ATOM      8  C7  UNL d   1      -5.961   4.468  -1.247  0.00  0.00    -0.001 A 
ENDROOT
TORSDOF 0
ENDMDL
