MODEL 1
REMARK minimizedAffinity 17.5555973
REMARK minimizedRMSD -1
REMARK  0 active torsions:
REMARK  status: ('A' for Active; 'I' for Inactive)
ROOT
ATOM      1  C   UNL d   1      -0.723  -4.168  -2.227  0.00  0.00     0.077 C 
ATOM      2  C1  UNL d   1      -1.712  -4.256  -1.103  0.00  0.00    -0.074 A 
ATOM      3  C2  UNL d   1      -2.983  -4.805  -1.305  0.00  0.00    -0.005 A 
ATOM      4  C3  UNL d   1      -3.889  -4.889  -0.248  0.00  0.00     0.006 A 
ATOM      5  C4  UNL d   1      -3.535  -4.425   1.020  0.00  0.00    -0.005 A 
ATOM      6  C5  UNL d   1      -2.269  -3.874   1.241  0.00  0.00    -0.074 A 
ATOM      7  C6  UNL d   1      -1.868  -3.380   2.599  0.00  0.00     0.077 C 
ATOM      8  C7  UNL d   1      -1.361  -3.800   0.175  0.00  0.00    -0.001 A 
ENDROOT
TORSDOF 0
ENDMDL
