MODEL 1
REMARK minimizedAffinity 9.13802433
REMARK minimizedRMSD -1
REMARK  0 active torsions:
REMARK  status: ('A' for Active; 'I' for Inactive)
ROOT
ATOM      1  C   UNL d   1       5.974   4.462   2.590  0.00  0.00     0.077 C 
ATOM      2  C1  UNL d   1       5.238   4.612   1.292  0.00  0.00    -0.074 A 
ATOM      3  C2  UNL d   1       4.987   5.876   0.749  0.00  0.00    -0.005 A 
ATOM      4  C3  UNL d   1       4.309   5.999  -0.464  0.00  0.00     0.006 A 
ATOM      5  C4  UNL d   1       3.875   4.860  -1.144  0.00  0.00    -0.005 A 
ATOM      6  C5  UNL d   1       4.117   3.588  -0.617  0.00  0.00    -0.074 A 
ATOM      7  C6  UNL d   1       3.666   2.354  -1.341  0.00  0.00     0.077 C 
ATOM      8  C7  UNL d   1       4.805   3.473   0.598  0.00  0.00    -0.001 A 
ENDROOT
TORSDOF 0
ENDMDL
