MODEL 1
REMARK minimizedAffinity 9.85699463
REMARK minimizedRMSD -1
REMARK  0 active torsions:
REMARK  status: ('A' for Active; 'I' for Inactive)
ROOT
ATOM      1  C   UNL d   1      -0.692   1.247  -4.867  0.00  0.00     0.077 C 
ATOM      2  C1  UNL d   1      -0.445   2.697  -5.161  0.00  0.00    -0.074 A 
ATOM      3  C2  UNL d   1       0.763   3.121  -5.723  0.00  0.00    -0.005 A 
ATOM      4  C3  UNL d   1       0.974   4.472  -5.999  0.00  0.00     0.006 A 
ATOM      5  C4  UNL d   1      -0.020   5.410  -5.717  0.00  0.00    -0.005 A 
ATOM      6  C5  UNL d   1      -1.234   5.004  -5.155  0.00  0.00    -0.074 A 
ATOM      7  C6  UNL d   1      -2.316   5.999  -4.854  0.00  0.00     0.077 C 
ATOM      8  C7  UNL d   1      -1.441   3.644  -4.887  0.00  0.00    -0.001 A 
ENDROOT
TORSDOF 0
ENDMDL
