MODEL 1
REMARK minimizedAffinity 14.3944292
REMARK minimizedRMSD -1
REMARK  0 active torsions:
REMARK  status: ('A' for Active; 'I' for Inactive)
ROOT
ATOM      1  C   UNL d   1      -3.025  -0.260   1.885  0.00  0.00     0.077 C 
ATOM      2  C1  UNL d   1      -2.745  -1.692   1.540  0.00  0.00    -0.074 A 
ATOM      3  C2  UNL d   1      -1.721  -2.399   2.179  0.00  0.00    -0.005 A 
ATOM      4  C3  UNL d   1      -1.479  -3.733   1.854  0.00  0.00     0.006 A 
ATOM      5  C4  UNL d   1      -2.256  -4.373   0.887  0.00  0.00    -0.005 A 
ATOM      6  C5  UNL d   1      -3.284  -3.683   0.238  0.00  0.00    -0.074 A 
ATOM      7  C6  UNL d   1      -4.134  -4.358  -0.796  0.00  0.00     0.077 C 
ATOM      8  C7  UNL d   1      -3.526  -2.344   0.575  0.00  0.00    -0.001 A 
ENDROOT
TORSDOF 0
ENDMDL
