MODEL 1
REMARK minimizedAffinity 13.0072069
REMARK minimizedRMSD -1
REMARK  0 active torsions:
REMARK  status: ('A' for Active; 'I' for Inactive)
ROOT
ATOM      1  C   UNL d   1      -1.618  -6.000  -4.137  0.00  0.00     0.077 C 
ATOM      2  C1  UNL d   1      -2.423  -5.223  -3.138  0.00  0.00    -0.074 A 
ATOM      3  C2  UNL d   1      -2.644  -3.852  -3.302  0.00  0.00    -0.005 A 
ATOM      4  C3  UNL d   1      -3.403  -3.145  -2.370  0.00  0.00     0.006 A 
ATOM      5  C4  UNL d   1      -3.949  -3.801  -1.265  0.00  0.00    -0.005 A 
ATOM      6  C5  UNL d   1      -3.739  -5.172  -1.085  0.00  0.00    -0.074 A 
ATOM      7  C6  UNL d   1      -4.326  -5.894   0.091  0.00  0.00     0.077 C 
ATOM      8  C7  UNL d   1      -2.981  -5.877  -2.030  0.00  0.00    -0.001 A 
ENDROOT
TORSDOF 0
ENDMDL
