MODEL 1
REMARK minimizedAffinity -0.477935702
REMARK minimizedRMSD -1
REMARK  0 active torsions:
REMARK  status: ('A' for Active; 'I' for Inactive)
ROOT
ATOM      1  C   UNL d   1      -5.967   5.240  -2.280  0.00  0.00     0.077 C 
ATOM      2  C1  UNL d   1      -5.270   5.499  -3.583  0.00  0.00    -0.074 A 
ATOM      3  C2  UNL d   1      -5.995   5.636  -4.771  0.00  0.00    -0.005 A 
ATOM      4  C3  UNL d   1      -5.334   5.886  -5.973  0.00  0.00     0.006 A 
ATOM      5  C4  UNL d   1      -3.944   6.000  -6.000  0.00  0.00    -0.005 A 
ATOM      6  C5  UNL d   1      -3.202   5.866  -4.822  0.00  0.00    -0.074 A 
ATOM      7  C6  UNL d   1      -1.708   5.996  -4.831  0.00  0.00     0.077 C 
ATOM      8  C7  UNL d   1      -3.874   5.622  -3.616  0.00  0.00    -0.001 A 
ENDROOT
TORSDOF 0
ENDMDL
