MODEL 1
REMARK minimizedAffinity 6.37477541
REMARK minimizedRMSD -1
REMARK  0 active torsions:
REMARK  status: ('A' for Active; 'I' for Inactive)
ROOT
ATOM      1  C   UNL d   1      -3.151  -0.291   2.931  0.00  0.00     0.077 C 
ATOM      2  C1  UNL d   1      -1.882  -0.322   2.132  0.00  0.00    -0.074 A 
ATOM      3  C2  UNL d   1      -1.228  -1.530   1.868  0.00  0.00    -0.005 A 
ATOM      4  C3  UNL d   1      -0.054  -1.545   1.116  0.00  0.00     0.006 A 
ATOM      5  C4  UNL d   1       0.478  -0.354   0.620  0.00  0.00    -0.005 A 
ATOM      6  C5  UNL d   1      -0.163   0.864   0.873  0.00  0.00    -0.074 A 
ATOM      7  C6  UNL d   1       0.390   2.152   0.339  0.00  0.00     0.077 C 
ATOM      8  C7  UNL d   1      -1.346   0.869   1.624  0.00  0.00    -0.001 A 
ENDROOT
TORSDOF 0
ENDMDL
