MODEL 1
REMARK minimizedAffinity 7.44727564
REMARK minimizedRMSD -1
REMARK  0 active torsions:
REMARK  status: ('A' for Active; 'I' for Inactive)
ROOT
ATOM      1  C   UNL d   1       1.214  -0.407  -3.609  0.00  0.00     0.077 C 
ATOM      2  C1  UNL d   1       1.612  -0.841  -2.229  0.00  0.00    -0.074 A 
ATOM      3  C2  UNL d   1       2.628  -1.783  -2.037  0.00  0.00    -0.005 A 
ATOM      4  C3  UNL d   1       2.994  -2.169  -0.748  0.00  0.00     0.006 A 
ATOM      5  C4  UNL d   1       2.349  -1.619   0.360  0.00  0.00    -0.005 A 
ATOM      6  C5  UNL d   1       1.332  -0.675   0.188  0.00  0.00    -0.074 A 
ATOM      7  C6  UNL d   1       0.636  -0.066   1.369  0.00  0.00     0.077 C 
ATOM      8  C7  UNL d   1       0.975  -0.286  -1.110  0.00  0.00    -0.001 A 
ENDROOT
TORSDOF 0
ENDMDL
