MODEL 1
REMARK minimizedAffinity -1.41073275
REMARK minimizedRMSD -1
REMARK  1 active torsions:
REMARK  status: ('A' for Active; 'I' for Inactive)
REMARK    1  A    between atoms: C1_2  and  C2_3 
ROOT
ATOM      1  C2  UNL d   1      -0.539   0.710   1.493  0.00  0.00    -0.076 A 
ATOM      2  C3  UNL d   1      -1.847   0.712   0.977  0.00  0.00     0.004 A 
ATOM      3  C4  UNL d   1      -2.076   0.754  -0.397  0.00  0.00    -0.003 A 
ATOM      4  C5  UNL d   1      -1.001   0.793  -1.278  0.00  0.00     0.000 A 
ATOM      5  C6  UNL d   1       0.303   0.773  -0.784  0.00  0.00     0.000 A 
ATOM      6  C7  UNL d   1       0.552   0.714   0.598  0.00  0.00    -0.073 A 
ATOM      7  C8  UNL d   1       1.978   0.701   1.075  0.00  0.00     0.078 C 
ENDROOT
BRANCH   1   8
ATOM      8  C1  UNL d   1      -0.353   0.691   2.994  0.00  0.00     0.053 C 
ATOM      9  C   UNL d   1      -0.325  -0.720   3.560  0.00  0.00     0.018 C 
ENDBRANCH   1   8
TORSDOF 1
ENDMDL
