MODEL 1
REMARK minimizedAffinity -6.00965929
REMARK minimizedRMSD -1
REMARK  1 active torsions:
REMARK  status: ('A' for Active; 'I' for Inactive)
REMARK    1  A    between atoms: C1_2  and  C2_3 
ROOT
ATOM      1  C2  UNL d   1      -0.011   0.065  -0.016  0.00  0.00    -0.076 A 
ATOM      2  C3  UNL d   1       1.191  -0.212   0.658  0.00  0.00     0.004 A 
ATOM      3  C4  UNL d   1       1.208  -0.426   2.035  0.00  0.00    -0.003 A 
ATOM      4  C5  UNL d   1       0.023  -0.368   2.760  0.00  0.00     0.000 A 
ATOM      5  C6  UNL d   1      -1.181  -0.112   2.105  0.00  0.00     0.000 A 
ATOM      6  C7  UNL d   1      -1.218   0.090   0.715  0.00  0.00    -0.073 A 
ATOM      7  C8  UNL d   1      -2.543   0.368   0.060  0.00  0.00     0.078 C 
ENDROOT
BRANCH   1   8
ATOM      8  C1  UNL d   1       0.036   0.315  -1.507  0.00  0.00     0.053 C 
ATOM      9  C   UNL d   1       0.825  -0.750  -2.252  0.00  0.00     0.018 C 
ENDBRANCH   1   8
TORSDOF 1
ENDMDL
