MODEL 1
REMARK minimizedAffinity -3.85595822
REMARK minimizedRMSD -1
REMARK  1 active torsions:
REMARK  status: ('A' for Active; 'I' for Inactive)
REMARK    1  A    between atoms: C1_2  and  C2_3 
ROOT
ATOM      1  C2  UNL d   1      -0.639  -0.346   0.568  0.00  0.00    -0.076 A 
ATOM      2  C3  UNL d   1       0.601  -0.258  -0.089  0.00  0.00     0.004 A 
ATOM      3  C4  UNL d   1       0.705   0.335  -1.346  0.00  0.00    -0.003 A 
ATOM      4  C5  UNL d   1      -0.428   0.851  -1.966  0.00  0.00     0.000 A 
ATOM      5  C6  UNL d   1      -1.663   0.788  -1.320  0.00  0.00     0.000 A 
ATOM      6  C7  UNL d   1      -1.782   0.208  -0.046  0.00  0.00    -0.073 A 
ATOM      7  C8  UNL d   1      -3.139   0.162   0.602  0.00  0.00     0.078 C 
ENDROOT
BRANCH   1   8
ATOM      8  C1  UNL d   1      -0.695  -1.025   1.918  0.00  0.00     0.053 C 
ATOM      9  C   UNL d   1      -0.302  -0.094   3.055  0.00  0.00     0.018 C 
ENDBRANCH   1   8
TORSDOF 1
ENDMDL
