MODEL 1
REMARK minimizedAffinity -1.18531382
REMARK minimizedRMSD -1
REMARK  1 active torsions:
REMARK  status: ('A' for Active; 'I' for Inactive)
REMARK    1  A    between atoms: C1_2  and  C2_3 
ROOT
ATOM      1  C2  UNL d   1       0.205   0.072   0.214  0.00  0.00    -0.076 A 
ATOM      2  C3  UNL d   1      -0.988  -0.659   0.344  0.00  0.00     0.004 A 
ATOM      3  C4  UNL d   1      -1.475  -1.020   1.599  0.00  0.00    -0.003 A 
ATOM      4  C5  UNL d   1      -0.776  -0.656   2.745  0.00  0.00     0.000 A 
ATOM      5  C6  UNL d   1       0.400   0.085   2.635  0.00  0.00     0.000 A 
ATOM      6  C7  UNL d   1       0.896   0.471   1.378  0.00  0.00    -0.073 A 
ATOM      7  C8  UNL d   1       2.172   1.265   1.318  0.00  0.00     0.078 C 
ENDROOT
BRANCH   1   8
ATOM      8  C1  UNL d   1       0.698   0.412  -1.174  0.00  0.00     0.053 C 
ATOM      9  C   UNL d   1       0.699  -0.792  -2.103  0.00  0.00     0.018 C 
ENDBRANCH   1   8
TORSDOF 1
ENDMDL
