MODEL 1
REMARK minimizedAffinity -3.78032994
REMARK minimizedRMSD -1
REMARK  1 active torsions:
REMARK  status: ('A' for Active; 'I' for Inactive)
REMARK    1  A    between atoms: C1_2  and  C2_3 
ROOT
ATOM      1  C2  UNL d   1       0.125  -0.049  -0.136  0.00  0.00    -0.076 A 
ATOM      2  C3  UNL d   1       1.402  -0.245   0.417  0.00  0.00     0.004 A 
ATOM      3  C4  UNL d   1       1.569  -0.439   1.787  0.00  0.00    -0.003 A 
ATOM      4  C5  UNL d   1       0.461  -0.440   2.627  0.00  0.00     0.000 A 
ATOM      5  C6  UNL d   1      -0.816  -0.265   2.093  0.00  0.00     0.000 A 
ATOM      6  C7  UNL d   1      -1.003  -0.084   0.712  0.00  0.00    -0.073 A 
ATOM      7  C8  UNL d   1      -2.401   0.107   0.191  0.00  0.00     0.078 C 
ENDROOT
BRANCH   1   8
ATOM      8  C1  UNL d   1       0.009   0.184  -1.626  0.00  0.00     0.053 C 
ATOM      9  C   UNL d   1       0.797  -0.832  -2.437  0.00  0.00     0.018 C 
ENDBRANCH   1   8
TORSDOF 1
ENDMDL
