MODEL 1
REMARK minimizedAffinity -1.87177074
REMARK minimizedRMSD -1
REMARK  1 active torsions:
REMARK  status: ('A' for Active; 'I' for Inactive)
REMARK    1  A    between atoms: C1_2  and  C2_3 
ROOT
ATOM      1  C2  UNL d   1       0.239  -0.283   0.071  0.00  0.00    -0.076 A 
ATOM      2  C3  UNL d   1      -1.053  -0.817   0.223  0.00  0.00     0.004 A 
ATOM      3  C4  UNL d   1      -1.625  -0.965   1.485  0.00  0.00    -0.003 A 
ATOM      4  C5  UNL d   1      -0.914  -0.581   2.617  0.00  0.00     0.000 A 
ATOM      5  C6  UNL d   1       0.361  -0.033   2.485  0.00  0.00     0.000 A 
ATOM      6  C7  UNL d   1       0.946   0.138   1.218  0.00  0.00    -0.073 A 
ATOM      7  C8  UNL d   1       2.326   0.729   1.134  0.00  0.00     0.078 C 
ENDROOT
BRANCH   1   8
ATOM      8  C1  UNL d   1       0.818  -0.171  -1.321  0.00  0.00     0.053 C 
ATOM      9  C   UNL d   1       0.623  -1.439  -2.137  0.00  0.00     0.018 C 
ENDBRANCH   1   8
TORSDOF 1
ENDMDL
