MODEL 1
REMARK minimizedAffinity -6.35493755
REMARK minimizedRMSD -1
REMARK  1 active torsions:
REMARK  status: ('A' for Active; 'I' for Inactive)
REMARK    1  A    between atoms: C1_2  and  C2_3 
ROOT
ATOM      1  C2  UNL d   1      -0.457   0.107   0.261  0.00  0.00    -0.076 A 
ATOM      2  C3  UNL d   1       0.821   0.407   0.764  0.00  0.00     0.004 A 
ATOM      3  C4  UNL d   1       1.112   0.256   2.118  0.00  0.00    -0.003 A 
ATOM      4  C5  UNL d   1       0.130  -0.196   2.992  0.00  0.00     0.000 A 
ATOM      5  C6  UNL d   1      -1.138  -0.515   2.508  0.00  0.00     0.000 A 
ATOM      6  C7  UNL d   1      -1.443  -0.384   1.142  0.00  0.00    -0.073 A 
ATOM      7  C8  UNL d   1      -2.829  -0.736   0.675  0.00  0.00     0.078 C 
ENDROOT
BRANCH   1   8
ATOM      8  C1  UNL d   1      -0.722   0.316  -1.213  0.00  0.00     0.053 C 
ATOM      9  C   UNL d   1       0.322  -0.353  -2.093  0.00  0.00     0.018 C 
ENDBRANCH   1   8
TORSDOF 1
ENDMDL
