MODEL 1
REMARK minimizedAffinity -3.13801003
REMARK minimizedRMSD -1
REMARK  1 active torsions:
REMARK  status: ('A' for Active; 'I' for Inactive)
REMARK    1  A    between atoms: C1_2  and  C2_3 
ROOT
ATOM      1  C2  UNL d   1      -0.858  -0.289   1.207  0.00  0.00    -0.076 A 
ATOM      2  C3  UNL d   1       0.539  -0.334   1.054  0.00  0.00     0.004 A 
ATOM      3  C4  UNL d   1       1.146   0.100  -0.123  0.00  0.00    -0.003 A 
ATOM      4  C5  UNL d   1       0.367   0.587  -1.167  0.00  0.00     0.000 A 
ATOM      5  C6  UNL d   1      -1.019   0.655  -1.026  0.00  0.00     0.000 A 
ATOM      6  C7  UNL d   1      -1.646   0.237   0.161  0.00  0.00    -0.073 A 
ATOM      7  C8  UNL d   1      -3.145   0.327   0.256  0.00  0.00     0.078 C 
ENDROOT
BRANCH   1   8
ATOM      8  C1  UNL d   1      -1.463  -0.798   2.496  0.00  0.00     0.053 C 
ATOM      9  C   UNL d   1      -0.928  -0.069   3.718  0.00  0.00     0.018 C 
ENDBRANCH   1   8
TORSDOF 1
ENDMDL
