MODEL 1
REMARK minimizedAffinity -0.888593197
REMARK minimizedRMSD -1
REMARK  1 active torsions:
REMARK  status: ('A' for Active; 'I' for Inactive)
REMARK    1  A    between atoms: C1_2  and  C2_3 
ROOT
ATOM      1  C2  UNL d   1      -3.596   1.442   0.294  0.00  0.00    -0.077 A 
ATOM      2  C3  UNL d   1      -2.586   1.897  -0.566  0.00  0.00     0.002 A 
ATOM      3  C4  UNL d   1      -1.350   1.249  -0.607  0.00  0.00     0.002 A 
ATOM      4  C5  UNL d   1      -1.114   0.142   0.205  0.00  0.00    -0.004 A 
ATOM      5  C6  UNL d   1      -2.112  -0.317   1.065  0.00  0.00     0.002 A 
ATOM      6  C7  UNL d   1      -3.347   0.330   1.108  0.00  0.00     0.002 A 
ENDROOT
BRANCH   1   7
ATOM      7  C1  UNL d   1      -4.947   2.109   0.304  0.00  0.00     0.055 C 
ATOM      8  C   UNL d   1      -5.999   1.219   0.949  0.00  0.00     0.019 C 
ENDBRANCH   1   7
TORSDOF 1
ENDMDL
