MODEL 1
REMARK minimizedAffinity 3.84002662
REMARK minimizedRMSD -1
REMARK  1 active torsions:
REMARK  status: ('A' for Active; 'I' for Inactive)
REMARK    1  A    between atoms: C1_2  and  C2_3 
ROOT
ATOM      1  C2  UNL d   1      -3.622   1.367   0.530  0.00  0.00    -0.077 A 
ATOM      2  C3  UNL d   1      -4.127   0.195   1.110  0.00  0.00     0.002 A 
ATOM      3  C4  UNL d   1      -3.258  -0.790   1.582  0.00  0.00     0.002 A 
ATOM      4  C5  UNL d   1      -1.880  -0.612   1.483  0.00  0.00    -0.004 A 
ATOM      5  C6  UNL d   1      -1.368   0.550   0.905  0.00  0.00     0.002 A 
ATOM      6  C7  UNL d   1      -2.235   1.535   0.432  0.00  0.00     0.002 A 
ENDROOT
BRANCH   1   7
ATOM      7  C1  UNL d   1      -4.557   2.453   0.065  0.00  0.00     0.055 C 
ATOM      8  C   UNL d   1      -5.998   2.142   0.443  0.00  0.00     0.019 C 
ENDBRANCH   1   7
TORSDOF 1
ENDMDL
