MODEL 1
REMARK minimizedAffinity 3.08166981
REMARK minimizedRMSD -1
REMARK  1 active torsions:
REMARK  status: ('A' for Active; 'I' for Inactive)
REMARK    1  A    between atoms: C1_2  and  C2_3 
ROOT
ATOM      1  C2  UNL d   1      -1.577  -4.265  -2.346  0.00  0.00    -0.077 A 
ATOM      2  C3  UNL d   1      -2.299  -3.240  -2.973  0.00  0.00     0.002 A 
ATOM      3  C4  UNL d   1      -3.353  -2.609  -2.309  0.00  0.00     0.002 A 
ATOM      4  C5  UNL d   1      -3.691  -2.993  -1.013  0.00  0.00    -0.004 A 
ATOM      5  C6  UNL d   1      -2.980  -4.013  -0.381  0.00  0.00     0.002 A 
ATOM      6  C7  UNL d   1      -1.928  -4.645  -1.044  0.00  0.00     0.002 A 
ENDROOT
BRANCH   1   7
ATOM      7  C1  UNL d   1      -0.409  -4.913  -3.042  0.00  0.00     0.055 C 
ATOM      8  C   UNL d   1      -0.871  -5.999  -4.003  0.00  0.00     0.019 C 
ENDBRANCH   1   7
TORSDOF 1
ENDMDL
