MODEL 1
REMARK minimizedAffinity 6.41061306
REMARK minimizedRMSD -1
REMARK  1 active torsions:
REMARK  status: ('A' for Active; 'I' for Inactive)
REMARK    1  A    between atoms: C1_2  and  C2_3 
ROOT
ATOM      1  C2  UNL d   1       2.559   5.997   5.082  0.00  0.00    -0.077 A 
ATOM      2  C3  UNL d   1       2.832   5.998   3.707  0.00  0.00     0.002 A 
ATOM      3  C4  UNL d   1       4.152   5.998   3.250  0.00  0.00     0.002 A 
ATOM      4  C5  UNL d   1       5.206   5.993   4.160  0.00  0.00    -0.004 A 
ATOM      5  C6  UNL d   1       4.944   5.994   5.529  0.00  0.00     0.002 A 
ATOM      6  C7  UNL d   1       3.627   5.995   5.988  0.00  0.00     0.002 A 
ENDROOT
BRANCH   1   7
ATOM      7  C1  UNL d   1       1.137   5.947   5.577  0.00  0.00     0.055 C 
ATOM      8  C   UNL d   1       0.147   5.954   4.421  0.00  0.00     0.019 C 
ENDBRANCH   1   7
TORSDOF 1
ENDMDL
