MODEL 1
REMARK minimizedAffinity -0.424333781
REMARK minimizedRMSD -1
REMARK  1 active torsions:
REMARK  status: ('A' for Active; 'I' for Inactive)
REMARK    1  A    between atoms: C1_2  and  C2_3 
ROOT
ATOM      1  C2  UNL d   1       4.374   5.223   4.656  0.00  0.00    -0.077 A 
ATOM      2  C3  UNL d   1       4.518   3.831   4.742  0.00  0.00     0.002 A 
ATOM      3  C4  UNL d   1       5.126   3.118   3.707  0.00  0.00     0.002 A 
ATOM      4  C5  UNL d   1       5.599   3.789   2.581  0.00  0.00    -0.004 A 
ATOM      5  C6  UNL d   1       5.459   5.173   2.485  0.00  0.00     0.002 A 
ATOM      6  C7  UNL d   1       4.850   5.887   3.518  0.00  0.00     0.002 A 
ENDROOT
BRANCH   1   7
ATOM      7  C1  UNL d   1       3.763   5.999   5.793  0.00  0.00     0.055 C 
ATOM      8  C   UNL d   1       2.243   5.989   5.716  0.00  0.00     0.019 C 
ENDBRANCH   1   7
TORSDOF 1
ENDMDL
