MODEL 1
REMARK minimizedAffinity 3.95405006
REMARK minimizedRMSD -1
REMARK  1 active torsions:
REMARK  status: ('A' for Active; 'I' for Inactive)
REMARK    1  A    between atoms: C1_2  and  C2_3 
ROOT
ATOM      1  C2  UNL d   1      -3.300   2.224  -1.320  0.00  0.00    -0.077 A 
ATOM      2  C3  UNL d   1      -4.616   2.108  -0.851  0.00  0.00     0.002 A 
ATOM      3  C4  UNL d   1      -4.869   1.582   0.417  0.00  0.00     0.002 A 
ATOM      4  C5  UNL d   1      -3.813   1.171   1.227  0.00  0.00    -0.004 A 
ATOM      5  C6  UNL d   1      -2.500   1.281   0.769  0.00  0.00     0.002 A 
ATOM      6  C7  UNL d   1      -2.245   1.806  -0.499  0.00  0.00     0.002 A 
ENDROOT
BRANCH   1   7
ATOM      7  C1  UNL d   1      -3.021   2.837  -2.668  0.00  0.00     0.055 C 
ATOM      8  C   UNL d   1      -3.569   1.972  -3.793  0.00  0.00     0.019 C 
ENDBRANCH   1   7
TORSDOF 1
ENDMDL
