MODEL 1
REMARK minimizedAffinity 6.57803488
REMARK minimizedRMSD -1
REMARK  1 active torsions:
REMARK  status: ('A' for Active; 'I' for Inactive)
REMARK    1  A    between atoms: C1_2  and  C2_3 
ROOT
ATOM      1  C2  UNL d   1       3.028   5.929   5.238  0.00  0.00    -0.077 A 
ATOM      2  C3  UNL d   1       4.205   5.922   5.999  0.00  0.00     0.002 A 
ATOM      3  C4  UNL d   1       5.452   5.909   5.371  0.00  0.00     0.002 A 
ATOM      4  C5  UNL d   1       5.534   5.907   3.980  0.00  0.00    -0.004 A 
ATOM      5  C6  UNL d   1       4.369   5.911   3.214  0.00  0.00     0.002 A 
ATOM      6  C7  UNL d   1       3.122   5.923   3.840  0.00  0.00     0.002 A 
ENDROOT
BRANCH   1   7
ATOM      7  C1  UNL d   1       1.683   5.993   5.913  0.00  0.00     0.055 C 
ATOM      8  C   UNL d   1       0.552   5.994   4.894  0.00  0.00     0.019 C 
ENDBRANCH   1   7
TORSDOF 1
ENDMDL
