MODEL 1
REMARK minimizedAffinity 7.67424202
REMARK minimizedRMSD -1
REMARK  1 active torsions:
REMARK  status: ('A' for Active; 'I' for Inactive)
REMARK    1  A    between atoms: C1_2  and  C2_3 
ROOT
ATOM      1  C2  UNL d   1       1.853   0.514  -1.282  0.00  0.00    -0.077 A 
ATOM      2  C3  UNL d   1       0.669   0.360  -0.547  0.00  0.00     0.002 A 
ATOM      3  C4  UNL d   1       0.641   0.652   0.818  0.00  0.00     0.002 A 
ATOM      4  C5  UNL d   1       1.793   1.104   1.459  0.00  0.00    -0.004 A 
ATOM      5  C6  UNL d   1       2.976   1.258   0.737  0.00  0.00     0.002 A 
ATOM      6  C7  UNL d   1       3.006   0.965  -0.627  0.00  0.00     0.002 A 
ENDROOT
BRANCH   1   7
ATOM      7  C1  UNL d   1       1.873   0.246  -2.764  0.00  0.00     0.055 C 
ATOM      8  C   UNL d   1       1.490   1.488  -3.556  0.00  0.00     0.019 C 
ENDBRANCH   1   7
TORSDOF 1
ENDMDL
