MODEL 1
REMARK minimizedAffinity 7.56114244
REMARK minimizedRMSD -1
REMARK  1 active torsions:
REMARK  status: ('A' for Active; 'I' for Inactive)
REMARK    1  A    between atoms: C1_2  and  C2_3 
ROOT
ATOM      1  C2  UNL d   1       1.444   1.136  -1.253  0.00  0.00    -0.077 A 
ATOM      2  C3  UNL d   1       0.156   1.602  -0.952  0.00  0.00     0.002 A 
ATOM      3  C4  UNL d   1      -0.260   1.720   0.375  0.00  0.00     0.002 A 
ATOM      4  C5  UNL d   1       0.606   1.379   1.412  0.00  0.00    -0.004 A 
ATOM      5  C6  UNL d   1       1.888   0.913   1.123  0.00  0.00     0.002 A 
ATOM      6  C7  UNL d   1       2.305   0.793  -0.203  0.00  0.00     0.002 A 
ENDROOT
BRANCH   1   7
ATOM      7  C1  UNL d   1       1.912   1.055  -2.682  0.00  0.00     0.055 C 
ATOM      8  C   UNL d   1       0.889   1.657  -3.635  0.00  0.00     0.019 C 
ENDBRANCH   1   7
TORSDOF 1
ENDMDL
