MODEL 1
REMARK minimizedAffinity 3.31724858
REMARK minimizedRMSD -1
REMARK  1 active torsions:
REMARK  status: ('A' for Active; 'I' for Inactive)
REMARK    1  A    between atoms: C1_2  and  C2_3 
ROOT
ATOM      1  C2  UNL d   1       1.846   2.753   2.088  0.00  0.00    -0.077 A 
ATOM      2  C3  UNL d   1       1.182   3.080   3.279  0.00  0.00     0.002 A 
ATOM      3  C4  UNL d   1      -0.210   3.002   3.355  0.00  0.00     0.002 A 
ATOM      4  C5  UNL d   1      -0.949   2.594   2.246  0.00  0.00    -0.004 A 
ATOM      5  C6  UNL d   1      -0.297   2.269   1.057  0.00  0.00     0.002 A 
ATOM      6  C7  UNL d   1       1.094   2.348   0.978  0.00  0.00     0.002 A 
ENDROOT
BRANCH   1   7
ATOM      7  C1  UNL d   1       3.351   2.789   2.019  0.00  0.00     0.055 C 
ATOM      8  C   UNL d   1       3.903   1.545   1.339  0.00  0.00     0.019 C 
ENDBRANCH   1   7
TORSDOF 1
ENDMDL
