MODEL 1
REMARK minimizedAffinity -0.321878999
REMARK minimizedRMSD -1
REMARK  1 active torsions:
REMARK  status: ('A' for Active; 'I' for Inactive)
REMARK    1  A    between atoms: C1_2  and  C2_3 
ROOT
ATOM      1  C2  UNL d   1       0.339   2.383   2.079  0.00  0.00    -0.077 A 
ATOM      2  C3  UNL d   1      -0.638   1.966   1.164  0.00  0.00     0.002 A 
ATOM      3  C4  UNL d   1      -0.286   1.184   0.062  0.00  0.00     0.002 A 
ATOM      4  C5  UNL d   1       1.042   0.808  -0.133  0.00  0.00    -0.004 A 
ATOM      5  C6  UNL d   1       2.021   1.219   0.771  0.00  0.00     0.002 A 
ATOM      6  C7  UNL d   1       1.671   2.002   1.872  0.00  0.00     0.002 A 
ENDROOT
BRANCH   1   7
ATOM      7  C1  UNL d   1      -0.045   3.185   3.294  0.00  0.00     0.055 C 
ATOM      8  C   UNL d   1      -1.555   3.352   3.392  0.00  0.00     0.019 C 
ENDBRANCH   1   7
TORSDOF 1
ENDMDL
