MODEL 1
REMARK minimizedAffinity 2.27267575
REMARK minimizedRMSD -1
REMARK  1 active torsions:
REMARK  status: ('A' for Active; 'I' for Inactive)
REMARK    1  A    between atoms: C1_2  and  C2_3 
ROOT
ATOM      1  C2  UNL d   1       1.641   1.827   1.733  0.00  0.00    -0.077 A 
ATOM      2  C3  UNL d   1       1.456   2.416   2.992  0.00  0.00     0.002 A 
ATOM      3  C4  UNL d   1       0.176   2.760   3.430  0.00  0.00     0.002 A 
ATOM      4  C5  UNL d   1      -0.929   2.515   2.618  0.00  0.00    -0.004 A 
ATOM      5  C6  UNL d   1      -0.756   1.932   1.364  0.00  0.00     0.002 A 
ATOM      6  C7  UNL d   1       0.523   1.589   0.924  0.00  0.00     0.002 A 
ENDROOT
BRANCH   1   7
ATOM      7  C1  UNL d   1       3.015   1.410   1.280  0.00  0.00     0.055 C 
ATOM      8  C   UNL d   1       2.941   0.366   0.175  0.00  0.00     0.019 C 
ENDBRANCH   1   7
TORSDOF 1
ENDMDL
