MODEL 1
REMARK minimizedAffinity 3.36697054
REMARK minimizedRMSD -1
REMARK  1 active torsions:
REMARK  status: ('A' for Active; 'I' for Inactive)
REMARK    1  A    between atoms: C1_2  and  C2_3 
ROOT
ATOM      1  C2  UNL d   1      -0.066   0.987   0.503  0.00  0.00    -0.077 A 
ATOM      2  C3  UNL d   1      -0.280   2.101   1.327  0.00  0.00     0.002 A 
ATOM      3  C4  UNL d   1       0.785   2.685   2.015  0.00  0.00     0.002 A 
ATOM      4  C5  UNL d   1       2.071   2.166   1.882  0.00  0.00    -0.004 A 
ATOM      5  C6  UNL d   1       2.294   1.057   1.067  0.00  0.00     0.002 A 
ATOM      6  C7  UNL d   1       1.230   0.471   0.379  0.00  0.00     0.002 A 
ENDROOT
BRANCH   1   7
ATOM      7  C1  UNL d   1      -1.205   0.386  -0.278  0.00  0.00     0.055 C 
ATOM      8  C   UNL d   1      -2.265  -0.196   0.647  0.00  0.00     0.019 C 
ENDBRANCH   1   7
TORSDOF 1
ENDMDL
