MODEL 1
REMARK minimizedAffinity -2.56201982
REMARK minimizedRMSD -1
REMARK  0 active torsions:
REMARK  status: ('A' for Active; 'I' for Inactive)
ROOT
ATOM      1  C   UNL d   1      -0.811   1.520  -2.401  0.00  0.00     0.078 C 
ATOM      2  C1  UNL d   1      -0.384   1.505  -0.963  0.00  0.00    -0.077 A 
ATOM      3  C2  UNL d   1       0.055   0.324  -0.353  0.00  0.00    -0.001 A 
ATOM      4  C3  UNL d   1       0.440   0.323   0.988  0.00  0.00     0.003 A 
ATOM      5  C4  UNL d   1       0.388   1.500   1.732  0.00  0.00    -0.005 A 
ATOM      6  C5  UNL d   1      -0.049   2.680   1.134  0.00  0.00     0.003 A 
ATOM      7  C6  UNL d   1      -0.435   2.683  -0.207  0.00  0.00    -0.001 A 
ENDROOT
TORSDOF 0
ENDMDL
