MODEL 1
REMARK minimizedAffinity 11.3399487
REMARK minimizedRMSD -1
REMARK  0 active torsions:
REMARK  status: ('A' for Active; 'I' for Inactive)
ROOT
ATOM      1  C   UNL d   1      -5.355   0.036   3.957  0.00  0.00     0.078 C 
ATOM      2  C1  UNL d   1      -5.548  -1.404   4.326  0.00  0.00    -0.077 A 
ATOM      3  C2  UNL d   1      -5.560  -1.810   5.667  0.00  0.00    -0.001 A 
ATOM      4  C3  UNL d   1      -5.731  -3.155   5.995  0.00  0.00     0.003 A 
ATOM      5  C4  UNL d   1      -5.890  -4.107   4.990  0.00  0.00    -0.005 A 
ATOM      6  C5  UNL d   1      -5.877  -3.713   3.653  0.00  0.00     0.003 A 
ATOM      7  C6  UNL d   1      -5.707  -2.368   3.322  0.00  0.00    -0.001 A 
ENDROOT
TORSDOF 0
ENDMDL
