MODEL 1
REMARK minimizedAffinity 1.72701752
REMARK minimizedRMSD -1
REMARK  0 active torsions:
REMARK  status: ('A' for Active; 'I' for Inactive)
ROOT
ATOM      1  C   UNL d   1       0.475   0.072   3.213  0.00  0.00     0.078 C 
ATOM      2  C1  UNL d   1       0.416   1.154   2.177  0.00  0.00    -0.077 A 
ATOM      3  C2  UNL d   1       0.083   0.863   0.848  0.00  0.00    -0.001 A 
ATOM      4  C3  UNL d   1       0.041   1.879  -0.108  0.00  0.00     0.003 A 
ATOM      5  C4  UNL d   1       0.332   3.193   0.255  0.00  0.00    -0.005 A 
ATOM      6  C5  UNL d   1       0.666   3.492   1.574  0.00  0.00     0.003 A 
ATOM      7  C6  UNL d   1       0.709   2.477   2.531  0.00  0.00    -0.001 A 
ENDROOT
TORSDOF 0
ENDMDL
