MODEL 1
REMARK minimizedAffinity 4.38761902
REMARK minimizedRMSD -1
REMARK  0 active torsions:
REMARK  status: ('A' for Active; 'I' for Inactive)
ROOT
ATOM      1  C   UNL d   1      -5.904   0.163   5.224  0.00  0.00     0.078 C 
ATOM      2  C1  UNL d   1      -5.943  -1.291   4.859  0.00  0.00    -0.077 A 
ATOM      3  C2  UNL d   1      -5.942  -2.283   5.847  0.00  0.00    -0.001 A 
ATOM      4  C3  UNL d   1      -5.969  -3.633   5.492  0.00  0.00     0.003 A 
ATOM      5  C4  UNL d   1      -5.996  -4.003   4.149  0.00  0.00    -0.005 A 
ATOM      6  C5  UNL d   1      -5.995  -3.022   3.158  0.00  0.00     0.003 A 
ATOM      7  C6  UNL d   1      -5.968  -1.672   3.511  0.00  0.00    -0.001 A 
ENDROOT
TORSDOF 0
ENDMDL
