MODEL 1
REMARK minimizedAffinity 6.29266596
REMARK minimizedRMSD -1
REMARK  0 active torsions:
REMARK  status: ('A' for Active; 'I' for Inactive)
ROOT
ATOM      1  C   UNL d   1       0.082  -0.286   2.578  0.00  0.00     0.078 C 
ATOM      2  C1  UNL d   1       0.212   1.097   2.015  0.00  0.00    -0.077 A 
ATOM      3  C2  UNL d   1       0.711   2.149   2.794  0.00  0.00    -0.001 A 
ATOM      4  C3  UNL d   1       0.818   3.434   2.259  0.00  0.00     0.003 A 
ATOM      5  C4  UNL d   1       0.427   3.680   0.945  0.00  0.00    -0.005 A 
ATOM      6  C5  UNL d   1      -0.072   2.640   0.163  0.00  0.00     0.003 A 
ATOM      7  C6  UNL d   1      -0.180   1.355   0.695  0.00  0.00    -0.001 A 
ENDROOT
TORSDOF 0
ENDMDL
