MODEL 1
REMARK minimizedAffinity -2.44101381
REMARK minimizedRMSD -1
REMARK  0 active torsions:
REMARK  status: ('A' for Active; 'I' for Inactive)
ROOT
ATOM      1  C   UNL d   1      -2.507   0.376  -2.197  0.00  0.00     0.078 C 
ATOM      2  C1  UNL d   1      -1.233   0.136  -1.443  0.00  0.00    -0.077 A 
ATOM      3  C2  UNL d   1       0.012   0.277  -2.068  0.00  0.00    -0.001 A 
ATOM      4  C3  UNL d   1       1.189   0.041  -1.357  0.00  0.00     0.003 A 
ATOM      5  C4  UNL d   1       1.133  -0.339  -0.017  0.00  0.00    -0.005 A 
ATOM      6  C5  UNL d   1      -0.101  -0.485   0.612  0.00  0.00     0.003 A 
ATOM      7  C6  UNL d   1      -1.280  -0.249  -0.097  0.00  0.00    -0.001 A 
ENDROOT
TORSDOF 0
ENDMDL
