MODEL 1
REMARK minimizedAffinity -2.77703404
REMARK minimizedRMSD -1
REMARK  0 active torsions:
REMARK  status: ('A' for Active; 'I' for Inactive)
ROOT
ATOM      1  C   UNL d   1      -3.557  -1.093  -1.970  0.00  0.00     0.078 C 
ATOM      2  C1  UNL d   1      -2.426  -0.220  -1.514  0.00  0.00    -0.077 A 
ATOM      3  C2  UNL d   1      -1.416  -0.723  -0.684  0.00  0.00    -0.001 A 
ATOM      4  C3  UNL d   1      -0.374   0.103  -0.260  0.00  0.00     0.003 A 
ATOM      5  C4  UNL d   1      -0.333   1.438  -0.659  0.00  0.00    -0.005 A 
ATOM      6  C5  UNL d   1      -1.335   1.948  -1.483  0.00  0.00     0.003 A 
ATOM      7  C6  UNL d   1      -2.377   1.123  -1.908  0.00  0.00    -0.001 A 
ENDROOT
TORSDOF 0
ENDMDL
