MODEL 1
REMARK minimizedAffinity -3.0124402
REMARK minimizedRMSD -1
REMARK  0 active torsions:
REMARK  status: ('A' for Active; 'I' for Inactive)
ROOT
ATOM      1  C   UNL d   1       0.379   4.066  -0.810  0.00  0.00     0.078 C 
ATOM      2  C1  UNL d   1       0.336   2.888   0.117  0.00  0.00    -0.077 A 
ATOM      3  C2  UNL d   1       0.387   3.061   1.506  0.00  0.00    -0.001 A 
ATOM      4  C3  UNL d   1       0.356   1.954   2.356  0.00  0.00     0.003 A 
ATOM      5  C4  UNL d   1       0.275   0.668   1.828  0.00  0.00    -0.005 A 
ATOM      6  C5  UNL d   1       0.225   0.486   0.447  0.00  0.00     0.003 A 
ATOM      7  C6  UNL d   1       0.256   1.591  -0.405  0.00  0.00    -0.001 A 
ENDROOT
TORSDOF 0
ENDMDL
