MODEL 1
REMARK minimizedAffinity 16.6328926
REMARK minimizedRMSD -1
REMARK  2 active torsions:
REMARK  status: ('A' for Active; 'I' for Inactive)
REMARK    1  A    between atoms: C2'_3  and  C1'_4 
REMARK    2  A    between atoms: C1'_4  and  C1_5 
ROOT
ATOM      1  C1  I4B d   1      -0.938  -2.257  -0.523  0.00  0.00    -0.075 A 
ATOM      2  C2  I4B d   1      -0.629  -2.023  -1.840  0.00  0.00     0.003 A 
ATOM      3  C3  I4B d   1      -1.489  -1.237  -2.644  0.00  0.00     0.002 A 
ATOM      4  C4  I4B d   1      -2.664  -0.750  -2.109  0.00  0.00    -0.004 A 
ATOM      5  C5  I4B d   1      -2.964  -0.968  -0.768  0.00  0.00     0.002 A 
ATOM      6  C6  I4B d   1      -2.089  -1.716   0.034  0.00  0.00     0.003 A 
ENDROOT
BRANCH   1   7
ATOM      7  C1' I4B d   1      -0.024  -3.119   0.290  0.00  0.00     0.060 C 
BRANCH   7   8
ATOM      8  C2' I4B d   1      -0.482  -4.556   0.139  0.00  0.00    -0.013 C 
ATOM      9  C4' I4B d   1      -0.260  -5.054  -1.264  0.00  0.00     0.013 C 
ATOM     10  C3' I4B d   1       0.270  -5.388   1.135  0.00  0.00     0.013 C 
ENDBRANCH   7   8
ENDBRANCH   1   7
TORSDOF 2
ENDMDL
