MODEL 1
REMARK minimizedAffinity 15.3325148
REMARK minimizedRMSD -1
REMARK  2 active torsions:
REMARK  status: ('A' for Active; 'I' for Inactive)
REMARK    1  A    between atoms: C2'_3  and  C1'_4 
REMARK    2  A    between atoms: C1'_4  and  C1_5 
ROOT
ATOM      1  C1  I4B d   1       0.173  -0.266  -1.809  0.00  0.00    -0.075 A 
ATOM      2  C2  I4B d   1      -0.475  -0.336  -0.602  0.00  0.00     0.003 A 
ATOM      3  C3  I4B d   1      -1.809  -0.808  -0.535  0.00  0.00     0.002 A 
ATOM      4  C4  I4B d   1      -2.468  -1.149  -1.698  0.00  0.00    -0.004 A 
ATOM      5  C5  I4B d   1      -1.801  -1.099  -2.919  0.00  0.00     0.002 A 
ATOM      6  C6  I4B d   1      -0.468  -0.667  -2.974  0.00  0.00     0.003 A 
ENDROOT
BRANCH   1   7
ATOM      7  C1' I4B d   1       1.570   0.268  -1.847  0.00  0.00     0.060 C 
BRANCH   7   8
ATOM      8  C2' I4B d   1       1.531   1.711  -1.387  0.00  0.00    -0.013 C 
ATOM      9  C4' I4B d   1       2.772   2.071  -0.614  0.00  0.00     0.013 C 
ATOM     10  C3' I4B d   1       1.377   2.580  -2.600  0.00  0.00     0.013 C 
ENDBRANCH   7   8
ENDBRANCH   1   7
TORSDOF 2
ENDMDL
