MODEL 1
REMARK minimizedAffinity 14.9856787
REMARK minimizedRMSD -1
REMARK  2 active torsions:
REMARK  status: ('A' for Active; 'I' for Inactive)
REMARK    1  A    between atoms: C2'_3  and  C1'_4 
REMARK    2  A    between atoms: C1'_4  and  C1_5 
ROOT
ATOM      1  C1  I4B d   1      -1.141  -1.902  -0.786  0.00  0.00    -0.075 A 
ATOM      2  C2  I4B d   1      -0.201  -2.876  -0.556  0.00  0.00     0.003 A 
ATOM      3  C3  I4B d   1      -0.224  -3.618   0.649  0.00  0.00     0.002 A 
ATOM      4  C4  I4B d   1      -1.167  -3.321   1.613  0.00  0.00    -0.004 A 
ATOM      5  C5  I4B d   1      -2.133  -2.349   1.369  0.00  0.00     0.002 A 
ATOM      6  C6  I4B d   1      -2.127  -1.643   0.157  0.00  0.00     0.003 A 
ENDROOT
BRANCH   1   7
ATOM      7  C1' I4B d   1      -1.067  -1.114  -2.055  0.00  0.00     0.060 C 
BRANCH   7   8
ATOM      8  C2' I4B d   1       0.319  -1.297  -2.638  0.00  0.00    -0.013 C 
ATOM      9  C4' I4B d   1       0.280  -1.317  -4.144  0.00  0.00     0.013 C 
ATOM     10  C3' I4B d   1       1.185  -0.182  -2.134  0.00  0.00     0.013 C 
ENDBRANCH   7   8
ENDBRANCH   1   7
TORSDOF 2
ENDMDL
