MODEL 1
REMARK minimizedAffinity 17.2870693
REMARK minimizedRMSD -1
REMARK  2 active torsions:
REMARK  status: ('A' for Active; 'I' for Inactive)
REMARK    1  A    between atoms: C2'_3  and  C1'_4 
REMARK    2  A    between atoms: C1'_4  and  C1_5 
ROOT
ATOM      1  C1  I4B d   1      -2.135  -1.983   1.871  0.00  0.00    -0.075 A 
ATOM      2  C2  I4B d   1      -2.651  -1.144   0.915  0.00  0.00     0.003 A 
ATOM      3  C3  I4B d   1      -2.175  -1.204  -0.417  0.00  0.00     0.002 A 
ATOM      4  C4  I4B d   1      -1.154  -2.076  -0.736  0.00  0.00    -0.004 A 
ATOM      5  C5  I4B d   1      -0.648  -2.941   0.230  0.00  0.00     0.002 A 
ATOM      6  C6  I4B d   1      -1.150  -2.904   1.539  0.00  0.00     0.003 A 
ENDROOT
BRANCH   1   7
ATOM      7  C1' I4B d   1      -2.638  -1.870   3.276  0.00  0.00     0.060 C 
BRANCH   7   8
ATOM      8  C2' I4B d   1      -1.881  -0.747   3.954  0.00  0.00    -0.013 C 
ATOM      9  C4' I4B d   1      -2.823   0.232   4.604  0.00  0.00     0.013 C 
ATOM     10  C3' I4B d   1      -0.953  -1.356   4.962  0.00  0.00     0.013 C 
ENDBRANCH   7   8
ENDBRANCH   1   7
TORSDOF 2
ENDMDL
