MODEL 1
REMARK minimizedAffinity 15.1023636
REMARK minimizedRMSD -1
REMARK  2 active torsions:
REMARK  status: ('A' for Active; 'I' for Inactive)
REMARK    1  A    between atoms: C2'_3  and  C1'_4 
REMARK    2  A    between atoms: C1'_4  and  C1_5 
ROOT
ATOM      1  C1  I4B d   1       0.166  -0.581  -2.065  0.00  0.00    -0.075 A 
ATOM      2  C2  I4B d   1       0.719   0.107  -1.014  0.00  0.00     0.003 A 
ATOM      3  C3  I4B d   1       2.003   0.691  -1.141  0.00  0.00     0.002 A 
ATOM      4  C4  I4B d   1       2.714   0.521  -2.311  0.00  0.00    -0.004 A 
ATOM      5  C5  I4B d   1       2.142  -0.157  -3.383  0.00  0.00     0.002 A 
ATOM      6  C6  I4B d   1       0.855  -0.702  -3.264  0.00  0.00     0.003 A 
ENDROOT
BRANCH   1   7
ATOM      7  C1' I4B d   1      -1.177  -1.214  -1.885  0.00  0.00     0.060 C 
BRANCH   7   8
ATOM      8  C2' I4B d   1      -1.316  -1.610  -0.429  0.00  0.00    -0.013 C 
ATOM      9  C4' I4B d   1      -2.750  -1.530   0.024  0.00  0.00     0.013 C 
ATOM     10  C3' I4B d   1      -0.776  -3.001  -0.274  0.00  0.00     0.013 C 
ENDBRANCH   7   8
ENDBRANCH   1   7
TORSDOF 2
ENDMDL
