MODEL 1
REMARK minimizedAffinity 20.9245872
REMARK minimizedRMSD -1
REMARK  2 active torsions:
REMARK  status: ('A' for Active; 'I' for Inactive)
REMARK    1  A    between atoms: C2'_3  and  C1'_4 
REMARK    2  A    between atoms: C1'_4  and  C1_5 
ROOT
ATOM      1  C1  I4B d   1       3.240   2.123  -0.351  0.00  0.00    -0.075 A 
ATOM      2  C2  I4B d   1       2.825   2.700  -1.525  0.00  0.00     0.003 A 
ATOM      3  C3  I4B d   1       2.275   1.902  -2.556  0.00  0.00     0.002 A 
ATOM      4  C4  I4B d   1       2.205   0.533  -2.392  0.00  0.00    -0.004 A 
ATOM      5  C5  I4B d   1       2.605  -0.048  -1.193  0.00  0.00     0.002 A 
ATOM      6  C6  I4B d   1       3.115   0.753  -0.160  0.00  0.00     0.003 A 
ENDROOT
BRANCH   1   7
ATOM      7  C1' I4B d   1       3.848   2.992   0.704  0.00  0.00     0.060 C 
BRANCH   7   8
ATOM      8  C2' I4B d   1       4.749   3.998   0.018  0.00  0.00    -0.013 C 
ATOM      9  C4' I4B d   1       5.064   5.157   0.928  0.00  0.00     0.013 C 
ATOM     10  C3' I4B d   1       6.000   3.287  -0.404  0.00  0.00     0.013 C 
ENDBRANCH   7   8
ENDBRANCH   1   7
TORSDOF 2
ENDMDL
