MODEL 1
REMARK minimizedAffinity 19.7325077
REMARK minimizedRMSD -1
REMARK  2 active torsions:
REMARK  status: ('A' for Active; 'I' for Inactive)
REMARK    1  A    between atoms: C2'_3  and  C1'_4 
REMARK    2  A    between atoms: C1'_4  and  C1_5 
ROOT
ATOM      1  C1  I4B d   1      -4.533   3.409  -5.459  0.00  0.00    -0.075 A 
ATOM      2  C2  I4B d   1      -3.607   3.970  -4.615  0.00  0.00     0.003 A 
ATOM      3  C3  I4B d   1      -2.488   3.218  -4.184  0.00  0.00     0.002 A 
ATOM      4  C4  I4B d   1      -2.360   1.902  -4.577  0.00  0.00    -0.004 A 
ATOM      5  C5  I4B d   1      -3.288   1.342  -5.451  0.00  0.00     0.002 A 
ATOM      6  C6  I4B d   1      -4.374   2.103  -5.905  0.00  0.00     0.003 A 
ENDROOT
BRANCH   1   7
ATOM      7  C1' I4B d   1      -5.721   4.221  -5.868  0.00  0.00     0.060 C 
BRANCH   7   8
ATOM      8  C2' I4B d   1      -5.421   5.674  -5.561  0.00  0.00    -0.013 C 
ATOM      9  C4' I4B d   1      -5.719   6.000  -4.121  0.00  0.00     0.013 C 
ATOM     10  C3' I4B d   1      -3.980   5.928  -5.887  0.00  0.00     0.013 C 
ENDBRANCH   7   8
ENDBRANCH   1   7
TORSDOF 2
ENDMDL
