MODEL 1
REMARK minimizedAffinity 20.289526
REMARK minimizedRMSD -1
REMARK  2 active torsions:
REMARK  status: ('A' for Active; 'I' for Inactive)
REMARK    1  A    between atoms: C2'_3  and  C1'_4 
REMARK    2  A    between atoms: C1'_4  and  C1_5 
ROOT
ATOM      1  C1  I4B d   1       3.805   2.998  -0.402  0.00  0.00    -0.075 A 
ATOM      2  C2  I4B d   1       4.871   2.667  -1.201  0.00  0.00     0.003 A 
ATOM      3  C3  I4B d   1       5.997   3.521  -1.278  0.00  0.00     0.002 A 
ATOM      4  C4  I4B d   1       5.995   4.713  -0.583  0.00  0.00    -0.004 A 
ATOM      5  C5  I4B d   1       4.924   5.036   0.245  0.00  0.00     0.002 A 
ATOM      6  C6  I4B d   1       3.827   4.168   0.346  0.00  0.00     0.003 A 
ENDROOT
BRANCH   1   7
ATOM      7  C1' I4B d   1       2.618   2.089  -0.370  0.00  0.00     0.060 C 
BRANCH   7   8
ATOM      8  C2' I4B d   1       2.411   1.542  -1.768  0.00  0.00    -0.013 C 
ATOM      9  C4' I4B d   1       1.536   0.316  -1.750  0.00  0.00     0.013 C 
ATOM     10  C3' I4B d   1       1.805   2.628  -2.605  0.00  0.00     0.013 C 
ENDBRANCH   7   8
ENDBRANCH   1   7
TORSDOF 2
ENDMDL
