MODEL 1
REMARK minimizedAffinity 17.6264114
REMARK minimizedRMSD -1
REMARK  2 active torsions:
REMARK  status: ('A' for Active; 'I' for Inactive)
REMARK    1  A    between atoms: C2'_3  and  C1'_4 
REMARK    2  A    between atoms: C1'_4  and  C1_5 
ROOT
ATOM      1  C1  I4B d   1       2.860   1.279  -1.209  0.00  0.00    -0.075 A 
ATOM      2  C2  I4B d   1       4.072   1.093  -1.825  0.00  0.00     0.003 A 
ATOM      3  C3  I4B d   1       4.212   0.120  -2.844  0.00  0.00     0.002 A 
ATOM      4  C4  I4B d   1       3.134  -0.675  -3.177  0.00  0.00    -0.004 A 
ATOM      5  C5  I4B d   1       1.900  -0.470  -2.567  0.00  0.00     0.002 A 
ATOM      6  C6  I4B d   1       1.758   0.521  -1.585  0.00  0.00     0.003 A 
ENDROOT
BRANCH   1   7
ATOM      7  C1' I4B d   1       2.756   2.293  -0.114  0.00  0.00     0.060 C 
BRANCH   7   8
ATOM      8  C2' I4B d   1       4.143   2.509   0.455  0.00  0.00    -0.013 C 
ATOM      9  C4' I4B d   1       4.553   3.955   0.357  0.00  0.00     0.013 C 
ATOM     10  C3' I4B d   1       4.137   2.044   1.881  0.00  0.00     0.013 C 
ENDBRANCH   7   8
ENDBRANCH   1   7
TORSDOF 2
ENDMDL
