MODEL 1
REMARK minimizedAffinity -3.73119116
REMARK minimizedRMSD -1
REMARK  0 active torsions:
REMARK  status: ('A' for Active; 'I' for Inactive)
ROOT
ATOM      1  C   UNL d   1       1.650  -2.698   1.888  0.00  0.00     0.078 C 
ATOM      2  C1  UNL d   1       0.860  -1.698   1.098  0.00  0.00    -0.077 A 
ATOM      3  C2  UNL d   1      -0.126  -0.913   1.709  0.00  0.00    -0.001 A 
ATOM      4  C3  UNL d   1      -0.860   0.007   0.960  0.00  0.00     0.003 A 
ATOM      5  C4  UNL d   1      -0.618   0.150  -0.405  0.00  0.00    -0.005 A 
ATOM      6  C5  UNL d   1       0.359  -0.628  -1.022  0.00  0.00     0.003 A 
ATOM      7  C6  UNL d   1       1.095  -1.549  -0.274  0.00  0.00    -0.001 A 
ENDROOT
TORSDOF 0
ENDMDL
