MODEL 1
REMARK minimizedAffinity -2.24495029
REMARK minimizedRMSD -1
REMARK  0 active torsions:
REMARK  status: ('A' for Active; 'I' for Inactive)
ROOT
ATOM      1  C   UNL d   1      -0.555   0.546  -0.160  0.00  0.00     0.078 C 
ATOM      2  C1  UNL d   1      -1.241   0.862  -1.456  0.00  0.00    -0.077 A 
ATOM      3  C2  UNL d   1      -1.025   2.083  -2.106  0.00  0.00    -0.001 A 
ATOM      4  C3  UNL d   1      -1.678   2.368  -3.307  0.00  0.00     0.003 A 
ATOM      5  C4  UNL d   1      -2.551   1.438  -3.866  0.00  0.00    -0.005 A 
ATOM      6  C5  UNL d   1      -2.773   0.221  -3.225  0.00  0.00     0.003 A 
ATOM      7  C6  UNL d   1      -2.121  -0.066  -2.025  0.00  0.00    -0.001 A 
ENDROOT
TORSDOF 0
ENDMDL
