MODEL 1
REMARK minimizedAffinity -5.22644663
REMARK minimizedRMSD -1
REMARK  0 active torsions:
REMARK  status: ('A' for Active; 'I' for Inactive)
ROOT
ATOM      1  C   UNL d   1      -0.379   0.518  -0.556  0.00  0.00     0.078 C 
ATOM      2  C1  UNL d   1       0.177  -0.587   0.293  0.00  0.00    -0.077 A 
ATOM      3  C2  UNL d   1      -0.466  -0.984   1.471  0.00  0.00    -0.001 A 
ATOM      4  C3  UNL d   1       0.069  -2.007   2.257  0.00  0.00     0.003 A 
ATOM      5  C4  UNL d   1       1.249  -2.640   1.872  0.00  0.00    -0.005 A 
ATOM      6  C5  UNL d   1       1.898  -2.249   0.703  0.00  0.00     0.003 A 
ATOM      7  C6  UNL d   1       1.365  -1.227  -0.084  0.00  0.00    -0.001 A 
ENDROOT
TORSDOF 0
ENDMDL
