MODEL 1
REMARK minimizedAffinity -5.75017786
REMARK minimizedRMSD -1
REMARK  0 active torsions:
REMARK  status: ('A' for Active; 'I' for Inactive)
ROOT
ATOM      1  C   UNL d   1      -0.573  -2.050   3.114  0.00  0.00     0.078 C 
ATOM      2  C1  UNL d   1       0.230  -1.861   1.862  0.00  0.00    -0.077 A 
ATOM      3  C2  UNL d   1       1.195  -2.800   1.476  0.00  0.00    -0.001 A 
ATOM      4  C3  UNL d   1       1.942  -2.606   0.313  0.00  0.00     0.003 A 
ATOM      5  C4  UNL d   1       1.734  -1.474  -0.472  0.00  0.00    -0.005 A 
ATOM      6  C5  UNL d   1       0.777  -0.533  -0.095  0.00  0.00     0.003 A 
ATOM      7  C6  UNL d   1       0.029  -0.726   1.068  0.00  0.00    -0.001 A 
ENDROOT
TORSDOF 0
ENDMDL
