MODEL 1
REMARK minimizedAffinity -4.79971933
REMARK minimizedRMSD -1
REMARK  0 active torsions:
REMARK  status: ('A' for Active; 'I' for Inactive)
ROOT
ATOM      1  C   UNL d   1       0.487   0.273  -0.412  0.00  0.00     0.078 C 
ATOM      2  C1  UNL d   1       0.590  -0.855   0.570  0.00  0.00    -0.077 A 
ATOM      3  C2  UNL d   1      -0.208  -0.886   1.720  0.00  0.00    -0.001 A 
ATOM      4  C3  UNL d   1      -0.094  -1.938   2.630  0.00  0.00     0.003 A 
ATOM      5  C4  UNL d   1       0.817  -2.966   2.400  0.00  0.00    -0.005 A 
ATOM      6  C5  UNL d   1       1.617  -2.944   1.260  0.00  0.00     0.003 A 
ATOM      7  C6  UNL d   1       1.505  -1.892   0.348  0.00  0.00    -0.001 A 
ENDROOT
TORSDOF 0
ENDMDL
