MODEL 1
REMARK minimizedAffinity -3.39439297
REMARK minimizedRMSD -1
REMARK  0 active torsions:
REMARK  status: ('A' for Active; 'I' for Inactive)
ROOT
ATOM      1  C   UNL d   1      -0.942   0.071  -0.592  0.00  0.00     0.078 C 
ATOM      2  C1  UNL d   1       0.242  -0.730  -0.138  0.00  0.00    -0.077 A 
ATOM      3  C2  UNL d   1       0.108  -1.724   0.838  0.00  0.00    -0.001 A 
ATOM      4  C3  UNL d   1       1.221  -2.455   1.258  0.00  0.00     0.003 A 
ATOM      5  C4  UNL d   1       2.475  -2.198   0.708  0.00  0.00    -0.005 A 
ATOM      6  C5  UNL d   1       2.618  -1.209  -0.263  0.00  0.00     0.003 A 
ATOM      7  C6  UNL d   1       1.507  -0.477  -0.684  0.00  0.00    -0.001 A 
ENDROOT
TORSDOF 0
ENDMDL
