MODEL 1
REMARK minimizedAffinity -4.01746273
REMARK minimizedRMSD -1
REMARK  0 active torsions:
REMARK  status: ('A' for Active; 'I' for Inactive)
ROOT
ATOM      1  C   UNL d   1       1.359  -3.952   2.442  0.00  0.00     0.078 C 
ATOM      2  C1  UNL d   1       1.295  -2.671   1.664  0.00  0.00    -0.077 A 
ATOM      3  C2  UNL d   1       0.094  -1.961   1.542  0.00  0.00    -0.001 A 
ATOM      4  C3  UNL d   1       0.047  -0.776   0.807  0.00  0.00     0.003 A 
ATOM      5  C4  UNL d   1       1.197  -0.290   0.187  0.00  0.00    -0.005 A 
ATOM      6  C5  UNL d   1       2.395  -0.992   0.301  0.00  0.00     0.003 A 
ATOM      7  C6  UNL d   1       2.444  -2.177   1.035  0.00  0.00    -0.001 A 
ENDROOT
TORSDOF 0
ENDMDL
