MODEL 1
REMARK minimizedAffinity -5.14577007
REMARK minimizedRMSD -1
REMARK  0 active torsions:
REMARK  status: ('A' for Active; 'I' for Inactive)
ROOT
ATOM      1  C   UNL d   1      -0.958   0.958  -0.748  0.00  0.00     0.078 C 
ATOM      2  C1  UNL d   1       0.028  -0.029  -0.198  0.00  0.00    -0.077 A 
ATOM      3  C2  UNL d   1       1.405   0.150  -0.379  0.00  0.00    -0.001 A 
ATOM      4  C3  UNL d   1       2.311  -0.782   0.131  0.00  0.00     0.003 A 
ATOM      5  C4  UNL d   1       1.850  -1.899   0.824  0.00  0.00    -0.005 A 
ATOM      6  C5  UNL d   1       0.481  -2.087   1.007  0.00  0.00     0.003 A 
ATOM      7  C6  UNL d   1      -0.426  -1.157   0.498  0.00  0.00    -0.001 A 
ENDROOT
TORSDOF 0
ENDMDL
