MODEL 1
REMARK minimizedAffinity -4.92113113
REMARK minimizedRMSD -1
REMARK  0 active torsions:
REMARK  status: ('A' for Active; 'I' for Inactive)
ROOT
ATOM      1  C   UNL d   1       0.978  -0.808   0.041  0.00  0.00     0.078 C 
ATOM      2  C1  UNL d   1      -0.134  -0.057  -0.628  0.00  0.00    -0.077 A 
ATOM      3  C2  UNL d   1      -0.543  -0.380  -1.927  0.00  0.00    -0.001 A 
ATOM      4  C3  UNL d   1      -1.573   0.334  -2.541  0.00  0.00     0.003 A 
ATOM      5  C4  UNL d   1      -2.202   1.377  -1.864  0.00  0.00    -0.005 A 
ATOM      6  C5  UNL d   1      -1.800   1.707  -0.571  0.00  0.00     0.003 A 
ATOM      7  C6  UNL d   1      -0.770   0.994   0.044  0.00  0.00    -0.001 A 
ENDROOT
TORSDOF 0
ENDMDL
