MODEL 1
REMARK minimizedAffinity -2.90687227
REMARK minimizedRMSD -1
REMARK  0 active torsions:
REMARK  status: ('A' for Active; 'I' for Inactive)
ROOT
ATOM      1  C   UNL d   1      -2.357   0.521  -3.386  0.00  0.00     0.078 C 
ATOM      2  C1  UNL d   1      -1.607   0.453  -2.089  0.00  0.00    -0.077 A 
ATOM      3  C2  UNL d   1      -1.496   1.576  -1.260  0.00  0.00    -0.001 A 
ATOM      4  C3  UNL d   1      -0.786   1.500  -0.061  0.00  0.00     0.003 A 
ATOM      5  C4  UNL d   1      -0.182   0.304   0.320  0.00  0.00    -0.005 A 
ATOM      6  C5  UNL d   1      -0.285  -0.819  -0.499  0.00  0.00     0.003 A 
ATOM      7  C6  UNL d   1      -0.994  -0.745  -1.699  0.00  0.00    -0.001 A 
ENDROOT
TORSDOF 0
ENDMDL
