MODEL 1
REMARK minimizedAffinity 21.9370461
REMARK minimizedRMSD -1
REMARK  0 active torsions:
REMARK  status: ('A' for Active; 'I' for Inactive)
ROOT
ATOM      1  C   UNL d   1      -2.284  -2.835  -0.480  0.00  0.00     0.124 A 
ATOM      2  C1  UNL d   1      -2.589  -3.989   0.229  0.00  0.00     0.062 A 
ATOM      3  C2  UNL d   1      -3.520  -4.893  -0.272  0.00  0.00     0.162 A 
ATOM      4  C3  UNL d   1      -4.152  -4.649  -1.491  0.00  0.00    -0.034 A 
ATOM      5  C4  UNL d   1      -3.841  -3.486  -2.198  0.00  0.00     0.162 A 
ATOM      6  C5  UNL d   1      -2.910  -2.585  -1.693  0.00  0.00     0.062 A 
ATOM      7  F   UNL d   1      -2.617  -1.471  -2.379  0.00  0.00    -0.097 F 
ATOM      8  F1  UNL d   1      -4.431  -3.220  -3.373  0.00  0.00    -0.096 F 
ATOM      9  I   UNL d   1      -5.545  -6.000  -2.245  0.00  0.00    -0.060 I 
ATOM     10  F2  UNL d   1      -3.795  -6.000   0.434  0.00  0.00    -0.096 F 
ATOM     11  F3  UNL d   1      -1.986  -4.232   1.402  0.00  0.00    -0.097 F 
ATOM     12  F4  UNL d   1      -1.389  -1.965   0.006  0.00  0.00    -0.092 F 
ENDROOT
TORSDOF 0
ENDMDL
