MODEL 1
REMARK minimizedAffinity 28.0711517
REMARK minimizedRMSD -1
REMARK  0 active torsions:
REMARK  status: ('A' for Active; 'I' for Inactive)
ROOT
ATOM      1  C   UNL d   1       1.302   0.157   2.377  0.00  0.00     0.124 A 
ATOM      2  C1  UNL d   1       2.176  -0.367   3.319  0.00  0.00     0.062 A 
ATOM      3  C2  UNL d   1       3.518  -0.555   3.000  0.00  0.00     0.162 A 
ATOM      4  C3  UNL d   1       3.994  -0.218   1.733  0.00  0.00    -0.034 A 
ATOM      5  C4  UNL d   1       3.109   0.308   0.791  0.00  0.00     0.162 A 
ATOM      6  C5  UNL d   1       1.769   0.494   1.114  0.00  0.00     0.062 A 
ATOM      7  F   UNL d   1       0.925   1.000   0.203  0.00  0.00    -0.097 F 
ATOM      8  F1  UNL d   1       3.533   0.643  -0.437  0.00  0.00    -0.096 F 
ATOM      9  I   UNL d   1       6.000  -0.497   1.253  0.00  0.00    -0.060 I 
ATOM     10  F2  UNL d   1       4.340  -1.063   3.930  0.00  0.00    -0.096 F 
ATOM     11  F3  UNL d   1       1.728  -0.694   4.539  0.00  0.00    -0.097 F 
ATOM     12  F4  UNL d   1       0.011   0.336   2.686  0.00  0.00    -0.092 F 
ENDROOT
TORSDOF 0
ENDMDL
