MODEL 1
REMARK minimizedAffinity 27.5406132
REMARK minimizedRMSD -1
REMARK  0 active torsions:
REMARK  status: ('A' for Active; 'I' for Inactive)
ROOT
ATOM      1  C   UNL d   1       3.808  -0.128   0.201  0.00  0.00     0.124 A 
ATOM      2  C1  UNL d   1       3.657   0.705  -0.898  0.00  0.00     0.062 A 
ATOM      3  C2  UNL d   1       2.718   1.732  -0.874  0.00  0.00     0.162 A 
ATOM      4  C3  UNL d   1       1.922   1.932   0.253  0.00  0.00    -0.034 A 
ATOM      5  C4  UNL d   1       2.078   1.089   1.355  0.00  0.00     0.162 A 
ATOM      6  C5  UNL d   1       3.019   0.064   1.326  0.00  0.00     0.062 A 
ATOM      7  F   UNL d   1       3.162  -0.741   2.389  0.00  0.00    -0.097 F 
ATOM      8  F1  UNL d   1       1.329   1.253   2.455  0.00  0.00    -0.096 F 
ATOM      9  I   UNL d   1       0.516   3.466   0.293  0.00  0.00    -0.060 I 
ATOM     10  F2  UNL d   1       2.594   2.523  -1.951  0.00  0.00    -0.096 F 
ATOM     11  F3  UNL d   1       4.418   0.521  -1.987  0.00  0.00    -0.097 F 
ATOM     12  F4  UNL d   1       4.712  -1.116   0.175  0.00  0.00    -0.092 F 
ENDROOT
TORSDOF 0
ENDMDL
