MODEL 1
REMARK minimizedAffinity 33.9515381
REMARK minimizedRMSD -1
REMARK  0 active torsions:
REMARK  status: ('A' for Active; 'I' for Inactive)
ROOT
ATOM      1  C   UNL d   1       0.436   1.629   3.473  0.00  0.00     0.124 A 
ATOM      2  C1  UNL d   1       1.200   0.721   4.193  0.00  0.00     0.062 A 
ATOM      3  C2  UNL d   1       2.383   0.221   3.658  0.00  0.00     0.162 A 
ATOM      4  C3  UNL d   1       2.812   0.630   2.395  0.00  0.00    -0.034 A 
ATOM      5  C4  UNL d   1       2.039   1.543   1.676  0.00  0.00     0.162 A 
ATOM      6  C5  UNL d   1       0.856   2.039   2.215  0.00  0.00     0.062 A 
ATOM      7  F   UNL d   1       0.120   2.916   1.518  0.00  0.00    -0.097 F 
ATOM      8  F1  UNL d   1       2.421   1.956   0.459  0.00  0.00    -0.096 F 
ATOM      9  I   UNL d   1       4.582  -0.115   1.591  0.00  0.00    -0.060 I 
ATOM     10  F2  UNL d   1       3.101  -0.655   4.377  0.00  0.00    -0.096 F 
ATOM     11  F3  UNL d   1       0.795   0.322   5.408  0.00  0.00    -0.097 F 
ATOM     12  F4  UNL d   1      -0.703   2.107   3.990  0.00  0.00    -0.092 F 
ENDROOT
TORSDOF 0
ENDMDL
