MODEL 1
REMARK minimizedAffinity 17.9050102
REMARK minimizedRMSD -1
REMARK  0 active torsions:
REMARK  status: ('A' for Active; 'I' for Inactive)
ROOT
ATOM      1  C   UNL d   1      -1.384  -2.861  -2.595  0.00  0.00     0.124 A 
ATOM      2  C1  UNL d   1      -0.248  -2.965  -1.804  0.00  0.00     0.062 A 
ATOM      3  C2  UNL d   1      -0.347  -2.861  -0.420  0.00  0.00     0.162 A 
ATOM      4  C3  UNL d   1      -1.587  -2.652   0.184  0.00  0.00    -0.034 A 
ATOM      5  C4  UNL d   1      -2.725  -2.547  -0.618  0.00  0.00     0.162 A 
ATOM      6  C5  UNL d   1      -2.621  -2.652  -2.001  0.00  0.00     0.062 A 
ATOM      7  F   UNL d   1      -3.719  -2.550  -2.764  0.00  0.00    -0.097 F 
ATOM      8  F1  UNL d   1      -3.933  -2.345  -0.071  0.00  0.00    -0.096 F 
ATOM      9  I   UNL d   1      -1.739  -2.495   2.253  0.00  0.00    -0.060 I 
ATOM     10  F2  UNL d   1       0.768  -2.966   0.320  0.00  0.00    -0.096 F 
ATOM     11  F3  UNL d   1       0.949  -3.167  -2.375  0.00  0.00    -0.097 F 
ATOM     12  F4  UNL d   1      -1.285  -2.961  -3.927  0.00  0.00    -0.092 F 
ENDROOT
TORSDOF 0
ENDMDL
