MODEL 1
REMARK minimizedAffinity 29.9050465
REMARK minimizedRMSD -1
REMARK  0 active torsions:
REMARK  status: ('A' for Active; 'I' for Inactive)
ROOT
ATOM      1  C   UNL d   1      -1.605  -2.408  -4.422  0.00  0.00     0.124 A 
ATOM      2  C1  UNL d   1      -2.030  -2.026  -3.158  0.00  0.00     0.062 A 
ATOM      3  C2  UNL d   1      -2.465  -2.984  -2.247  0.00  0.00     0.162 A 
ATOM      4  C3  UNL d   1      -2.478  -4.334  -2.597  0.00  0.00    -0.034 A 
ATOM      5  C4  UNL d   1      -2.050  -4.710  -3.871  0.00  0.00     0.162 A 
ATOM      6  C5  UNL d   1      -1.615  -3.749  -4.778  0.00  0.00     0.062 A 
ATOM      7  F   UNL d   1      -1.205  -4.120  -6.000  0.00  0.00    -0.097 F 
ATOM      8  F1  UNL d   1      -2.049  -6.000  -4.241  0.00  0.00    -0.096 F 
ATOM      9  I   UNL d   1      -3.129  -5.769  -1.238  0.00  0.00    -0.060 I 
ATOM     10  F2  UNL d   1      -2.870  -2.586  -1.031  0.00  0.00    -0.096 F 
ATOM     11  F3  UNL d   1      -2.021  -0.730  -2.812  0.00  0.00    -0.097 F 
ATOM     12  F4  UNL d   1      -1.187  -1.484  -5.297  0.00  0.00    -0.092 F 
ENDROOT
TORSDOF 0
ENDMDL
