MODEL 1
REMARK minimizedAffinity 8.55516434
REMARK minimizedRMSD -1
REMARK  0 active torsions:
REMARK  status: ('A' for Active; 'I' for Inactive)
ROOT
ATOM      1  C   UNL d   1      -2.396  -2.458  -1.564  0.00  0.00     0.124 A 
ATOM      2  C1  UNL d   1      -1.713  -2.413  -0.357  0.00  0.00     0.062 A 
ATOM      3  C2  UNL d   1      -1.887  -3.423   0.585  0.00  0.00     0.162 A 
ATOM      4  C3  UNL d   1      -2.749  -4.488   0.323  0.00  0.00    -0.034 A 
ATOM      5  C4  UNL d   1      -3.434  -4.526  -0.893  0.00  0.00     0.162 A 
ATOM      6  C5  UNL d   1      -3.256  -3.514  -1.831  0.00  0.00     0.062 A 
ATOM      7  F   UNL d   1      -3.918  -3.559  -2.996  0.00  0.00    -0.097 F 
ATOM      8  F1  UNL d   1      -4.270  -5.535  -1.177  0.00  0.00    -0.096 F 
ATOM      9  I   UNL d   1      -3.013  -6.000   1.728  0.00  0.00    -0.060 I 
ATOM     10  F2  UNL d   1      -1.214  -3.353   1.743  0.00  0.00    -0.096 F 
ATOM     11  F3  UNL d   1      -0.882  -1.393  -0.096  0.00  0.00    -0.097 F 
ATOM     12  F4  UNL d   1      -2.227  -1.484  -2.468  0.00  0.00    -0.092 F 
ENDROOT
TORSDOF 0
ENDMDL
