MODEL 1
REMARK minimizedAffinity 14.2302151
REMARK minimizedRMSD -1
REMARK  0 active torsions:
REMARK  status: ('A' for Active; 'I' for Inactive)
ROOT
ATOM      1  C   UNL d   1       1.878   1.053   1.348  0.00  0.00     0.124 A 
ATOM      2  C1  UNL d   1       2.149   1.290   0.007  0.00  0.00     0.062 A 
ATOM      3  C2  UNL d   1       3.326   0.813  -0.564  0.00  0.00     0.162 A 
ATOM      4  C3  UNL d   1       4.240   0.093   0.206  0.00  0.00    -0.034 A 
ATOM      5  C4  UNL d   1       3.960  -0.140   1.553  0.00  0.00     0.162 A 
ATOM      6  C5  UNL d   1       2.783   0.339   2.119  0.00  0.00     0.062 A 
ATOM      7  F   UNL d   1       2.522   0.109   3.414  0.00  0.00    -0.097 F 
ATOM      8  F1  UNL d   1       4.817  -0.829   2.322  0.00  0.00    -0.096 F 
ATOM      9  I   UNL d   1       6.000  -0.622  -0.644  0.00  0.00    -0.060 I 
ATOM     10  F2  UNL d   1       3.562   1.056  -1.861  0.00  0.00    -0.096 F 
ATOM     11  F3  UNL d   1       1.277   1.981  -0.740  0.00  0.00    -0.097 F 
ATOM     12  F4  UNL d   1       0.746   1.515   1.894  0.00  0.00    -0.092 F 
ENDROOT
TORSDOF 0
ENDMDL
