MODEL 1
REMARK minimizedAffinity 19.4598083
REMARK minimizedRMSD -1
REMARK  0 active torsions:
REMARK  status: ('A' for Active; 'I' for Inactive)
ROOT
ATOM      1  C   UNL d   1       2.294   0.325   2.577  0.00  0.00     0.124 A 
ATOM      2  C1  UNL d   1       2.714   0.838   1.358  0.00  0.00     0.062 A 
ATOM      3  C2  UNL d   1       2.007   1.873   0.752  0.00  0.00     0.162 A 
ATOM      4  C3  UNL d   1       0.872   2.403   1.366  0.00  0.00    -0.034 A 
ATOM      5  C4  UNL d   1       0.456   1.882   2.593  0.00  0.00     0.162 A 
ATOM      6  C5  UNL d   1       1.165   0.848   3.194  0.00  0.00     0.062 A 
ATOM      7  F   UNL d   1       0.758   0.354   4.372  0.00  0.00    -0.097 F 
ATOM      8  F1  UNL d   1      -0.631   2.369   3.211  0.00  0.00    -0.096 F 
ATOM      9  I   UNL d   1      -0.187   3.951   0.465  0.00  0.00    -0.060 I 
ATOM     10  F2  UNL d   1       2.435   2.348  -0.426  0.00  0.00    -0.096 F 
ATOM     11  F3  UNL d   1       3.803   0.334   0.760  0.00  0.00    -0.097 F 
ATOM     12  F4  UNL d   1       2.975  -0.671   3.157  0.00  0.00    -0.092 F 
ENDROOT
TORSDOF 0
ENDMDL
