MODEL 1
REMARK minimizedAffinity 28.0872574
REMARK minimizedRMSD -1
REMARK  0 active torsions:
REMARK  status: ('A' for Active; 'I' for Inactive)
ROOT
ATOM      1  C   UNL d   1      -1.613  -3.913   2.995  0.00  0.00     0.124 A 
ATOM      2  C1  UNL d   1      -1.197  -2.699   2.467  0.00  0.00     0.062 A 
ATOM      3  C2  UNL d   1      -1.443  -2.396   1.131  0.00  0.00     0.162 A 
ATOM      4  C3  UNL d   1      -2.111  -3.309   0.314  0.00  0.00    -0.034 A 
ATOM      5  C4  UNL d   1      -2.525  -4.528   0.852  0.00  0.00     0.162 A 
ATOM      6  C5  UNL d   1      -2.276  -4.826   2.188  0.00  0.00     0.062 A 
ATOM      7  F   UNL d   1      -2.679  -6.000   2.698  0.00  0.00    -0.097 F 
ATOM      8  F1  UNL d   1      -3.169  -5.429   0.095  0.00  0.00    -0.096 F 
ATOM      9  I   UNL d   1      -2.481  -2.860  -1.685  0.00  0.00    -0.060 I 
ATOM     10  F2  UNL d   1      -1.030  -1.216   0.646  0.00  0.00    -0.096 F 
ATOM     11  F3  UNL d   1      -0.555  -1.815   3.244  0.00  0.00    -0.097 F 
ATOM     12  F4  UNL d   1      -1.373  -4.202   4.281  0.00  0.00    -0.092 F 
ENDROOT
TORSDOF 0
ENDMDL
