MODEL 1
REMARK minimizedAffinity 7.6570282
REMARK minimizedRMSD -1
REMARK  0 active torsions:
REMARK  status: ('A' for Active; 'I' for Inactive)
ROOT
ATOM      1  C   UNL d   1      -1.430   1.883   2.101  0.00  0.00     0.124 A 
ATOM      2  C1  UNL d   1      -1.163   0.524   2.195  0.00  0.00     0.062 A 
ATOM      3  C2  UNL d   1       0.135   0.052   2.022  0.00  0.00     0.162 A 
ATOM      4  C3  UNL d   1       1.177   0.940   1.754  0.00  0.00    -0.034 A 
ATOM      5  C4  UNL d   1       0.901   2.305   1.659  0.00  0.00     0.162 A 
ATOM      6  C5  UNL d   1      -0.398   2.772   1.833  0.00  0.00     0.062 A 
ATOM      7  F   UNL d   1      -0.654   4.085   1.741  0.00  0.00    -0.097 F 
ATOM      8  F1  UNL d   1       1.879   3.186   1.402  0.00  0.00    -0.096 F 
ATOM      9  I   UNL d   1       3.119   0.238   1.495  0.00  0.00    -0.060 I 
ATOM     10  F2  UNL d   1       0.365  -1.266   2.119  0.00  0.00    -0.096 F 
ATOM     11  F3  UNL d   1      -2.157  -0.337   2.453  0.00  0.00    -0.097 F 
ATOM     12  F4  UNL d   1      -2.680   2.334   2.266  0.00  0.00    -0.092 F 
ENDROOT
TORSDOF 0
ENDMDL
