MODEL 1
REMARK minimizedAffinity 7.82991552
REMARK minimizedRMSD -1
REMARK  0 active torsions:
REMARK  status: ('A' for Active; 'I' for Inactive)
ROOT
ATOM      1  C   UNL d   1      -2.146   0.075   2.817  0.00  0.00     0.124 A 
ATOM      2  C1  UNL d   1      -1.846   1.430   2.771  0.00  0.00     0.062 A 
ATOM      3  C2  UNL d   1      -2.631   2.345   3.467  0.00  0.00     0.162 A 
ATOM      4  C3  UNL d   1      -3.724   1.908   4.216  0.00  0.00    -0.034 A 
ATOM      5  C4  UNL d   1      -4.019   0.544   4.258  0.00  0.00     0.162 A 
ATOM      6  C5  UNL d   1      -3.232  -0.366   3.561  0.00  0.00     0.062 A 
ATOM      7  F   UNL d   1      -3.523  -1.674   3.607  0.00  0.00    -0.097 F 
ATOM      8  F1  UNL d   1      -5.062   0.091   4.969  0.00  0.00    -0.096 F 
ATOM      9  I   UNL d   1      -4.900   3.273   5.258  0.00  0.00    -0.060 I 
ATOM     10  F2  UNL d   1      -2.318   3.647   3.404  0.00  0.00    -0.096 F 
ATOM     11  F3  UNL d   1      -0.798   1.859   2.053  0.00  0.00    -0.097 F 
ATOM     12  F4  UNL d   1      -1.390  -0.803   2.146  0.00  0.00    -0.092 F 
ENDROOT
TORSDOF 0
ENDMDL
