MODEL 1
REMARK minimizedAffinity 9.37561417
REMARK minimizedRMSD -1
REMARK  1 active torsions:
REMARK  status: ('A' for Active; 'I' for Inactive)
REMARK    1  A    between atoms: N_2  and  C1_3 
ROOT
ATOM      1  C1  UNL d   1      -1.240  -1.904  -0.462  0.00  0.00     0.143 A 
ATOM      2  C2  UNL d   1      -0.466  -3.039  -0.195  0.00  0.00    -0.057 A 
ATOM      3  C3  UNL d   1      -0.714  -3.840   0.926  0.00  0.00     0.033 A 
ATOM      4  C4  UNL d   1      -1.726  -3.503   1.819  0.00  0.00    -0.042 A 
ATOM      5  C5  UNL d   1      -2.492  -2.366   1.587  0.00  0.00     0.033 A 
ATOM      6  C6  UNL d   1      -2.244  -1.574   0.462  0.00  0.00    -0.057 A 
ENDROOT
BRANCH   1   7
ATOM      7  N   UNL d   1      -0.980  -1.013  -1.506  0.00  0.00    -0.732 N 
ATOM      8  C   UNL d   1      -1.887  -0.908  -2.629  0.00  0.00     0.284 C 
ATOM      9  H3  UNL d   1      -0.624  -0.120  -1.174  0.00  0.00     0.395 HD
ENDBRANCH   1   7
TORSDOF 1
ENDMDL
