MODEL 1
REMARK minimizedAffinity 8.53491688
REMARK minimizedRMSD -1
REMARK  1 active torsions:
REMARK  status: ('A' for Active; 'I' for Inactive)
REMARK    1  A    between atoms: N_2  and  C1_3 
ROOT
ATOM      1  C1  UNL d   1      -3.559   0.875   5.855  0.00  0.00     0.143 A 
ATOM      2  C2  UNL d   1      -3.539   2.274   5.864  0.00  0.00    -0.057 A 
ATOM      3  C3  UNL d   1      -4.722   3.017   5.948  0.00  0.00     0.033 A 
ATOM      4  C4  UNL d   1      -5.954   2.372   5.995  0.00  0.00    -0.042 A 
ATOM      5  C5  UNL d   1      -6.000   0.983   5.963  0.00  0.00     0.033 A 
ATOM      6  C6  UNL d   1      -4.814   0.246   5.885  0.00  0.00    -0.057 A 
ENDROOT
BRANCH   1   7
ATOM      7  N   UNL d   1      -2.424   0.082   5.674  0.00  0.00    -0.732 N 
ATOM      8  C   UNL d   1      -2.458  -1.063   4.788  0.00  0.00     0.284 C 
ATOM      9  H3  UNL d   1      -1.571   0.633   5.608  0.00  0.00     0.395 HD
ENDBRANCH   1   7
TORSDOF 1
ENDMDL
