MODEL 1
REMARK minimizedAffinity 5.19732332
REMARK minimizedRMSD -1
REMARK  1 active torsions:
REMARK  status: ('A' for Active; 'I' for Inactive)
REMARK    1  A    between atoms: N_2  and  C1_3 
ROOT
ATOM      1  C1  UNL d   1      -0.883  -3.752   0.916  0.00  0.00     0.143 A 
ATOM      2  C2  UNL d   1      -1.389  -2.779   0.047  0.00  0.00    -0.057 A 
ATOM      3  C3  UNL d   1      -2.326  -1.834   0.481  0.00  0.00     0.033 A 
ATOM      4  C4  UNL d   1      -2.797  -1.864   1.790  0.00  0.00    -0.042 A 
ATOM      5  C5  UNL d   1      -2.327  -2.837   2.664  0.00  0.00     0.033 A 
ATOM      6  C6  UNL d   1      -1.386  -3.774   2.226  0.00  0.00    -0.057 A 
ENDROOT
BRANCH   1   7
ATOM      7  N   UNL d   1      -0.024  -4.779   0.518  0.00  0.00    -0.732 N 
ATOM      8  C   UNL d   1      -0.474  -5.802  -0.402  0.00  0.00     0.284 C 
ATOM      9  H3  UNL d   1       0.922  -4.448   0.341  0.00  0.00     0.395 HD
ENDBRANCH   1   7
TORSDOF 1
ENDMDL
