MODEL 1
REMARK minimizedAffinity 11.4406166
REMARK minimizedRMSD -1
REMARK  1 active torsions:
REMARK  status: ('A' for Active; 'I' for Inactive)
REMARK    1  A    between atoms: N_2  and  C1_3 
ROOT
ATOM      1  C1  UNL d   1       0.669   2.199  -3.738  0.00  0.00     0.143 A 
ATOM      2  C2  UNL d   1       0.639   0.892  -4.235  0.00  0.00    -0.057 A 
ATOM      3  C3  UNL d   1       1.450  -0.111  -3.690  0.00  0.00     0.033 A 
ATOM      4  C4  UNL d   1       2.329   0.185  -2.653  0.00  0.00    -0.042 A 
ATOM      5  C5  UNL d   1       2.394   1.483  -2.160  0.00  0.00     0.033 A 
ATOM      6  C6  UNL d   1       1.576   2.478  -2.704  0.00  0.00    -0.057 A 
ENDROOT
BRANCH   1   7
ATOM      7  N   UNL d   1      -0.041   3.262  -4.302  0.00  0.00    -0.732 N 
ATOM      8  C   UNL d   1       0.249   3.710  -5.648  0.00  0.00     0.284 C 
ATOM      9  H3  UNL d   1      -1.033   3.228  -4.080  0.00  0.00     0.395 HD
ENDBRANCH   1   7
TORSDOF 1
ENDMDL
