MODEL 1
REMARK minimizedAffinity 11.1333513
REMARK minimizedRMSD -1
REMARK  1 active torsions:
REMARK  status: ('A' for Active; 'I' for Inactive)
REMARK    1  A    between atoms: N_2  and  C1_3 
ROOT
ATOM      1  C1  UNL d   1      -1.865   2.245  -3.841  0.00  0.00     0.143 A 
ATOM      2  C2  UNL d   1      -0.529   2.591  -3.616  0.00  0.00    -0.057 A 
ATOM      3  C3  UNL d   1       0.195   3.343  -4.549  0.00  0.00     0.033 A 
ATOM      4  C4  UNL d   1      -0.400   3.739  -5.743  0.00  0.00    -0.042 A 
ATOM      5  C5  UNL d   1      -1.720   3.385  -6.000  0.00  0.00     0.033 A 
ATOM      6  C6  UNL d   1      -2.439   2.640  -5.060  0.00  0.00    -0.057 A 
ENDROOT
BRANCH   1   7
ATOM      7  N   UNL d   1      -2.608   1.416  -2.997  0.00  0.00    -0.732 N 
ATOM      8  C   UNL d   1      -2.093   0.125  -2.593  0.00  0.00     0.284 C 
ATOM      9  H3  UNL d   1      -3.067   1.932  -2.251  0.00  0.00     0.395 HD
ENDBRANCH   1   7
TORSDOF 1
ENDMDL
