MODEL 1
REMARK minimizedAffinity 15.6806545
REMARK minimizedRMSD -1
REMARK  1 active torsions:
REMARK  status: ('A' for Active; 'I' for Inactive)
REMARK    1  A    between atoms: N_2  and  C1_3 
ROOT
ATOM      1  C1  UNL d   1      -1.007   2.589  -4.467  0.00  0.00     0.143 A 
ATOM      2  C2  UNL d   1      -0.699   1.333  -3.932  0.00  0.00    -0.057 A 
ATOM      3  C3  UNL d   1      -1.681   0.544  -3.321  0.00  0.00     0.033 A 
ATOM      4  C4  UNL d   1      -2.986   1.010  -3.208  0.00  0.00    -0.042 A 
ATOM      5  C5  UNL d   1      -3.310   2.266  -3.709  0.00  0.00     0.033 A 
ATOM      6  C6  UNL d   1      -2.327   3.047  -4.325  0.00  0.00    -0.057 A 
ENDROOT
BRANCH   1   7
ATOM      7  N   UNL d   1      -0.056   3.463  -4.999  0.00  0.00    -0.732 N 
ATOM      8  C   UNL d   1       0.885   3.008  -6.000  0.00  0.00     0.284 C 
ATOM      9  H3  UNL d   1      -0.436   4.390  -5.176  0.00  0.00     0.395 HD
ENDBRANCH   1   7
TORSDOF 1
ENDMDL
