MODEL 1
REMARK minimizedAffinity 12.9074697
REMARK minimizedRMSD -1
REMARK  1 active torsions:
REMARK  status: ('A' for Active; 'I' for Inactive)
REMARK    1  A    between atoms: N_2  and  C1_3 
ROOT
ATOM      1  C1  UNL d   1      -4.520   3.330   0.375  0.00  0.00     0.143 A 
ATOM      2  C2  UNL d   1      -4.000   4.239  -0.553  0.00  0.00    -0.057 A 
ATOM      3  C3  UNL d   1      -4.447   5.565  -0.600  0.00  0.00     0.033 A 
ATOM      4  C4  UNL d   1      -5.446   5.999   0.264  0.00  0.00    -0.042 A 
ATOM      5  C5  UNL d   1      -5.996   5.107   1.178  0.00  0.00     0.033 A 
ATOM      6  C6  UNL d   1      -5.540   3.786   1.225  0.00  0.00    -0.057 A 
ENDROOT
BRANCH   1   7
ATOM      7  N   UNL d   1      -4.187   1.974   0.406  0.00  0.00    -0.732 N 
ATOM      8  C   UNL d   1      -4.581   1.093  -0.673  0.00  0.00     0.284 C 
ATOM      9  H3  UNL d   1      -3.244   1.813   0.751  0.00  0.00     0.395 HD
ENDBRANCH   1   7
TORSDOF 1
ENDMDL
