MODEL 1
REMARK minimizedAffinity 13.7048159
REMARK minimizedRMSD -1
REMARK  1 active torsions:
REMARK  status: ('A' for Active; 'I' for Inactive)
REMARK    1  A    between atoms: N_2  and  C1_3 
ROOT
ATOM      1  C1  UNL d   1      -2.326  -0.338   5.488  0.00  0.00     0.143 A 
ATOM      2  C2  UNL d   1      -2.869  -1.072   4.427  0.00  0.00    -0.057 A 
ATOM      3  C3  UNL d   1      -2.224  -2.211   3.928  0.00  0.00     0.033 A 
ATOM      4  C4  UNL d   1      -1.007  -2.619   4.463  0.00  0.00    -0.042 A 
ATOM      5  C5  UNL d   1      -0.437  -1.890   5.501  0.00  0.00     0.033 A 
ATOM      6  C6  UNL d   1      -1.089  -0.758   5.999  0.00  0.00    -0.057 A 
ENDROOT
BRANCH   1   7
ATOM      7  N   UNL d   1      -2.869   0.858   5.963  0.00  0.00    -0.732 N 
ATOM      8  C   UNL d   1      -4.302   1.054   5.999  0.00  0.00     0.284 C 
ATOM      9  H3  UNL d   1      -2.381   1.207   6.785  0.00  0.00     0.395 HD
ENDBRANCH   1   7
TORSDOF 1
ENDMDL
