MODEL 1
REMARK minimizedAffinity 18.887001
REMARK minimizedRMSD -1
REMARK  1 active torsions:
REMARK  status: ('A' for Active; 'I' for Inactive)
REMARK    1  A    between atoms: N_2  and  C1_3 
ROOT
ATOM      1  C1  UNL d   1       4.313   3.017   0.041  0.00  0.00     0.143 A 
ATOM      2  C2  UNL d   1       5.156   2.492  -0.944  0.00  0.00    -0.057 A 
ATOM      3  C3  UNL d   1       6.000   3.320  -1.694  0.00  0.00     0.033 A 
ATOM      4  C4  UNL d   1       5.993   4.696  -1.491  0.00  0.00    -0.042 A 
ATOM      5  C5  UNL d   1       5.145   5.243  -0.535  0.00  0.00     0.033 A 
ATOM      6  C6  UNL d   1       4.310   4.410   0.216  0.00  0.00    -0.057 A 
ENDROOT
BRANCH   1   7
ATOM      7  N   UNL d   1       3.380   2.258   0.752  0.00  0.00    -0.732 N 
ATOM      8  C   UNL d   1       3.751   1.599   1.986  0.00  0.00     0.284 C 
ATOM      9  H3  UNL d   1       2.460   2.693   0.774  0.00  0.00     0.395 HD
ENDBRANCH   1   7
TORSDOF 1
ENDMDL
