MODEL 1
REMARK minimizedAffinity 8.52187252
REMARK minimizedRMSD -1
REMARK  1 active torsions:
REMARK  status: ('A' for Active; 'I' for Inactive)
REMARK    1  A    between atoms: N_2  and  C1_3 
ROOT
ATOM      1  C1  UNL d   1      -2.348  -0.415   5.050  0.00  0.00     0.143 A 
ATOM      2  C2  UNL d   1      -2.802  -1.152   3.951  0.00  0.00    -0.057 A 
ATOM      3  C3  UNL d   1      -2.159  -2.330   3.552  0.00  0.00     0.033 A 
ATOM      4  C4  UNL d   1      -1.031  -2.778   4.230  0.00  0.00    -0.042 A 
ATOM      5  C5  UNL d   1      -0.547  -2.048   5.310  0.00  0.00     0.033 A 
ATOM      6  C6  UNL d   1      -1.197  -0.876   5.708  0.00  0.00    -0.057 A 
ENDROOT
BRANCH   1   7
ATOM      7  N   UNL d   1      -2.884   0.817   5.435  0.00  0.00    -0.732 N 
ATOM      8  C   UNL d   1      -4.216   0.898   5.994  0.00  0.00     0.284 C 
ATOM      9  H3  UNL d   1      -2.200   1.409   5.902  0.00  0.00     0.395 HD
ENDBRANCH   1   7
TORSDOF 1
ENDMDL
