MODEL 1
REMARK minimizedAffinity 15.3144913
REMARK minimizedRMSD -1
REMARK  1 active torsions:
REMARK  status: ('A' for Active; 'I' for Inactive)
REMARK    1  A    between atoms: N_2  and  C1_3 
ROOT
ATOM      1  C1  UNL d   1       4.282   3.396  -0.000  0.00  0.00     0.143 A 
ATOM      2  C2  UNL d   1       5.225   3.201  -1.016  0.00  0.00    -0.057 A 
ATOM      3  C3  UNL d   1       6.000   4.262  -1.500  0.00  0.00     0.033 A 
ATOM      4  C4  UNL d   1       5.824   5.547  -0.996  0.00  0.00    -0.042 A 
ATOM      5  C5  UNL d   1       4.875   5.768  -0.004  0.00  0.00     0.033 A 
ATOM      6  C6  UNL d   1       4.109   4.703   0.480  0.00  0.00    -0.057 A 
ENDROOT
BRANCH   1   7
ATOM      7  N   UNL d   1       3.413   2.401   0.454  0.00  0.00    -0.732 N 
ATOM      8  C   UNL d   1       2.378   1.875  -0.410  0.00  0.00     0.284 C 
ATOM      9  H3  UNL d   1       3.888   1.695   1.012  0.00  0.00     0.395 HD
ENDBRANCH   1   7
TORSDOF 1
ENDMDL
