MODEL 1
REMARK minimizedAffinity 13.2916946
REMARK minimizedRMSD -1
REMARK  1 active torsions:
REMARK  status: ('A' for Active; 'I' for Inactive)
REMARK    1  A    between atoms: N_2  and  C1_3 
ROOT
ATOM      1  C1  UNL d   1      -5.027   1.991   5.282  0.00  0.00     0.143 A 
ATOM      2  C2  UNL d   1      -4.969   1.931   3.886  0.00  0.00    -0.057 A 
ATOM      3  C3  UNL d   1      -3.913   1.288   3.229  0.00  0.00     0.033 A 
ATOM      4  C4  UNL d   1      -2.877   0.717   3.961  0.00  0.00    -0.042 A 
ATOM      5  C5  UNL d   1      -2.900   0.785   5.349  0.00  0.00     0.033 A 
ATOM      6  C6  UNL d   1      -3.962   1.423   5.999  0.00  0.00    -0.057 A 
ENDROOT
BRANCH   1   7
ATOM      7  N   UNL d   1      -5.999   2.700   5.991  0.00  0.00    -0.732 N 
ATOM      8  C   UNL d   1      -5.996   4.147   6.000  0.00  0.00     0.284 C 
ATOM      9  H3  UNL d   1      -6.925   2.287   5.900  0.00  0.00     0.395 HD
ENDBRANCH   1   7
TORSDOF 1
ENDMDL
