MODEL 1
REMARK minimizedAffinity 7.02597475
REMARK minimizedRMSD -1
REMARK  1 active torsions:
REMARK  status: ('A' for Active; 'I' for Inactive)
REMARK    1  A    between atoms: N_2  and  C1_3 
ROOT
ATOM      1  C1  UNL d   1       0.530   1.689  -3.990  0.00  0.00     0.143 A 
ATOM      2  C2  UNL d   1       0.368   0.303  -4.095  0.00  0.00    -0.057 A 
ATOM      3  C3  UNL d   1       1.430  -0.574  -3.844  0.00  0.00     0.033 A 
ATOM      4  C4  UNL d   1       2.685  -0.077  -3.509  0.00  0.00    -0.042 A 
ATOM      5  C5  UNL d   1       2.876   1.298  -3.423  0.00  0.00     0.033 A 
ATOM      6  C6  UNL d   1       1.810   2.168  -3.669  0.00  0.00    -0.057 A 
ENDROOT
BRANCH   1   7
ATOM      7  N   UNL d   1      -0.461   2.615  -4.324  0.00  0.00    -0.732 N 
ATOM      8  C   UNL d   1      -1.854   2.336  -4.050  0.00  0.00     0.284 C 
ATOM      9  H3  UNL d   1      -0.181   3.573  -4.122  0.00  0.00     0.395 HD
ENDBRANCH   1   7
TORSDOF 1
ENDMDL
