MODEL 1
REMARK minimizedAffinity 16.5293922
REMARK minimizedRMSD -1
REMARK  1 active torsions:
REMARK  status: ('A' for Active; 'I' for Inactive)
REMARK    1  A    between atoms: N_2  and  C1_3 
ROOT
ATOM      1  C1  UNL d   1      -2.977   3.768  -4.676  0.00  0.00     0.143 A 
ATOM      2  C2  UNL d   1      -3.976   3.439  -5.598  0.00  0.00    -0.057 A 
ATOM      3  C3  UNL d   1      -4.936   4.377  -5.995  0.00  0.00     0.033 A 
ATOM      4  C4  UNL d   1      -4.932   5.658  -5.452  0.00  0.00    -0.042 A 
ATOM      5  C5  UNL d   1      -3.963   6.000  -4.515  0.00  0.00     0.033 A 
ATOM      6  C6  UNL d   1      -3.003   5.061  -4.128  0.00  0.00    -0.057 A 
ENDROOT
BRANCH   1   7
ATOM      7  N   UNL d   1      -2.054   2.851  -4.168  0.00  0.00    -0.732 N 
ATOM      8  C   UNL d   1      -0.639   3.006  -4.431  0.00  0.00     0.284 C 
ATOM      9  H3  UNL d   1      -2.271   2.569  -3.215  0.00  0.00     0.395 HD
ENDBRANCH   1   7
TORSDOF 1
ENDMDL
