MODEL 1
REMARK minimizedAffinity 13.6650906
REMARK minimizedRMSD -1
REMARK  1 active torsions:
REMARK  status: ('A' for Active; 'I' for Inactive)
REMARK    1  A    between atoms: N_2  and  C1_3 
ROOT
ATOM      1  C1  UNL d   1      -1.206  -2.835   0.334  0.00  0.00     0.143 A 
ATOM      2  C2  UNL d   1      -2.343  -2.126   0.737  0.00  0.00    -0.057 A 
ATOM      3  C3  UNL d   1      -2.937  -1.171  -0.098  0.00  0.00     0.033 A 
ATOM      4  C4  UNL d   1      -2.385  -0.887  -1.342  0.00  0.00    -0.042 A 
ATOM      5  C5  UNL d   1      -1.240  -1.561  -1.753  0.00  0.00     0.033 A 
ATOM      6  C6  UNL d   1      -0.656  -2.519  -0.918  0.00  0.00    -0.057 A 
ENDROOT
BRANCH   1   7
ATOM      7  N   UNL d   1      -0.513  -3.725   1.158  0.00  0.00    -0.732 N 
ATOM      8  C   UNL d   1      -0.699  -5.154   1.020  0.00  0.00     0.284 C 
ATOM      9  H3  UNL d   1       0.454  -3.444   1.307  0.00  0.00     0.395 HD
ENDBRANCH   1   7
TORSDOF 1
ENDMDL
