MODEL 1
REMARK minimizedAffinity 6.26989746
REMARK minimizedRMSD -1
REMARK  1 active torsions:
REMARK  status: ('A' for Active; 'I' for Inactive)
REMARK    1  A    between atoms: N_2  and  C1_3 
ROOT
ATOM      1  C1  UNL d   1      -3.390   0.017   5.902  0.00  0.00     0.143 A 
ATOM      2  C2  UNL d   1      -4.744  -0.334   5.929  0.00  0.00    -0.057 A 
ATOM      3  C3  UNL d   1      -5.746   0.643   5.963  0.00  0.00     0.033 A 
ATOM      4  C4  UNL d   1      -5.410   1.993   6.000  0.00  0.00    -0.042 A 
ATOM      5  C5  UNL d   1      -4.070   2.363   5.999  0.00  0.00     0.033 A 
ATOM      6  C6  UNL d   1      -3.074   1.383   5.959  0.00  0.00    -0.057 A 
ENDROOT
BRANCH   1   7
ATOM      7  N   UNL d   1      -2.346  -0.909   5.968  0.00  0.00    -0.732 N 
ATOM      8  C   UNL d   1      -2.125  -1.849   4.890  0.00  0.00     0.284 C 
ATOM      9  H3  UNL d   1      -1.493  -0.506   6.349  0.00  0.00     0.395 HD
ENDBRANCH   1   7
TORSDOF 1
ENDMDL
