MODEL 1
REMARK minimizedAffinity 15.8674755
REMARK minimizedRMSD -1
REMARK  1 active torsions:
REMARK  status: ('A' for Active; 'I' for Inactive)
REMARK    1  A    between atoms: N_2  and  C1_3 
ROOT
ATOM      1  C1  UNL d   1       4.346   3.033   0.352  0.00  0.00     0.143 A 
ATOM      2  C2  UNL d   1       4.290   4.392   0.676  0.00  0.00    -0.057 A 
ATOM      3  C3  UNL d   1       5.052   5.337  -0.022  0.00  0.00     0.033 A 
ATOM      4  C4  UNL d   1       5.908   4.933  -1.041  0.00  0.00    -0.042 A 
ATOM      5  C5  UNL d   1       5.999   3.584  -1.364  0.00  0.00     0.033 A 
ATOM      6  C6  UNL d   1       5.230   2.646  -0.668  0.00  0.00    -0.057 A 
ENDROOT
BRANCH   1   7
ATOM      7  N   UNL d   1       3.688   2.033   1.073  0.00  0.00    -0.732 N 
ATOM      8  C   UNL d   1       4.305   1.436   2.237  0.00  0.00     0.284 C 
ATOM      9  H3  UNL d   1       2.694   2.223   1.180  0.00  0.00     0.395 HD
ENDBRANCH   1   7
TORSDOF 1
ENDMDL
