MODEL 1
REMARK minimizedAffinity -4.26840973
REMARK minimizedRMSD -1
REMARK  0 active torsions:
REMARK  status: ('A' for Active; 'I' for Inactive)
ROOT
ATOM      1  C   UNL d   1      -0.406   0.395  -1.672  0.00  0.00     0.172 C 
ATOM      2  N   UNL d   1       0.744  -0.423  -1.977  0.00  0.00    -0.070 N 
ATOM      3  C1  UNL d   1       1.887   0.007  -2.597  0.00  0.00    -0.004 A 
ATOM      4  C2  UNL d   1       2.741  -1.070  -2.702  0.00  0.00    -0.047 A 
ATOM      5  C3  UNL d   1       2.087  -2.186  -2.127  0.00  0.00    -0.047 A 
ATOM      6  C4  UNL d   1       0.853  -1.757  -1.686  0.00  0.00    -0.004 A 
ENDROOT
TORSDOF 0
ENDMDL
