MODEL 1
REMARK minimizedAffinity -3.51080155
REMARK minimizedRMSD -1
REMARK  0 active torsions:
REMARK  status: ('A' for Active; 'I' for Inactive)
ROOT
ATOM      1  C   UNL d   1      -1.344   0.300   1.118  0.00  0.00     0.172 C 
ATOM      2  N   UNL d   1      -0.433   0.291  -0.002  0.00  0.00    -0.070 N 
ATOM      3  C1  UNL d   1      -0.578  -0.450  -1.144  0.00  0.00    -0.004 A 
ATOM      4  C2  UNL d   1       0.497  -0.178  -1.964  0.00  0.00    -0.047 A 
ATOM      5  C3  UNL d   1       1.316   0.759  -1.290  0.00  0.00    -0.047 A 
ATOM      6  C4  UNL d   1       0.717   1.032  -0.079  0.00  0.00    -0.004 A 
ENDROOT
TORSDOF 0
ENDMDL
