MODEL 1
REMARK minimizedAffinity -3.63256645
REMARK minimizedRMSD -1
REMARK  0 active torsions:
REMARK  status: ('A' for Active; 'I' for Inactive)
ROOT
ATOM      1  C   UNL d   1      -0.917   0.004   0.829  0.00  0.00     0.172 C 
ATOM      2  N   UNL d   1      -0.181   0.202  -0.398  0.00  0.00    -0.070 N 
ATOM      3  C1  UNL d   1       0.782   1.152  -0.607  0.00  0.00    -0.004 A 
ATOM      4  C2  UNL d   1       1.240   1.013  -1.900  0.00  0.00    -0.047 A 
ATOM      5  C3  UNL d   1       0.525  -0.058  -2.488  0.00  0.00    -0.047 A 
ATOM      6  C4  UNL d   1      -0.348  -0.541  -1.537  0.00  0.00    -0.004 A 
ENDROOT
TORSDOF 0
ENDMDL
