MODEL 1
REMARK minimizedAffinity -2.59319496
REMARK minimizedRMSD -1
REMARK  0 active torsions:
REMARK  status: ('A' for Active; 'I' for Inactive)
ROOT
ATOM      1  C   UNL d   1      -0.270  -1.119   0.367  0.00  0.00     0.172 C 
ATOM      2  N   UNL d   1      -1.391  -0.404   0.930  0.00  0.00    -0.070 N 
ATOM      3  C1  UNL d   1      -2.712  -0.671   0.687  0.00  0.00    -0.004 A 
ATOM      4  C2  UNL d   1      -3.464   0.229   1.409  0.00  0.00    -0.047 A 
ATOM      5  C3  UNL d   1      -2.565   1.068   2.110  0.00  0.00    -0.047 A 
ATOM      6  C4  UNL d   1      -1.288   0.654   1.795  0.00  0.00    -0.004 A 
ENDROOT
TORSDOF 0
ENDMDL
