MODEL 1
REMARK minimizedAffinity -1.92187583
REMARK minimizedRMSD -1
REMARK  0 active torsions:
REMARK  status: ('A' for Active; 'I' for Inactive)
ROOT
ATOM      1  C   UNL d   1       0.401  -0.895  -2.026  0.00  0.00     0.172 C 
ATOM      2  N   UNL d   1       0.185  -0.118  -0.828  0.00  0.00    -0.070 N 
ATOM      3  C1  UNL d   1       0.734   1.107  -0.562  0.00  0.00    -0.004 A 
ATOM      4  C2  UNL d   1       0.284   1.512   0.676  0.00  0.00    -0.047 A 
ATOM      5  C3  UNL d   1      -0.565   0.494   1.171  0.00  0.00    -0.047 A 
ATOM      6  C4  UNL d   1      -0.609  -0.503   0.220  0.00  0.00    -0.004 A 
ENDROOT
TORSDOF 0
ENDMDL
