MODEL 1
REMARK minimizedAffinity -1.60316908
REMARK minimizedRMSD -1
REMARK  0 active torsions:
REMARK  status: ('A' for Active; 'I' for Inactive)
ROOT
ATOM      1  C   UNL d   1      -0.717  -1.142   0.433  0.00  0.00     0.172 C 
ATOM      2  N   UNL d   1      -1.832  -0.407   0.983  0.00  0.00    -0.070 N 
ATOM      3  C1  UNL d   1      -1.740   0.670   1.824  0.00  0.00    -0.004 A 
ATOM      4  C2  UNL d   1      -3.021   1.084   2.120  0.00  0.00    -0.047 A 
ATOM      5  C3  UNL d   1      -3.913   0.227   1.433  0.00  0.00    -0.047 A 
ATOM      6  C4  UNL d   1      -3.150  -0.687   0.737  0.00  0.00    -0.004 A 
ENDROOT
TORSDOF 0
ENDMDL
