MODEL 1
REMARK minimizedAffinity -3.92046189
REMARK minimizedRMSD -1
REMARK  0 active torsions:
REMARK  status: ('A' for Active; 'I' for Inactive)
ROOT
ATOM      1  C   UNL d   1      -0.669  -0.376   0.683  0.00  0.00     0.172 C 
ATOM      2  N   UNL d   1       0.180  -0.064  -0.442  0.00  0.00    -0.070 N 
ATOM      3  C1  UNL d   1       0.266  -0.787  -1.602  0.00  0.00    -0.004 A 
ATOM      4  C2  UNL d   1       1.182  -0.163  -2.421  0.00  0.00    -0.047 A 
ATOM      5  C3  UNL d   1       1.663   0.974  -1.730  0.00  0.00    -0.047 A 
ATOM      6  C4  UNL d   1       1.026   1.012  -0.507  0.00  0.00    -0.004 A 
ENDROOT
TORSDOF 0
ENDMDL
