MODEL 1
REMARK minimizedAffinity -1.72671473
REMARK minimizedRMSD -1
REMARK  0 active torsions:
REMARK  status: ('A' for Active; 'I' for Inactive)
ROOT
ATOM      1  C   UNL d   1      -0.293  -0.114   1.252  0.00  0.00     0.172 C 
ATOM      2  N   UNL d   1      -1.728  -0.258   1.323  0.00  0.00    -0.070 N 
ATOM      3  C1  UNL d   1      -2.464  -1.230   0.699  0.00  0.00    -0.004 A 
ATOM      4  C2  UNL d   1      -3.789  -1.023   1.015  0.00  0.00    -0.047 A 
ATOM      5  C3  UNL d   1      -3.852   0.112   1.857  0.00  0.00    -0.047 A 
ATOM      6  C4  UNL d   1      -2.561   0.566   2.031  0.00  0.00    -0.004 A 
ENDROOT
TORSDOF 0
ENDMDL
