MODEL 1
REMARK minimizedAffinity -3.29300666
REMARK minimizedRMSD -1
REMARK  0 active torsions:
REMARK  status: ('A' for Active; 'I' for Inactive)
ROOT
ATOM      1  C   UNL d   1      -0.034  -1.493  -0.330  0.00  0.00     0.172 C 
ATOM      2  N   UNL d   1       0.902  -1.074  -1.347  0.00  0.00    -0.070 N 
ATOM      3  C1  UNL d   1       1.755  -1.895  -2.035  0.00  0.00    -0.004 A 
ATOM      4  C2  UNL d   1       2.477  -1.115  -2.912  0.00  0.00    -0.047 A 
ATOM      5  C3  UNL d   1       2.044   0.222  -2.745  0.00  0.00    -0.047 A 
ATOM      6  C4  UNL d   1       1.068   0.219  -1.770  0.00  0.00    -0.004 A 
ENDROOT
TORSDOF 0
ENDMDL
