MODEL 1
REMARK minimizedAffinity -3.59759617
REMARK minimizedRMSD -1
REMARK  0 active torsions:
REMARK  status: ('A' for Active; 'I' for Inactive)
ROOT
ATOM      1  C   UNL d   1      -0.398  -0.357   0.741  0.00  0.00     0.172 C 
ATOM      2  N   UNL d   1       0.377  -0.282  -0.476  0.00  0.00    -0.070 N 
ATOM      3  C1  UNL d   1       0.791   0.870  -1.089  0.00  0.00    -0.004 A 
ATOM      4  C2  UNL d   1       1.500   0.517  -2.217  0.00  0.00    -0.047 A 
ATOM      5  C3  UNL d   1       1.512  -0.896  -2.284  0.00  0.00    -0.047 A 
ATOM      6  C4  UNL d   1       0.809  -1.365  -1.194  0.00  0.00    -0.004 A 
ENDROOT
TORSDOF 0
ENDMDL
