MODEL 1
REMARK minimizedAffinity -3.69468355
REMARK minimizedRMSD -1
REMARK  0 active torsions:
REMARK  status: ('A' for Active; 'I' for Inactive)
ROOT
ATOM      1  C   UNL d   1      -0.286  -0.356   1.209  0.00  0.00     0.172 C 
ATOM      2  N   UNL d   1       0.279   0.064  -0.052  0.00  0.00    -0.070 N 
ATOM      3  C1  UNL d   1       0.276  -0.666  -1.210  0.00  0.00    -0.004 A 
ATOM      4  C2  UNL d   1       0.908   0.081  -2.181  0.00  0.00    -0.047 A 
ATOM      5  C3  UNL d   1       1.305   1.301  -1.585  0.00  0.00    -0.047 A 
ATOM      6  C4  UNL d   1       0.903   1.264  -0.267  0.00  0.00    -0.004 A 
ENDROOT
TORSDOF 0
ENDMDL
