MODEL 1
REMARK minimizedAffinity 5.6345005
REMARK minimizedRMSD -1
REMARK  0 active torsions:
REMARK  status: ('A' for Active; 'I' for Inactive)
ROOT
ATOM      1  N1  IND d   1      -1.810  -1.326   2.928  0.00  0.00    -0.196 N 
ATOM      2  C2  IND d   1      -1.675  -0.194   2.174  0.00  0.00     0.054 A 
ATOM      3  C3  IND d   1      -0.371   0.140   2.054  0.00  0.00    -0.031 A 
ATOM      4  C4  IND d   1       1.718  -1.086   2.927  0.00  0.00     0.051 A 
ATOM      5  C5  IND d   1       2.100  -2.146   3.701  0.00  0.00    -0.031 A 
ATOM      6  C6  IND d   1       1.180  -3.006   4.265  0.00  0.00     0.015 A 
ATOM      7  C7  IND d   1      -0.162  -2.843   4.067  0.00  0.00    -0.016 A 
ATOM      8  C8  IND d   1      -0.554  -1.764   3.288  0.00  0.00    -0.047 A 
ATOM      9  C9  IND d   1       0.373  -0.864   2.747  0.00  0.00    -0.096 A 
ATOM     10  HN1 IND d   1      -2.553  -1.701   3.142  0.00  0.00     0.298 HD
ENDROOT
TORSDOF 0
ENDMDL
