MODEL 1
REMARK minimizedAffinity -1.37833881
REMARK minimizedRMSD -1
REMARK  0 active torsions:
REMARK  status: ('A' for Active; 'I' for Inactive)
ROOT
ATOM      1  N1  IND d   1      -0.079  -1.751   2.511  0.00  0.00    -0.196 N 
ATOM      2  C2  IND d   1      -0.216  -0.441   2.145  0.00  0.00     0.054 A 
ATOM      3  C3  IND d   1       0.632   0.336   2.856  0.00  0.00    -0.031 A 
ATOM      4  C4  IND d   1       2.402  -0.341   4.598  0.00  0.00     0.051 A 
ATOM      5  C5  IND d   1       2.874  -1.420   5.290  0.00  0.00    -0.031 A 
ATOM      6  C6  IND d   1       2.378  -2.692   5.085  0.00  0.00     0.015 A 
ATOM      7  C7  IND d   1       1.395  -2.933   4.168  0.00  0.00    -0.016 A 
ATOM      8  C8  IND d   1       0.908  -1.838   3.469  0.00  0.00    -0.047 A 
ATOM      9  C9  IND d   1       1.378  -0.540   3.702  0.00  0.00    -0.096 A 
ATOM     10  HN1 IND d   1      -0.533  -2.410   2.196  0.00  0.00     0.298 HD
ENDROOT
TORSDOF 0
ENDMDL
