MODEL 1
REMARK minimizedAffinity 6.9225316
REMARK minimizedRMSD -1
REMARK  0 active torsions:
REMARK  status: ('A' for Active; 'I' for Inactive)
ROOT
ATOM      1  N1  IND d   1      -2.997  -5.075  -1.302  0.00  0.00    -0.196 N 
ATOM      2  C2  IND d   1      -3.797  -5.999  -1.912  0.00  0.00     0.054 A 
ATOM      3  C3  IND d   1      -4.856  -5.393  -2.495  0.00  0.00    -0.031 A 
ATOM      4  C4  IND d   1      -5.420  -2.887  -2.657  0.00  0.00     0.051 A 
ATOM      5  C5  IND d   1      -5.006  -1.659  -2.222  0.00  0.00    -0.031 A 
ATOM      6  C6  IND d   1      -3.876  -1.504  -1.445  0.00  0.00     0.015 A 
ATOM      7  C7  IND d   1      -3.109  -2.574  -1.081  0.00  0.00    -0.016 A 
ATOM      8  C8  IND d   1      -3.531  -3.823  -1.515  0.00  0.00    -0.047 A 
ATOM      9  C9  IND d   1      -4.700  -3.991  -2.268  0.00  0.00    -0.096 A 
ATOM     10  HN1 IND d   1      -2.280  -5.246  -0.858  0.00  0.00     0.298 HD
ENDROOT
TORSDOF 0
ENDMDL
