MODEL 1
REMARK minimizedAffinity 2.62013936
REMARK minimizedRMSD -1
REMARK  0 active torsions:
REMARK  status: ('A' for Active; 'I' for Inactive)
ROOT
ATOM      1  N1  IND d   1       2.588  -1.007   4.021  0.00  0.00    -0.196 N 
ATOM      2  C2  IND d   1       1.767  -1.393   2.999  0.00  0.00     0.054 A 
ATOM      3  C3  IND d   1       1.788  -0.475   2.007  0.00  0.00    -0.031 A 
ATOM      4  C4  IND d   1       3.174   1.684   1.805  0.00  0.00     0.051 A 
ATOM      5  C5  IND d   1       4.041   2.477   2.503  0.00  0.00    -0.031 A 
ATOM      6  C6  IND d   1       4.479   2.141   3.768  0.00  0.00     0.015 A 
ATOM      7  C7  IND d   1       4.073   0.989   4.380  0.00  0.00    -0.016 A 
ATOM      8  C8  IND d   1       3.187   0.185   3.676  0.00  0.00    -0.047 A 
ATOM      9  C9  IND d   1       2.706   0.542   2.410  0.00  0.00    -0.096 A 
ATOM     10  HN1 IND d   1       2.710  -1.436   4.757  0.00  0.00     0.298 HD
ENDROOT
TORSDOF 0
ENDMDL
