MODEL 1
REMARK minimizedAffinity -4.05879736
REMARK minimizedRMSD -1
REMARK  1 active torsions:
REMARK  status: ('A' for Active; 'I' for Inactive)
REMARK    1  A    between atoms: C1_2  and  C2_3 
ROOT
ATOM      1  C2  UNL d   1       0.166   0.877   0.485  0.00  0.00    -0.081 A 
ATOM      2  C3  UNL d   1       1.062   0.609  -0.557  0.00  0.00     0.006 A 
ATOM      3  C4  UNL d   1       1.087  -0.650  -1.163  0.00  0.00     0.002 A 
ATOM      4  C5  UNL d   1       0.212  -1.658  -0.742  0.00  0.00    -0.080 A 
ATOM      5  C6  UNL d   1       0.208  -3.003  -1.404  0.00  0.00     0.076 C 
ATOM      6  C7  UNL d   1      -0.671  -1.395   0.311  0.00  0.00     0.002 A 
ATOM      7  C8  UNL d   1      -0.695  -0.137   0.917  0.00  0.00     0.006 A 
ENDROOT
BRANCH   1   8
ATOM      8  C1  UNL d   1       0.092   2.253   1.097  0.00  0.00     0.054 C 
ATOM      9  C   UNL d   1      -0.094   3.323   0.031  0.00  0.00     0.018 C 
ENDBRANCH   1   8
TORSDOF 1
ENDMDL
