MODEL 1
REMARK minimizedAffinity -3.80392575
REMARK minimizedRMSD -1
REMARK  1 active torsions:
REMARK  status: ('A' for Active; 'I' for Inactive)
REMARK    1  A    between atoms: C1_2  and  C2_3 
ROOT
ATOM      1  C2  UNL d   1       0.494  -1.117  -0.656  0.00  0.00    -0.081 A 
ATOM      2  C3  UNL d   1       0.800  -1.093   0.711  0.00  0.00     0.006 A 
ATOM      3  C4  UNL d   1       0.600   0.068   1.461  0.00  0.00     0.002 A 
ATOM      4  C5  UNL d   1       0.084   1.221   0.861  0.00  0.00    -0.080 A 
ATOM      5  C6  UNL d   1      -0.163   2.465   1.662  0.00  0.00     0.076 C 
ATOM      6  C7  UNL d   1      -0.205   1.203  -0.508  0.00  0.00     0.002 A 
ATOM      7  C8  UNL d   1      -0.005   0.043  -1.259  0.00  0.00     0.006 A 
ENDROOT
BRANCH   1   8
ATOM      8  C1  UNL d   1       0.647  -2.386  -1.454  0.00  0.00     0.054 C 
ATOM      9  C   UNL d   1      -0.653  -2.762  -2.150  0.00  0.00     0.018 C 
ENDBRANCH   1   8
TORSDOF 1
ENDMDL
