MODEL 1
REMARK minimizedAffinity -2.07211804
REMARK minimizedRMSD -1
REMARK  1 active torsions:
REMARK  status: ('A' for Active; 'I' for Inactive)
REMARK    1  A    between atoms: N_2  and  C1_3 
ROOT
ATOM      1  C1  UNL d   1       0.834   0.350  -0.597  0.00  0.00     0.143 A 
ATOM      2  C2  UNL d   1       1.694   1.169   0.143  0.00  0.00    -0.057 A 
ATOM      3  C3  UNL d   1       3.020   1.377  -0.255  0.00  0.00     0.033 A 
ATOM      4  C4  UNL d   1       3.519   0.746  -1.390  0.00  0.00    -0.042 A 
ATOM      5  C5  UNL d   1       2.690  -0.092  -2.127  0.00  0.00     0.033 A 
ATOM      6  C6  UNL d   1       1.365  -0.291  -1.728  0.00  0.00    -0.057 A 
ENDROOT
BRANCH   1   7
ATOM      7  N   UNL d   1      -0.465   0.025  -0.199  0.00  0.00    -0.732 N 
ATOM      8  C   UNL d   1      -0.746  -0.337   1.173  0.00  0.00     0.284 C 
ATOM      9  H3  UNL d   1      -1.164   0.632  -0.621  0.00  0.00     0.395 HD
ENDBRANCH   1   7
TORSDOF 1
ENDMDL
