MODEL 1
REMARK minimizedAffinity -3.37750387
REMARK minimizedRMSD -1
REMARK  1 active torsions:
REMARK  status: ('A' for Active; 'I' for Inactive)
REMARK    1  A    between atoms: N_2  and  C1_3 
ROOT
ATOM      1  C1  UNL d   1      -1.565   0.168   0.424  0.00  0.00     0.143 A 
ATOM      2  C2  UNL d   1      -1.268   0.655  -0.854  0.00  0.00    -0.057 A 
ATOM      3  C3  UNL d   1      -0.014   1.203  -1.150  0.00  0.00     0.033 A 
ATOM      4  C4  UNL d   1       0.959   1.300  -0.161  0.00  0.00    -0.042 A 
ATOM      5  C5  UNL d   1       0.679   0.846   1.123  0.00  0.00     0.033 A 
ATOM      6  C6  UNL d   1      -0.573   0.293   1.410  0.00  0.00    -0.057 A 
ENDROOT
BRANCH   1   7
ATOM      7  N   UNL d   1      -2.825  -0.297   0.806  0.00  0.00    -0.732 N 
ATOM      8  C   UNL d   1      -3.839   0.622   1.277  0.00  0.00     0.284 C 
ATOM      9  H3  UNL d   1      -3.177  -1.021   0.183  0.00  0.00     0.395 HD
ENDBRANCH   1   7
TORSDOF 1
ENDMDL
