MODEL 1
REMARK minimizedAffinity -4.52912474
REMARK minimizedRMSD -1
REMARK  1 active torsions:
REMARK  status: ('A' for Active; 'I' for Inactive)
REMARK    1  A    between atoms: N_2  and  C1_3 
ROOT
ATOM      1  C1  UNL d   1       0.527  -0.588  -0.869  0.00  0.00     0.143 A 
ATOM      2  C2  UNL d   1       0.805   0.730  -1.247  0.00  0.00    -0.057 A 
ATOM      3  C3  UNL d   1       1.633   1.013  -2.340  0.00  0.00     0.033 A 
ATOM      4  C4  UNL d   1       2.224  -0.022  -3.058  0.00  0.00    -0.042 A 
ATOM      5  C5  UNL d   1       1.982  -1.339  -2.685  0.00  0.00     0.033 A 
ATOM      6  C6  UNL d   1       1.149  -1.615  -1.597  0.00  0.00    -0.057 A 
ENDROOT
BRANCH   1   7
ATOM      7  N   UNL d   1      -0.209  -0.932   0.267  0.00  0.00    -0.732 N 
ATOM      8  C   UNL d   1      -0.972   0.068   0.983  0.00  0.00     0.284 C 
ATOM      9  H3  UNL d   1      -0.687  -1.824   0.165  0.00  0.00     0.395 HD
ENDBRANCH   1   7
TORSDOF 1
ENDMDL
