MODEL 1
REMARK minimizedAffinity -0.0764071941
REMARK minimizedRMSD -1
REMARK  1 active torsions:
REMARK  status: ('A' for Active; 'I' for Inactive)
REMARK    1  A    between atoms: N_2  and  C1_3 
ROOT
ATOM      1  C1  UNL d   1      -0.548  -0.001   0.922  0.00  0.00     0.143 A 
ATOM      2  C2  UNL d   1      -0.139  -1.248   0.438  0.00  0.00    -0.057 A 
ATOM      3  C3  UNL d   1       0.877  -1.358  -0.519  0.00  0.00     0.033 A 
ATOM      4  C4  UNL d   1       1.483  -0.217  -1.033  0.00  0.00    -0.042 A 
ATOM      5  C5  UNL d   1       1.075   1.035  -0.585  0.00  0.00     0.033 A 
ATOM      6  C6  UNL d   1       0.065   1.138   0.376  0.00  0.00    -0.057 A 
ENDROOT
BRANCH   1   7
ATOM      7  N   UNL d   1      -1.619   0.180   1.800  0.00  0.00    -0.732 N 
ATOM      8  C   UNL d   1      -2.963   0.364   1.296  0.00  0.00     0.284 C 
ATOM      9  H3  UNL d   1      -1.560  -0.428   2.614  0.00  0.00     0.395 HD
ENDBRANCH   1   7
TORSDOF 1
ENDMDL
