MODEL 1
REMARK minimizedAffinity -4.83005619
REMARK minimizedRMSD -1
REMARK  1 active torsions:
REMARK  status: ('A' for Active; 'I' for Inactive)
REMARK    1  A    between atoms: N_2  and  C1_3 
ROOT
ATOM      1  C1  UNL d   1       0.583  -0.287  -0.745  0.00  0.00     0.143 A 
ATOM      2  C2  UNL d   1       1.365   0.315  -1.737  0.00  0.00    -0.057 A 
ATOM      3  C3  UNL d   1       1.876  -0.427  -2.809  0.00  0.00     0.033 A 
ATOM      4  C4  UNL d   1       1.636  -1.794  -2.893  0.00  0.00    -0.042 A 
ATOM      5  C5  UNL d   1       0.883  -2.419  -1.905  0.00  0.00     0.033 A 
ATOM      6  C6  UNL d   1       0.370  -1.671  -0.841  0.00  0.00    -0.057 A 
ENDROOT
BRANCH   1   7
ATOM      7  N   UNL d   1       0.130   0.376   0.397  0.00  0.00    -0.732 N 
ATOM      8  C   UNL d   1      -0.794  -0.268   1.306  0.00  0.00     0.284 C 
ATOM      9  H3  UNL d   1       0.867   0.904   0.859  0.00  0.00     0.395 HD
ENDBRANCH   1   7
TORSDOF 1
ENDMDL
