MODEL 1
REMARK minimizedAffinity -2.39946032
REMARK minimizedRMSD -1
REMARK  1 active torsions:
REMARK  status: ('A' for Active; 'I' for Inactive)
REMARK    1  A    between atoms: N_2  and  C1_3 
ROOT
ATOM      1  C1  UNL d   1       0.207  -0.480   0.122  0.00  0.00     0.143 A 
ATOM      2  C2  UNL d   1       0.420   0.882  -0.120  0.00  0.00    -0.057 A 
ATOM      3  C3  UNL d   1       1.364   1.314  -1.059  0.00  0.00     0.033 A 
ATOM      4  C4  UNL d   1       2.136   0.389  -1.754  0.00  0.00    -0.042 A 
ATOM      5  C5  UNL d   1       1.959  -0.969  -1.512  0.00  0.00     0.033 A 
ATOM      6  C6  UNL d   1       1.010  -1.394  -0.578  0.00  0.00    -0.057 A 
ENDROOT
BRANCH   1   7
ATOM      7  N   UNL d   1      -0.647  -0.970   1.113  0.00  0.00    -0.732 N 
ATOM      8  C   UNL d   1      -1.781  -0.190   1.560  0.00  0.00     0.284 C 
ATOM      9  H3  UNL d   1      -0.843  -1.962   1.001  0.00  0.00     0.395 HD
ENDBRANCH   1   7
TORSDOF 1
ENDMDL
