MODEL 1
REMARK minimizedAffinity -4.19678736
REMARK minimizedRMSD -1
REMARK  1 active torsions:
REMARK  status: ('A' for Active; 'I' for Inactive)
REMARK    1  A    between atoms: N_2  and  C1_3 
ROOT
ATOM      1  C1  UNL d   1       0.672  -0.237  -0.700  0.00  0.00     0.143 A 
ATOM      2  C2  UNL d   1       1.275  -1.496  -0.608  0.00  0.00    -0.057 A 
ATOM      3  C3  UNL d   1       1.902  -2.084  -1.713  0.00  0.00     0.033 A 
ATOM      4  C4  UNL d   1       1.911  -1.433  -2.943  0.00  0.00    -0.042 A 
ATOM      5  C5  UNL d   1       1.297  -0.192  -3.064  0.00  0.00     0.033 A 
ATOM      6  C6  UNL d   1       0.678   0.393  -1.955  0.00  0.00    -0.057 A 
ENDROOT
BRANCH   1   7
ATOM      7  N   UNL d   1      -0.053   0.356   0.336  0.00  0.00    -0.732 N 
ATOM      8  C   UNL d   1      -1.001  -0.417   1.109  0.00  0.00     0.284 C 
ATOM      9  H3  UNL d   1       0.514   0.993   0.891  0.00  0.00     0.395 HD
ENDBRANCH   1   7
TORSDOF 1
ENDMDL
