MODEL 1
REMARK minimizedAffinity 0.516274691
REMARK minimizedRMSD -1
REMARK  1 active torsions:
REMARK  status: ('A' for Active; 'I' for Inactive)
REMARK    1  A    between atoms: N_2  and  C1_3 
ROOT
ATOM      1  C1  UNL d   1       0.963  -0.506   0.182  0.00  0.00     0.143 A 
ATOM      2  C2  UNL d   1       2.116  -0.273  -0.576  0.00  0.00    -0.057 A 
ATOM      3  C3  UNL d   1       2.343   0.965  -1.190  0.00  0.00     0.033 A 
ATOM      4  C4  UNL d   1       1.404   1.985  -1.081  0.00  0.00    -0.042 A 
ATOM      5  C5  UNL d   1       0.239   1.767  -0.353  0.00  0.00     0.033 A 
ATOM      6  C6  UNL d   1       0.021   0.531   0.263  0.00  0.00    -0.057 A 
ENDROOT
BRANCH   1   7
ATOM      7  N   UNL d   1       0.634  -1.746   0.735  0.00  0.00    -0.732 N 
ATOM      8  C   UNL d   1      -0.660  -2.344   0.486  0.00  0.00     0.284 C 
ATOM      9  H3  UNL d   1       1.409  -2.404   0.702  0.00  0.00     0.395 HD
ENDBRANCH   1   7
TORSDOF 1
ENDMDL
