MODEL 1
REMARK minimizedAffinity 11.2857132
REMARK minimizedRMSD -1
REMARK  1 active torsions:
REMARK  status: ('A' for Active; 'I' for Inactive)
REMARK    1  A    between atoms: C1_2  and  C2_3 
ROOT
ATOM      1  C2  UNL d   1       1.479  -0.556  -1.564  0.00  0.00    -0.073 A 
ATOM      2  C3  UNL d   1       2.870  -0.665  -1.677  0.00  0.00    -0.002 A 
ATOM      3  C4  UNL d   1       3.545  -1.730  -1.080  0.00  0.00     0.004 A 
ATOM      4  C5  UNL d   1       2.837  -2.700  -0.370  0.00  0.00    -0.004 A 
ATOM      5  C6  UNL d   1       1.446  -2.615  -0.255  0.00  0.00    -0.075 A 
ATOM      6  C7  UNL d   1       0.670  -3.649   0.507  0.00  0.00     0.076 C 
ATOM      7  C8  UNL d   1       0.775  -1.541  -0.856  0.00  0.00     0.001 A 
ENDROOT
BRANCH   1   8
ATOM      8  C1  UNL d   1       0.745   0.589  -2.213  0.00  0.00     0.053 C 
ATOM      9  C   UNL d   1       0.828   1.861  -1.384  0.00  0.00     0.018 C 
ENDBRANCH   1   8
TORSDOF 1
ENDMDL
