MODEL 1
REMARK minimizedAffinity 7.0442934
REMARK minimizedRMSD -1
REMARK  1 active torsions:
REMARK  status: ('A' for Active; 'I' for Inactive)
REMARK    1  A    between atoms: C1_2  and  C2_3 
ROOT
ATOM      1  C2  UNL d   1       0.859  -1.318  -1.848  0.00  0.00    -0.073 A 
ATOM      2  C3  UNL d   1       0.066  -0.761  -0.838  0.00  0.00    -0.002 A 
ATOM      3  C4  UNL d   1      -0.006   0.624  -0.681  0.00  0.00     0.004 A 
ATOM      4  C5  UNL d   1       0.707   1.465  -1.536  0.00  0.00    -0.004 A 
ATOM      5  C6  UNL d   1       1.495   0.928  -2.559  0.00  0.00    -0.075 A 
ATOM      6  C7  UNL d   1       2.270   1.819  -3.485  0.00  0.00     0.076 C 
ATOM      7  C8  UNL d   1       1.564  -0.464  -2.708  0.00  0.00     0.001 A 
ENDROOT
BRANCH   1   8
ATOM      8  C1  UNL d   1       0.935  -2.812  -2.025  0.00  0.00     0.053 C 
ATOM      9  C   UNL d   1       0.949  -3.213  -3.492  0.00  0.00     0.018 C 
ENDBRANCH   1   8
TORSDOF 1
ENDMDL
