MODEL 1
REMARK minimizedAffinity 1.94566417
REMARK minimizedRMSD -1
REMARK  1 active torsions:
REMARK  status: ('A' for Active; 'I' for Inactive)
REMARK    1  A    between atoms: C1_2  and  C2_3 
ROOT
ATOM      1  C2  UNL d   1       1.538  -0.473  -1.669  0.00  0.00    -0.073 A 
ATOM      2  C3  UNL d   1       2.459   0.111  -2.545  0.00  0.00    -0.002 A 
ATOM      3  C4  UNL d   1       2.348   1.458  -2.891  0.00  0.00     0.004 A 
ATOM      4  C5  UNL d   1       1.320   2.237  -2.359  0.00  0.00    -0.004 A 
ATOM      5  C6  UNL d   1       0.396   1.675  -1.472  0.00  0.00    -0.075 A 
ATOM      6  C7  UNL d   1      -0.717   2.498  -0.893  0.00  0.00     0.076 C 
ATOM      7  C8  UNL d   1       0.513   0.320  -1.132  0.00  0.00     0.001 A 
ENDROOT
BRANCH   1   8
ATOM      8  C1  UNL d   1       1.657  -1.926  -1.288  0.00  0.00     0.053 C 
ATOM      9  C   UNL d   1       2.836  -2.177  -0.360  0.00  0.00     0.018 C 
ENDBRANCH   1   8
TORSDOF 1
ENDMDL
