MODEL 1
REMARK minimizedAffinity 8.65621758
REMARK minimizedRMSD -1
REMARK  1 active torsions:
REMARK  status: ('A' for Active; 'I' for Inactive)
REMARK    1  A    between atoms: C1_2  and  C2_3 
ROOT
ATOM      1  C2  UNL d   1       1.172   1.725  -1.306  0.00  0.00    -0.073 A 
ATOM      2  C3  UNL d   1      -0.167   1.949  -0.966  0.00  0.00    -0.002 A 
ATOM      3  C4  UNL d   1      -0.534   2.135   0.368  0.00  0.00     0.004 A 
ATOM      4  C5  UNL d   1       0.433   2.105   1.373  0.00  0.00    -0.004 A 
ATOM      5  C6  UNL d   1       1.778   1.894   1.052  0.00  0.00    -0.075 A 
ATOM      6  C7  UNL d   1       2.830   1.858   2.121  0.00  0.00     0.076 C 
ATOM      7  C8  UNL d   1       2.138   1.706  -0.289  0.00  0.00     0.001 A 
ENDROOT
BRANCH   1   8
ATOM      8  C1  UNL d   1       1.574   1.530  -2.745  0.00  0.00     0.053 C 
ATOM      9  C   UNL d   1       3.084   1.458  -2.910  0.00  0.00     0.018 C 
ENDBRANCH   1   8
TORSDOF 1
ENDMDL
