MODEL 1
REMARK minimizedAffinity 4.86897039
REMARK minimizedRMSD -1
REMARK  1 active torsions:
REMARK  status: ('A' for Active; 'I' for Inactive)
REMARK    1  A    between atoms: C1_2  and  C2_3 
ROOT
ATOM      1  C2  UNL d   1       1.170   0.594  -1.795  0.00  0.00    -0.073 A 
ATOM      2  C3  UNL d   1       2.139  -0.414  -1.716  0.00  0.00    -0.002 A 
ATOM      3  C4  UNL d   1       1.845  -1.625  -1.088  0.00  0.00     0.004 A 
ATOM      4  C5  UNL d   1       0.581  -1.844  -0.542  0.00  0.00    -0.004 A 
ATOM      5  C6  UNL d   1      -0.404  -0.854  -0.622  0.00  0.00    -0.075 A 
ATOM      6  C7  UNL d   1      -1.768  -1.074  -0.037  0.00  0.00     0.076 C 
ATOM      7  C8  UNL d   1      -0.101   0.361  -1.251  0.00  0.00     0.001 A 
ENDROOT
BRANCH   1   8
ATOM      8  C1  UNL d   1       1.481   1.901  -2.477  0.00  0.00     0.053 C 
ATOM      9  C   UNL d   1       1.654   1.734  -3.979  0.00  0.00     0.018 C 
ENDBRANCH   1   8
TORSDOF 1
ENDMDL
