MODEL 1
REMARK minimizedAffinity 3.53054523
REMARK minimizedRMSD -1
REMARK  1 active torsions:
REMARK  status: ('A' for Active; 'I' for Inactive)
REMARK    1  A    between atoms: C1_2  and  C2_3 
ROOT
ATOM      1  C2  UNL d   1       2.271   0.587  -2.282  0.00  0.00    -0.073 A 
ATOM      2  C3  UNL d   1       2.754   0.067  -1.076  0.00  0.00    -0.002 A 
ATOM      3  C4  UNL d   1       2.766  -1.311  -0.858  0.00  0.00     0.004 A 
ATOM      4  C5  UNL d   1       2.303  -2.182  -1.844  0.00  0.00    -0.004 A 
ATOM      5  C6  UNL d   1       1.827  -1.682  -3.060  0.00  0.00    -0.075 A 
ATOM      6  C7  UNL d   1       1.323  -2.606  -4.130  0.00  0.00     0.076 C 
ATOM      7  C8  UNL d   1       1.816  -0.297  -3.271  0.00  0.00     0.001 A 
ENDROOT
BRANCH   1   8
ATOM      8  C1  UNL d   1       2.262   2.074  -2.525  0.00  0.00     0.053 C 
ATOM      9  C   UNL d   1       0.856   2.607  -2.749  0.00  0.00     0.018 C 
ENDBRANCH   1   8
TORSDOF 1
ENDMDL
