MODEL 1
REMARK minimizedAffinity 5.49849987
REMARK minimizedRMSD -1
REMARK  1 active torsions:
REMARK  status: ('A' for Active; 'I' for Inactive)
REMARK    1  A    between atoms: C1_2  and  C2_3 
ROOT
ATOM      1  C2  UNL d   1       0.945  -0.370  -1.095  0.00  0.00    -0.073 A 
ATOM      2  C3  UNL d   1       2.245  -0.184  -1.578  0.00  0.00    -0.002 A 
ATOM      3  C4  UNL d   1       3.249  -1.104  -1.273  0.00  0.00     0.004 A 
ATOM      4  C5  UNL d   1       2.962  -2.222  -0.489  0.00  0.00    -0.004 A 
ATOM      5  C6  UNL d   1       1.666  -2.431  -0.007  0.00  0.00    -0.075 A 
ATOM      6  C7  UNL d   1       1.342  -3.627   0.840  0.00  0.00     0.076 C 
ATOM      7  C8  UNL d   1       0.664  -1.501  -0.315  0.00  0.00     0.001 A 
ENDROOT
BRANCH   1   8
ATOM      8  C1  UNL d   1      -0.144   0.618  -1.427  0.00  0.00     0.053 C 
ATOM      9  C   UNL d   1       0.160   2.005  -0.883  0.00  0.00     0.018 C 
ENDBRANCH   1   8
TORSDOF 1
ENDMDL
