MODEL 1
REMARK minimizedAffinity 2.52717686
REMARK minimizedRMSD -1
REMARK  1 active torsions:
REMARK  status: ('A' for Active; 'I' for Inactive)
REMARK    1  A    between atoms: C1_2  and  C2_3 
ROOT
ATOM      1  C2  UNL d   1       0.028   0.862  -1.137  0.00  0.00    -0.073 A 
ATOM      2  C3  UNL d   1       0.663  -0.363  -0.899  0.00  0.00    -0.002 A 
ATOM      3  C4  UNL d   1       1.823  -0.702  -1.596  0.00  0.00     0.004 A 
ATOM      4  C5  UNL d   1       2.363   0.180  -2.531  0.00  0.00    -0.004 A 
ATOM      5  C6  UNL d   1       1.750   1.413  -2.775  0.00  0.00    -0.075 A 
ATOM      6  C7  UNL d   1       2.317   2.372  -3.780  0.00  0.00     0.076 C 
ATOM      7  C8  UNL d   1       0.583   1.746  -2.073  0.00  0.00     0.001 A 
ENDROOT
BRANCH   1   8
ATOM      8  C1  UNL d   1      -1.222   1.236  -0.381  0.00  0.00     0.053 C 
ATOM      9  C   UNL d   1      -2.263   0.128  -0.418  0.00  0.00     0.018 C 
ENDBRANCH   1   8
TORSDOF 1
ENDMDL
