MODEL 1
REMARK minimizedAffinity 0.964078367
REMARK minimizedRMSD -1
REMARK  1 active torsions:
REMARK  status: ('A' for Active; 'I' for Inactive)
REMARK    1  A    between atoms: C1_2  and  C2_3 
ROOT
ATOM      1  C2  UNL d   1       1.853  -0.383  -1.872  0.00  0.00    -0.073 A 
ATOM      2  C3  UNL d   1       2.495   0.266  -2.933  0.00  0.00    -0.002 A 
ATOM      3  C4  UNL d   1       2.140   1.570  -3.280  0.00  0.00     0.004 A 
ATOM      4  C5  UNL d   1       1.146   2.240  -2.568  0.00  0.00    -0.004 A 
ATOM      5  C6  UNL d   1       0.501   1.613  -1.497  0.00  0.00    -0.075 A 
ATOM      6  C7  UNL d   1      -0.572   2.320  -0.721  0.00  0.00     0.076 C 
ATOM      7  C8  UNL d   1       0.861   0.303  -1.155  0.00  0.00     0.001 A 
ENDROOT
BRANCH   1   8
ATOM      8  C1  UNL d   1       2.238  -1.788  -1.488  0.00  0.00     0.053 C 
ATOM      9  C   UNL d   1       1.224  -2.421  -0.548  0.00  0.00     0.018 C 
ENDBRANCH   1   8
TORSDOF 1
ENDMDL
