MODEL 1
REMARK minimizedAffinity 11.1477985
REMARK minimizedRMSD -1
REMARK  1 active torsions:
REMARK  status: ('A' for Active; 'I' for Inactive)
REMARK    1  A    between atoms: C1_2  and  C2_3 
ROOT
ATOM      1  C2  UNL d   1       1.297   1.634  -0.921  0.00  0.00    -0.073 A 
ATOM      2  C3  UNL d   1       2.271   1.549   0.080  0.00  0.00    -0.002 A 
ATOM      3  C4  UNL d   1       1.999   2.008   1.370  0.00  0.00     0.004 A 
ATOM      4  C5  UNL d   1       0.750   2.549   1.673  0.00  0.00    -0.004 A 
ATOM      5  C6  UNL d   1      -0.241   2.632   0.689  0.00  0.00    -0.075 A 
ATOM      6  C7  UNL d   1      -1.589   3.213   0.999  0.00  0.00     0.076 C 
ATOM      7  C8  UNL d   1       0.041   2.171  -0.604  0.00  0.00     0.001 A 
ENDROOT
BRANCH   1   8
ATOM      8  C1  UNL d   1       1.584   1.134  -2.313  0.00  0.00     0.053 C 
ATOM      9  C   UNL d   1       2.527  -0.059  -2.307  0.00  0.00     0.018 C 
ENDBRANCH   1   8
TORSDOF 1
ENDMDL
