MODEL 1
REMARK minimizedAffinity 12.6308441
REMARK minimizedRMSD -1
REMARK  1 active torsions:
REMARK  status: ('A' for Active; 'I' for Inactive)
REMARK    1  A    between atoms: C1_2  and  C2_3 
ROOT
ATOM      1  C2  UNL d   1       1.728  -0.320  -2.127  0.00  0.00    -0.073 A 
ATOM      2  C3  UNL d   1       2.199   0.562  -3.106  0.00  0.00    -0.002 A 
ATOM      3  C4  UNL d   1       1.620   1.823  -3.256  0.00  0.00     0.004 A 
ATOM      4  C5  UNL d   1       0.572   2.218  -2.426  0.00  0.00    -0.004 A 
ATOM      5  C6  UNL d   1       0.095   1.355  -1.433  0.00  0.00    -0.075 A 
ATOM      6  C7  UNL d   1      -1.033   1.764  -0.533  0.00  0.00     0.076 C 
ATOM      7  C8  UNL d   1       0.680   0.090  -1.290  0.00  0.00     0.001 A 
ENDROOT
BRANCH   1   8
ATOM      8  C1  UNL d   1       2.354  -1.680  -1.957  0.00  0.00     0.053 C 
ATOM      9  C   UNL d   1       3.127  -1.793  -0.652  0.00  0.00     0.018 C 
ENDBRANCH   1   8
TORSDOF 1
ENDMDL
