MODEL 1
REMARK minimizedAffinity 6.19584703
REMARK minimizedRMSD -1
REMARK  0 active torsions:
REMARK  status: ('A' for Active; 'I' for Inactive)
ROOT
ATOM      1  C   UNL d   1       2.045  -0.407   0.325  0.00  0.00     0.077 C 
ATOM      2  C1  UNL d   1       0.556  -0.244   0.250  0.00  0.00    -0.074 A 
ATOM      3  C2  UNL d   1      -0.145  -0.568  -0.916  0.00  0.00    -0.005 A 
ATOM      4  C3  UNL d   1      -1.531  -0.419  -0.968  0.00  0.00     0.006 A 
ATOM      5  C4  UNL d   1      -2.229   0.054   0.144  0.00  0.00    -0.005 A 
ATOM      6  C5  UNL d   1      -1.545   0.382   1.319  0.00  0.00    -0.074 A 
ATOM      7  C6  UNL d   1      -2.281   0.883   2.526  0.00  0.00     0.077 C 
ATOM      8  C7  UNL d   1      -0.153   0.224   1.365  0.00  0.00    -0.001 A 
ENDROOT
TORSDOF 0
ENDMDL
