MODEL 1
REMARK minimizedAffinity 8.5811367
REMARK minimizedRMSD -1
REMARK  0 active torsions:
REMARK  status: ('A' for Active; 'I' for Inactive)
ROOT
ATOM      1  C   UNL d   1      -2.805   0.616   1.816  0.00  0.00     0.077 C 
ATOM      2  C1  UNL d   1      -1.746   0.045   0.922  0.00  0.00    -0.074 A 
ATOM      3  C2  UNL d   1      -2.086  -0.638  -0.250  0.00  0.00    -0.005 A 
ATOM      4  C3  UNL d   1      -1.089  -1.156  -1.078  0.00  0.00     0.006 A 
ATOM      5  C4  UNL d   1       0.256  -0.996  -0.742  0.00  0.00    -0.005 A 
ATOM      6  C5  UNL d   1       0.615  -0.315   0.426  0.00  0.00    -0.074 A 
ATOM      7  C6  UNL d   1       2.056  -0.125   0.796  0.00  0.00     0.077 C 
ATOM      8  C7  UNL d   1      -0.392   0.208   1.248  0.00  0.00    -0.001 A 
ENDROOT
TORSDOF 0
ENDMDL
