MODEL 1
REMARK minimizedAffinity -0.37672177
REMARK minimizedRMSD -1
REMARK  0 active torsions:
REMARK  status: ('A' for Active; 'I' for Inactive)
ROOT
ATOM      1  C   UNL d   1      -1.852   0.574   2.090  0.00  0.00     0.077 C 
ATOM      2  C1  UNL d   1      -1.411  -0.411   3.131  0.00  0.00    -0.074 A 
ATOM      3  C2  UNL d   1      -2.343  -1.178   3.837  0.00  0.00    -0.005 A 
ATOM      4  C3  UNL d   1      -1.917  -2.097   4.796  0.00  0.00     0.006 A 
ATOM      5  C4  UNL d   1      -0.556  -2.258   5.059  0.00  0.00    -0.005 A 
ATOM      6  C5  UNL d   1       0.391  -1.501   4.362  0.00  0.00    -0.074 A 
ATOM      7  C6  UNL d   1       1.858  -1.669   4.626  0.00  0.00     0.077 C 
ATOM      8  C7  UNL d   1      -0.045  -0.585   3.396  0.00  0.00    -0.001 A 
ENDROOT
TORSDOF 0
ENDMDL
