MODEL 1
REMARK minimizedAffinity -1.71672893
REMARK minimizedRMSD -1
REMARK  0 active torsions:
REMARK  status: ('A' for Active; 'I' for Inactive)
ROOT
ATOM      1  C   UNL d   1      -2.915   0.351  -0.048  0.00  0.00     0.077 C 
ATOM      2  C1  UNL d   1      -1.837   0.129   0.971  0.00  0.00    -0.074 A 
ATOM      3  C2  UNL d   1      -2.148  -0.011   2.327  0.00  0.00    -0.005 A 
ATOM      4  C3  UNL d   1      -1.136  -0.227   3.262  0.00  0.00     0.006 A 
ATOM      5  C4  UNL d   1       0.195  -0.304   2.851  0.00  0.00    -0.005 A 
ATOM      6  C5  UNL d   1       0.525  -0.167   1.499  0.00  0.00    -0.074 A 
ATOM      7  C6  UNL d   1       1.950  -0.257   1.039  0.00  0.00     0.077 C 
ATOM      8  C7  UNL d   1      -0.498   0.042   0.565  0.00  0.00    -0.001 A 
ENDROOT
TORSDOF 0
ENDMDL
