MODEL 1
REMARK minimizedAffinity -1.58007586
REMARK minimizedRMSD -1
REMARK  0 active torsions:
REMARK  status: ('A' for Active; 'I' for Inactive)
ROOT
ATOM      1  C   UNL d   1      -2.846   0.017   3.013  0.00  0.00     0.077 C 
ATOM      2  C1  UNL d   1      -1.399  -0.347   3.158  0.00  0.00    -0.074 A 
ATOM      3  C2  UNL d   1      -0.926  -0.967   4.319  0.00  0.00    -0.005 A 
ATOM      4  C3  UNL d   1       0.422  -1.309   4.435  0.00  0.00     0.006 A 
ATOM      5  C4  UNL d   1       1.308  -1.035   3.393  0.00  0.00    -0.005 A 
ATOM      6  C5  UNL d   1       0.853  -0.416   2.224  0.00  0.00    -0.074 A 
ATOM      7  C6  UNL d   1       1.791  -0.124   1.090  0.00  0.00     0.077 C 
ATOM      8  C7  UNL d   1      -0.503  -0.082   2.112  0.00  0.00    -0.001 A 
ENDROOT
TORSDOF 0
ENDMDL
