MODEL 1
REMARK minimizedAffinity 0.214237064
REMARK minimizedRMSD -1
REMARK  0 active torsions:
REMARK  status: ('A' for Active; 'I' for Inactive)
ROOT
ATOM      1  C1  BNZ d   1       3.522  -5.496  -5.999  0.00  0.00     0.000 A 
ATOM      2  C2  BNZ d   1       4.291  -5.503  -4.865  0.00  0.00     0.000 A 
ATOM      3  C3  BNZ d   1       3.736  -5.776  -3.646  0.00  0.00     0.000 A 
ATOM      4  C4  BNZ d   1       2.410  -6.000  -3.555  0.00  0.00     0.000 A 
ATOM      5  C5  BNZ d   1       1.620  -5.986  -4.688  0.00  0.00     0.000 A 
ATOM      6  C6  BNZ d   1       2.188  -5.750  -5.919  0.00  0.00     0.000 A 
ENDROOT
TORSDOF 0
ENDMDL
