MODEL 1
REMARK minimizedAffinity -0.0030480728
REMARK minimizedRMSD -1
REMARK  0 active torsions:
REMARK  status: ('A' for Active; 'I' for Inactive)
ROOT
ATOM      1  C1  BNZ d   1       2.378  -5.999  -3.622  0.00  0.00     0.000 A 
ATOM      2  C2  BNZ d   1       3.747  -5.972  -3.653  0.00  0.00     0.000 A 
ATOM      3  C3  BNZ d   1       4.419  -5.933  -4.842  0.00  0.00     0.000 A 
ATOM      4  C4  BNZ d   1       3.725  -5.961  -5.998  0.00  0.00     0.000 A 
ATOM      5  C5  BNZ d   1       2.345  -5.997  -5.984  0.00  0.00     0.000 A 
ATOM      6  C6  BNZ d   1       1.670  -5.998  -4.785  0.00  0.00     0.000 A 
ENDROOT
TORSDOF 0
ENDMDL
