MODEL 1
REMARK minimizedAffinity 3.67405224
REMARK minimizedRMSD -1
REMARK  0 active torsions:
REMARK  status: ('A' for Active; 'I' for Inactive)
ROOT
ATOM      1  C1  BNZ d   1      -5.189   4.458   1.787  0.00  0.00     0.000 A 
ATOM      2  C2  BNZ d   1      -3.894   4.344   2.220  0.00  0.00     0.000 A 
ATOM      3  C3  BNZ d   1      -3.001   3.550   1.556  0.00  0.00     0.000 A 
ATOM      4  C4  BNZ d   1      -3.413   2.841   0.486  0.00  0.00     0.000 A 
ATOM      5  C5  BNZ d   1      -4.717   2.938   0.042  0.00  0.00     0.000 A 
ATOM      6  C6  BNZ d   1      -5.603   3.768   0.690  0.00  0.00     0.000 A 
ENDROOT
TORSDOF 0
ENDMDL
