MODEL 1
REMARK minimizedAffinity 0.351644397
REMARK minimizedRMSD -1
REMARK  0 active torsions:
REMARK  status: ('A' for Active; 'I' for Inactive)
ROOT
ATOM      1  C1  BNZ d   1       4.099  -5.942  -1.886  0.00  0.00     0.000 A 
ATOM      2  C2  BNZ d   1       2.870  -5.941  -2.490  0.00  0.00     0.000 A 
ATOM      3  C3  BNZ d   1       2.759  -5.990  -3.852  0.00  0.00     0.000 A 
ATOM      4  C4  BNZ d   1       3.876  -5.999  -4.608  0.00  0.00     0.000 A 
ATOM      5  C5  BNZ d   1       5.122  -5.991  -4.014  0.00  0.00     0.000 A 
ATOM      6  C6  BNZ d   1       5.230  -5.981  -2.642  0.00  0.00     0.000 A 
ENDROOT
TORSDOF 0
ENDMDL
