MODEL 1
REMARK minimizedAffinity 4.10296583
REMARK minimizedRMSD -1
REMARK  0 active torsions:
REMARK  status: ('A' for Active; 'I' for Inactive)
ROOT
ATOM      1  C1  BNZ d   1      -5.958   1.568   0.580  0.00  0.00     0.000 A 
ATOM      2  C2  BNZ d   1      -6.000   1.872  -0.755  0.00  0.00     0.000 A 
ATOM      3  C3  BNZ d   1      -6.000   3.172  -1.177  0.00  0.00     0.000 A 
ATOM      4  C4  BNZ d   1      -6.000   4.165  -0.265  0.00  0.00     0.000 A 
ATOM      5  C5  BNZ d   1      -5.968   3.875   1.084  0.00  0.00     0.000 A 
ATOM      6  C6  BNZ d   1      -5.928   2.566   1.505  0.00  0.00     0.000 A 
ENDROOT
TORSDOF 0
ENDMDL
