MODEL 1
REMARK minimizedAffinity 1.41952741
REMARK minimizedRMSD -1
REMARK  0 active torsions:
REMARK  status: ('A' for Active; 'I' for Inactive)
ROOT
ATOM      1  C1  BNZ d   1      -2.912  -3.808  -1.407  0.00  0.00     0.000 A 
ATOM      2  C2  BNZ d   1      -3.744  -3.434  -2.428  0.00  0.00     0.000 A 
ATOM      3  C3  BNZ d   1      -3.563  -2.246  -3.080  0.00  0.00     0.000 A 
ATOM      4  C4  BNZ d   1      -2.576  -1.417  -2.684  0.00  0.00     0.000 A 
ATOM      5  C5  BNZ d   1      -1.735  -1.775  -1.649  0.00  0.00     0.000 A 
ATOM      6  C6  BNZ d   1      -1.896  -2.989  -1.021  0.00  0.00     0.000 A 
ENDROOT
TORSDOF 0
ENDMDL
