MODEL 1
REMARK minimizedAffinity -3.62735629
REMARK minimizedRMSD -1
REMARK  0 active torsions:
REMARK  status: ('A' for Active; 'I' for Inactive)
ROOT
ATOM      1  C   UNL d   1       0.649  -0.036  -1.146  0.00  0.00     0.077 C 
ATOM      2  C1  UNL d   1       0.675   0.373  -2.589  0.00  0.00    -0.074 A 
ATOM      3  C2  UNL d   1       1.608   1.305  -3.055  0.00  0.00    -0.005 A 
ATOM      4  C3  UNL d   1       1.625   1.669  -4.402  0.00  0.00     0.006 A 
ATOM      5  C4  UNL d   1       0.711   1.106  -5.294  0.00  0.00    -0.005 A 
ATOM      6  C5  UNL d   1      -0.228   0.172  -4.846  0.00  0.00    -0.074 A 
ATOM      7  C6  UNL d   1      -1.211  -0.449  -5.793  0.00  0.00     0.077 C 
ATOM      8  C7  UNL d   1      -0.235  -0.194  -3.493  0.00  0.00    -0.001 A 
ENDROOT
TORSDOF 0
ENDMDL
