MODEL 1
REMARK minimizedAffinity -2.93542647
REMARK minimizedRMSD -1
REMARK  0 active torsions:
REMARK  status: ('A' for Active; 'I' for Inactive)
ROOT
ATOM      1  C   UNL d   1      -1.269  -0.481  -5.739  0.00  0.00     0.077 C 
ATOM      2  C1  UNL d   1      -0.228   0.125  -4.846  0.00  0.00    -0.074 A 
ATOM      3  C2  UNL d   1       0.961   0.639  -5.374  0.00  0.00    -0.005 A 
ATOM      4  C3  UNL d   1       1.916   1.209  -4.531  0.00  0.00     0.006 A 
ATOM      5  C4  UNL d   1       1.693   1.269  -3.155  0.00  0.00    -0.005 A 
ATOM      6  C5  UNL d   1       0.510   0.761  -2.610  0.00  0.00    -0.074 A 
ATOM      7  C6  UNL d   1       0.250   0.826  -1.134  0.00  0.00     0.077 C 
ATOM      8  C7  UNL d   1      -0.448   0.196  -3.463  0.00  0.00    -0.001 A 
ENDROOT
TORSDOF 0
ENDMDL
