MODEL 1
REMARK minimizedAffinity -2.9491477
REMARK minimizedRMSD -1
REMARK  0 active torsions:
REMARK  status: ('A' for Active; 'I' for Inactive)
ROOT
ATOM      1  C   UNL d   1      -2.561   1.115   1.303  0.00  0.00     0.077 C 
ATOM      2  C1  UNL d   1      -1.182   0.829   1.818  0.00  0.00    -0.074 A 
ATOM      3  C2  UNL d   1      -0.792   1.244   3.095  0.00  0.00    -0.005 A 
ATOM      4  C3  UNL d   1       0.492   0.962   3.564  0.00  0.00     0.006 A 
ATOM      5  C4  UNL d   1       1.396   0.265   2.762  0.00  0.00    -0.005 A 
ATOM      6  C5  UNL d   1       1.023  -0.158   1.483  0.00  0.00    -0.074 A 
ATOM      7  C6  UNL d   1       1.979  -0.917   0.611  0.00  0.00     0.077 C 
ATOM      8  C7  UNL d   1      -0.271   0.122   1.021  0.00  0.00    -0.001 A 
ENDROOT
TORSDOF 0
ENDMDL
