MODEL 1
REMARK minimizedAffinity 0.00353840506
REMARK minimizedRMSD -1
REMARK  0 active torsions:
REMARK  status: ('A' for Active; 'I' for Inactive)
ROOT
ATOM      1  C   UNL d   1      -1.123  -0.470  -5.985  0.00  0.00     0.077 C 
ATOM      2  C1  UNL d   1      -0.368  -0.027  -4.767  0.00  0.00    -0.074 A 
ATOM      3  C2  UNL d   1      -1.019   0.144  -3.541  0.00  0.00    -0.005 A 
ATOM      4  C3  UNL d   1      -0.302   0.547  -2.414  0.00  0.00     0.006 A 
ATOM      5  C4  UNL d   1       1.070   0.784  -2.503  0.00  0.00    -0.005 A 
ATOM      6  C5  UNL d   1       1.738   0.618  -3.720  0.00  0.00    -0.074 A 
ATOM      7  C6  UNL d   1       3.214   0.859  -3.830  0.00  0.00     0.077 C 
ATOM      8  C7  UNL d   1       1.012   0.206  -4.846  0.00  0.00    -0.001 A 
ENDROOT
TORSDOF 0
ENDMDL
