MODEL 1
REMARK minimizedAffinity -4.20494461
REMARK minimizedRMSD -1
REMARK  0 active torsions:
REMARK  status: ('A' for Active; 'I' for Inactive)
ROOT
ATOM      1  C   UNL d   1      -1.143  -0.375  -5.466  0.00  0.00     0.077 C 
ATOM      2  C1  UNL d   1      -0.159   0.075  -4.428  0.00  0.00    -0.074 A 
ATOM      3  C2  UNL d   1       0.988   0.792  -4.787  0.00  0.00    -0.005 A 
ATOM      4  C3  UNL d   1       1.889   1.212  -3.809  0.00  0.00     0.006 A 
ATOM      5  C4  UNL d   1       1.654   0.921  -2.465  0.00  0.00    -0.005 A 
ATOM      6  C5  UNL d   1       0.512   0.207  -2.087  0.00  0.00    -0.074 A 
ATOM      7  C6  UNL d   1       0.239  -0.106  -0.646  0.00  0.00     0.077 C 
ATOM      8  C7  UNL d   1      -0.392  -0.206  -3.075  0.00  0.00    -0.001 A 
ENDROOT
TORSDOF 0
ENDMDL
