MODEL 1
REMARK minimizedAffinity -3.86083722
REMARK minimizedRMSD -1
REMARK  0 active torsions:
REMARK  status: ('A' for Active; 'I' for Inactive)
ROOT
ATOM      1  C   UNL d   1      -0.586  -0.381  -1.870  0.00  0.00     0.077 C 
ATOM      2  C1  UNL d   1       0.008  -0.266  -0.497  0.00  0.00    -0.074 A 
ATOM      3  C2  UNL d   1       1.267  -0.804  -0.211  0.00  0.00    -0.005 A 
ATOM      4  C3  UNL d   1       1.810  -0.680   1.068  0.00  0.00     0.006 A 
ATOM      5  C4  UNL d   1       1.101  -0.019   2.072  0.00  0.00    -0.005 A 
ATOM      6  C5  UNL d   1      -0.159   0.527   1.804  0.00  0.00    -0.074 A 
ATOM      7  C6  UNL d   1      -0.930   1.249   2.868  0.00  0.00     0.077 C 
ATOM      8  C7  UNL d   1      -0.695   0.404   0.514  0.00  0.00    -0.001 A 
ENDROOT
TORSDOF 0
ENDMDL
