MODEL 1
REMARK minimizedAffinity -1.6100179
REMARK minimizedRMSD -1
REMARK  0 active torsions:
REMARK  status: ('A' for Active; 'I' for Inactive)
ROOT
ATOM      1  C   UNL d   1       2.903  -0.712   1.202  0.00  0.00     0.077 C 
ATOM      2  C1  UNL d   1       1.493  -0.218   1.072  0.00  0.00    -0.074 A 
ATOM      3  C2  UNL d   1       0.752  -0.457  -0.091  0.00  0.00    -0.005 A 
ATOM      4  C3  UNL d   1      -0.561   0.001  -0.194  0.00  0.00     0.006 A 
ATOM      5  C4  UNL d   1      -1.147   0.700   0.862  0.00  0.00    -0.005 A 
ATOM      6  C5  UNL d   1      -0.423   0.947   2.032  0.00  0.00    -0.074 A 
ATOM      7  C6  UNL d   1      -1.040   1.688   3.181  0.00  0.00     0.077 C 
ATOM      8  C7  UNL d   1       0.894   0.478   2.131  0.00  0.00    -0.001 A 
ENDROOT
TORSDOF 0
ENDMDL
