MODEL 1
REMARK minimizedAffinity 8.48823357
REMARK minimizedRMSD -1
REMARK  3 active torsions:
REMARK  status: ('A' for Active; 'I' for Inactive)
REMARK    1  A    between atoms: C3'_2  and  C2'_3 
REMARK    2  A    between atoms: C2'_3  and  C1'_4 
REMARK    3  A    between atoms: C1'_4  and  C1_5 
ROOT
ATOM      1  C1  N4B d   1      -2.742  -2.724  -0.347  0.00  0.00    -0.075 A 
ATOM      2  C2  N4B d   1      -1.715  -2.041  -1.034  0.00  0.00     0.002 A 
ATOM      3  C3  N4B d   1      -1.672  -2.065  -2.406  0.00  0.00     0.002 A 
ATOM      4  C4  N4B d   1      -2.632  -2.777  -3.110  0.00  0.00    -0.004 A 
ATOM      5  C5  N4B d   1      -3.636  -3.413  -2.440  0.00  0.00     0.002 A 
ATOM      6  C6  N4B d   1      -3.693  -3.395  -1.061  0.00  0.00     0.002 A 
ENDROOT
BRANCH   1   7
ATOM      7  C1' N4B d   1      -2.781  -2.798   1.155  0.00  0.00     0.057 C 
BRANCH   7   8
ATOM      8  C2' N4B d   1      -1.381  -3.105   1.677  0.00  0.00     0.009 C 
BRANCH   8   9
ATOM      9  C3' N4B d   1      -1.419  -3.883   2.981  0.00  0.00     0.004 C 
ATOM     10  C4' N4B d   1      -1.480  -5.367   2.771  0.00  0.00     0.003 C 
ENDBRANCH   8   9
ENDBRANCH   7   8
ENDBRANCH   1   7
TORSDOF 3
ENDMDL
