MODEL 1
REMARK minimizedAffinity 9.81517792
REMARK minimizedRMSD -1
REMARK  3 active torsions:
REMARK  status: ('A' for Active; 'I' for Inactive)
REMARK    1  A    between atoms: C3'_2  and  C2'_3 
REMARK    2  A    between atoms: C2'_3  and  C1'_4 
REMARK    3  A    between atoms: C1'_4  and  C1_5 
ROOT
ATOM      1  C1  N4B d   1       3.723   2.771   0.701  0.00  0.00    -0.075 A 
ATOM      2  C2  N4B d   1       2.312   2.750   0.751  0.00  0.00     0.002 A 
ATOM      3  C3  N4B d   1       1.649   1.561   0.926  0.00  0.00     0.002 A 
ATOM      4  C4  N4B d   1       2.371   0.382   1.034  0.00  0.00    -0.004 A 
ATOM      5  C5  N4B d   1       3.735   0.413   1.010  0.00  0.00     0.002 A 
ATOM      6  C6  N4B d   1       4.415   1.602   0.839  0.00  0.00     0.002 A 
ENDROOT
BRANCH   1   7
ATOM      7  C1' N4B d   1       4.490   4.036   0.426  0.00  0.00     0.057 C 
BRANCH   7   8
ATOM      8  C2' N4B d   1       4.101   5.091   1.457  0.00  0.00     0.009 C 
BRANCH   8   9
ATOM      9  C3' N4B d   1       5.271   5.989   1.820  0.00  0.00     0.004 C 
ATOM     10  C4' N4B d   1       5.559   6.000   3.292  0.00  0.00     0.003 C 
ENDBRANCH   8   9
ENDBRANCH   7   8
ENDBRANCH   1   7
TORSDOF 3
ENDMDL
