MODEL 1
REMARK minimizedAffinity 10.1126003
REMARK minimizedRMSD -1
REMARK  3 active torsions:
REMARK  status: ('A' for Active; 'I' for Inactive)
REMARK    1  A    between atoms: C3'_2  and  C2'_3 
REMARK    2  A    between atoms: C2'_3  and  C1'_4 
REMARK    3  A    between atoms: C1'_4  and  C1_5 
ROOT
ATOM      1  C1  N4B d   1       0.887   1.755   1.766  0.00  0.00    -0.075 A 
ATOM      2  C2  N4B d   1       1.038   0.442   2.265  0.00  0.00     0.002 A 
ATOM      3  C3  N4B d   1       2.211  -0.240   2.059  0.00  0.00     0.002 A 
ATOM      4  C4  N4B d   1       3.237   0.359   1.343  0.00  0.00    -0.004 A 
ATOM      5  C5  N4B d   1       3.093   1.637   0.887  0.00  0.00     0.002 A 
ATOM      6  C6  N4B d   1       1.920   2.336   1.090  0.00  0.00     0.002 A 
ENDROOT
BRANCH   1   7
ATOM      7  C1' N4B d   1      -0.408   2.509   1.893  0.00  0.00     0.057 C 
BRANCH   7   8
ATOM      8  C2' N4B d   1      -1.312   1.789   2.889  0.00  0.00     0.009 C 
BRANCH   8   9
ATOM      9  C3' N4B d   1      -2.782   2.056   2.620  0.00  0.00     0.004 C 
ATOM     10  C4' N4B d   1      -3.648   0.859   2.877  0.00  0.00     0.003 C 
ENDBRANCH   8   9
ENDBRANCH   7   8
ENDBRANCH   1   7
TORSDOF 3
ENDMDL
