MODEL 1
REMARK minimizedAffinity 3.54959083
REMARK minimizedRMSD -1
REMARK  3 active torsions:
REMARK  status: ('A' for Active; 'I' for Inactive)
REMARK    1  A    between atoms: C3'_2  and  C2'_3 
REMARK    2  A    between atoms: C2'_3  and  C1'_4 
REMARK    3  A    between atoms: C1'_4  and  C1_5 
ROOT
ATOM      1  C1  N4B d   1       3.712   2.357   1.119  0.00  0.00    -0.075 A 
ATOM      2  C2  N4B d   1       2.345   2.366   1.476  0.00  0.00     0.002 A 
ATOM      3  C3  N4B d   1       1.671   1.182   1.643  0.00  0.00     0.002 A 
ATOM      4  C4  N4B d   1       2.334  -0.019   1.440  0.00  0.00    -0.004 A 
ATOM      5  C5  N4B d   1       3.661  -0.020   1.120  0.00  0.00     0.002 A 
ATOM      6  C6  N4B d   1       4.352   1.163   0.953  0.00  0.00     0.002 A 
ENDROOT
BRANCH   1   7
ATOM      7  C1' N4B d   1       4.469   3.627   0.841  0.00  0.00     0.057 C 
BRANCH   7   8
ATOM      8  C2' N4B d   1       5.209   4.055   2.104  0.00  0.00     0.009 C 
BRANCH   8   9
ATOM      9  C3' N4B d   1       5.159   5.559   2.311  0.00  0.00     0.004 C 
ATOM     10  C4' N4B d   1       5.880   5.999   3.550  0.00  0.00     0.003 C 
ENDBRANCH   8   9
ENDBRANCH   7   8
ENDBRANCH   1   7
TORSDOF 3
ENDMDL
