MODEL 1
REMARK minimizedAffinity 10.0044575
REMARK minimizedRMSD -1
REMARK  3 active torsions:
REMARK  status: ('A' for Active; 'I' for Inactive)
REMARK    1  A    between atoms: C3'_2  and  C2'_3 
REMARK    2  A    between atoms: C2'_3  and  C1'_4 
REMARK    3  A    between atoms: C1'_4  and  C1_5 
ROOT
ATOM      1  C1  N4B d   1       4.459   1.216  -0.178  0.00  0.00    -0.075 A 
ATOM      2  C2  N4B d   1       3.456   2.128   0.219  0.00  0.00     0.002 A 
ATOM      3  C3  N4B d   1       2.588   1.797   1.230  0.00  0.00     0.002 A 
ATOM      4  C4  N4B d   1       2.691   0.557   1.843  0.00  0.00    -0.004 A 
ATOM      5  C5  N4B d   1       3.678  -0.308   1.471  0.00  0.00     0.002 A 
ATOM      6  C6  N4B d   1       4.560   0.014   0.459  0.00  0.00     0.002 A 
ENDROOT
BRANCH   1   7
ATOM      7  C1' N4B d   1       5.376   1.500  -1.337  0.00  0.00     0.057 C 
BRANCH   7   8
ATOM      8  C2' N4B d   1       4.953   2.805  -2.003  0.00  0.00     0.009 C 
BRANCH   8   9
ATOM      9  C3' N4B d   1       4.400   2.577  -3.400  0.00  0.00     0.004 C 
ATOM     10  C4' N4B d   1       3.260   3.493  -3.729  0.00  0.00     0.003 C 
ENDBRANCH   8   9
ENDBRANCH   7   8
ENDBRANCH   1   7
TORSDOF 3
ENDMDL
