MODEL 1
REMARK minimizedAffinity 18.1906223
REMARK minimizedRMSD -1
REMARK  3 active torsions:
REMARK  status: ('A' for Active; 'I' for Inactive)
REMARK    1  A    between atoms: C3'_2  and  C2'_3 
REMARK    2  A    between atoms: C2'_3  and  C1'_4 
REMARK    3  A    between atoms: C1'_4  and  C1_5 
ROOT
ATOM      1  C1  N4B d   1       1.946   1.482   1.517  0.00  0.00    -0.075 A 
ATOM      2  C2  N4B d   1       2.020   1.059   0.171  0.00  0.00     0.002 A 
ATOM      3  C3  N4B d   1       3.023   0.211  -0.228  0.00  0.00     0.002 A 
ATOM      4  C4  N4B d   1       3.971  -0.211   0.692  0.00  0.00    -0.004 A 
ATOM      5  C5  N4B d   1       3.878   0.181   1.995  0.00  0.00     0.002 A 
ATOM      6  C6  N4B d   1       2.872   1.030   2.412  0.00  0.00     0.002 A 
ENDROOT
BRANCH   1   7
ATOM      7  C1' N4B d   1       0.918   2.476   1.982  0.00  0.00     0.057 C 
BRANCH   7   8
ATOM      8  C2' N4B d   1       1.411   3.887   1.675  0.00  0.00     0.009 C 
BRANCH   8   9
ATOM      9  C3' N4B d   1       2.923   3.943   1.539  0.00  0.00     0.004 C 
ATOM     10  C4' N4B d   1       3.519   5.161   2.181  0.00  0.00     0.003 C 
ENDBRANCH   8   9
ENDBRANCH   7   8
ENDBRANCH   1   7
TORSDOF 3
ENDMDL
