MODEL 1
REMARK minimizedAffinity 13.2293301
REMARK minimizedRMSD -1
REMARK  3 active torsions:
REMARK  status: ('A' for Active; 'I' for Inactive)
REMARK    1  A    between atoms: C3'_2  and  C2'_3 
REMARK    2  A    between atoms: C2'_3  and  C1'_4 
REMARK    3  A    between atoms: C1'_4  and  C1_5 
ROOT
ATOM      1  C1  N4B d   1      -1.067  -2.309  -3.637  0.00  0.00    -0.075 A 
ATOM      2  C2  N4B d   1       0.125  -3.058  -3.527  0.00  0.00     0.002 A 
ATOM      3  C3  N4B d   1       0.833  -3.392  -4.655  0.00  0.00     0.002 A 
ATOM      4  C4  N4B d   1       0.360  -3.007  -5.901  0.00  0.00    -0.004 A 
ATOM      5  C5  N4B d   1      -0.779  -2.261  -5.997  0.00  0.00     0.002 A 
ATOM      6  C6  N4B d   1      -1.498  -1.915  -4.871  0.00  0.00     0.002 A 
ENDROOT
BRANCH   1   7
ATOM      7  C1' N4B d   1      -1.920  -1.993  -2.439  0.00  0.00     0.057 C 
BRANCH   7   8
ATOM      8  C2' N4B d   1      -1.109  -1.155  -1.454  0.00  0.00     0.009 C 
BRANCH   8   9
ATOM      9  C3' N4B d   1      -0.700  -1.955  -0.230  0.00  0.00     0.004 C 
ATOM     10  C4' N4B d   1      -1.874  -2.434   0.571  0.00  0.00     0.003 C 
ENDBRANCH   8   9
ENDBRANCH   7   8
ENDBRANCH   1   7
TORSDOF 3
ENDMDL
