MODEL 1
REMARK minimizedAffinity 15.3258648
REMARK minimizedRMSD -1
REMARK  3 active torsions:
REMARK  status: ('A' for Active; 'I' for Inactive)
REMARK    1  A    between atoms: C3'_2  and  C2'_3 
REMARK    2  A    between atoms: C2'_3  and  C1'_4 
REMARK    3  A    between atoms: C1'_4  and  C1_5 
ROOT
ATOM      1  C1  N4B d   1       0.621   1.077   3.617  0.00  0.00    -0.075 A 
ATOM      2  C2  N4B d   1       0.933   1.481   4.934  0.00  0.00     0.002 A 
ATOM      3  C3  N4B d   1       0.544   0.706   6.000  0.00  0.00     0.002 A 
ATOM      4  C4  N4B d   1      -0.170  -0.461   5.775  0.00  0.00    -0.004 A 
ATOM      5  C5  N4B d   1      -0.444  -0.857   4.499  0.00  0.00     0.002 A 
ATOM      6  C6  N4B d   1      -0.057  -0.091   3.418  0.00  0.00     0.002 A 
ENDROOT
BRANCH   1   7
ATOM      7  C1' N4B d   1       0.949   1.934   2.425  0.00  0.00     0.057 C 
BRANCH   7   8
ATOM      8  C2' N4B d   1       2.442   1.826   2.127  0.00  0.00     0.009 C 
BRANCH   8   9
ATOM      9  C3' N4B d   1       2.747   0.698   1.156  0.00  0.00     0.004 C 
ATOM     10  C4' N4B d   1       4.011  -0.034   1.496  0.00  0.00     0.003 C 
ENDBRANCH   8   9
ENDBRANCH   7   8
ENDBRANCH   1   7
TORSDOF 3
ENDMDL
