MODEL 1
REMARK minimizedAffinity 13.6673803
REMARK minimizedRMSD -1
REMARK  3 active torsions:
REMARK  status: ('A' for Active; 'I' for Inactive)
REMARK    1  A    between atoms: C3'_2  and  C2'_3 
REMARK    2  A    between atoms: C2'_3  and  C1'_4 
REMARK    3  A    between atoms: C1'_4  and  C1_5 
ROOT
ATOM      1  C1  N4B d   1      -1.382  -2.702  -0.114  0.00  0.00    -0.075 A 
ATOM      2  C2  N4B d   1      -0.845  -2.613  -1.417  0.00  0.00     0.002 A 
ATOM      3  C3  N4B d   1      -1.670  -2.728  -2.509  0.00  0.00     0.002 A 
ATOM      4  C4  N4B d   1      -3.026  -2.951  -2.324  0.00  0.00    -0.004 A 
ATOM      5  C5  N4B d   1      -3.541  -3.011  -1.062  0.00  0.00     0.002 A 
ATOM      6  C6  N4B d   1      -2.725  -2.892   0.045  0.00  0.00     0.002 A 
ENDROOT
BRANCH   1   7
ATOM      7  C1' N4B d   1      -0.508  -2.667   1.109  0.00  0.00     0.057 C 
BRANCH   7   8
ATOM      8  C2' N4B d   1      -1.348  -2.249   2.313  0.00  0.00     0.009 C 
BRANCH   8   9
ATOM      9  C3' N4B d   1      -1.051  -3.100   3.536  0.00  0.00     0.004 C 
ATOM     10  C4' N4B d   1      -1.553  -4.507   3.400  0.00  0.00     0.003 C 
ENDBRANCH   8   9
ENDBRANCH   7   8
ENDBRANCH   1   7
TORSDOF 3
ENDMDL
