MODEL 1
REMARK minimizedAffinity 9.01447201
REMARK minimizedRMSD -1
REMARK  3 active torsions:
REMARK  status: ('A' for Active; 'I' for Inactive)
REMARK    1  A    between atoms: C3'_2  and  C2'_3 
REMARK    2  A    between atoms: C2'_3  and  C1'_4 
REMARK    3  A    between atoms: C1'_4  and  C1_5 
ROOT
ATOM      1  C1  N4B d   1      -1.957  -3.187  -1.206  0.00  0.00    -0.075 A 
ATOM      2  C2  N4B d   1      -0.556  -3.354  -1.156  0.00  0.00     0.002 A 
ATOM      3  C3  N4B d   1       0.096  -3.325   0.053  0.00  0.00     0.002 A 
ATOM      4  C4  N4B d   1      -0.628  -3.114   1.217  0.00  0.00    -0.004 A 
ATOM      5  C5  N4B d   1      -1.984  -2.979   1.162  0.00  0.00     0.002 A 
ATOM      6  C6  N4B d   1      -2.653  -3.010  -0.045  0.00  0.00     0.002 A 
ENDROOT
BRANCH   1   7
ATOM      7  C1' N4B d   1      -2.703  -3.126  -2.511  0.00  0.00     0.057 C 
BRANCH   7   8
ATOM      8  C2' N4B d   1      -1.876  -2.340  -3.524  0.00  0.00     0.009 C 
BRANCH   8   9
ATOM      9  C3' N4B d   1      -1.476  -3.192  -4.716  0.00  0.00     0.004 C 
ATOM     10  C4' N4B d   1      -1.442  -2.417  -5.999  0.00  0.00     0.003 C 
ENDBRANCH   8   9
ENDBRANCH   7   8
ENDBRANCH   1   7
TORSDOF 3
ENDMDL
