MODEL 1
REMARK minimizedAffinity -2.30151677
REMARK minimizedRMSD -1
REMARK  1 active torsions:
REMARK  status: ('A' for Active; 'I' for Inactive)
REMARK    1  A    between atoms: C1_2  and  C2_3 
ROOT
ATOM      1  C2  UNL d   1      -0.728   1.250   0.346  0.00  0.00    -0.073 A 
ATOM      2  C3  UNL d   1      -0.287   2.198  -0.584  0.00  0.00    -0.002 A 
ATOM      3  C4  UNL d   1       0.557   1.821  -1.630  0.00  0.00     0.004 A 
ATOM      4  C5  UNL d   1       0.962   0.493  -1.760  0.00  0.00    -0.004 A 
ATOM      5  C6  UNL d   1       0.523  -0.472  -0.848  0.00  0.00    -0.075 A 
ATOM      6  C7  UNL d   1       0.952  -1.904  -0.973  0.00  0.00     0.076 C 
ATOM      7  C8  UNL d   1      -0.322  -0.084   0.201  0.00  0.00     0.001 A 
ENDROOT
BRANCH   1   8
ATOM      8  C1  UNL d   1      -1.644   1.651   1.472  0.00  0.00     0.053 C 
ATOM      9  C   UNL d   1      -0.872   2.072   2.713  0.00  0.00     0.018 C 
ENDBRANCH   1   8
TORSDOF 1
ENDMDL
