MODEL 1
REMARK minimizedAffinity 5.22173548
REMARK minimizedRMSD -1
REMARK  1 active torsions:
REMARK  status: ('A' for Active; 'I' for Inactive)
REMARK    1  A    between atoms: C1_2  and  C2_3 
ROOT
ATOM      1  C2  UNL d   1      -0.554  -1.511  -0.657  0.00  0.00    -0.073 A 
ATOM      2  C3  UNL d   1       0.244  -1.476   0.492  0.00  0.00    -0.002 A 
ATOM      3  C4  UNL d   1       0.641  -0.255   1.038  0.00  0.00     0.004 A 
ATOM      4  C5  UNL d   1       0.239   0.942   0.446  0.00  0.00    -0.004 A 
ATOM      5  C6  UNL d   1      -0.569   0.929  -0.696  0.00  0.00    -0.075 A 
ATOM      6  C7  UNL d   1      -1.008   2.208  -1.346  0.00  0.00     0.076 C 
ATOM      7  C8  UNL d   1      -0.961  -0.302  -1.240  0.00  0.00     0.001 A 
ENDROOT
BRANCH   1   8
ATOM      8  C1  UNL d   1      -0.991  -2.827  -1.246  0.00  0.00     0.053 C 
ATOM      9  C   UNL d   1      -0.289  -3.124  -2.562  0.00  0.00     0.018 C 
ENDBRANCH   1   8
TORSDOF 1
ENDMDL
