MODEL 1
REMARK minimizedAffinity -5.8663311
REMARK minimizedRMSD -1
REMARK  1 active torsions:
REMARK  status: ('A' for Active; 'I' for Inactive)
REMARK    1  A    between atoms: C1_2  and  C2_3 
ROOT
ATOM      1  C2  UNL d   1      -0.644   0.165   0.662  0.00  0.00    -0.073 A 
ATOM      2  C3  UNL d   1      -1.647   0.583   1.544  0.00  0.00    -0.002 A 
ATOM      3  C4  UNL d   1      -2.137   1.889   1.486  0.00  0.00     0.004 A 
ATOM      4  C5  UNL d   1      -1.634   2.786   0.544  0.00  0.00    -0.004 A 
ATOM      5  C6  UNL d   1      -0.640   2.383  -0.353  0.00  0.00    -0.075 A 
ATOM      6  C7  UNL d   1      -0.087   3.337  -1.371  0.00  0.00     0.076 C 
ATOM      7  C8  UNL d   1      -0.151   1.071  -0.287  0.00  0.00     0.001 A 
ENDROOT
BRANCH   1   8
ATOM      8  C1  UNL d   1      -0.117  -1.246   0.717  0.00  0.00     0.053 C 
ATOM      9  C   UNL d   1       0.378  -1.722  -0.640  0.00  0.00     0.018 C 
ENDBRANCH   1   8
TORSDOF 1
ENDMDL
