MODEL 1
REMARK minimizedAffinity 0.826947451
REMARK minimizedRMSD -1
REMARK  1 active torsions:
REMARK  status: ('A' for Active; 'I' for Inactive)
REMARK    1  A    between atoms: C1_2  and  C2_3 
ROOT
ATOM      1  C2  UNL d   1      -0.444   1.093   1.231  0.00  0.00    -0.073 A 
ATOM      2  C3  UNL d   1      -0.099  -0.214   1.594  0.00  0.00    -0.002 A 
ATOM      3  C4  UNL d   1       0.702  -0.990   0.756  0.00  0.00     0.004 A 
ATOM      4  C5  UNL d   1       1.173  -0.467  -0.448  0.00  0.00    -0.004 A 
ATOM      5  C6  UNL d   1       0.849   0.841  -0.823  0.00  0.00    -0.075 A 
ATOM      6  C7  UNL d   1       1.345   1.419  -2.116  0.00  0.00     0.076 C 
ATOM      7  C8  UNL d   1       0.041   1.614   0.023  0.00  0.00     0.001 A 
ENDROOT
BRANCH   1   8
ATOM      8  C1  UNL d   1      -1.304   1.937   2.136  0.00  0.00     0.053 C 
ATOM      9  C   UNL d   1      -0.486   2.635   3.211  0.00  0.00     0.018 C 
ENDBRANCH   1   8
TORSDOF 1
ENDMDL
