MODEL 1
REMARK minimizedAffinity -2.22535825
REMARK minimizedRMSD -1
REMARK  1 active torsions:
REMARK  status: ('A' for Active; 'I' for Inactive)
REMARK    1  A    between atoms: C1_2  and  C2_3 
ROOT
ATOM      1  C2  UNL d   1      -0.121   0.142  -0.230  0.00  0.00    -0.073 A 
ATOM      2  C3  UNL d   1       0.233   1.017  -1.263  0.00  0.00    -0.002 A 
ATOM      3  C4  UNL d   1      -0.106   2.369  -1.190  0.00  0.00     0.004 A 
ATOM      4  C5  UNL d   1      -0.795   2.861  -0.082  0.00  0.00    -0.004 A 
ATOM      5  C6  UNL d   1      -1.147   2.005   0.966  0.00  0.00    -0.075 A 
ATOM      6  C7  UNL d   1      -1.891   2.518   2.164  0.00  0.00     0.076 C 
ATOM      7  C8  UNL d   1      -0.806   0.648   0.884  0.00  0.00     0.001 A 
ENDROOT
BRANCH   1   8
ATOM      8  C1  UNL d   1       0.248  -1.317  -0.301  0.00  0.00     0.053 C 
ATOM      9  C   UNL d   1       1.099  -1.630  -1.522  0.00  0.00     0.018 C 
ENDBRANCH   1   8
TORSDOF 1
ENDMDL
