MODEL 1
REMARK minimizedAffinity -1.42313874
REMARK minimizedRMSD -1
REMARK  1 active torsions:
REMARK  status: ('A' for Active; 'I' for Inactive)
REMARK    1  A    between atoms: C1_2  and  C2_3 
ROOT
ATOM      1  C2  UNL d   1       0.265  -0.399  -0.394  0.00  0.00    -0.073 A 
ATOM      2  C3  UNL d   1       0.704   0.249  -1.554  0.00  0.00    -0.002 A 
ATOM      3  C4  UNL d   1       0.192   1.501  -1.899  0.00  0.00     0.004 A 
ATOM      4  C5  UNL d   1      -0.757   2.119  -1.085  0.00  0.00    -0.004 A 
ATOM      5  C6  UNL d   1      -1.199   1.493   0.085  0.00  0.00    -0.075 A 
ATOM      6  C7  UNL d   1      -2.221   2.144   0.969  0.00  0.00     0.076 C 
ATOM      7  C8  UNL d   1      -0.682   0.235   0.423  0.00  0.00     0.001 A 
ENDROOT
BRANCH   1   8
ATOM      8  C1  UNL d   1       0.820  -1.748  -0.014  0.00  0.00     0.053 C 
ATOM      9  C   UNL d   1       1.148  -2.593  -1.235  0.00  0.00     0.018 C 
ENDBRANCH   1   8
TORSDOF 1
ENDMDL
