MODEL 1
REMARK minimizedAffinity -3.70378852
REMARK minimizedRMSD -1
REMARK  1 active torsions:
REMARK  status: ('A' for Active; 'I' for Inactive)
REMARK    1  A    between atoms: C1_2  and  C2_3 
ROOT
ATOM      1  C2  UNL d   1       0.195  -0.009   0.082  0.00  0.00    -0.073 A 
ATOM      2  C3  UNL d   1       0.390  -0.815   1.209  0.00  0.00    -0.002 A 
ATOM      3  C4  UNL d   1      -0.291  -0.543   2.397  0.00  0.00     0.004 A 
ATOM      4  C5  UNL d   1      -1.177   0.532   2.468  0.00  0.00    -0.004 A 
ATOM      5  C6  UNL d   1      -1.394   1.342   1.349  0.00  0.00    -0.075 A 
ATOM      6  C7  UNL d   1      -2.342   2.504   1.410  0.00  0.00     0.076 C 
ATOM      7  C8  UNL d   1      -0.705   1.064   0.161  0.00  0.00     0.001 A 
ENDROOT
BRANCH   1   8
ATOM      8  C1  UNL d   1       0.922  -0.302  -1.204  0.00  0.00     0.053 C 
ATOM      9  C   UNL d   1       0.795  -1.762  -1.611  0.00  0.00     0.018 C 
ENDBRANCH   1   8
TORSDOF 1
ENDMDL
