MODEL 1
REMARK minimizedAffinity -3.07957816
REMARK minimizedRMSD -1
REMARK  1 active torsions:
REMARK  status: ('A' for Active; 'I' for Inactive)
REMARK    1  A    between atoms: C1_2  and  C2_3 
ROOT
ATOM      1  C2  UNL d   1       0.150  -0.329  -0.508  0.00  0.00    -0.073 A 
ATOM      2  C3  UNL d   1       0.654   0.434  -1.567  0.00  0.00    -0.002 A 
ATOM      3  C4  UNL d   1       0.324   1.786  -1.681  0.00  0.00     0.004 A 
ATOM      4  C5  UNL d   1      -0.505   2.388  -0.735  0.00  0.00    -0.004 A 
ATOM      5  C6  UNL d   1      -1.008   1.645   0.337  0.00  0.00    -0.075 A 
ATOM      6  C7  UNL d   1      -1.903   2.278   1.362  0.00  0.00     0.076 C 
ATOM      7  C8  UNL d   1      -0.675   0.288   0.443  0.00  0.00     0.001 A 
ENDROOT
BRANCH   1   8
ATOM      8  C1  UNL d   1       0.508  -1.787  -0.377  0.00  0.00     0.053 C 
ATOM      9  C   UNL d   1       0.401  -2.521  -1.704  0.00  0.00     0.018 C 
ENDBRANCH   1   8
TORSDOF 1
ENDMDL
