MODEL 1
REMARK minimizedAffinity -3.35011959
REMARK minimizedRMSD -1
REMARK  1 active torsions:
REMARK  status: ('A' for Active; 'I' for Inactive)
REMARK    1  A    between atoms: C1_2  and  C2_3 
ROOT
ATOM      1  C2  UNL d   1      -1.065   1.808   0.959  0.00  0.00    -0.073 A 
ATOM      2  C3  UNL d   1      -1.276   1.233   2.217  0.00  0.00    -0.002 A 
ATOM      3  C4  UNL d   1      -0.847  -0.069   2.478  0.00  0.00     0.004 A 
ATOM      4  C5  UNL d   1      -0.197  -0.806   1.487  0.00  0.00    -0.004 A 
ATOM      5  C6  UNL d   1       0.033  -0.244   0.228  0.00  0.00    -0.075 A 
ATOM      6  C7  UNL d   1       0.729  -1.024  -0.849  0.00  0.00     0.076 C 
ATOM      7  C8  UNL d   1      -0.403   1.063  -0.027  0.00  0.00     0.001 A 
ENDROOT
BRANCH   1   8
ATOM      8  C1  UNL d   1      -1.521   3.216   0.675  0.00  0.00     0.053 C 
ATOM      9  C   UNL d   1      -0.818   3.809  -0.536  0.00  0.00     0.018 C 
ENDBRANCH   1   8
TORSDOF 1
ENDMDL
