MODEL 1
REMARK minimizedAffinity -0.426227003
REMARK minimizedRMSD -1
REMARK  0 active torsions:
REMARK  status: ('A' for Active; 'I' for Inactive)
ROOT
ATOM      1  C   UNL d   1       3.095  -1.163   0.564  0.00  0.00     0.023 A 
ATOM      2  C1  UNL d   1       2.562  -0.234   1.458  0.00  0.00     0.003 A 
ATOM      3  C2  UNL d   1       1.268   0.256   1.269  0.00  0.00     0.048 A 
ATOM      4  C3  UNL d   1       0.512  -0.188   0.186  0.00  0.00     0.023 A 
ATOM      5  C4  UNL d   1       1.040  -1.118  -0.711  0.00  0.00     0.048 A 
ATOM      6  C5  UNL d   1       2.335  -1.604  -0.519  0.00  0.00     0.003 A 
ATOM      7  I   UNL d   1      -1.414   0.540  -0.097  0.00  0.00    -0.146 I 
ENDROOT
TORSDOF 0
ENDMDL
