MODEL 1
REMARK minimizedAffinity -1.88614237
REMARK minimizedRMSD -1
REMARK  0 active torsions:
REMARK  status: ('A' for Active; 'I' for Inactive)
ROOT
ATOM      1  C   UNL d   1      -0.932   1.510  -0.767  0.00  0.00     0.023 A 
ATOM      2  C1  UNL d   1      -0.989   0.116  -0.809  0.00  0.00     0.003 A 
ATOM      3  C2  UNL d   1       0.004  -0.644  -0.188  0.00  0.00     0.048 A 
ATOM      4  C3  UNL d   1       1.052  -0.005   0.474  0.00  0.00     0.023 A 
ATOM      5  C4  UNL d   1       1.113   1.389   0.519  0.00  0.00     0.048 A 
ATOM      6  C5  UNL d   1       0.118   2.145  -0.103  0.00  0.00     0.003 A 
ATOM      7  I   UNL d   1       2.531  -1.134   1.398  0.00  0.00    -0.146 I 
ENDROOT
TORSDOF 0
ENDMDL
