MODEL 1
REMARK minimizedAffinity -2.86171985
REMARK minimizedRMSD -1
REMARK  0 active torsions:
REMARK  status: ('A' for Active; 'I' for Inactive)
ROOT
ATOM      1  C   UNL d   1       0.669  -1.049  -0.676  0.00  0.00     0.023 A 
ATOM      2  C1  UNL d   1       0.148   0.172  -1.103  0.00  0.00     0.003 A 
ATOM      3  C2  UNL d   1      -1.093   0.606  -0.632  0.00  0.00     0.048 A 
ATOM      4  C3  UNL d   1      -1.807  -0.187   0.266  0.00  0.00     0.023 A 
ATOM      5  C4  UNL d   1      -1.289  -1.409   0.697  0.00  0.00     0.048 A 
ATOM      6  C5  UNL d   1      -0.048  -1.839   0.223  0.00  0.00     0.003 A 
ATOM      7  I   UNL d   1      -3.655   0.456   0.969  0.00  0.00    -0.146 I 
ENDROOT
TORSDOF 0
ENDMDL
