MODEL 1
REMARK minimizedAffinity -3.71663165
REMARK minimizedRMSD -1
REMARK  0 active torsions:
REMARK  status: ('A' for Active; 'I' for Inactive)
ROOT
ATOM      1  C   UNL d   1       2.748  -1.353   0.356  0.00  0.00     0.023 A 
ATOM      2  C1  UNL d   1       1.900  -1.831  -0.644  0.00  0.00     0.003 A 
ATOM      3  C2  UNL d   1       0.606  -1.321  -0.767  0.00  0.00     0.048 A 
ATOM      4  C3  UNL d   1       0.166  -0.332   0.113  0.00  0.00     0.023 A 
ATOM      5  C4  UNL d   1       1.011   0.150   1.113  0.00  0.00     0.048 A 
ATOM      6  C5  UNL d   1       2.304  -0.364   1.233  0.00  0.00     0.003 A 
ATOM      7  I   UNL d   1      -1.759   0.429  -0.069  0.00  0.00    -0.146 I 
ENDROOT
TORSDOF 0
ENDMDL
