MODEL 1
REMARK minimizedAffinity -2.63140869
REMARK minimizedRMSD -1
REMARK  0 active torsions:
REMARK  status: ('A' for Active; 'I' for Inactive)
ROOT
ATOM      1  C   UNL d   1       3.906   0.221   0.175  0.00  0.00     0.023 A 
ATOM      2  C1  UNL d   1       3.449   1.538   0.223  0.00  0.00     0.003 A 
ATOM      3  C2  UNL d   1       2.078   1.804   0.200  0.00  0.00     0.048 A 
ATOM      4  C3  UNL d   1       1.170   0.749   0.130  0.00  0.00     0.023 A 
ATOM      5  C4  UNL d   1       1.623  -0.571   0.083  0.00  0.00     0.048 A 
ATOM      6  C5  UNL d   1       2.994  -0.832   0.105  0.00  0.00     0.003 A 
ATOM      7  I   UNL d   1      -0.870   1.142   0.096  0.00  0.00    -0.146 I 
ENDROOT
TORSDOF 0
ENDMDL
