MODEL 1
REMARK minimizedAffinity -4.82848263
REMARK minimizedRMSD -1
REMARK  0 active torsions:
REMARK  status: ('A' for Active; 'I' for Inactive)
ROOT
ATOM      1  C   UNL d   1       2.074  -2.012  -0.369  0.00  0.00     0.023 A 
ATOM      2  C1  UNL d   1       2.118  -0.933   0.513  0.00  0.00     0.003 A 
ATOM      3  C2  UNL d   1       0.988  -0.134   0.698  0.00  0.00     0.048 A 
ATOM      4  C3  UNL d   1      -0.183  -0.420  -0.002  0.00  0.00     0.023 A 
ATOM      5  C4  UNL d   1      -0.232  -1.500  -0.885  0.00  0.00     0.048 A 
ATOM      6  C5  UNL d   1       0.900  -2.295  -1.068  0.00  0.00     0.003 A 
ATOM      7  I   UNL d   1      -1.867   0.767   0.272  0.00  0.00    -0.146 I 
ENDROOT
TORSDOF 0
ENDMDL
