MODEL 1
REMARK minimizedAffinity -3.09648609
REMARK minimizedRMSD -1
REMARK  0 active torsions:
REMARK  status: ('A' for Active; 'I' for Inactive)
ROOT
ATOM      1  C   UNL d   1      -4.394   1.175   0.830  0.00  0.00     0.023 A 
ATOM      2  C1  UNL d   1      -3.689   0.793   1.971  0.00  0.00     0.003 A 
ATOM      3  C2  UNL d   1      -2.345   0.426   1.873  0.00  0.00     0.048 A 
ATOM      4  C3  UNL d   1      -1.713   0.445   0.630  0.00  0.00     0.023 A 
ATOM      5  C4  UNL d   1      -2.414   0.827  -0.514  0.00  0.00     0.048 A 
ATOM      6  C5  UNL d   1      -3.758   1.192  -0.411  0.00  0.00     0.003 A 
ATOM      7  I   UNL d   1       0.287  -0.101   0.481  0.00  0.00    -0.146 I 
ENDROOT
TORSDOF 0
ENDMDL
