MODEL 1
REMARK minimizedAffinity -0.612996876
REMARK minimizedRMSD -1
REMARK  0 active torsions:
REMARK  status: ('A' for Active; 'I' for Inactive)
ROOT
ATOM      1  C   UNL d   1       0.924   0.039   0.110  0.00  0.00     0.023 A 
ATOM      2  C1  UNL d   1       0.180   1.093  -0.420  0.00  0.00     0.003 A 
ATOM      3  C2  UNL d   1      -1.142   1.291  -0.015  0.00  0.00     0.048 A 
ATOM      4  C3  UNL d   1      -1.713   0.431   0.923  0.00  0.00     0.023 A 
ATOM      5  C4  UNL d   1      -0.972  -0.625   1.457  0.00  0.00     0.048 A 
ATOM      6  C5  UNL d   1       0.349  -0.819   1.048  0.00  0.00     0.003 A 
ATOM      7  I   UNL d   1      -3.680   0.722   1.528  0.00  0.00    -0.146 I 
ENDROOT
TORSDOF 0
ENDMDL
