MODEL 1
REMARK minimizedAffinity -1.99309552
REMARK minimizedRMSD -1
REMARK  0 active torsions:
REMARK  status: ('A' for Active; 'I' for Inactive)
ROOT
ATOM      1  C   UNL d   1       1.832   1.319   0.529  0.00  0.00     0.023 A 
ATOM      2  C1  UNL d   1       0.961   2.391   0.335  0.00  0.00     0.003 A 
ATOM      3  C2  UNL d   1      -0.384   2.156   0.043  0.00  0.00     0.048 A 
ATOM      4  C3  UNL d   1      -0.852   0.845  -0.050  0.00  0.00     0.023 A 
ATOM      5  C4  UNL d   1       0.015  -0.231   0.144  0.00  0.00     0.048 A 
ATOM      6  C5  UNL d   1       1.360   0.010   0.434  0.00  0.00     0.003 A 
ATOM      7  I   UNL d   1      -2.854   0.492  -0.484  0.00  0.00    -0.146 I 
ENDROOT
TORSDOF 0
ENDMDL
