MODEL 1
REMARK minimizedAffinity -3.82564592
REMARK minimizedRMSD -1
REMARK  0 active torsions:
REMARK  status: ('A' for Active; 'I' for Inactive)
ROOT
ATOM      1  C   UNL d   1       1.181  -3.129  -1.603  0.00  0.00     0.172 C 
ATOM      2  N   UNL d   1       1.163  -1.693  -1.756  0.00  0.00    -0.070 N 
ATOM      3  C1  UNL d   1       1.917  -0.976  -2.646  0.00  0.00    -0.004 A 
ATOM      4  C2  UNL d   1       1.610   0.357  -2.480  0.00  0.00    -0.047 A 
ATOM      5  C3  UNL d   1       0.639   0.444  -1.454  0.00  0.00    -0.047 A 
ATOM      6  C4  UNL d   1       0.381  -0.840  -1.024  0.00  0.00    -0.004 A 
ENDROOT
TORSDOF 0
ENDMDL
