MODEL 1
REMARK minimizedAffinity -2.94658446
REMARK minimizedRMSD -1
REMARK  0 active torsions:
REMARK  status: ('A' for Active; 'I' for Inactive)
ROOT
ATOM      1  C   UNL d   1      -0.487  -0.217   1.436  0.00  0.00     0.172 C 
ATOM      2  N   UNL d   1      -0.198  -0.714   0.111  0.00  0.00    -0.070 N 
ATOM      3  C1  UNL d   1      -0.184   0.033  -1.036  0.00  0.00    -0.004 A 
ATOM      4  C2  UNL d   1       0.134  -0.807  -2.082  0.00  0.00    -0.047 A 
ATOM      5  C3  UNL d   1       0.317  -2.103  -1.544  0.00  0.00    -0.047 A 
ATOM      6  C4  UNL d   1       0.105  -2.017  -0.184  0.00  0.00    -0.004 A 
ENDROOT
TORSDOF 0
ENDMDL
