MODEL 1
REMARK minimizedAffinity -3.80928111
REMARK minimizedRMSD -1
REMARK  0 active torsions:
REMARK  status: ('A' for Active; 'I' for Inactive)
ROOT
ATOM      1  C   UNL d   1       0.172   0.431   0.159  0.00  0.00     0.172 C 
ATOM      2  N   UNL d   1       0.847  -0.059  -1.019  0.00  0.00    -0.070 N 
ATOM      3  C1  UNL d   1       1.340   0.714  -2.036  0.00  0.00    -0.004 A 
ATOM      4  C2  UNL d   1       1.909  -0.126  -2.968  0.00  0.00    -0.047 A 
ATOM      5  C3  UNL d   1       1.752  -1.451  -2.495  0.00  0.00    -0.047 A 
ATOM      6  C4  UNL d   1       1.091  -1.380  -1.287  0.00  0.00    -0.004 A 
ENDROOT
TORSDOF 0
ENDMDL
