MODEL 1
REMARK minimizedAffinity -3.03053904
REMARK minimizedRMSD -1
REMARK  0 active torsions:
REMARK  status: ('A' for Active; 'I' for Inactive)
ROOT
ATOM      1  C   UNL d   1      -0.078   0.138   0.929  0.00  0.00     0.172 C 
ATOM      2  N   UNL d   1       0.371  -0.212  -0.398  0.00  0.00    -0.070 N 
ATOM      3  C1  UNL d   1       0.892   0.656  -1.320  0.00  0.00    -0.004 A 
ATOM      4  C2  UNL d   1       1.197  -0.065  -2.454  0.00  0.00    -0.047 A 
ATOM      5  C3  UNL d   1       0.845  -1.413  -2.206  0.00  0.00    -0.047 A 
ATOM      6  C4  UNL d   1       0.336  -1.476  -0.926  0.00  0.00    -0.004 A 
ENDROOT
TORSDOF 0
ENDMDL
