MODEL 1
REMARK minimizedAffinity -3.46970391
REMARK minimizedRMSD -1
REMARK  0 active torsions:
REMARK  status: ('A' for Active; 'I' for Inactive)
ROOT
ATOM      1  C   UNL d   1      -0.227  -0.292   0.281  0.00  0.00     0.172 C 
ATOM      2  N   UNL d   1       0.668  -0.691  -0.780  0.00  0.00    -0.070 N 
ATOM      3  C1  UNL d   1       1.288   0.154  -1.661  0.00  0.00    -0.004 A 
ATOM      4  C2  UNL d   1       2.054  -0.613  -2.513  0.00  0.00    -0.047 A 
ATOM      5  C3  UNL d   1       1.888  -1.965  -2.130  0.00  0.00    -0.047 A 
ATOM      6  C4  UNL d   1       1.025  -1.985  -1.055  0.00  0.00    -0.004 A 
ENDROOT
TORSDOF 0
ENDMDL
