MODEL 1
REMARK minimizedAffinity -3.07614183
REMARK minimizedRMSD -1
REMARK  0 active torsions:
REMARK  status: ('A' for Active; 'I' for Inactive)
ROOT
ATOM      1  C   UNL d   1      -0.916  -1.034   0.872  0.00  0.00     0.172 C 
ATOM      2  N   UNL d   1      -0.097  -0.660  -0.257  0.00  0.00    -0.070 N 
ATOM      3  C1  UNL d   1       0.584   0.520  -0.392  0.00  0.00    -0.004 A 
ATOM      4  C2  UNL d   1       1.243   0.491  -1.603  0.00  0.00    -0.047 A 
ATOM      5  C3  UNL d   1       0.947  -0.749  -2.216  0.00  0.00    -0.047 A 
ATOM      6  C4  UNL d   1       0.116  -1.442  -1.361  0.00  0.00    -0.004 A 
ENDROOT
TORSDOF 0
ENDMDL
