MODEL 1
REMARK minimizedAffinity -3.50512338
REMARK minimizedRMSD -1
REMARK  0 active torsions:
REMARK  status: ('A' for Active; 'I' for Inactive)
ROOT
ATOM      1  C   UNL d   1       0.818   1.563  -0.552  0.00  0.00     0.172 C 
ATOM      2  N   UNL d   1       1.131   0.321  -1.218  0.00  0.00    -0.070 N 
ATOM      3  C1  UNL d   1       2.157   0.126  -2.103  0.00  0.00    -0.004 A 
ATOM      4  C2  UNL d   1       2.119  -1.190  -2.511  0.00  0.00    -0.047 A 
ATOM      5  C3  UNL d   1       1.031  -1.807  -1.849  0.00  0.00    -0.047 A 
ATOM      6  C4  UNL d   1       0.437  -0.849  -1.055  0.00  0.00    -0.004 A 
ENDROOT
TORSDOF 0
ENDMDL
