MODEL 1
REMARK minimizedAffinity -2.10862541
REMARK minimizedRMSD -1
REMARK  0 active torsions:
REMARK  status: ('A' for Active; 'I' for Inactive)
ROOT
ATOM      1  C   UNL d   1      -2.175   3.776  -5.997  0.00  0.00     0.172 C 
ATOM      2  N   UNL d   1      -3.600   4.010  -5.993  0.00  0.00    -0.070 N 
ATOM      3  C1  UNL d   1      -4.568   3.042  -5.991  0.00  0.00    -0.004 A 
ATOM      4  C2  UNL d   1      -5.794   3.671  -5.987  0.00  0.00    -0.047 A 
ATOM      5  C3  UNL d   1      -5.554   5.065  -5.988  0.00  0.00    -0.047 A 
ATOM      6  C4  UNL d   1      -4.188   5.247  -5.992  0.00  0.00    -0.004 A 
ENDROOT
TORSDOF 0
ENDMDL
