MODEL 1
REMARK minimizedAffinity -2.51458526
REMARK minimizedRMSD -1
REMARK  0 active torsions:
REMARK  status: ('A' for Active; 'I' for Inactive)
ROOT
ATOM      1  C   UNL d   1      -5.737   1.683  -5.974  0.00  0.00     0.172 C 
ATOM      2  N   UNL d   1      -5.226   3.033  -5.939  0.00  0.00    -0.070 N 
ATOM      3  C1  UNL d   1      -3.906   3.385  -5.846  0.00  0.00    -0.004 A 
ATOM      4  C2  UNL d   1      -3.835   4.762  -5.843  0.00  0.00    -0.047 A 
ATOM      5  C3  UNL d   1      -5.159   5.254  -5.937  0.00  0.00    -0.047 A 
ATOM      6  C4  UNL d   1      -6.000   4.163  -5.994  0.00  0.00    -0.004 A 
ENDROOT
TORSDOF 0
ENDMDL
