MODEL 1
REMARK minimizedAffinity -2.67062187
REMARK minimizedRMSD -1
REMARK  0 active torsions:
REMARK  status: ('A' for Active; 'I' for Inactive)
ROOT
ATOM      1  C   UNL d   1      -0.163  -0.453   1.309  0.00  0.00     0.172 C 
ATOM      2  N   UNL d   1       0.284  -0.147  -0.029  0.00  0.00    -0.070 N 
ATOM      3  C1  UNL d   1       0.971   0.976  -0.405  0.00  0.00    -0.004 A 
ATOM      4  C2  UNL d   1       1.210   0.892  -1.759  0.00  0.00    -0.047 A 
ATOM      5  C3  UNL d   1       0.646  -0.324  -2.214  0.00  0.00    -0.047 A 
ATOM      6  C4  UNL d   1       0.079  -0.947  -1.123  0.00  0.00    -0.004 A 
ENDROOT
TORSDOF 0
ENDMDL
