MODEL 1
REMARK minimizedAffinity -2.69130373
REMARK minimizedRMSD -1
REMARK  0 active torsions:
REMARK  status: ('A' for Active; 'I' for Inactive)
ROOT
ATOM      1  C   UNL d   1      -5.629   4.352  -5.269  0.00  0.00     0.172 C 
ATOM      2  N   UNL d   1      -5.211   2.987  -5.488  0.00  0.00    -0.070 N 
ATOM      3  C1  UNL d   1      -6.000   1.877  -5.346  0.00  0.00    -0.004 A 
ATOM      4  C2  UNL d   1      -5.232   0.772  -5.645  0.00  0.00    -0.047 A 
ATOM      5  C3  UNL d   1      -3.936   1.234  -5.977  0.00  0.00    -0.047 A 
ATOM      6  C4  UNL d   1      -3.951   2.609  -5.871  0.00  0.00    -0.004 A 
ENDROOT
TORSDOF 0
ENDMDL
