MODEL 1
REMARK minimizedAffinity -3.9870739
REMARK minimizedRMSD -1
REMARK  0 active torsions:
REMARK  status: ('A' for Active; 'I' for Inactive)
ROOT
ATOM      1  C   UNL d   1      -0.699   0.027   0.402  0.00  0.00     0.172 C 
ATOM      2  N   UNL d   1       0.189   0.259  -0.713  0.00  0.00    -0.070 N 
ATOM      3  C1  UNL d   1       0.714  -0.707  -1.530  0.00  0.00    -0.004 A 
ATOM      4  C2  UNL d   1       1.507  -0.081  -2.468  0.00  0.00    -0.047 A 
ATOM      5  C3  UNL d   1       1.457   1.309  -2.205  0.00  0.00    -0.047 A 
ATOM      6  C4  UNL d   1       0.634   1.491  -1.114  0.00  0.00    -0.004 A 
ENDROOT
TORSDOF 0
ENDMDL
