MODEL 1
REMARK minimizedAffinity -1.71325457
REMARK minimizedRMSD -1
REMARK  0 active torsions:
REMARK  status: ('A' for Active; 'I' for Inactive)
ROOT
ATOM      1  C   UNL d   1       0.611   0.615   1.136  0.00  0.00     0.172 C 
ATOM      2  N   UNL d   1       1.305   0.849  -0.109  0.00  0.00    -0.070 N 
ATOM      3  C1  UNL d   1       1.218   1.983  -0.871  0.00  0.00    -0.004 A 
ATOM      4  C2  UNL d   1       2.027   1.814  -1.973  0.00  0.00    -0.047 A 
ATOM      5  C3  UNL d   1       2.620   0.533  -1.871  0.00  0.00    -0.047 A 
ATOM      6  C4  UNL d   1       2.156  -0.043  -0.707  0.00  0.00    -0.004 A 
ENDROOT
TORSDOF 0
ENDMDL
