MODEL 1
REMARK minimizedAffinity -2.38778758
REMARK minimizedRMSD -1
REMARK  0 active torsions:
REMARK  status: ('A' for Active; 'I' for Inactive)
ROOT
ATOM      1  C   UNL d   1       1.023  -3.251  -1.386  0.00  0.00     0.172 C 
ATOM      2  N   UNL d   1       1.226  -1.843  -1.635  0.00  0.00    -0.070 N 
ATOM      3  C1  UNL d   1       0.561  -0.819  -1.016  0.00  0.00    -0.004 A 
ATOM      4  C2  UNL d   1       1.041   0.367  -1.528  0.00  0.00    -0.047 A 
ATOM      5  C3  UNL d   1       2.028   0.044  -2.489  0.00  0.00    -0.047 A 
ATOM      6  C4  UNL d   1       2.123  -1.331  -2.535  0.00  0.00    -0.004 A 
ENDROOT
TORSDOF 0
ENDMDL
