MODEL 1
REMARK minimizedAffinity -4.02251673
REMARK minimizedRMSD -1
REMARK  0 active torsions:
REMARK  status: ('A' for Active; 'I' for Inactive)
ROOT
ATOM      1  C   UNL d   1      -0.261  -0.596   0.718  0.00  0.00     0.172 C 
ATOM      2  N   UNL d   1       0.492  -0.876  -0.481  0.00  0.00    -0.070 N 
ATOM      3  C1  UNL d   1       0.794  -2.122  -0.963  0.00  0.00    -0.004 A 
ATOM      4  C2  UNL d   1       1.522  -1.962  -2.122  0.00  0.00    -0.047 A 
ATOM      5  C3  UNL d   1       1.664  -0.571  -2.345  0.00  0.00    -0.047 A 
ATOM      6  C4  UNL d   1       1.017   0.078  -1.314  0.00  0.00    -0.004 A 
ENDROOT
TORSDOF 0
ENDMDL
