MODEL 1
REMARK minimizedAffinity -3.55216599
REMARK minimizedRMSD -1
REMARK  0 active torsions:
REMARK  status: ('A' for Active; 'I' for Inactive)
ROOT
ATOM      1  C   UNL d   1       0.530   0.789   0.432  0.00  0.00     0.172 C 
ATOM      2  N   UNL d   1       0.852   0.114  -0.803  0.00  0.00    -0.070 N 
ATOM      3  C1  UNL d   1       1.869   0.452  -1.656  0.00  0.00    -0.004 A 
ATOM      4  C2  UNL d   1       1.844  -0.432  -2.714  0.00  0.00    -0.047 A 
ATOM      5  C3  UNL d   1       0.775  -1.331  -2.489  0.00  0.00    -0.047 A 
ATOM      6  C4  UNL d   1       0.177  -0.970  -1.300  0.00  0.00    -0.004 A 
ENDROOT
TORSDOF 0
ENDMDL
