MODEL 1
REMARK minimizedAffinity 11.3406372
REMARK minimizedRMSD -1
REMARK  0 active torsions:
REMARK  status: ('A' for Active; 'I' for Inactive)
ROOT
ATOM      1  C   UNL d   1      -0.683  -4.197   0.613  0.00  0.00     0.077 C 
ATOM      2  C1  UNL d   1      -1.273  -3.013  -0.093  0.00  0.00    -0.074 A 
ATOM      3  C2  UNL d   1      -2.238  -2.213   0.528  0.00  0.00    -0.005 A 
ATOM      4  C3  UNL d   1      -2.771  -1.110  -0.137  0.00  0.00     0.006 A 
ATOM      5  C4  UNL d   1      -2.346  -0.795  -1.429  0.00  0.00    -0.005 A 
ATOM      6  C5  UNL d   1      -1.382  -1.583  -2.066  0.00  0.00    -0.074 A 
ATOM      7  C6  UNL d   1      -0.907  -1.254  -3.450  0.00  0.00     0.077 C 
ATOM      8  C7  UNL d   1      -0.846  -2.686  -1.388  0.00  0.00    -0.001 A 
ENDROOT
TORSDOF 0
ENDMDL
