MODEL 1
REMARK minimizedAffinity 19.6369972
REMARK minimizedRMSD -1
REMARK  0 active torsions:
REMARK  status: ('A' for Active; 'I' for Inactive)
ROOT
ATOM      1  C   UNL d   1      -3.047   3.322  -4.320  0.00  0.00     0.077 C 
ATOM      2  C1  UNL d   1      -1.780   2.563  -4.059  0.00  0.00    -0.074 A 
ATOM      3  C2  UNL d   1      -0.533   3.120  -4.363  0.00  0.00    -0.005 A 
ATOM      4  C3  UNL d   1       0.637   2.406  -4.106  0.00  0.00     0.006 A 
ATOM      5  C4  UNL d   1       0.573   1.131  -3.543  0.00  0.00    -0.005 A 
ATOM      6  C5  UNL d   1      -0.664   0.558  -3.232  0.00  0.00    -0.074 A 
ATOM      7  C6  UNL d   1      -0.750  -0.807  -2.617  0.00  0.00     0.077 C 
ATOM      8  C7  UNL d   1      -1.835   1.285  -3.487  0.00  0.00    -0.001 A 
ENDROOT
TORSDOF 0
ENDMDL
