MODEL 1
REMARK minimizedAffinity 11.4402905
REMARK minimizedRMSD -1
REMARK  0 active torsions:
REMARK  status: ('A' for Active; 'I' for Inactive)
ROOT
ATOM      1  C   UNL d   1       0.846  -0.757  -3.336  0.00  0.00     0.077 C 
ATOM      2  C1  UNL d   1      -0.066   0.386  -3.669  0.00  0.00    -0.074 A 
ATOM      3  C2  UNL d   1      -1.402   0.384  -3.255  0.00  0.00    -0.005 A 
ATOM      4  C3  UNL d   1      -2.235   1.459  -3.564  0.00  0.00     0.006 A 
ATOM      5  C4  UNL d   1      -1.742   2.545  -4.290  0.00  0.00    -0.005 A 
ATOM      6  C5  UNL d   1      -0.409   2.564  -4.712  0.00  0.00    -0.074 A 
ATOM      7  C6  UNL d   1       0.139   3.727  -5.484  0.00  0.00     0.077 C 
ATOM      8  C7  UNL d   1       0.424   1.484  -4.391  0.00  0.00    -0.001 A 
ENDROOT
TORSDOF 0
ENDMDL
