MODEL 1
REMARK minimizedAffinity 14.0111904
REMARK minimizedRMSD -1
REMARK  0 active torsions:
REMARK  status: ('A' for Active; 'I' for Inactive)
ROOT
ATOM      1  C   UNL d   1       1.397  -0.223  -3.197  0.00  0.00     0.077 C 
ATOM      2  C1  UNL d   1       0.682   1.006  -3.675  0.00  0.00    -0.074 A 
ATOM      3  C2  UNL d   1       1.393   2.124  -4.122  0.00  0.00    -0.005 A 
ATOM      4  C3  UNL d   1       0.714   3.256  -4.573  0.00  0.00     0.006 A 
ATOM      5  C4  UNL d   1      -0.681   3.282  -4.580  0.00  0.00    -0.005 A 
ATOM      6  C5  UNL d   1      -1.409   2.173  -4.137  0.00  0.00    -0.074 A 
ATOM      7  C6  UNL d   1      -2.909   2.181  -4.148  0.00  0.00     0.077 C 
ATOM      8  C7  UNL d   1      -0.720   1.037  -3.693  0.00  0.00    -0.001 A 
ENDROOT
TORSDOF 0
ENDMDL
