MODEL 1
REMARK minimizedAffinity 8.03991032
REMARK minimizedRMSD -1
REMARK  0 active torsions:
REMARK  status: ('A' for Active; 'I' for Inactive)
ROOT
ATOM      1  C   UNL d   1      -1.658  -5.983   3.846  0.00  0.00     0.077 C 
ATOM      2  C1  UNL d   1      -1.453  -5.307   2.523  0.00  0.00    -0.074 A 
ATOM      3  C2  UNL d   1      -0.587  -5.846   1.567  0.00  0.00    -0.005 A 
ATOM      4  C3  UNL d   1      -0.414  -5.211   0.337  0.00  0.00     0.006 A 
ATOM      5  C4  UNL d   1      -1.104  -4.032   0.051  0.00  0.00    -0.005 A 
ATOM      6  C5  UNL d   1      -1.975  -3.479   0.995  0.00  0.00    -0.074 A 
ATOM      7  C6  UNL d   1      -2.732  -2.218   0.701  0.00  0.00     0.077 C 
ATOM      8  C7  UNL d   1      -2.149  -4.127   2.226  0.00  0.00    -0.001 A 
ENDROOT
TORSDOF 0
ENDMDL
