MODEL 1
REMARK minimizedAffinity 17.0600262
REMARK minimizedRMSD -1
REMARK  0 active torsions:
REMARK  status: ('A' for Active; 'I' for Inactive)
ROOT
ATOM      1  C   UNL d   1      -0.042   3.452  -5.026  0.00  0.00     0.077 C 
ATOM      2  C1  UNL d   1      -0.819   2.409  -4.277  0.00  0.00    -0.074 A 
ATOM      3  C2  UNL d   1      -2.171   2.598  -3.977  0.00  0.00    -0.005 A 
ATOM      4  C3  UNL d   1      -2.883   1.615  -3.289  0.00  0.00     0.006 A 
ATOM      5  C4  UNL d   1      -2.250   0.436  -2.895  0.00  0.00    -0.005 A 
ATOM      6  C5  UNL d   1      -0.898   0.229  -3.186  0.00  0.00    -0.074 A 
ATOM      7  C6  UNL d   1      -0.204  -1.037  -2.778  0.00  0.00     0.077 C 
ATOM      8  C7  UNL d   1      -0.191   1.218  -3.884  0.00  0.00    -0.001 A 
ENDROOT
TORSDOF 0
ENDMDL
