MODEL 1
REMARK minimizedAffinity 18.1843185
REMARK minimizedRMSD -1
REMARK  0 active torsions:
REMARK  status: ('A' for Active; 'I' for Inactive)
ROOT
ATOM      1  C   UNL d   1       0.467   3.445  -5.445  0.00  0.00     0.077 C 
ATOM      2  C1  UNL d   1      -0.586   2.592  -4.802  0.00  0.00    -0.074 A 
ATOM      3  C2  UNL d   1      -1.915   3.023  -4.728  0.00  0.00    -0.005 A 
ATOM      4  C3  UNL d   1      -2.884   2.214  -4.135  0.00  0.00     0.006 A 
ATOM      5  C4  UNL d   1      -2.536   0.969  -3.611  0.00  0.00    -0.005 A 
ATOM      6  C5  UNL d   1      -1.212   0.521  -3.676  0.00  0.00    -0.074 A 
ATOM      7  C6  UNL d   1      -0.823  -0.819  -3.125  0.00  0.00     0.077 C 
ATOM      8  C7  UNL d   1      -0.245   1.336  -4.279  0.00  0.00    -0.001 A 
ENDROOT
TORSDOF 0
ENDMDL
