MODEL 1
REMARK minimizedAffinity 20.2138729
REMARK minimizedRMSD -1
REMARK  0 active torsions:
REMARK  status: ('A' for Active; 'I' for Inactive)
ROOT
ATOM      1  C   UNL d   1       4.755   5.222  -0.186  0.00  0.00     0.077 C 
ATOM      2  C1  UNL d   1       4.104   3.878  -0.040  0.00  0.00    -0.074 A 
ATOM      3  C2  UNL d   1       3.165   3.430  -0.975  0.00  0.00    -0.005 A 
ATOM      4  C3  UNL d   1       2.575   2.174  -0.832  0.00  0.00     0.006 A 
ATOM      5  C4  UNL d   1       2.917   1.356   0.246  0.00  0.00    -0.005 A 
ATOM      6  C5  UNL d   1       3.854   1.787   1.190  0.00  0.00    -0.074 A 
ATOM      7  C6  UNL d   1       4.240   0.916   2.348  0.00  0.00     0.077 C 
ATOM      8  C7  UNL d   1       4.448   3.047   1.035  0.00  0.00    -0.001 A 
ENDROOT
TORSDOF 0
ENDMDL
