MODEL 1
REMARK minimizedAffinity 8.30311584
REMARK minimizedRMSD -1
REMARK  0 active torsions:
REMARK  status: ('A' for Active; 'I' for Inactive)
ROOT
ATOM      1  C   UNL d   1      -1.512  -1.835  -0.740  0.00  0.00     0.077 C 
ATOM      2  C1  UNL d   1      -1.149  -3.289  -0.685  0.00  0.00    -0.074 A 
ATOM      3  C2  UNL d   1      -1.128  -4.069  -1.846  0.00  0.00    -0.005 A 
ATOM      4  C3  UNL d   1      -0.778  -5.418  -1.781  0.00  0.00     0.006 A 
ATOM      5  C4  UNL d   1      -0.447  -6.000  -0.557  0.00  0.00    -0.005 A 
ATOM      6  C5  UNL d   1      -0.461  -5.236   0.615  0.00  0.00    -0.074 A 
ATOM      7  C6  UNL d   1      -0.098  -5.843   1.937  0.00  0.00     0.077 C 
ATOM      8  C7  UNL d   1      -0.807  -3.879   0.540  0.00  0.00    -0.001 A 
ENDROOT
TORSDOF 0
ENDMDL
