MODEL 1
REMARK minimizedAffinity 14.9004011
REMARK minimizedRMSD -1
REMARK  0 active torsions:
REMARK  status: ('A' for Active; 'I' for Inactive)
ROOT
ATOM      1  C   UNL d   1      -0.712  -4.378   0.706  0.00  0.00     0.077 C 
ATOM      2  C1  UNL d   1      -1.242  -3.192  -0.043  0.00  0.00    -0.074 A 
ATOM      3  C2  UNL d   1      -2.435  -2.573   0.342  0.00  0.00    -0.005 A 
ATOM      4  C3  UNL d   1      -2.911  -1.464  -0.358  0.00  0.00     0.006 A 
ATOM      5  C4  UNL d   1      -2.199  -0.965  -1.450  0.00  0.00    -0.005 A 
ATOM      6  C5  UNL d   1      -1.003  -1.570  -1.849  0.00  0.00    -0.074 A 
ATOM      7  C6  UNL d   1      -0.221  -1.040  -3.014  0.00  0.00     0.077 C 
ATOM      8  C7  UNL d   1      -0.528  -2.679  -1.136  0.00  0.00    -0.001 A 
ENDROOT
TORSDOF 0
ENDMDL
