MODEL 1
REMARK minimizedAffinity 3.15455508
REMARK minimizedRMSD -1
REMARK  0 active torsions:
REMARK  status: ('A' for Active; 'I' for Inactive)
ROOT
ATOM      1  C   UNL d   1      -3.480   4.213  -5.999  0.00  0.00     0.077 C 
ATOM      2  C1  UNL d   1      -2.392   3.442  -5.313  0.00  0.00    -0.074 A 
ATOM      3  C2  UNL d   1      -1.048   3.794  -5.477  0.00  0.00    -0.005 A 
ATOM      4  C3  UNL d   1      -0.048   3.074  -4.824  0.00  0.00     0.006 A 
ATOM      5  C4  UNL d   1      -0.380   1.996  -4.003  0.00  0.00    -0.005 A 
ATOM      6  C5  UNL d   1      -1.718   1.630  -3.826  0.00  0.00    -0.074 A 
ATOM      7  C6  UNL d   1      -2.093   0.480  -2.939  0.00  0.00     0.077 C 
ATOM      8  C7  UNL d   1      -2.718   2.363  -4.479  0.00  0.00    -0.001 A 
ENDROOT
TORSDOF 0
ENDMDL
