MODEL 1
REMARK minimizedAffinity 8.57455254
REMARK minimizedRMSD -1
REMARK  0 active torsions:
REMARK  status: ('A' for Active; 'I' for Inactive)
ROOT
ATOM      1  C   UNL d   1      -1.382   3.068  -5.036  0.00  0.00     0.077 C 
ATOM      2  C1  UNL d   1      -2.796   3.570  -5.053  0.00  0.00    -0.074 A 
ATOM      3  C2  UNL d   1      -3.714   3.098  -5.996  0.00  0.00    -0.005 A 
ATOM      4  C3  UNL d   1      -5.028   3.567  -5.994  0.00  0.00     0.006 A 
ATOM      5  C4  UNL d   1      -5.436   4.510  -5.050  0.00  0.00    -0.005 A 
ATOM      6  C5  UNL d   1      -4.532   4.993  -4.099  0.00  0.00    -0.074 A 
ATOM      7  C6  UNL d   1      -4.956   6.000  -3.072  0.00  0.00     0.077 C 
ATOM      8  C7  UNL d   1      -3.215   4.512  -4.103  0.00  0.00    -0.001 A 
ENDROOT
TORSDOF 0
ENDMDL
