MODEL 1
REMARK minimizedAffinity 4.02225304
REMARK minimizedRMSD -1
REMARK  0 active torsions:
REMARK  status: ('A' for Active; 'I' for Inactive)
ROOT
ATOM      1  C   UNL d   1      -0.807  -2.274  -0.732  0.00  0.00     0.077 C 
ATOM      2  C1  UNL d   1      -0.441  -3.579  -0.089  0.00  0.00    -0.074 A 
ATOM      3  C2  UNL d   1      -0.510  -4.778  -0.805  0.00  0.00    -0.005 A 
ATOM      4  C3  UNL d   1      -0.157  -5.982  -0.197  0.00  0.00     0.006 A 
ATOM      5  C4  UNL d   1       0.268  -6.000   1.132  0.00  0.00    -0.005 A 
ATOM      6  C5  UNL d   1       0.345  -4.811   1.864  0.00  0.00    -0.074 A 
ATOM      7  C6  UNL d   1       0.810  -4.811   3.290  0.00  0.00     0.077 C 
ATOM      8  C7  UNL d   1      -0.005  -3.604   1.243  0.00  0.00    -0.001 A 
ENDROOT
TORSDOF 0
ENDMDL
