MODEL 1
REMARK minimizedAffinity 14.8557167
REMARK minimizedRMSD -1
REMARK  0 active torsions:
REMARK  status: ('A' for Active; 'I' for Inactive)
ROOT
ATOM      1  C   UNL d   1       4.802   5.748  -0.541  0.00  0.00     0.077 C 
ATOM      2  C1  UNL d   1       4.094   4.448  -0.299  0.00  0.00    -0.074 A 
ATOM      3  C2  UNL d   1       3.615   3.681  -1.366  0.00  0.00    -0.005 A 
ATOM      4  C3  UNL d   1       2.967   2.470  -1.125  0.00  0.00     0.006 A 
ATOM      5  C4  UNL d   1       2.791   2.014   0.182  0.00  0.00    -0.005 A 
ATOM      6  C5  UNL d   1       3.265   2.766   1.261  0.00  0.00    -0.074 A 
ATOM      7  C6  UNL d   1       3.093   2.286   2.671  0.00  0.00     0.077 C 
ATOM      8  C7  UNL d   1       3.921   3.979   1.011  0.00  0.00    -0.001 A 
ENDROOT
TORSDOF 0
ENDMDL
