MODEL 1
REMARK minimizedAffinity 7.19582462
REMARK minimizedRMSD -1
REMARK  0 active torsions:
REMARK  status: ('A' for Active; 'I' for Inactive)
ROOT
ATOM      1  C   UNL d   1      -0.518  -5.448   0.470  0.00  0.00     0.077 C 
ATOM      2  C1  UNL d   1      -1.190  -4.133   0.732  0.00  0.00    -0.074 A 
ATOM      3  C2  UNL d   1      -1.266  -3.154  -0.263  0.00  0.00    -0.005 A 
ATOM      4  C3  UNL d   1      -1.902  -1.939  -0.007  0.00  0.00     0.006 A 
ATOM      5  C4  UNL d   1      -2.468  -1.692   1.245  0.00  0.00    -0.005 A 
ATOM      6  C5  UNL d   1      -2.402  -2.660   2.252  0.00  0.00    -0.074 A 
ATOM      7  C6  UNL d   1      -3.013  -2.415   3.599  0.00  0.00     0.077 C 
ATOM      8  C7  UNL d   1      -1.767  -3.881   1.985  0.00  0.00    -0.001 A 
ENDROOT
TORSDOF 0
ENDMDL
