MODEL 1
REMARK minimizedAffinity 10.3778353
REMARK minimizedRMSD -1
REMARK  0 active torsions:
REMARK  status: ('A' for Active; 'I' for Inactive)
ROOT
ATOM      1  C   UNL d   1      -0.286  -5.950   1.649  0.00  0.00     0.077 C 
ATOM      2  C1  UNL d   1      -1.037  -4.665   1.462  0.00  0.00    -0.074 A 
ATOM      3  C2  UNL d   1      -1.952  -4.221   2.423  0.00  0.00    -0.005 A 
ATOM      4  C3  UNL d   1      -2.636  -3.020   2.240  0.00  0.00     0.006 A 
ATOM      5  C4  UNL d   1      -2.413  -2.251   1.097  0.00  0.00    -0.005 A 
ATOM      6  C5  UNL d   1      -1.502  -2.678   0.126  0.00  0.00    -0.074 A 
ATOM      7  C6  UNL d   1      -1.243  -1.859  -1.103  0.00  0.00     0.077 C 
ATOM      8  C7  UNL d   1      -0.813  -3.883   0.320  0.00  0.00    -0.001 A 
ENDROOT
TORSDOF 0
ENDMDL
