MODEL 1
REMARK minimizedAffinity 8.39550877
REMARK minimizedRMSD -1
REMARK  0 active torsions:
REMARK  status: ('A' for Active; 'I' for Inactive)
ROOT
ATOM      1  C   UNL d   1      -2.732  -2.732   3.307  0.00  0.00     0.077 C 
ATOM      2  C1  UNL d   1      -2.035  -3.051   2.018  0.00  0.00    -0.074 A 
ATOM      3  C2  UNL d   1      -1.220  -4.182   1.903  0.00  0.00    -0.005 A 
ATOM      4  C3  UNL d   1      -0.586  -4.471   0.695  0.00  0.00     0.006 A 
ATOM      5  C4  UNL d   1      -0.759  -3.634  -0.408  0.00  0.00    -0.005 A 
ATOM      6  C5  UNL d   1      -1.571  -2.499  -0.312  0.00  0.00    -0.074 A 
ATOM      7  C6  UNL d   1      -1.776  -1.595  -1.490  0.00  0.00     0.077 C 
ATOM      8  C7  UNL d   1      -2.211  -2.219   0.904  0.00  0.00    -0.001 A 
ENDROOT
TORSDOF 0
ENDMDL
