MODEL 1
REMARK minimizedAffinity 2.67505217
REMARK minimizedRMSD -1
REMARK  0 active torsions:
REMARK  status: ('A' for Active; 'I' for Inactive)
ROOT
ATOM      1  C   UNL d   1       2.776   0.696   1.513  0.00  0.00    -0.002 A 
ATOM      2  C1  UNL d   1       2.157   1.761   0.874  0.00  0.00     0.010 A 
ATOM      3  C2  UNL d   1       0.879   1.617   0.331  0.00  0.00     0.041 A 
ATOM      4  C3  UNL d   1       0.226   0.373   0.444  0.00  0.00    -0.075 A 
ATOM      5  S   UNL d   1      -1.342  -0.035  -0.144  0.00  0.00     0.015 SA
ATOM      6  C4  UNL d   1      -1.227  -1.632   0.440  0.00  0.00     0.022 A 
ATOM      7  C5  UNL d   1      -0.028  -1.865   1.071  0.00  0.00     0.026 A 
ATOM      8  C6  UNL d   1       0.829  -0.713   1.084  0.00  0.00    -0.082 A 
ATOM      9  C7  UNL d   1       2.126  -0.536   1.623  0.00  0.00     0.045 A 
ENDROOT
TORSDOF 0
ENDMDL
