MODEL 1
REMARK minimizedAffinity -4.03288651
REMARK minimizedRMSD -1
REMARK  0 active torsions:
REMARK  status: ('A' for Active; 'I' for Inactive)
ROOT
ATOM      1  C   UNL d   1      -1.259  -0.407  -3.609  0.00  0.00    -0.002 A 
ATOM      2  C1  UNL d   1      -2.382  -0.481  -2.796  0.00  0.00     0.010 A 
ATOM      3  C2  UNL d   1      -2.306  -0.133  -1.446  0.00  0.00     0.041 A 
ATOM      4  C3  UNL d   1      -1.071   0.297  -0.922  0.00  0.00    -0.075 A 
ATOM      5  S   UNL d   1      -0.741   0.775   0.702  0.00  0.00     0.015 SA
ATOM      6  C4  UNL d   1       0.898   1.089   0.355  0.00  0.00     0.022 A 
ATOM      7  C5  UNL d   1       1.203   0.840  -0.962  0.00  0.00     0.026 A 
ATOM      8  C6  UNL d   1       0.073   0.380  -1.720  0.00  0.00    -0.082 A 
ATOM      9  C7  UNL d   1      -0.036   0.019  -3.085  0.00  0.00     0.045 A 
ENDROOT
TORSDOF 0
ENDMDL
