MODEL 1
REMARK minimizedAffinity 1.1303339
REMARK minimizedRMSD -1
REMARK  0 active torsions:
REMARK  status: ('A' for Active; 'I' for Inactive)
ROOT
ATOM      1  C   UNL d   1       2.147  -1.813   3.128  0.00  0.00    -0.002 A 
ATOM      2  C1  UNL d   1       1.038  -2.574   2.788  0.00  0.00     0.010 A 
ATOM      3  C2  UNL d   1       0.149  -2.135   1.804  0.00  0.00     0.041 A 
ATOM      4  C3  UNL d   1       0.397  -0.906   1.161  0.00  0.00    -0.075 A 
ATOM      5  S   UNL d   1      -0.553  -0.168  -0.073  0.00  0.00     0.015 SA
ATOM      6  C4  UNL d   1       0.491   1.175  -0.179  0.00  0.00     0.022 A 
ATOM      7  C5  UNL d   1       1.544   1.079   0.700  0.00  0.00     0.026 A 
ATOM      8  C6  UNL d   1       1.508  -0.122   1.486  0.00  0.00    -0.082 A 
ATOM      9  C7  UNL d   1       2.390  -0.594   2.488  0.00  0.00     0.045 A 
ENDROOT
TORSDOF 0
ENDMDL
