MODEL 1
REMARK minimizedAffinity -3.0171771
REMARK minimizedRMSD -1
REMARK  0 active torsions:
REMARK  status: ('A' for Active; 'I' for Inactive)
ROOT
ATOM      1  C   UNL d   1       2.023  -1.611   2.632  0.00  0.00    -0.002 A 
ATOM      2  C1  UNL d   1       2.848  -0.544   2.308  0.00  0.00     0.010 A 
ATOM      3  C2  UNL d   1       2.427   0.429   1.399  0.00  0.00     0.041 A 
ATOM      4  C3  UNL d   1       1.150   0.310   0.816  0.00  0.00    -0.075 A 
ATOM      5  S   UNL d   1       0.423   1.382  -0.322  0.00  0.00     0.015 SA
ATOM      6  C4  UNL d   1      -1.000   0.448  -0.405  0.00  0.00     0.022 A 
ATOM      7  C5  UNL d   1      -0.939  -0.658   0.409  0.00  0.00     0.026 A 
ATOM      8  C6  UNL d   1       0.301  -0.755   1.127  0.00  0.00    -0.082 A 
ATOM      9  C7  UNL d   1       0.756  -1.726   2.052  0.00  0.00     0.045 A 
ENDROOT
TORSDOF 0
ENDMDL
