MODEL 1
REMARK minimizedAffinity -1.96491313
REMARK minimizedRMSD -1
REMARK  0 active torsions:
REMARK  status: ('A' for Active; 'I' for Inactive)
ROOT
ATOM      1  C   UNL d   1       1.134   1.000   0.812  0.00  0.00    -0.002 A 
ATOM      2  C1  UNL d   1       1.322  -0.337   0.492  0.00  0.00     0.010 A 
ATOM      3  C2  UNL d   1       0.465  -0.980  -0.404  0.00  0.00     0.041 A 
ATOM      4  C3  UNL d   1      -0.593  -0.249  -0.979  0.00  0.00    -0.075 A 
ATOM      5  S   UNL d   1      -1.767  -0.828  -2.101  0.00  0.00     0.015 SA
ATOM      6  C4  UNL d   1      -2.545   0.686  -2.183  0.00  0.00     0.022 A 
ATOM      7  C5  UNL d   1      -1.938   1.622  -1.379  0.00  0.00     0.026 A 
ATOM      8  C6  UNL d   1      -0.803   1.098  -0.673  0.00  0.00    -0.082 A 
ATOM      9  C7  UNL d   1       0.083   1.722   0.239  0.00  0.00     0.045 A 
ENDROOT
TORSDOF 0
ENDMDL
