MODEL 1
REMARK minimizedAffinity -1.25754094
REMARK minimizedRMSD -1
REMARK  1 active torsions:
REMARK  status: ('A' for Active; 'I' for Inactive)
REMARK    1  A    between atoms: C3_4  and  O_7 
ROOT
ATOM      1  C   UNL d   1      -0.887   4.161  -0.950  0.00  0.00    -0.033 A 
ATOM      2  C1  UNL d   1      -1.626   2.978  -0.884  0.00  0.00     0.039 A 
ATOM      3  C2  UNL d   1      -1.045   1.819  -0.366  0.00  0.00    -0.080 A 
ATOM      4  C3  UNL d   1       0.272   1.856   0.083  0.00  0.00     0.150 A 
ATOM      5  C4  UNL d   1       1.012   3.032   0.024  0.00  0.00    -0.007 A 
ATOM      6  C5  UNL d   1       0.431   4.189  -0.494  0.00  0.00     0.039 A 
ENDROOT
BRANCH   4   7
ATOM      7  O   UNL d   1       0.883   0.749   0.592  0.00  0.00    -0.526 OA
ATOM      8  H5  UNL d   1       0.261   0.004   0.543  0.00  0.00     0.418 HD
ENDBRANCH   4   7
TORSDOF 1
ENDMDL
