MODEL 1
REMARK minimizedAffinity 8.18128586
REMARK minimizedRMSD -1
REMARK  1 active torsions:
REMARK  status: ('A' for Active; 'I' for Inactive)
REMARK    1  A    between atoms: C3_4  and  O_7 
ROOT
ATOM      1  C   UNL d   1      -4.556   0.027  -2.411  0.00  0.00    -0.033 A 
ATOM      2  C1  UNL d   1      -3.325   0.667  -2.565  0.00  0.00     0.039 A 
ATOM      3  C2  UNL d   1      -3.270   1.969  -3.064  0.00  0.00    -0.080 A 
ATOM      4  C3  UNL d   1      -4.452   2.620  -3.405  0.00  0.00     0.150 A 
ATOM      5  C4  UNL d   1      -5.683   1.990  -3.252  0.00  0.00    -0.007 A 
ATOM      6  C5  UNL d   1      -5.735   0.689  -2.753  0.00  0.00     0.039 A 
ENDROOT
BRANCH   4   7
ATOM      7  O   UNL d   1      -4.449   3.890  -3.902  0.00  0.00    -0.526 OA
ATOM      8  H5  UNL d   1      -3.527   4.188  -3.980  0.00  0.00     0.418 HD
ENDBRANCH   4   7
TORSDOF 1
ENDMDL
