MODEL 1
REMARK minimizedAffinity 6.44776058
REMARK minimizedRMSD -1
REMARK  1 active torsions:
REMARK  status: ('A' for Active; 'I' for Inactive)
REMARK    1  A    between atoms: C3_4  and  O_7 
ROOT
ATOM      1  C   UNL d   1      -0.336   5.519  -1.338  0.00  0.00    -0.033 A 
ATOM      2  C1  UNL d   1      -1.326   4.679  -0.824  0.00  0.00     0.039 A 
ATOM      3  C2  UNL d   1      -0.971   3.491  -0.182  0.00  0.00    -0.080 A 
ATOM      4  C3  UNL d   1       0.375   3.156  -0.059  0.00  0.00     0.150 A 
ATOM      5  C4  UNL d   1       1.366   3.991  -0.565  0.00  0.00    -0.007 A 
ATOM      6  C5  UNL d   1       1.010   5.176  -1.207  0.00  0.00     0.039 A 
ENDROOT
BRANCH   4   7
ATOM      7  O   UNL d   1       0.770   2.006   0.556  0.00  0.00    -0.526 OA
ATOM      8  H5  UNL d   1      -0.023   1.515   0.829  0.00  0.00     0.418 HD
ENDBRANCH   4   7
TORSDOF 1
ENDMDL
