MODEL 1
REMARK minimizedAffinity 7.09358644
REMARK minimizedRMSD -1
REMARK  1 active torsions:
REMARK  status: ('A' for Active; 'I' for Inactive)
REMARK    1  A    between atoms: C3_4  and  O_7 
ROOT
ATOM      1  C   UNL d   1      -0.588   3.371   0.426  0.00  0.00    -0.033 A 
ATOM      2  C1  UNL d   1       0.791   3.575   0.346  0.00  0.00     0.039 A 
ATOM      3  C2  UNL d   1       1.314   4.458  -0.601  0.00  0.00    -0.080 A 
ATOM      4  C3  UNL d   1       0.448   5.131  -1.459  0.00  0.00     0.150 A 
ATOM      5  C4  UNL d   1      -0.927   4.935  -1.382  0.00  0.00    -0.007 A 
ATOM      6  C5  UNL d   1      -1.447   4.052  -0.437  0.00  0.00     0.039 A 
ENDROOT
BRANCH   4   7
ATOM      7  O   UNL d   1       0.912   5.999  -2.403  0.00  0.00    -0.526 OA
ATOM      8  H5  UNL d   1       1.883   6.012  -2.358  0.00  0.00     0.418 HD
ENDBRANCH   4   7
TORSDOF 1
ENDMDL
