MODEL 1
REMARK minimizedAffinity 6.82404137
REMARK minimizedRMSD -1
REMARK  1 active torsions:
REMARK  status: ('A' for Active; 'I' for Inactive)
REMARK    1  A    between atoms: C3_4  and  O_7 
ROOT
ATOM      1  C   UNL d   1      -4.117   5.624  -5.385  0.00  0.00    -0.033 A 
ATOM      2  C1  UNL d   1      -3.468   4.842  -4.428  0.00  0.00     0.039 A 
ATOM      3  C2  UNL d   1      -4.084   3.694  -3.926  0.00  0.00    -0.080 A 
ATOM      4  C3  UNL d   1      -5.348   3.339  -4.390  0.00  0.00     0.150 A 
ATOM      5  C4  UNL d   1      -5.999   4.111  -5.346  0.00  0.00    -0.007 A 
ATOM      6  C5  UNL d   1      -5.383   5.258  -5.845  0.00  0.00     0.039 A 
ENDROOT
BRANCH   4   7
ATOM      7  O   UNL d   1      -5.991   2.230  -3.926  0.00  0.00    -0.526 OA
ATOM      8  H5  UNL d   1      -5.434   1.811  -3.249  0.00  0.00     0.418 HD
ENDBRANCH   4   7
TORSDOF 1
ENDMDL
