MODEL 1
REMARK minimizedAffinity 6.07574558
REMARK minimizedRMSD -1
REMARK  1 active torsions:
REMARK  status: ('A' for Active; 'I' for Inactive)
REMARK    1  A    between atoms: C3_4  and  O_7 
ROOT
ATOM      1  C   UNL d   1      -5.929   5.083  -3.999  0.00  0.00    -0.033 A 
ATOM      2  C1  UNL d   1      -5.999   4.594  -5.304  0.00  0.00     0.039 A 
ATOM      3  C2  UNL d   1      -4.829   4.269  -5.993  0.00  0.00    -0.080 A 
ATOM      4  C3  UNL d   1      -3.597   4.437  -5.366  0.00  0.00     0.150 A 
ATOM      5  C4  UNL d   1      -3.521   4.920  -4.064  0.00  0.00    -0.007 A 
ATOM      6  C5  UNL d   1      -4.690   5.245  -3.378  0.00  0.00     0.039 A 
ENDROOT
BRANCH   4   7
ATOM      7  O   UNL d   1      -2.428   4.137  -6.000  0.00  0.00    -0.526 OA
ATOM      8  H5  UNL d   1      -2.634   3.842  -6.902  0.00  0.00     0.418 HD
ENDBRANCH   4   7
TORSDOF 1
ENDMDL
