MODEL 1
REMARK minimizedAffinity -4.19335318
REMARK minimizedRMSD -1
REMARK  0 active torsions:
REMARK  status: ('A' for Active; 'I' for Inactive)
ROOT
ATOM      1  C1  BNZ d   1      -1.475   2.331   1.324  0.00  0.00     0.000 A 
ATOM      2  C2  BNZ d   1      -1.142   3.551   0.799  0.00  0.00     0.000 A 
ATOM      3  C3  BNZ d   1      -0.438   3.642  -0.370  0.00  0.00     0.000 A 
ATOM      4  C4  BNZ d   1      -0.035   2.515  -0.990  0.00  0.00     0.000 A 
ATOM      5  C5  BNZ d   1      -0.354   1.277  -0.468  0.00  0.00     0.000 A 
ATOM      6  C6  BNZ d   1      -1.096   1.189   0.687  0.00  0.00     0.000 A 
ENDROOT
TORSDOF 0
ENDMDL
