MODEL 1
REMARK minimizedAffinity -5.39822292
REMARK minimizedRMSD -1
REMARK  0 active torsions:
REMARK  status: ('A' for Active; 'I' for Inactive)
ROOT
ATOM      1  C1  BNZ d   1      -1.458   0.700   1.130  0.00  0.00     0.000 A 
ATOM      2  C2  BNZ d   1      -2.166   1.623   1.853  0.00  0.00     0.000 A 
ATOM      3  C3  BNZ d   1      -2.135   2.948   1.518  0.00  0.00     0.000 A 
ATOM      4  C4  BNZ d   1      -1.366   3.353   0.487  0.00  0.00     0.000 A 
ATOM      5  C5  BNZ d   1      -0.639   2.436  -0.246  0.00  0.00     0.000 A 
ATOM      6  C6  BNZ d   1      -0.703   1.098   0.070  0.00  0.00     0.000 A 
ENDROOT
TORSDOF 0
ENDMDL
