MODEL 1
REMARK minimizedAffinity -4.51454115
REMARK minimizedRMSD -1
REMARK  0 active torsions:
REMARK  status: ('A' for Active; 'I' for Inactive)
ROOT
ATOM      1  C1  BNZ d   1       0.607  -0.317  -0.070  0.00  0.00     0.000 A 
ATOM      2  C2  BNZ d   1      -0.048  -0.113   1.115  0.00  0.00     0.000 A 
ATOM      3  C3  BNZ d   1      -0.661   1.080   1.380  0.00  0.00     0.000 A 
ATOM      4  C4  BNZ d   1      -0.584   2.080   0.478  0.00  0.00     0.000 A 
ATOM      5  C5  BNZ d   1       0.081   1.893  -0.718  0.00  0.00     0.000 A 
ATOM      6  C6  BNZ d   1       0.664   0.678  -0.997  0.00  0.00     0.000 A 
ENDROOT
TORSDOF 0
ENDMDL
