MODEL 1
REMARK minimizedAffinity -4.87480688
REMARK minimizedRMSD -1
REMARK  0 active torsions:
REMARK  status: ('A' for Active; 'I' for Inactive)
ROOT
ATOM      1  C1  BNZ d   1      -0.735   1.360  -0.296  0.00  0.00     0.000 A 
ATOM      2  C2  BNZ d   1      -0.412   2.611  -0.749  0.00  0.00     0.000 A 
ATOM      3  C3  BNZ d   1      -1.168   3.697  -0.404  0.00  0.00     0.000 A 
ATOM      4  C4  BNZ d   1      -2.266   3.525   0.359  0.00  0.00     0.000 A 
ATOM      5  C5  BNZ d   1      -2.610   2.268   0.816  0.00  0.00     0.000 A 
ATOM      6  C6  BNZ d   1      -1.825   1.183   0.499  0.00  0.00     0.000 A 
ENDROOT
TORSDOF 0
ENDMDL
