MODEL 1
REMARK minimizedAffinity -4.71090889
REMARK minimizedRMSD -1
REMARK  0 active torsions:
REMARK  status: ('A' for Active; 'I' for Inactive)
ROOT
ATOM      1  C1  BNZ d   1      -2.082   3.313   1.083  0.00  0.00     0.000 A 
ATOM      2  C2  BNZ d   1      -2.300   2.057   1.583  0.00  0.00     0.000 A 
ATOM      3  C3  BNZ d   1      -1.625   0.979   1.084  0.00  0.00     0.000 A 
ATOM      4  C4  BNZ d   1      -0.764   1.151   0.061  0.00  0.00     0.000 A 
ATOM      5  C5  BNZ d   1      -0.541   2.409  -0.461  0.00  0.00     0.000 A 
ATOM      6  C6  BNZ d   1      -1.193   3.499   0.070  0.00  0.00     0.000 A 
ENDROOT
TORSDOF 0
ENDMDL
