MODEL 1
REMARK minimizedAffinity -4.44384527
REMARK minimizedRMSD -1
REMARK  0 active torsions:
REMARK  status: ('A' for Active; 'I' for Inactive)
ROOT
ATOM      1  C1  BNZ d   1      -0.256   0.218   0.361  0.00  0.00     0.000 A 
ATOM      2  C2  BNZ d   1      -0.305   1.506  -0.102  0.00  0.00     0.000 A 
ATOM      3  C3  BNZ d   1      -1.007   2.466   0.572  0.00  0.00     0.000 A 
ATOM      4  C4  BNZ d   1      -1.691   2.129   1.684  0.00  0.00     0.000 A 
ATOM      5  C5  BNZ d   1      -1.659   0.833   2.159  0.00  0.00     0.000 A 
ATOM      6  C6  BNZ d   1      -0.919  -0.122   1.500  0.00  0.00     0.000 A 
ENDROOT
TORSDOF 0
ENDMDL
