MODEL 1
REMARK minimizedAffinity -2.67604327
REMARK minimizedRMSD -1
REMARK  0 active torsions:
REMARK  status: ('A' for Active; 'I' for Inactive)
ROOT
ATOM      1  C1  BNZ d   1      -0.415  -4.158  -1.942  0.00  0.00     0.000 A 
ATOM      2  C2  BNZ d   1      -0.474  -3.095  -2.802  0.00  0.00     0.000 A 
ATOM      3  C3  BNZ d   1       0.290  -1.981  -2.592  0.00  0.00     0.000 A 
ATOM      4  C4  BNZ d   1       1.081  -1.916  -1.502  0.00  0.00     0.000 A 
ATOM      5  C5  BNZ d   1       1.145  -2.976  -0.620  0.00  0.00     0.000 A 
ATOM      6  C6  BNZ d   1       0.404  -4.111  -0.856  0.00  0.00     0.000 A 
ENDROOT
TORSDOF 0
ENDMDL
