MODEL 1
REMARK minimizedAffinity -3.54947257
REMARK minimizedRMSD -1
REMARK  0 active torsions:
REMARK  status: ('A' for Active; 'I' for Inactive)
ROOT
ATOM      1  C1  BNZ d   1       0.001  -0.074   0.197  0.00  0.00     0.000 A 
ATOM      2  C2  BNZ d   1       0.098   1.193  -0.313  0.00  0.00     0.000 A 
ATOM      3  C3  BNZ d   1      -0.336   2.272   0.406  0.00  0.00     0.000 A 
ATOM      4  C4  BNZ d   1      -0.902   2.079   1.615  0.00  0.00     0.000 A 
ATOM      5  C5  BNZ d   1      -1.016   0.806   2.138  0.00  0.00     0.000 A 
ATOM      6  C6  BNZ d   1      -0.543  -0.274   1.428  0.00  0.00     0.000 A 
ENDROOT
TORSDOF 0
ENDMDL
