MODEL 1
REMARK minimizedAffinity -2.43249297
REMARK minimizedRMSD -1
REMARK  0 active torsions:
REMARK  status: ('A' for Active; 'I' for Inactive)
ROOT
ATOM      1  C1  BNZ d   1      -0.715  -3.618  -1.876  0.00  0.00     0.000 A 
ATOM      2  C2  BNZ d   1      -0.440  -2.423  -2.486  0.00  0.00     0.000 A 
ATOM      3  C3  BNZ d   1       0.824  -1.904  -2.472  0.00  0.00     0.000 A 
ATOM      4  C4  BNZ d   1       1.802  -2.560  -1.815  0.00  0.00     0.000 A 
ATOM      5  C5  BNZ d   1       1.539  -3.761  -1.187  0.00  0.00     0.000 A 
ATOM      6  C6  BNZ d   1       0.274  -4.299  -1.236  0.00  0.00     0.000 A 
ENDROOT
TORSDOF 0
ENDMDL
