MODEL 1
REMARK minimizedAffinity 0.105863616
REMARK minimizedRMSD -1
REMARK  0 active torsions:
REMARK  status: ('A' for Active; 'I' for Inactive)
ROOT
ATOM      1  C1  BNZ d   1       0.793  -3.510  -0.775  0.00  0.00     0.000 A 
ATOM      2  C2  BNZ d   1       1.360  -2.283  -0.995  0.00  0.00     0.000 A 
ATOM      3  C3  BNZ d   1       1.136  -1.607  -2.161  0.00  0.00     0.000 A 
ATOM      4  C4  BNZ d   1       0.378  -2.175  -3.121  0.00  0.00     0.000 A 
ATOM      5  C5  BNZ d   1      -0.193  -3.416  -2.919  0.00  0.00     0.000 A 
ATOM      6  C6  BNZ d   1       0.003  -4.076  -1.728  0.00  0.00     0.000 A 
ENDROOT
TORSDOF 0
ENDMDL
