MODEL 1
REMARK minimizedAffinity -4.97283268
REMARK minimizedRMSD -1
REMARK  0 active torsions:
REMARK  status: ('A' for Active; 'I' for Inactive)
ROOT
ATOM      1  C1  BNZ d   1      -1.903   3.731   0.025  0.00  0.00     0.000 A 
ATOM      2  C2  BNZ d   1      -2.735   3.017   0.846  0.00  0.00     0.000 A 
ATOM      3  C3  BNZ d   1      -2.440   1.727   1.191  0.00  0.00     0.000 A 
ATOM      4  C4  BNZ d   1      -1.337   1.141   0.683  0.00  0.00     0.000 A 
ATOM      5  C5  BNZ d   1      -0.494   1.844  -0.154  0.00  0.00     0.000 A 
ATOM      6  C6  BNZ d   1      -0.773   3.155  -0.467  0.00  0.00     0.000 A 
ENDROOT
TORSDOF 0
ENDMDL
