MODEL 1
REMARK minimizedAffinity -2.40942907
REMARK minimizedRMSD -1
REMARK  0 active torsions:
REMARK  status: ('A' for Active; 'I' for Inactive)
ROOT
ATOM      1  C1  BNZ d   1       1.354  -0.726  -0.605  0.00  0.00     0.000 A 
ATOM      2  C2  BNZ d   1       0.816  -1.111   0.594  0.00  0.00     0.000 A 
ATOM      3  C3  BNZ d   1      -0.154  -0.362   1.199  0.00  0.00     0.000 A 
ATOM      4  C4  BNZ d   1      -0.556   0.791   0.625  0.00  0.00     0.000 A 
ATOM      5  C5  BNZ d   1      -0.017   1.197  -0.579  0.00  0.00     0.000 A 
ATOM      6  C6  BNZ d   1       0.932   0.420  -1.205  0.00  0.00     0.000 A 
ENDROOT
TORSDOF 0
ENDMDL
