MODEL 1
REMARK minimizedAffinity -4.52709103
REMARK minimizedRMSD -1
REMARK  0 active torsions:
REMARK  status: ('A' for Active; 'I' for Inactive)
ROOT
ATOM      1  C1  BNZ d   1      -1.286   0.881   0.150  0.00  0.00     0.000 A 
ATOM      2  C2  BNZ d   1      -1.869   2.034   0.605  0.00  0.00     0.000 A 
ATOM      3  C3  BNZ d   1      -1.336   3.255   0.300  0.00  0.00     0.000 A 
ATOM      4  C4  BNZ d   1      -0.199   3.321  -0.423  0.00  0.00     0.000 A 
ATOM      5  C5  BNZ d   1       0.405   2.167  -0.881  0.00  0.00     0.000 A 
ATOM      6  C6  BNZ d   1      -0.156   0.941  -0.605  0.00  0.00     0.000 A 
ENDROOT
TORSDOF 0
ENDMDL
