MODEL 1
REMARK minimizedAffinity -5.35642385
REMARK minimizedRMSD -1
REMARK  0 active torsions:
REMARK  status: ('A' for Active; 'I' for Inactive)
ROOT
ATOM      1  C1  BNZ d   1       0.094   1.227   0.139  0.00  0.00     0.000 A 
ATOM      2  C2  BNZ d   1       0.312   2.441  -0.456  0.00  0.00     0.000 A 
ATOM      3  C3  BNZ d   1      -0.571   3.471  -0.288  0.00  0.00     0.000 A 
ATOM      4  C4  BNZ d   1      -1.689   3.274   0.439  0.00  0.00     0.000 A 
ATOM      5  C5  BNZ d   1      -1.928   2.053   1.037  0.00  0.00     0.000 A 
ATOM      6  C6  BNZ d   1      -1.018   1.030   0.899  0.00  0.00     0.000 A 
ENDROOT
TORSDOF 0
ENDMDL
