MODEL 1
REMARK minimizedAffinity -4.56348085
REMARK minimizedRMSD -1
REMARK  0 active torsions:
REMARK  status: ('A' for Active; 'I' for Inactive)
ROOT
ATOM      1  C1  BNZ d   1      -1.220   3.564   0.063  0.00  0.00     0.000 A 
ATOM      2  C2  BNZ d   1      -2.090   2.716   0.695  0.00  0.00     0.000 A 
ATOM      3  C3  BNZ d   1      -1.762   1.405   0.902  0.00  0.00     0.000 A 
ATOM      4  C4  BNZ d   1      -0.585   0.935   0.443  0.00  0.00     0.000 A 
ATOM      5  C5  BNZ d   1       0.299   1.776  -0.204  0.00  0.00     0.000 A 
ATOM      6  C6  BNZ d   1      -0.017   3.104  -0.377  0.00  0.00     0.000 A 
ENDROOT
TORSDOF 0
ENDMDL
