MODEL 1
REMARK minimizedAffinity -5.21906948
REMARK minimizedRMSD -1
REMARK  0 active torsions:
REMARK  status: ('A' for Active; 'I' for Inactive)
ROOT
ATOM      1  C1  BNZ d   1      -2.271   2.097   1.285  0.00  0.00     0.000 A 
ATOM      2  C2  BNZ d   1      -1.927   3.387   0.984  0.00  0.00     0.000 A 
ATOM      3  C3  BNZ d   1      -0.852   3.656   0.183  0.00  0.00     0.000 A 
ATOM      4  C4  BNZ d   1      -0.101   2.637  -0.282  0.00  0.00     0.000 A 
ATOM      5  C5  BNZ d   1      -0.430   1.331   0.021  0.00  0.00     0.000 A 
ATOM      6  C6  BNZ d   1      -1.535   1.063   0.795  0.00  0.00     0.000 A 
ENDROOT
TORSDOF 0
ENDMDL
