MODEL 1
REMARK minimizedAffinity 0.557917953
REMARK minimizedRMSD -1
REMARK  0 active torsions:
REMARK  status: ('A' for Active; 'I' for Inactive)
ROOT
ATOM      1  C4' PXY d   1      -4.743   5.933  -5.993  0.00  0.00     0.077 C 
ATOM      2  C1' PXY d   1       0.211   5.988  -3.014  0.00  0.00     0.077 C 
ATOM      3  C1  PXY d   1      -1.082   5.979  -3.806  0.00  0.00    -0.082 A 
ATOM      4  C2  PXY d   1      -2.240   5.989  -3.167  0.00  0.00     0.003 A 
ATOM      5  C3  PXY d   1      -3.419   5.949  -3.866  0.00  0.00     0.003 A 
ATOM      6  C4  PXY d   1      -3.412   5.951  -5.235  0.00  0.00    -0.082 A 
ATOM      7  C5  PXY d   1      -2.235   5.951  -5.895  0.00  0.00     0.003 A 
ATOM      8  C6  PXY d   1      -1.049   5.950  -5.166  0.00  0.00     0.003 A 
ENDROOT
TORSDOF 0
ENDMDL
