MODEL 1
REMARK minimizedAffinity 4.54185772
REMARK minimizedRMSD -1
REMARK  0 active torsions:
REMARK  status: ('A' for Active; 'I' for Inactive)
ROOT
ATOM      1  C4' PXY d   1       5.798   5.191  -1.754  0.00  0.00     0.077 C 
ATOM      2  C1' PXY d   1       0.830   2.652  -3.267  0.00  0.00     0.077 C 
ATOM      3  C1  PXY d   1       2.140   3.307  -2.873  0.00  0.00    -0.082 A 
ATOM      4  C2  PXY d   1       2.131   4.342  -2.049  0.00  0.00     0.003 A 
ATOM      5  C3  PXY d   1       3.304   4.966  -1.707  0.00  0.00     0.003 A 
ATOM      6  C4  PXY d   1       4.501   4.493  -2.172  0.00  0.00    -0.082 A 
ATOM      7  C5  PXY d   1       4.519   3.430  -3.004  0.00  0.00     0.003 A 
ATOM      8  C6  PXY d   1       3.315   2.837  -3.371  0.00  0.00     0.003 A 
ENDROOT
TORSDOF 0
ENDMDL
