MODEL 1
REMARK minimizedAffinity 3.19397545
REMARK minimizedRMSD -1
REMARK  0 active torsions:
REMARK  status: ('A' for Active; 'I' for Inactive)
ROOT
ATOM      1  C4' PXY d   1      -3.286   5.628  -5.254  0.00  0.00     0.077 C 
ATOM      2  C1' PXY d   1      -6.000   5.375  -0.157  0.00  0.00     0.077 C 
ATOM      3  C1  PXY d   1      -5.300   5.439  -1.500  0.00  0.00    -0.082 A 
ATOM      4  C2  PXY d   1      -4.009   5.158  -1.579  0.00  0.00     0.003 A 
ATOM      5  C3  PXY d   1      -3.353   5.243  -2.780  0.00  0.00     0.003 A 
ATOM      6  C4  PXY d   1      -4.036   5.566  -3.921  0.00  0.00    -0.082 A 
ATOM      7  C5  PXY d   1      -5.355   5.844  -3.851  0.00  0.00     0.003 A 
ATOM      8  C6  PXY d   1      -5.994   5.793  -2.615  0.00  0.00     0.003 A 
ENDROOT
TORSDOF 0
ENDMDL
