MODEL 1
REMARK minimizedAffinity 3.62455821
REMARK minimizedRMSD -1
REMARK  0 active torsions:
REMARK  status: ('A' for Active; 'I' for Inactive)
ROOT
ATOM      1  C4' PXY d   1      -2.300   0.943   5.937  0.00  0.00     0.077 C 
ATOM      2  C1' PXY d   1      -5.305  -0.916   1.361  0.00  0.00     0.077 C 
ATOM      3  C1  PXY d   1      -4.506  -0.432   2.556  0.00  0.00    -0.082 A 
ATOM      4  C2  PXY d   1      -5.101  -0.296   3.729  0.00  0.00     0.003 A 
ATOM      5  C3  PXY d   1      -4.401   0.170   4.812  0.00  0.00     0.003 A 
ATOM      6  C4  PXY d   1      -3.065   0.449   4.706  0.00  0.00    -0.082 A 
ATOM      7  C5  PXY d   1      -2.448   0.303   3.514  0.00  0.00     0.003 A 
ATOM      8  C6  PXY d   1      -3.186  -0.133   2.417  0.00  0.00     0.003 A 
ENDROOT
TORSDOF 0
ENDMDL
