MODEL 1
REMARK minimizedAffinity 21.2882442
REMARK minimizedRMSD -1
REMARK  0 active torsions:
REMARK  status: ('A' for Active; 'I' for Inactive)
ROOT
ATOM      1  C4' PXY d   1       1.875  -1.807   2.888  0.00  0.00     0.077 C 
ATOM      2  C1' PXY d   1       3.130  -5.654  -1.240  0.00  0.00     0.077 C 
ATOM      3  C1  PXY d   1       2.788  -4.649  -0.158  0.00  0.00    -0.082 A 
ATOM      4  C2  PXY d   1       3.572  -3.599   0.031  0.00  0.00     0.003 A 
ATOM      5  C3  PXY d   1       3.295  -2.697   1.026  0.00  0.00     0.003 A 
ATOM      6  C4  PXY d   1       2.176  -2.842   1.801  0.00  0.00    -0.082 A 
ATOM      7  C5  PXY d   1       1.366  -3.905   1.608  0.00  0.00     0.003 A 
ATOM      8  C6  PXY d   1       1.687  -4.831   0.620  0.00  0.00     0.003 A 
ENDROOT
TORSDOF 0
ENDMDL
