MODEL 1
REMARK minimizedAffinity 23.1714077
REMARK minimizedRMSD -1
REMARK  0 active torsions:
REMARK  status: ('A' for Active; 'I' for Inactive)
ROOT
ATOM      1  C4' PXY d   1       3.885   2.365  -5.958  0.00  0.00     0.077 C 
ATOM      2  C1' PXY d   1       4.832   5.963  -1.533  0.00  0.00     0.077 C 
ATOM      3  C1  PXY d   1       4.576   5.012  -2.686  0.00  0.00    -0.082 A 
ATOM      4  C2  PXY d   1       5.430   4.963  -3.696  0.00  0.00     0.003 A 
ATOM      5  C3  PXY d   1       5.198   4.132  -4.761  0.00  0.00     0.003 A 
ATOM      6  C4  PXY d   1       4.108   3.303  -4.768  0.00  0.00    -0.082 A 
ATOM      7  C5  PXY d   1       3.238   3.339  -3.737  0.00  0.00     0.003 A 
ATOM      8  C6  PXY d   1       3.470   4.220  -2.684  0.00  0.00     0.003 A 
ENDROOT
TORSDOF 0
ENDMDL
