MODEL 1
REMARK minimizedAffinity 15.9172449
REMARK minimizedRMSD -1
REMARK  0 active torsions:
REMARK  status: ('A' for Active; 'I' for Inactive)
ROOT
ATOM      1  C4' PXY d   1      -6.000   0.047  -3.651  0.00  0.00     0.077 C 
ATOM      2  C1' PXY d   1      -4.980   1.373   1.882  0.00  0.00     0.077 C 
ATOM      3  C1  PXY d   1      -5.256   1.035   0.430  0.00  0.00    -0.082 A 
ATOM      4  C2  PXY d   1      -5.019  -0.189  -0.013  0.00  0.00     0.003 A 
ATOM      5  C3  PXY d   1      -5.233  -0.503  -1.330  0.00  0.00     0.003 A 
ATOM      6  C4  PXY d   1      -5.745   0.431  -2.191  0.00  0.00    -0.082 A 
ATOM      7  C5  PXY d   1      -5.999   1.679  -1.744  0.00  0.00     0.003 A 
ATOM      8  C6  PXY d   1      -5.736   1.989  -0.413  0.00  0.00     0.003 A 
ENDROOT
TORSDOF 0
ENDMDL
