MODEL 1
REMARK minimizedAffinity 15.9797583
REMARK minimizedRMSD -1
REMARK  0 active torsions:
REMARK  status: ('A' for Active; 'I' for Inactive)
ROOT
ATOM      1  C4' PXY d   1       2.435   1.645  -2.598  0.00  0.00     0.077 C 
ATOM      2  C1' PXY d   1       6.000   5.801  -4.452  0.00  0.00     0.077 C 
ATOM      3  C1  PXY d   1       5.061   4.709  -3.978  0.00  0.00    -0.082 A 
ATOM      4  C2  PXY d   1       4.673   4.684  -2.713  0.00  0.00     0.003 A 
ATOM      5  C3  PXY d   1       3.849   3.686  -2.260  0.00  0.00     0.003 A 
ATOM      6  C4  PXY d   1       3.375   2.734  -3.123  0.00  0.00    -0.082 A 
ATOM      7  C5  PXY d   1       3.758   2.759  -4.417  0.00  0.00     0.003 A 
ATOM      8  C6  PXY d   1       4.627   3.757  -4.848  0.00  0.00     0.003 A 
ENDROOT
TORSDOF 0
ENDMDL
