MODEL 1
REMARK minimizedAffinity 14.6587219
REMARK minimizedRMSD -1
REMARK  0 active torsions:
REMARK  status: ('A' for Active; 'I' for Inactive)
ROOT
ATOM      1  C4' PXY d   1      -3.847  -5.999  -5.639  0.00  0.00     0.077 C 
ATOM      2  C1' PXY d   1       0.747  -4.383  -2.524  0.00  0.00     0.077 C 
ATOM      3  C1  PXY d   1      -0.466  -4.804  -3.331  0.00  0.00    -0.082 A 
ATOM      4  C2  PXY d   1      -0.317  -5.634  -4.351  0.00  0.00     0.003 A 
ATOM      5  C3  PXY d   1      -1.398  -6.000  -5.111  0.00  0.00     0.003 A 
ATOM      6  C4  PXY d   1      -2.652  -5.554  -4.791  0.00  0.00    -0.082 A 
ATOM      7  C5  PXY d   1      -2.814  -4.716  -3.745  0.00  0.00     0.003 A 
ATOM      8  C6  PXY d   1      -1.698  -4.324  -3.011  0.00  0.00     0.003 A 
ENDROOT
TORSDOF 0
ENDMDL
