MODEL 1
REMARK minimizedAffinity 16.1027546
REMARK minimizedRMSD -1
REMARK  0 active torsions:
REMARK  status: ('A' for Active; 'I' for Inactive)
ROOT
ATOM      1  C4' PXY d   1       5.997   2.748  -0.328  0.00  0.00     0.077 C 
ATOM      2  C1' PXY d   1       1.319  -0.270   1.228  0.00  0.00     0.077 C 
ATOM      3  C1  PXY d   1       2.549   0.512   0.812  0.00  0.00    -0.082 A 
ATOM      4  C2  PXY d   1       3.037   1.441   1.618  0.00  0.00     0.003 A 
ATOM      5  C3  PXY d   1       4.130   2.179   1.243  0.00  0.00     0.003 A 
ATOM      6  C4  PXY d   1       4.762   1.928   0.055  0.00  0.00    -0.082 A 
ATOM      7  C5  PXY d   1       4.277   0.974  -0.768  0.00  0.00     0.003 A 
ATOM      8  C6  PXY d   1       3.142   0.264  -0.388  0.00  0.00     0.003 A 
ENDROOT
TORSDOF 0
ENDMDL
