MODEL 1
REMARK minimizedAffinity 14.6632471
REMARK minimizedRMSD -1
REMARK  0 active torsions:
REMARK  status: ('A' for Active; 'I' for Inactive)
ROOT
ATOM      1  C4' PXY d   1      -2.265  -3.002  -2.237  0.00  0.00     0.077 C 
ATOM      2  C1' PXY d   1      -5.108   1.147   0.612  0.00  0.00     0.077 C 
ATOM      3  C1  PXY d   1      -4.352   0.062  -0.129  0.00  0.00    -0.082 A 
ATOM      4  C2  PXY d   1      -4.805  -0.373  -1.293  0.00  0.00     0.003 A 
ATOM      5  C3  PXY d   1      -4.151  -1.376  -1.961  0.00  0.00     0.003 A 
ATOM      6  C4  PXY d   1      -2.991  -1.901  -1.458  0.00  0.00    -0.082 A 
ATOM      7  C5  PXY d   1      -2.516  -1.455  -0.276  0.00  0.00     0.003 A 
ATOM      8  C6  PXY d   1      -3.217  -0.465   0.406  0.00  0.00     0.003 A 
ENDROOT
TORSDOF 0
ENDMDL
