MODEL 1
REMARK minimizedAffinity 10.6080036
REMARK minimizedRMSD -1
REMARK  0 active torsions:
REMARK  status: ('A' for Active; 'I' for Inactive)
ROOT
ATOM      1  C4' PXY d   1      -2.227   1.680   3.897  0.00  0.00     0.077 C 
ATOM      2  C1' PXY d   1      -1.195  -3.122   0.850  0.00  0.00     0.077 C 
ATOM      3  C1  PXY d   1      -1.459  -1.868   1.659  0.00  0.00    -0.082 A 
ATOM      4  C2  PXY d   1      -2.509  -1.115   1.374  0.00  0.00     0.003 A 
ATOM      5  C3  PXY d   1      -2.745   0.040   2.075  0.00  0.00     0.003 A 
ATOM      6  C4  PXY d   1      -1.927   0.400   3.113  0.00  0.00    -0.082 A 
ATOM      7  C5  PXY d   1      -0.860  -0.369   3.416  0.00  0.00     0.003 A 
ATOM      8  C6  PXY d   1      -0.615  -1.516   2.666  0.00  0.00     0.003 A 
ENDROOT
TORSDOF 0
ENDMDL
