MODEL 1
REMARK minimizedAffinity 10.3895493
REMARK minimizedRMSD -1
REMARK  0 active torsions:
REMARK  status: ('A' for Active; 'I' for Inactive)
ROOT
ATOM      1  C4' PXY d   1       3.352   1.394   0.338  0.00  0.00     0.077 C 
ATOM      2  C1' PXY d   1       3.774   3.282  -5.109  0.00  0.00     0.077 C 
ATOM      3  C1  PXY d   1       3.676   2.789  -3.679  0.00  0.00    -0.082 A 
ATOM      4  C2  PXY d   1       2.681   1.991  -3.329  0.00  0.00     0.003 A 
ATOM      5  C3  PXY d   1       2.559   1.561  -2.033  0.00  0.00     0.003 A 
ATOM      6  C4  PXY d   1       3.496   1.909  -1.097  0.00  0.00    -0.082 A 
ATOM      7  C5  PXY d   1       4.520   2.715  -1.448  0.00  0.00     0.003 A 
ATOM      8  C6  PXY d   1       4.603   3.173  -2.759  0.00  0.00     0.003 A 
ENDROOT
TORSDOF 0
ENDMDL
