MODEL 1
REMARK minimizedAffinity 14.1690388
REMARK minimizedRMSD -1
REMARK  0 active torsions:
REMARK  status: ('A' for Active; 'I' for Inactive)
ROOT
ATOM      1  C4' PXY d   1      -1.896   1.649   4.239  0.00  0.00     0.077 C 
ATOM      2  C1' PXY d   1      -1.510  -2.495   0.228  0.00  0.00     0.077 C 
ATOM      3  C1  PXY d   1      -1.599  -1.412   1.284  0.00  0.00    -0.082 A 
ATOM      4  C2  PXY d   1      -2.786  -0.977   1.676  0.00  0.00     0.003 A 
ATOM      5  C3  PXY d   1      -2.884   0.025   2.607  0.00  0.00     0.003 A 
ATOM      6  C4  PXY d   1      -1.758   0.550   3.182  0.00  0.00    -0.082 A 
ATOM      7  C5  PXY d   1      -0.544   0.104   2.795  0.00  0.00     0.003 A 
ATOM      8  C6  PXY d   1      -0.464  -0.885   1.819  0.00  0.00     0.003 A 
ENDROOT
TORSDOF 0
ENDMDL
