MODEL 1
REMARK minimizedAffinity 19.4655628
REMARK minimizedRMSD -1
REMARK  0 active torsions:
REMARK  status: ('A' for Active; 'I' for Inactive)
ROOT
ATOM      1  C4' PXY d   1      -5.722  -0.862  -3.288  0.00  0.00     0.077 C 
ATOM      2  C1' PXY d   1      -5.999   2.191   1.612  0.00  0.00     0.077 C 
ATOM      3  C1  PXY d   1      -5.920   1.381   0.333  0.00  0.00    -0.082 A 
ATOM      4  C2  PXY d   1      -5.983   1.997  -0.836  0.00  0.00     0.003 A 
ATOM      5  C3  PXY d   1      -5.945   1.276  -2.002  0.00  0.00     0.003 A 
ATOM      6  C4  PXY d   1      -5.788  -0.083  -1.972  0.00  0.00    -0.082 A 
ATOM      7  C5  PXY d   1      -5.712  -0.718  -0.783  0.00  0.00     0.003 A 
ATOM      8  C6  PXY d   1      -5.794   0.027   0.390  0.00  0.00     0.003 A 
ENDROOT
TORSDOF 0
ENDMDL
