MODEL 1
REMARK minimizedAffinity 14.2730331
REMARK minimizedRMSD -1
REMARK  0 active torsions:
REMARK  status: ('A' for Active; 'I' for Inactive)
ROOT
ATOM      1  C4' PXY d   1      -3.297   1.727   4.578  0.00  0.00     0.077 C 
ATOM      2  C1' PXY d   1       0.226  -1.923   1.806  0.00  0.00     0.077 C 
ATOM      3  C1  PXY d   1      -0.697  -0.973   2.544  0.00  0.00    -0.082 A 
ATOM      4  C2  PXY d   1      -1.538  -0.215   1.859  0.00  0.00     0.003 A 
ATOM      5  C3  PXY d   1      -2.357   0.672   2.508  0.00  0.00     0.003 A 
ATOM      6  C4  PXY d   1      -2.353   0.747   3.875  0.00  0.00    -0.082 A 
ATOM      7  C5  PXY d   1      -1.506  -0.031   4.582  0.00  0.00     0.003 A 
ATOM      8  C6  PXY d   1      -0.653  -0.896   3.902  0.00  0.00     0.003 A 
ENDROOT
TORSDOF 0
ENDMDL
