MODEL 1
REMARK minimizedAffinity 8.19853115
REMARK minimizedRMSD -1
REMARK  0 active torsions:
REMARK  status: ('A' for Active; 'I' for Inactive)
ROOT
ATOM      1  C4' PXY d   1      -4.418   0.773   1.427  0.00  0.00     0.077 C 
ATOM      2  C1' PXY d   1       0.611  -2.023   1.981  0.00  0.00     0.077 C 
ATOM      3  C1  PXY d   1      -0.708  -1.288   1.849  0.00  0.00    -0.082 A 
ATOM      4  C2  PXY d   1      -1.512  -1.563   0.834  0.00  0.00     0.003 A 
ATOM      5  C3  PXY d   1      -2.693  -0.884   0.681  0.00  0.00     0.003 A 
ATOM      6  C4  PXY d   1      -3.081   0.048   1.606  0.00  0.00    -0.082 A 
ATOM      7  C5  PXY d   1      -2.272   0.327   2.650  0.00  0.00     0.003 A 
ATOM      8  C6  PXY d   1      -1.058  -0.344   2.765  0.00  0.00     0.003 A 
ENDROOT
TORSDOF 0
ENDMDL
