MODEL 1
REMARK minimizedAffinity 11.8831415
REMARK minimizedRMSD -1
REMARK  0 active torsions:
REMARK  status: ('A' for Active; 'I' for Inactive)
ROOT
ATOM      1  C4' PXY d   1       5.733   5.998  -1.269  0.00  0.00     0.077 C 
ATOM      2  C1' PXY d   1       3.997   3.020  -5.909  0.00  0.00     0.077 C 
ATOM      3  C1  PXY d   1       4.465   3.801  -4.697  0.00  0.00    -0.082 A 
ATOM      4  C2  PXY d   1       3.793   3.709  -3.561  0.00  0.00     0.003 A 
ATOM      5  C3  PXY d   1       4.183   4.434  -2.464  0.00  0.00     0.003 A 
ATOM      6  C4  PXY d   1       5.303   5.219  -2.515  0.00  0.00    -0.082 A 
ATOM      7  C5  PXY d   1       6.000   5.310  -3.668  0.00  0.00     0.003 A 
ATOM      8  C6  PXY d   1       5.564   4.599  -4.782  0.00  0.00     0.003 A 
ENDROOT
TORSDOF 0
ENDMDL
