MODEL 1
REMARK minimizedAffinity 12.3264866
REMARK minimizedRMSD -1
REMARK  0 active torsions:
REMARK  status: ('A' for Active; 'I' for Inactive)
ROOT
ATOM      1  C4' PXY d   1       5.538   4.616  -2.308  0.00  0.00     0.077 C 
ATOM      2  C1' PXY d   1       0.040   3.962  -3.969  0.00  0.00     0.077 C 
ATOM      3  C1  PXY d   1       1.479   4.146  -3.532  0.00  0.00    -0.082 A 
ATOM      4  C2  PXY d   1       2.394   3.267  -3.906  0.00  0.00     0.003 A 
ATOM      5  C3  PXY d   1       3.695   3.401  -3.494  0.00  0.00     0.003 A 
ATOM      6  C4  PXY d   1       4.074   4.475  -2.734  0.00  0.00    -0.082 A 
ATOM      7  C5  PXY d   1       3.148   5.382  -2.356  0.00  0.00     0.003 A 
ATOM      8  C6  PXY d   1       1.825   5.206  -2.752  0.00  0.00     0.003 A 
ENDROOT
TORSDOF 0
ENDMDL
