MODEL 1
REMARK minimizedAffinity -3.62387395
REMARK minimizedRMSD -1
REMARK  1 active torsions:
REMARK  status: ('A' for Active; 'I' for Inactive)
REMARK    1  A    between atoms: C1_2  and  C2_3 
ROOT
ATOM      1  C2  UNL d   1       0.661  -0.260  -0.427  0.00  0.00    -0.081 A 
ATOM      2  C3  UNL d   1      -0.702  -0.156  -0.124  0.00  0.00     0.006 A 
ATOM      3  C4  UNL d   1      -1.115   0.343   1.114  0.00  0.00     0.002 A 
ATOM      4  C5  UNL d   1      -0.174   0.753   2.064  0.00  0.00    -0.080 A 
ATOM      5  C6  UNL d   1      -0.605   1.318   3.385  0.00  0.00     0.076 C 
ATOM      6  C7  UNL d   1       1.188   0.632   1.768  0.00  0.00     0.002 A 
ATOM      7  C8  UNL d   1       1.602   0.133   0.531  0.00  0.00     0.006 A 
ENDROOT
BRANCH   1   8
ATOM      8  C1  UNL d   1       1.109  -0.737  -1.785  0.00  0.00     0.054 C 
ATOM      9  C   UNL d   1       0.515   0.117  -2.896  0.00  0.00     0.018 C 
ENDBRANCH   1   8
TORSDOF 1
ENDMDL
