MODEL 1
REMARK minimizedAffinity -4.4451561
REMARK minimizedRMSD -1
REMARK  1 active torsions:
REMARK  status: ('A' for Active; 'I' for Inactive)
REMARK    1  A    between atoms: C1_2  and  C2_3 
ROOT
ATOM      1  C2  UNL d   1       0.416  -0.206  -1.181  0.00  0.00    -0.081 A 
ATOM      2  C3  UNL d   1       0.061  -1.184  -2.119  0.00  0.00     0.006 A 
ATOM      3  C4  UNL d   1       0.050  -0.884  -3.484  0.00  0.00     0.002 A 
ATOM      4  C5  UNL d   1       0.400   0.393  -3.933  0.00  0.00    -0.080 A 
ATOM      5  C6  UNL d   1       0.421   0.719  -5.397  0.00  0.00     0.076 C 
ATOM      6  C7  UNL d   1       0.738   1.375  -2.995  0.00  0.00     0.002 A 
ATOM      7  C8  UNL d   1       0.749   1.076  -1.630  0.00  0.00     0.006 A 
ENDROOT
BRANCH   1   8
ATOM      8  C1  UNL d   1       0.492  -0.544   0.286  0.00  0.00     0.054 C 
ATOM      9  C   UNL d   1       1.782  -1.281   0.618  0.00  0.00     0.018 C 
ENDBRANCH   1   8
TORSDOF 1
ENDMDL
