MODEL 1
REMARK minimizedAffinity -4.38487673
REMARK minimizedRMSD -1
REMARK  0 active torsions:
REMARK  status: ('A' for Active; 'I' for Inactive)
ROOT
ATOM      1  C4' PXY d   1       2.618   1.623   0.774  0.00  0.00     0.077 C 
ATOM      2  C1' PXY d   1      -2.301  -0.951  -0.837  0.00  0.00     0.077 C 
ATOM      3  C1  PXY d   1      -1.008  -0.286  -0.407  0.00  0.00    -0.082 A 
ATOM      4  C2  PXY d   1      -0.917   1.034  -0.413  0.00  0.00     0.003 A 
ATOM      5  C3  PXY d   1       0.255   1.650  -0.058  0.00  0.00     0.003 A 
ATOM      6  C4  PXY d   1       1.329   0.910   0.358  0.00  0.00    -0.082 A 
ATOM      7  C5  PXY d   1       1.241  -0.437   0.376  0.00  0.00     0.003 A 
ATOM      8  C6  PXY d   1       0.056  -1.045  -0.027  0.00  0.00     0.003 A 
ENDROOT
TORSDOF 0
ENDMDL
