MODEL 1
REMARK minimizedAffinity -3.98871946
REMARK minimizedRMSD -1
REMARK  0 active torsions:
REMARK  status: ('A' for Active; 'I' for Inactive)
ROOT
ATOM      1  C4' PXY d   1       2.242   2.379   1.122  0.00  0.00     0.077 C 
ATOM      2  C1' PXY d   1      -2.101  -1.043  -0.565  0.00  0.00     0.077 C 
ATOM      3  C1  PXY d   1      -0.957  -0.156  -0.116  0.00  0.00    -0.082 A 
ATOM      4  C2  PXY d   1      -1.118   1.157  -0.092  0.00  0.00     0.003 A 
ATOM      5  C3  PXY d   1      -0.084   1.976   0.281  0.00  0.00     0.003 A 
ATOM      6  C4  PXY d   1       1.111   1.443   0.684  0.00  0.00    -0.082 A 
ATOM      7  C5  PXY d   1       1.280   0.104   0.672  0.00  0.00     0.003 A 
ATOM      8  C6  PXY d   1       0.231  -0.708   0.251  0.00  0.00     0.003 A 
ENDROOT
TORSDOF 0
ENDMDL
