MODEL 1
REMARK minimizedAffinity -1.52241349
REMARK minimizedRMSD -1
REMARK  0 active torsions:
REMARK  status: ('A' for Active; 'I' for Inactive)
ROOT
ATOM      1  C4' PXY d   1       1.811   1.011   0.027  0.00  0.00     0.077 C 
ATOM      2  C1' PXY d   1      -3.258  -1.765  -0.112  0.00  0.00     0.077 C 
ATOM      3  C1  PXY d   1      -1.925  -1.042  -0.087  0.00  0.00    -0.082 A 
ATOM      4  C2  PXY d   1      -1.406  -0.667   1.071  0.00  0.00     0.003 A 
ATOM      5  C3  PXY d   1      -0.218   0.016   1.109  0.00  0.00     0.003 A 
ATOM      6  C4  PXY d   1       0.473   0.271  -0.046  0.00  0.00    -0.082 A 
ATOM      7  C5  PXY d   1      -0.045  -0.119  -1.230  0.00  0.00     0.003 A 
ATOM      8  C6  PXY d   1      -1.273  -0.774  -1.251  0.00  0.00     0.003 A 
ENDROOT
TORSDOF 0
ENDMDL
