MODEL 1
REMARK minimizedAffinity -2.96203876
REMARK minimizedRMSD -1
REMARK  0 active torsions:
REMARK  status: ('A' for Active; 'I' for Inactive)
ROOT
ATOM      1  C4' PXY d   1       2.012   1.037   0.384  0.00  0.00     0.077 C 
ATOM      2  C1' PXY d   1      -2.621  -2.393  -0.046  0.00  0.00     0.077 C 
ATOM      3  C1  PXY d   1      -1.404  -1.497   0.079  0.00  0.00    -0.082 A 
ATOM      4  C2  PXY d   1      -1.295  -0.430  -0.696  0.00  0.00     0.003 A 
ATOM      5  C3  PXY d   1      -0.186   0.373  -0.618  0.00  0.00     0.003 A 
ATOM      6  C4  PXY d   1       0.797   0.110   0.299  0.00  0.00    -0.082 A 
ATOM      7  C5  PXY d   1       0.687  -0.971   1.100  0.00  0.00     0.003 A 
ATOM      8  C6  PXY d   1      -0.427  -1.796   0.977  0.00  0.00     0.003 A 
ENDROOT
TORSDOF 0
ENDMDL
