MODEL 1
REMARK minimizedAffinity -4.03741693
REMARK minimizedRMSD -1
REMARK  0 active torsions:
REMARK  status: ('A' for Active; 'I' for Inactive)
ROOT
ATOM      1  C4' PXY d   1      -1.486  -0.997   0.455  0.00  0.00     0.077 C 
ATOM      2  C1' PXY d   1       2.983   2.640   0.933  0.00  0.00     0.077 C 
ATOM      3  C1  PXY d   1       1.805   1.692   0.818  0.00  0.00    -0.082 A 
ATOM      4  C2  PXY d   1       1.968   0.514   0.238  0.00  0.00     0.003 A 
ATOM      5  C3  PXY d   1       0.906  -0.343   0.097  0.00  0.00     0.003 A 
ATOM      6  C4  PXY d   1      -0.323  -0.012   0.602  0.00  0.00    -0.082 A 
ATOM      7  C5  PXY d   1      -0.494   1.184   1.204  0.00  0.00     0.003 A 
ATOM      8  C6  PXY d   1       0.586   2.056   1.301  0.00  0.00     0.003 A 
ENDROOT
TORSDOF 0
ENDMDL
