MODEL 1
REMARK minimizedAffinity -4.64609098
REMARK minimizedRMSD -1
REMARK  0 active torsions:
REMARK  status: ('A' for Active; 'I' for Inactive)
ROOT
ATOM      1  C4' PXY d   1      -1.469  -3.110   1.767  0.00  0.00     0.077 C 
ATOM      2  C1' PXY d   1      -1.082   1.082  -2.194  0.00  0.00     0.077 C 
ATOM      3  C1  PXY d   1      -1.196  -0.017  -1.156  0.00  0.00    -0.082 A 
ATOM      4  C2  PXY d   1      -0.230  -0.181  -0.267  0.00  0.00     0.003 A 
ATOM      5  C3  PXY d   1      -0.302  -1.190   0.658  0.00  0.00     0.003 A 
ATOM      6  C4  PXY d   1      -1.400  -2.007   0.707  0.00  0.00    -0.082 A 
ATOM      7  C5  PXY d   1      -2.395  -1.840  -0.190  0.00  0.00     0.003 A 
ATOM      8  C6  PXY d   1      -2.283  -0.835  -1.147  0.00  0.00     0.003 A 
ENDROOT
TORSDOF 0
ENDMDL
