MODEL 1
REMARK minimizedAffinity -4.49107742
REMARK minimizedRMSD -1
REMARK  0 active torsions:
REMARK  status: ('A' for Active; 'I' for Inactive)
ROOT
ATOM      1  C4' PXY d   1      -3.583  -2.403   0.775  0.00  0.00     0.077 C 
ATOM      2  C1' PXY d   1       1.039   0.661  -0.859  0.00  0.00     0.077 C 
ATOM      3  C1  PXY d   1      -0.166  -0.150  -0.422  0.00  0.00    -0.082 A 
ATOM      4  C2  PXY d   1      -1.211  -0.253  -1.226  0.00  0.00     0.003 A 
ATOM      5  C3  PXY d   1      -2.322  -0.955  -0.834  0.00  0.00     0.003 A 
ATOM      6  C4  PXY d   1      -2.341  -1.603   0.372  0.00  0.00    -0.082 A 
ATOM      7  C5  PXY d   1      -1.274  -1.512   1.194  0.00  0.00     0.003 A 
ATOM      8  C6  PXY d   1      -0.173  -0.760   0.794  0.00  0.00     0.003 A 
ENDROOT
TORSDOF 0
ENDMDL
