MODEL 1
REMARK minimizedAffinity -3.18981671
REMARK minimizedRMSD -1
REMARK  0 active torsions:
REMARK  status: ('A' for Active; 'I' for Inactive)
ROOT
ATOM      1  C4' PXY d   1      -2.557  -0.732  -1.856  0.00  0.00     0.077 C 
ATOM      2  C1' PXY d   1       2.126   0.845   1.143  0.00  0.00     0.077 C 
ATOM      3  C1  PXY d   1       0.895   0.424   0.367  0.00  0.00    -0.082 A 
ATOM      4  C2  PXY d   1       0.889   0.519  -0.953  0.00  0.00     0.003 A 
ATOM      5  C3  PXY d   1      -0.228   0.172  -1.669  0.00  0.00     0.003 A 
ATOM      6  C4  PXY d   1      -1.332  -0.327  -1.031  0.00  0.00    -0.082 A 
ATOM      7  C5  PXY d   1      -1.330  -0.437   0.314  0.00  0.00     0.003 A 
ATOM      8  C6  PXY d   1      -0.201  -0.041   1.025  0.00  0.00     0.003 A 
ENDROOT
TORSDOF 0
ENDMDL
