MODEL 1
REMARK minimizedAffinity -3.93708014
REMARK minimizedRMSD -1
REMARK  0 active torsions:
REMARK  status: ('A' for Active; 'I' for Inactive)
ROOT
ATOM      1  C4' PXY d   1       2.493   1.616   0.852  0.00  0.00     0.077 C 
ATOM      2  C1' PXY d   1      -2.642  -0.387  -0.889  0.00  0.00     0.077 C 
ATOM      3  C1  PXY d   1      -1.299   0.150  -0.436  0.00  0.00    -0.082 A 
ATOM      4  C2  PXY d   1      -0.253  -0.659  -0.386  0.00  0.00     0.003 A 
ATOM      5  C3  PXY d   1       0.961  -0.197   0.052  0.00  0.00     0.003 A 
ATOM      6  C4  PXY d   1       1.120   1.119   0.392  0.00  0.00    -0.082 A 
ATOM      7  C5  PXY d   1       0.060   1.954   0.334  0.00  0.00     0.003 A 
ATOM      8  C6  PXY d   1      -1.174   1.456  -0.074  0.00  0.00     0.003 A 
ENDROOT
TORSDOF 0
ENDMDL
