MODEL 1
REMARK minimizedAffinity -3.44829273
REMARK minimizedRMSD -1
REMARK  0 active torsions:
REMARK  status: ('A' for Active; 'I' for Inactive)
ROOT
ATOM      1  C4' PXY d   1       1.967   1.085   0.657  0.00  0.00     0.077 C 
ATOM      2  C1' PXY d   1      -2.952  -1.300  -1.223  0.00  0.00     0.077 C 
ATOM      3  C1  PXY d   1      -1.663  -0.682  -0.719  0.00  0.00    -0.082 A 
ATOM      4  C2  PXY d   1      -1.322   0.534  -1.114  0.00  0.00     0.003 A 
ATOM      5  C3  PXY d   1      -0.144   1.095  -0.693  0.00  0.00     0.003 A 
ATOM      6  C4  PXY d   1       0.669   0.425   0.181  0.00  0.00    -0.082 A 
ATOM      7  C5  PXY d   1       0.324  -0.812   0.597  0.00  0.00     0.003 A 
ATOM      8  C6  PXY d   1      -0.856  -1.380   0.126  0.00  0.00     0.003 A 
ENDROOT
TORSDOF 0
ENDMDL
