MODEL 1
REMARK minimizedAffinity 2.04782224
REMARK minimizedRMSD -1
REMARK  0 active torsions:
REMARK  status: ('A' for Active; 'I' for Inactive)
ROOT
ATOM      1  C4' PXY d   1       2.649   2.172   1.082  0.00  0.00     0.077 C 
ATOM      2  C1' PXY d   1      -1.880  -0.408  -1.419  0.00  0.00     0.077 C 
ATOM      3  C1  PXY d   1      -0.690   0.258  -0.756  0.00  0.00    -0.082 A 
ATOM      4  C2  PXY d   1      -0.633   1.578  -0.687  0.00  0.00     0.003 A 
ATOM      5  C3  PXY d   1       0.451   2.197  -0.120  0.00  0.00     0.003 A 
ATOM      6  C4  PXY d   1       1.462   1.457   0.430  0.00  0.00    -0.082 A 
ATOM      7  C5  PXY d   1       1.407   0.109   0.374  0.00  0.00     0.003 A 
ATOM      8  C6  PXY d   1       0.318  -0.499  -0.243  0.00  0.00     0.003 A 
ENDROOT
TORSDOF 0
ENDMDL
