MODEL 1
REMARK minimizedAffinity -3.13504386
REMARK minimizedRMSD -1
REMARK  0 active torsions:
REMARK  status: ('A' for Active; 'I' for Inactive)
ROOT
ATOM      1  C4' PXY d   1       2.014   1.464   1.070  0.00  0.00     0.077 C 
ATOM      2  C1' PXY d   1      -3.079  -0.785  -0.485  0.00  0.00     0.077 C 
ATOM      3  C1  PXY d   1      -1.742  -0.204  -0.068  0.00  0.00    -0.082 A 
ATOM      4  C2  PXY d   1      -1.446   1.047  -0.382  0.00  0.00     0.003 A 
ATOM      5  C3  PXY d   1      -0.229   1.578  -0.041  0.00  0.00     0.003 A 
ATOM      6  C4  PXY d   1       0.673   0.839   0.677  0.00  0.00    -0.082 A 
ATOM      7  C5  PXY d   1       0.374  -0.434   1.011  0.00  0.00     0.003 A 
ATOM      8  C6  PXY d   1      -0.850  -0.968   0.619  0.00  0.00     0.003 A 
ENDROOT
TORSDOF 0
ENDMDL
