MODEL 1
REMARK minimizedAffinity -3.96214509
REMARK minimizedRMSD -1
REMARK  0 active torsions:
REMARK  status: ('A' for Active; 'I' for Inactive)
ROOT
ATOM      1  C4' PXY d   1       2.091   0.717   0.061  0.00  0.00     0.077 C 
ATOM      2  C1' PXY d   1      -3.520  -0.669  -0.023  0.00  0.00     0.077 C 
ATOM      3  C1  PXY d   1      -2.048  -0.306  -0.014  0.00  0.00    -0.082 A 
ATOM      4  C2  PXY d   1      -1.315  -0.574   1.054  0.00  0.00     0.003 A 
ATOM      5  C3  PXY d   1       0.010  -0.223   1.091  0.00  0.00     0.003 A 
ATOM      6  C4  PXY d   1       0.603   0.360   0.004  0.00  0.00    -0.082 A 
ATOM      7  C5  PXY d   1      -0.136   0.627  -1.094  0.00  0.00     0.003 A 
ATOM      8  C6  PXY d   1      -1.489   0.301  -1.096  0.00  0.00     0.003 A 
ENDROOT
TORSDOF 0
ENDMDL
