MODEL 1
REMARK minimizedAffinity -3.88531017
REMARK minimizedRMSD -1
REMARK  0 active torsions:
REMARK  status: ('A' for Active; 'I' for Inactive)
ROOT
ATOM      1  C4' PXY d   1       1.779   0.984   0.453  0.00  0.00     0.077 C 
ATOM      2  C1' PXY d   1      -3.449  -1.349  -0.347  0.00  0.00     0.077 C 
ATOM      3  C1  PXY d   1      -2.074  -0.741  -0.149  0.00  0.00    -0.082 A 
ATOM      4  C2  PXY d   1      -1.627  -0.521   1.077  0.00  0.00     0.003 A 
ATOM      5  C3  PXY d   1      -0.400   0.058   1.274  0.00  0.00     0.003 A 
ATOM      6  C4  PXY d   1       0.401   0.364   0.206  0.00  0.00    -0.082 A 
ATOM      7  C5  PXY d   1      -0.044   0.132  -1.047  0.00  0.00     0.003 A 
ATOM      8  C6  PXY d   1      -1.310  -0.418  -1.227  0.00  0.00     0.003 A 
ENDROOT
TORSDOF 0
ENDMDL
