MODEL 1
REMARK minimizedAffinity -4.8861146
REMARK minimizedRMSD -1
REMARK  0 active torsions:
REMARK  status: ('A' for Active; 'I' for Inactive)
ROOT
ATOM      1  C4' PXY d   1       2.590   3.121   1.119  0.00  0.00     0.077 C 
ATOM      2  C1' PXY d   1      -1.516  -0.643  -0.425  0.00  0.00     0.077 C 
ATOM      3  C1  PXY d   1      -0.431   0.334  -0.018  0.00  0.00    -0.082 A 
ATOM      4  C2  PXY d   1      -0.766   1.519   0.469  0.00  0.00     0.003 A 
ATOM      5  C3  PXY d   1       0.203   2.427   0.811  0.00  0.00     0.003 A 
ATOM      6  C4  PXY d   1       1.528   2.099   0.705  0.00  0.00    -0.082 A 
ATOM      7  C5  PXY d   1       1.878   0.889   0.219  0.00  0.00     0.003 A 
ATOM      8  C6  PXY d   1       0.879  -0.003  -0.162  0.00  0.00     0.003 A 
ENDROOT
TORSDOF 0
ENDMDL
