MODEL 1
REMARK minimizedAffinity -5.08822393
REMARK minimizedRMSD -1
REMARK  0 active torsions:
REMARK  status: ('A' for Active; 'I' for Inactive)
ROOT
ATOM      1  C4' PXY d   1      -3.242  -1.260  -0.042  0.00  0.00     0.077 C 
ATOM      2  C1' PXY d   1       1.945   0.984   1.172  0.00  0.00     0.077 C 
ATOM      3  C1  PXY d   1       0.590   0.383   0.852  0.00  0.00    -0.082 A 
ATOM      4  C2  PXY d   1      -0.368   1.154   0.363  0.00  0.00     0.003 A 
ATOM      5  C3  PXY d   1      -1.609   0.634   0.099  0.00  0.00     0.003 A 
ATOM      6  C4  PXY d   1      -1.856  -0.699   0.287  0.00  0.00    -0.082 A 
ATOM      7  C5  PXY d   1      -0.881  -1.494   0.776  0.00  0.00     0.003 A 
ATOM      8  C6  PXY d   1       0.360  -0.939   1.076  0.00  0.00     0.003 A 
ENDROOT
TORSDOF 0
ENDMDL
