MODEL 1
REMARK minimizedAffinity -4.35634995
REMARK minimizedRMSD -1
REMARK  0 active torsions:
REMARK  status: ('A' for Active; 'I' for Inactive)
ROOT
ATOM      1  C4' PXY d   1      -2.792  -1.090  -0.933  0.00  0.00     0.077 C 
ATOM      2  C1' PXY d   1       2.416   0.989   0.471  0.00  0.00     0.077 C 
ATOM      3  C1  PXY d   1       1.047   0.455   0.097  0.00  0.00    -0.082 A 
ATOM      4  C2  PXY d   1       0.475  -0.468   0.853  0.00  0.00     0.003 A 
ATOM      5  C3  PXY d   1      -0.748  -0.985   0.511  0.00  0.00     0.003 A 
ATOM      6  C4  PXY d   1      -1.416  -0.515  -0.587  0.00  0.00    -0.082 A 
ATOM      7  C5  PXY d   1      -0.843   0.434  -1.359  0.00  0.00     0.003 A 
ATOM      8  C6  PXY d   1       0.417   0.916  -1.017  0.00  0.00     0.003 A 
ENDROOT
TORSDOF 0
ENDMDL
