MODEL 1
REMARK minimizedAffinity -2.11159444
REMARK minimizedRMSD -1
REMARK  0 active torsions:
REMARK  status: ('A' for Active; 'I' for Inactive)
ROOT
ATOM      1  C4' PXY d   1       2.008   1.157   1.124  0.00  0.00     0.077 C 
ATOM      2  C1' PXY d   1      -2.627  -1.348  -1.253  0.00  0.00     0.077 C 
ATOM      3  C1  PXY d   1      -1.416  -0.694  -0.618  0.00  0.00    -0.082 A 
ATOM      4  C2  PXY d   1      -0.750   0.235  -1.284  0.00  0.00     0.003 A 
ATOM      5  C3  PXY d   1       0.367   0.814  -0.737  0.00  0.00     0.003 A 
ATOM      6  C4  PXY d   1       0.774   0.477   0.526  0.00  0.00    -0.082 A 
ATOM      7  C5  PXY d   1       0.093  -0.463   1.216  0.00  0.00     0.003 A 
ATOM      8  C6  PXY d   1      -1.013  -1.068   0.627  0.00  0.00     0.003 A 
ENDROOT
TORSDOF 0
ENDMDL
