MODEL 1
REMARK minimizedAffinity -3.67623162
REMARK minimizedRMSD -1
REMARK  0 active torsions:
REMARK  status: ('A' for Active; 'I' for Inactive)
ROOT
ATOM      1  C4' PXY d   1       1.132   0.446   0.135  0.00  0.00     0.077 C 
ATOM      2  C1' PXY d   1      -3.799  -2.552   0.473  0.00  0.00     0.077 C 
ATOM      3  C1  PXY d   1      -2.510  -1.761   0.372  0.00  0.00    -0.082 A 
ATOM      4  C2  PXY d   1      -1.453  -2.143   1.070  0.00  0.00     0.003 A 
ATOM      5  C3  PXY d   1      -0.288  -1.421   1.016  0.00  0.00     0.003 A 
ATOM      6  C4  PXY d   1      -0.188  -0.328   0.198  0.00  0.00    -0.082 A 
ATOM      7  C5  PXY d   1      -1.259   0.062  -0.526  0.00  0.00     0.003 A 
ATOM      8  C6  PXY d   1      -2.445  -0.661  -0.425  0.00  0.00     0.003 A 
ENDROOT
TORSDOF 0
ENDMDL
