MODEL 1
REMARK minimizedAffinity -5.28133249
REMARK minimizedRMSD -1
REMARK  0 active torsions:
REMARK  status: ('A' for Active; 'I' for Inactive)
ROOT
ATOM      1  C4' PXY d   1      -0.314   1.327  -1.506  0.00  0.00     0.077 C 
ATOM      2  C1' PXY d   1      -2.565  -2.951   1.663  0.00  0.00     0.077 C 
ATOM      3  C1  PXY d   1      -1.967  -1.826   0.842  0.00  0.00    -0.082 A 
ATOM      4  C2  PXY d   1      -2.633  -1.349  -0.197  0.00  0.00     0.003 A 
ATOM      5  C3  PXY d   1      -2.093  -0.353  -0.969  0.00  0.00     0.003 A 
ATOM      6  C4  PXY d   1      -0.883   0.198  -0.643  0.00  0.00    -0.082 A 
ATOM      7  C5  PXY d   1      -0.202  -0.276   0.422  0.00  0.00     0.003 A 
ATOM      8  C6  PXY d   1      -0.749  -1.315   1.169  0.00  0.00     0.003 A 
ENDROOT
TORSDOF 0
ENDMDL
