MODEL 1
REMARK minimizedAffinity 17.0331821
REMARK minimizedRMSD -1
REMARK  1 active torsions:
REMARK  status: ('A' for Active; 'I' for Inactive)
REMARK    1  A    between atoms: C1_2  and  C2_3 
ROOT
ATOM      1  C2  UNL d   1      -4.165  -3.582  -3.348  0.00  0.00    -0.081 A 
ATOM      2  C3  UNL d   1      -4.365  -3.873  -1.993  0.00  0.00     0.006 A 
ATOM      3  C4  UNL d   1      -3.378  -3.575  -1.051  0.00  0.00     0.002 A 
ATOM      4  C5  UNL d   1      -2.177  -2.975  -1.446  0.00  0.00    -0.080 A 
ATOM      5  C6  UNL d   1      -1.122  -2.623  -0.441  0.00  0.00     0.076 C 
ATOM      6  C7  UNL d   1      -1.969  -2.701  -2.802  0.00  0.00     0.002 A 
ATOM      7  C8  UNL d   1      -2.956  -2.999  -3.745  0.00  0.00     0.006 A 
ENDROOT
BRANCH   1   8
ATOM      8  C1  UNL d   1      -5.253  -3.843  -4.357  0.00  0.00     0.054 C 
ATOM      9  C   UNL d   1      -5.998  -2.563  -4.710  0.00  0.00     0.018 C 
ENDBRANCH   1   8
TORSDOF 1
ENDMDL
