MODEL 1
REMARK minimizedAffinity 8.2198391
REMARK minimizedRMSD -1
REMARK  1 active torsions:
REMARK  status: ('A' for Active; 'I' for Inactive)
REMARK    1  A    between atoms: C1_2  and  C2_3 
ROOT
ATOM      1  C2  UNL d   1       2.910   3.667  -5.002  0.00  0.00    -0.081 A 
ATOM      2  C3  UNL d   1       3.002   4.027  -3.652  0.00  0.00     0.006 A 
ATOM      3  C4  UNL d   1       3.654   3.194  -2.739  0.00  0.00     0.002 A 
ATOM      4  C5  UNL d   1       4.231   1.992  -3.162  0.00  0.00    -0.080 A 
ATOM      5  C6  UNL d   1       4.960   1.104  -2.199  0.00  0.00     0.076 C 
ATOM      6  C7  UNL d   1       4.125   1.624  -4.508  0.00  0.00     0.002 A 
ATOM      7  C8  UNL d   1       3.473   2.456  -5.420  0.00  0.00     0.006 A 
ENDROOT
BRANCH   1   8
ATOM      8  C1  UNL d   1       2.265   4.594  -6.000  0.00  0.00     0.054 C 
ATOM      9  C   UNL d   1       2.934   5.961  -6.000  0.00  0.00     0.018 C 
ENDBRANCH   1   8
TORSDOF 1
ENDMDL
