MODEL 1
REMARK minimizedAffinity 15.7804852
REMARK minimizedRMSD -1
REMARK  1 active torsions:
REMARK  status: ('A' for Active; 'I' for Inactive)
REMARK    1  A    between atoms: C1_2  and  C2_3 
ROOT
ATOM      1  C2  UNL d   1      -1.829  -4.349  -3.045  0.00  0.00    -0.081 A 
ATOM      2  C3  UNL d   1      -2.555  -5.508  -2.743  0.00  0.00     0.006 A 
ATOM      3  C4  UNL d   1      -3.901  -5.427  -2.380  0.00  0.00     0.002 A 
ATOM      4  C5  UNL d   1      -4.547  -4.187  -2.321  0.00  0.00    -0.080 A 
ATOM      5  C6  UNL d   1      -6.000  -4.089  -1.963  0.00  0.00     0.076 C 
ATOM      6  C7  UNL d   1      -3.818  -3.027  -2.606  0.00  0.00     0.002 A 
ATOM      7  C8  UNL d   1      -2.471  -3.108  -2.968  0.00  0.00     0.006 A 
ENDROOT
BRANCH   1   8
ATOM      8  C1  UNL d   1      -0.395  -4.439  -3.499  0.00  0.00     0.054 C 
ATOM      9  C   UNL d   1      -0.222  -5.496  -4.580  0.00  0.00     0.018 C 
ENDBRANCH   1   8
TORSDOF 1
ENDMDL
