MODEL 1
REMARK minimizedAffinity 9.32869434
REMARK minimizedRMSD -1
REMARK  1 active torsions:
REMARK  status: ('A' for Active; 'I' for Inactive)
REMARK    1  A    between atoms: C1_2  and  C2_3 
ROOT
ATOM      1  C2  UNL d   1      -2.167  -2.635  -1.712  0.00  0.00    -0.081 A 
ATOM      2  C3  UNL d   1      -1.597  -3.719  -2.390  0.00  0.00     0.006 A 
ATOM      3  C4  UNL d   1      -1.175  -3.584  -3.715  0.00  0.00     0.002 A 
ATOM      4  C5  UNL d   1      -1.310  -2.361  -4.381  0.00  0.00    -0.080 A 
ATOM      5  C6  UNL d   1      -0.834  -2.194  -5.793  0.00  0.00     0.076 C 
ATOM      6  C7  UNL d   1      -1.895  -1.282  -3.709  0.00  0.00     0.002 A 
ATOM      7  C8  UNL d   1      -2.317  -1.418  -2.385  0.00  0.00     0.006 A 
ENDROOT
BRANCH   1   8
ATOM      8  C1  UNL d   1      -2.563  -2.760  -0.263  0.00  0.00     0.054 C 
ATOM      9  C   UNL d   1      -1.344  -2.735   0.648  0.00  0.00     0.018 C 
ENDBRANCH   1   8
TORSDOF 1
ENDMDL
