MODEL 1
REMARK minimizedAffinity 11.7967606
REMARK minimizedRMSD -1
REMARK  1 active torsions:
REMARK  status: ('A' for Active; 'I' for Inactive)
REMARK    1  A    between atoms: C1_2  and  C2_3 
ROOT
ATOM      1  C2  UNL d   1      -3.541  -4.161  -2.666  0.00  0.00    -0.081 A 
ATOM      2  C3  UNL d   1      -2.617  -3.289  -3.254  0.00  0.00     0.006 A 
ATOM      3  C4  UNL d   1      -1.336  -3.735  -3.587  0.00  0.00     0.002 A 
ATOM      4  C5  UNL d   1      -0.961  -5.061  -3.345  0.00  0.00    -0.080 A 
ATOM      5  C6  UNL d   1       0.402  -5.561  -3.726  0.00  0.00     0.076 C 
ATOM      6  C7  UNL d   1      -1.878  -5.927  -2.742  0.00  0.00     0.002 A 
ATOM      7  C8  UNL d   1      -3.159  -5.482  -2.408  0.00  0.00     0.006 A 
ENDROOT
BRANCH   1   8
ATOM      8  C1  UNL d   1      -4.945  -3.700  -2.365  0.00  0.00     0.054 C 
ATOM      9  C   UNL d   1      -5.623  -3.143  -3.609  0.00  0.00     0.018 C 
ENDBRANCH   1   8
TORSDOF 1
ENDMDL
