MODEL 1
REMARK minimizedAffinity 13.2909651
REMARK minimizedRMSD -1
REMARK  1 active torsions:
REMARK  status: ('A' for Active; 'I' for Inactive)
REMARK    1  A    between atoms: C1_2  and  C2_3 
ROOT
ATOM      1  C2  UNL d   1      -1.405  -2.710  -0.450  0.00  0.00    -0.081 A 
ATOM      2  C3  UNL d   1      -0.234  -3.097  -1.113  0.00  0.00     0.006 A 
ATOM      3  C4  UNL d   1      -0.216  -3.221  -2.504  0.00  0.00     0.002 A 
ATOM      4  C5  UNL d   1      -1.365  -2.952  -3.256  0.00  0.00    -0.080 A 
ATOM      5  C6  UNL d   1      -1.350  -3.052  -4.753  0.00  0.00     0.076 C 
ATOM      6  C7  UNL d   1      -2.540  -2.582  -2.593  0.00  0.00     0.002 A 
ATOM      7  C8  UNL d   1      -2.559  -2.458  -1.202  0.00  0.00     0.006 A 
ENDROOT
BRANCH   1   8
ATOM      8  C1  UNL d   1      -1.411  -2.512   1.044  0.00  0.00     0.054 C 
ATOM      9  C   UNL d   1      -1.538  -3.840   1.777  0.00  0.00     0.018 C 
ENDBRANCH   1   8
TORSDOF 1
ENDMDL
