MODEL 1
REMARK minimizedAffinity 10.3939266
REMARK minimizedRMSD -1
REMARK  1 active torsions:
REMARK  status: ('A' for Active; 'I' for Inactive)
REMARK    1  A    between atoms: C1_2  and  C2_3 
ROOT
ATOM      1  C2  UNL d   1      -3.026  -5.173  -0.435  0.00  0.00    -0.081 A 
ATOM      2  C3  UNL d   1      -2.980  -3.800  -0.705  0.00  0.00     0.006 A 
ATOM      3  C4  UNL d   1      -3.711  -3.262  -1.767  0.00  0.00     0.002 A 
ATOM      4  C5  UNL d   1      -4.505  -4.086  -2.572  0.00  0.00    -0.080 A 
ATOM      5  C6  UNL d   1      -5.318  -3.517  -3.696  0.00  0.00     0.076 C 
ATOM      6  C7  UNL d   1      -4.536  -5.461  -2.313  0.00  0.00     0.002 A 
ATOM      7  C8  UNL d   1      -3.806  -5.999  -1.252  0.00  0.00     0.006 A 
ENDROOT
BRANCH   1   8
ATOM      8  C1  UNL d   1      -2.290  -5.746   0.749  0.00  0.00     0.054 C 
ATOM      9  C   UNL d   1      -1.318  -4.735   1.339  0.00  0.00     0.018 C 
ENDBRANCH   1   8
TORSDOF 1
ENDMDL
