MODEL 1
REMARK minimizedAffinity 11.5752068
REMARK minimizedRMSD -1
REMARK  1 active torsions:
REMARK  status: ('A' for Active; 'I' for Inactive)
REMARK    1  A    between atoms: C1_2  and  C2_3 
ROOT
ATOM      1  C2  UNL d   1      -2.179  -3.154  -2.951  0.00  0.00    -0.081 A 
ATOM      2  C3  UNL d   1      -3.039  -3.252  -1.850  0.00  0.00     0.006 A 
ATOM      3  C4  UNL d   1      -4.167  -4.074  -1.904  0.00  0.00     0.002 A 
ATOM      4  C5  UNL d   1      -4.450  -4.818  -3.055  0.00  0.00    -0.080 A 
ATOM      5  C6  UNL d   1      -5.641  -5.727  -3.114  0.00  0.00     0.076 C 
ATOM      6  C7  UNL d   1      -3.601  -4.707  -4.161  0.00  0.00     0.002 A 
ATOM      7  C8  UNL d   1      -2.473  -3.884  -4.108  0.00  0.00     0.006 A 
ENDROOT
BRANCH   1   8
ATOM      8  C1  UNL d   1      -0.927  -2.319  -2.874  0.00  0.00     0.054 C 
ATOM      9  C   UNL d   1      -0.441  -2.182  -1.438  0.00  0.00     0.018 C 
ENDBRANCH   1   8
TORSDOF 1
ENDMDL
