MODEL 1
REMARK minimizedAffinity 15.4294357
REMARK minimizedRMSD -1
REMARK  1 active torsions:
REMARK  status: ('A' for Active; 'I' for Inactive)
REMARK    1  A    between atoms: C1_2  and  C2_3 
ROOT
ATOM      1  C2  UNL d   1      -4.432  -3.846  -3.104  0.00  0.00    -0.081 A 
ATOM      2  C3  UNL d   1      -4.133  -3.338  -1.834  0.00  0.00     0.006 A 
ATOM      3  C4  UNL d   1      -2.898  -2.734  -1.585  0.00  0.00     0.002 A 
ATOM      4  C5  UNL d   1      -1.945  -2.623  -2.603  0.00  0.00    -0.080 A 
ATOM      5  C6  UNL d   1      -0.627  -1.950  -2.357  0.00  0.00     0.076 C 
ATOM      6  C7  UNL d   1      -2.236  -3.146  -3.867  0.00  0.00     0.002 A 
ATOM      7  C8  UNL d   1      -3.471  -3.750  -4.116  0.00  0.00     0.006 A 
ENDROOT
BRANCH   1   8
ATOM      8  C1  UNL d   1      -5.787  -4.439  -3.393  0.00  0.00     0.054 C 
ATOM      9  C   UNL d   1      -6.000  -5.735  -2.623  0.00  0.00     0.018 C 
ENDBRANCH   1   8
TORSDOF 1
ENDMDL
