MODEL 1
REMARK minimizedAffinity 5.99170685
REMARK minimizedRMSD -1
REMARK  1 active torsions:
REMARK  status: ('A' for Active; 'I' for Inactive)
REMARK    1  A    between atoms: C1_2  and  C2_3 
ROOT
ATOM      1  C2  UNL d   1      -2.977  -4.249  -2.833  0.00  0.00    -0.081 A 
ATOM      2  C3  UNL d   1      -1.878  -3.393  -2.691  0.00  0.00     0.006 A 
ATOM      3  C4  UNL d   1      -0.591  -3.836  -3.001  0.00  0.00     0.002 A 
ATOM      4  C5  UNL d   1      -0.381  -5.139  -3.466  0.00  0.00    -0.080 A 
ATOM      5  C6  UNL d   1       0.992  -5.618  -3.832  0.00  0.00     0.076 C 
ATOM      6  C7  UNL d   1      -1.477  -6.000  -3.592  0.00  0.00     0.002 A 
ATOM      7  C8  UNL d   1      -2.765  -5.557  -3.281  0.00  0.00     0.006 A 
ENDROOT
BRANCH   1   8
ATOM      8  C1  UNL d   1      -4.375  -3.754  -2.561  0.00  0.00     0.054 C 
ATOM      9  C   UNL d   1      -5.325  -4.131  -3.688  0.00  0.00     0.018 C 
ENDBRANCH   1   8
TORSDOF 1
ENDMDL
