MODEL 1
REMARK minimizedAffinity 10.2407846
REMARK minimizedRMSD -1
REMARK  1 active torsions:
REMARK  status: ('A' for Active; 'I' for Inactive)
REMARK    1  A    between atoms: C1_2  and  C2_3 
ROOT
ATOM      1  C2  UNL d   1      -3.722  -4.299  -2.577  0.00  0.00    -0.081 A 
ATOM      2  C3  UNL d   1      -2.879  -3.257  -2.981  0.00  0.00     0.006 A 
ATOM      3  C4  UNL d   1      -1.553  -3.517  -3.337  0.00  0.00     0.002 A 
ATOM      4  C5  UNL d   1      -1.052  -4.823  -3.303  0.00  0.00    -0.080 A 
ATOM      5  C6  UNL d   1       0.361  -5.119  -3.712  0.00  0.00     0.076 C 
ATOM      6  C7  UNL d   1      -1.889  -5.861  -2.883  0.00  0.00     0.002 A 
ATOM      7  C8  UNL d   1      -3.215  -5.602  -2.526  0.00  0.00     0.006 A 
ENDROOT
BRANCH   1   8
ATOM      8  C1  UNL d   1      -5.170  -4.032  -2.255  0.00  0.00     0.054 C 
ATOM      9  C   UNL d   1      -5.998  -5.307  -2.327  0.00  0.00     0.018 C 
ENDBRANCH   1   8
TORSDOF 1
ENDMDL
