MODEL 1
REMARK minimizedAffinity 1.39067352
REMARK minimizedRMSD -1
REMARK  1 active torsions:
REMARK  status: ('A' for Active; 'I' for Inactive)
REMARK    1  A    between atoms: C1_2  and  C2_3 
ROOT
ATOM      1  C2  UNL d   1      -4.174  -4.129  -2.852  0.00  0.00    -0.081 A 
ATOM      2  C3  UNL d   1      -3.610  -3.004  -2.237  0.00  0.00     0.006 A 
ATOM      3  C4  UNL d   1      -2.296  -2.626  -2.523  0.00  0.00     0.002 A 
ATOM      4  C5  UNL d   1      -1.528  -3.359  -3.434  0.00  0.00    -0.080 A 
ATOM      5  C6  UNL d   1      -0.127  -2.946  -3.773  0.00  0.00     0.076 C 
ATOM      6  C7  UNL d   1      -2.086  -4.493  -4.035  0.00  0.00     0.002 A 
ATOM      7  C8  UNL d   1      -3.400  -4.872  -3.748  0.00  0.00     0.006 A 
ENDROOT
BRANCH   1   8
ATOM      8  C1  UNL d   1      -5.612  -4.502  -2.594  0.00  0.00     0.054 C 
ATOM      9  C   UNL d   1      -6.000  -5.764  -3.351  0.00  0.00     0.018 C 
ENDBRANCH   1   8
TORSDOF 1
ENDMDL
