MODEL 1
REMARK minimizedAffinity 20.2219734
REMARK minimizedRMSD -1
REMARK  1 active torsions:
REMARK  status: ('A' for Active; 'I' for Inactive)
REMARK    1  A    between atoms: C1_2  and  C2_3 
ROOT
ATOM      1  C2  UNL d   1      -0.617   3.788  -1.035  0.00  0.00    -0.081 A 
ATOM      2  C3  UNL d   1       0.070   2.711  -1.606  0.00  0.00     0.006 A 
ATOM      3  C4  UNL d   1       1.027   2.010  -0.868  0.00  0.00     0.002 A 
ATOM      4  C5  UNL d   1       1.307   2.370   0.454  0.00  0.00    -0.080 A 
ATOM      5  C6  UNL d   1       2.310   1.606   1.267  0.00  0.00     0.076 C 
ATOM      6  C7  UNL d   1       0.632   3.457   1.019  0.00  0.00     0.002 A 
ATOM      7  C8  UNL d   1      -0.324   4.159   0.282  0.00  0.00     0.006 A 
ENDROOT
BRANCH   1   8
ATOM      8  C1  UNL d   1      -1.696   4.505  -1.807  0.00  0.00     0.054 C 
ATOM      9  C   UNL d   1      -1.406   5.996  -1.908  0.00  0.00     0.018 C 
ENDBRANCH   1   8
TORSDOF 1
ENDMDL
