MODEL 1
REMARK minimizedAffinity 0.619513631
REMARK minimizedRMSD -1
REMARK  0 active torsions:
REMARK  status: ('A' for Active; 'I' for Inactive)
ROOT
ATOM      1  C   UNL d   1      -1.895  -0.747   1.523  0.00  0.00    -0.002 A 
ATOM      2  C1  UNL d   1      -1.511  -0.313   0.262  0.00  0.00     0.010 A 
ATOM      3  C2  UNL d   1      -0.161  -0.133  -0.046  0.00  0.00     0.041 A 
ATOM      4  C3  UNL d   1       0.806  -0.401   0.943  0.00  0.00    -0.075 A 
ATOM      5  S   UNL d   1       2.517  -0.252   0.791  0.00  0.00     0.015 SA
ATOM      6  C4  UNL d   1       2.778  -0.762   2.396  0.00  0.00     0.022 A 
ATOM      7  C5  UNL d   1       1.600  -1.042   3.046  0.00  0.00     0.026 A 
ATOM      8  C6  UNL d   1       0.444  -0.839   2.219  0.00  0.00    -0.082 A 
ATOM      9  C7  UNL d   1      -0.933  -1.012   2.502  0.00  0.00     0.045 A 
ENDROOT
TORSDOF 0
ENDMDL
