MODEL 1
REMARK minimizedAffinity 4.32881689
REMARK minimizedRMSD -1
REMARK  0 active torsions:
REMARK  status: ('A' for Active; 'I' for Inactive)
ROOT
ATOM      1  C   UNL d   1       4.781   5.943   2.364  0.00  0.00    -0.002 A 
ATOM      2  C1  UNL d   1       3.632   5.940   1.585  0.00  0.00     0.010 A 
ATOM      3  C2  UNL d   1       2.369   5.952   2.182  0.00  0.00     0.041 A 
ATOM      4  C3  UNL d   1       2.280   5.969   3.588  0.00  0.00    -0.075 A 
ATOM      5  S   UNL d   1       0.842   5.987   4.538  0.00  0.00     0.015 SA
ATOM      6  C4  UNL d   1       1.718   5.999   6.000  0.00  0.00     0.022 A 
ATOM      7  C5  UNL d   1       3.076   5.990   5.787  0.00  0.00     0.026 A 
ATOM      8  C6  UNL d   1       3.423   5.973   4.393  0.00  0.00    -0.082 A 
ATOM      9  C7  UNL d   1       4.688   5.960   3.758  0.00  0.00     0.045 A 
ENDROOT
TORSDOF 0
ENDMDL
