MODEL 1
REMARK minimizedAffinity -4.44775391
REMARK minimizedRMSD -1
REMARK  0 active torsions:
REMARK  status: ('A' for Active; 'I' for Inactive)
ROOT
ATOM      1  C   UNL d   1      -0.406  -0.682  -1.093  0.00  0.00    -0.002 A 
ATOM      2  C1  UNL d   1      -1.227  -0.297  -0.043  0.00  0.00     0.010 A 
ATOM      3  C2  UNL d   1      -0.781  -0.388   1.277  0.00  0.00     0.041 A 
ATOM      4  C3  UNL d   1       0.517  -0.875   1.526  0.00  0.00    -0.075 A 
ATOM      5  S   UNL d   1       1.276  -1.073   3.062  0.00  0.00     0.015 SA
ATOM      6  C4  UNL d   1       2.709  -1.672   2.359  0.00  0.00     0.022 A 
ATOM      7  C5  UNL d   1       2.627  -1.727   0.988  0.00  0.00     0.026 A 
ATOM      8  C6  UNL d   1       1.363  -1.268   0.485  0.00  0.00    -0.082 A 
ATOM      9  C7  UNL d   1       0.881  -1.165  -0.842  0.00  0.00     0.045 A 
ENDROOT
TORSDOF 0
ENDMDL
