MODEL 1
REMARK minimizedAffinity -3.61813807
REMARK minimizedRMSD -1
REMARK  0 active torsions:
REMARK  status: ('A' for Active; 'I' for Inactive)
ROOT
ATOM      1  C   UNL d   1       2.255  -1.874   2.247  0.00  0.00    -0.002 A 
ATOM      2  C1  UNL d   1       2.745  -2.071   0.964  0.00  0.00     0.010 A 
ATOM      3  C2  UNL d   1       2.120  -1.477  -0.134  0.00  0.00     0.041 A 
ATOM      4  C3  UNL d   1       0.984  -0.673   0.081  0.00  0.00    -0.075 A 
ATOM      5  S   UNL d   1       0.056   0.156  -1.112  0.00  0.00     0.015 SA
ATOM      6  C4  UNL d   1      -1.013   0.791   0.053  0.00  0.00     0.022 A 
ATOM      7  C5  UNL d   1      -0.685   0.391   1.326  0.00  0.00     0.026 A 
ATOM      8  C6  UNL d   1       0.472  -0.459   1.364  0.00  0.00    -0.082 A 
ATOM      9  C7  UNL d   1       1.127  -1.076   2.456  0.00  0.00     0.045 A 
ENDROOT
TORSDOF 0
ENDMDL
