MODEL 1
REMARK minimizedAffinity -1.86214936
REMARK minimizedRMSD -1
REMARK  0 active torsions:
REMARK  status: ('A' for Active; 'I' for Inactive)
ROOT
ATOM      1  C   UNL d   1       0.731  -1.326   2.627  0.00  0.00    -0.002 A 
ATOM      2  C1  UNL d   1       1.905  -1.178   1.901  0.00  0.00     0.010 A 
ATOM      3  C2  UNL d   1       1.887  -0.600   0.631  0.00  0.00     0.041 A 
ATOM      4  C3  UNL d   1       0.658  -0.167   0.096  0.00  0.00    -0.075 A 
ATOM      5  S   UNL d   1       0.394   0.570  -1.440  0.00  0.00     0.015 SA
ATOM      6  C4  UNL d   1      -1.284   0.707  -1.169  0.00  0.00     0.022 A 
ATOM      7  C5  UNL d   1      -1.650   0.207   0.058  0.00  0.00     0.026 A 
ATOM      8  C6  UNL d   1      -0.538  -0.304   0.808  0.00  0.00    -0.082 A 
ATOM      9  C7  UNL d   1      -0.486  -0.895   2.093  0.00  0.00     0.045 A 
ENDROOT
TORSDOF 0
ENDMDL
