MODEL 1
REMARK minimizedAffinity -1.17163491
REMARK minimizedRMSD -1
REMARK  0 active torsions:
REMARK  status: ('A' for Active; 'I' for Inactive)
ROOT
ATOM      1  C   UNL d   1      -0.810   3.267  -2.571  0.00  0.00    -0.002 A 
ATOM      2  C1  UNL d   1       0.531   3.182  -2.224  0.00  0.00     0.010 A 
ATOM      3  C2  UNL d   1       1.017   2.067  -1.538  0.00  0.00     0.041 A 
ATOM      4  C3  UNL d   1       0.125   1.029  -1.206  0.00  0.00    -0.075 A 
ATOM      5  S   UNL d   1       0.497  -0.432  -0.369  0.00  0.00     0.015 SA
ATOM      6  C4  UNL d   1      -1.116  -0.978  -0.453  0.00  0.00     0.022 A 
ATOM      7  C5  UNL d   1      -1.931  -0.080  -1.100  0.00  0.00     0.026 A 
ATOM      8  C6  UNL d   1      -1.229   1.091  -1.545  0.00  0.00    -0.082 A 
ATOM      9  C7  UNL d   1      -1.692   2.235  -2.239  0.00  0.00     0.045 A 
ENDROOT
TORSDOF 0
ENDMDL
