MODEL 1
REMARK minimizedAffinity 2.28969693
REMARK minimizedRMSD -1
REMARK  0 active torsions:
REMARK  status: ('A' for Active; 'I' for Inactive)
ROOT
ATOM      1  C   UNL d   1      -0.832  -0.454   2.355  0.00  0.00    -0.002 A 
ATOM      2  C1  UNL d   1      -0.932   0.293   1.190  0.00  0.00     0.010 A 
ATOM      3  C2  UNL d   1      -0.065   0.058   0.120  0.00  0.00     0.041 A 
ATOM      4  C3  UNL d   1       0.911  -0.950   0.242  0.00  0.00    -0.075 A 
ATOM      5  S   UNL d   1       2.079  -1.414  -0.938  0.00  0.00     0.015 SA
ATOM      6  C4  UNL d   1       2.738  -2.614   0.077  0.00  0.00     0.022 A 
ATOM      7  C5  UNL d   1       2.094  -2.673   1.291  0.00  0.00     0.026 A 
ATOM      8  C6  UNL d   1       1.031  -1.715   1.405  0.00  0.00    -0.082 A 
ATOM      9  C7  UNL d   1       0.138  -1.453   2.473  0.00  0.00     0.045 A 
ENDROOT
TORSDOF 0
ENDMDL
