MODEL 1
REMARK minimizedAffinity -0.855682969
REMARK minimizedRMSD -1
REMARK  0 active torsions:
REMARK  status: ('A' for Active; 'I' for Inactive)
ROOT
ATOM      1  C   UNL d   1       1.129  -1.001   3.216  0.00  0.00    -0.002 A 
ATOM      2  C1  UNL d   1       0.192  -1.952   2.838  0.00  0.00     0.010 A 
ATOM      3  C2  UNL d   1       0.050  -2.316   1.498  0.00  0.00     0.041 A 
ATOM      4  C3  UNL d   1       0.875  -1.703   0.534  0.00  0.00    -0.075 A 
ATOM      5  S   UNL d   1       0.880  -1.992  -1.165  0.00  0.00     0.015 SA
ATOM      6  C4  UNL d   1       2.126  -0.860  -1.430  0.00  0.00     0.022 A 
ATOM      7  C5  UNL d   1       2.541  -0.267  -0.261  0.00  0.00     0.026 A 
ATOM      8  C6  UNL d   1       1.827  -0.743   0.891  0.00  0.00    -0.082 A 
ATOM      9  C7  UNL d   1       1.945  -0.395   2.258  0.00  0.00     0.045 A 
ENDROOT
TORSDOF 0
ENDMDL
