MODEL 1
REMARK minimizedAffinity -4.49324036
REMARK minimizedRMSD -1
REMARK  0 active torsions:
REMARK  status: ('A' for Active; 'I' for Inactive)
ROOT
ATOM      1  C   UNL d   1       1.213  -0.666   2.904  0.00  0.00    -0.002 A 
ATOM      2  C1  UNL d   1       2.345  -0.454   2.130  0.00  0.00     0.010 A 
ATOM      3  C2  UNL d   1       2.275  -0.520   0.737  0.00  0.00     0.041 A 
ATOM      4  C3  UNL d   1       1.037  -0.803   0.130  0.00  0.00    -0.075 A 
ATOM      5  S   UNL d   1       0.713  -0.933  -1.559  0.00  0.00     0.015 SA
ATOM      6  C4  UNL d   1      -0.936  -1.272  -1.292  0.00  0.00     0.022 A 
ATOM      7  C5  UNL d   1      -1.249  -1.290   0.046  0.00  0.00     0.026 A 
ATOM      8  C6  UNL d   1      -0.118  -1.020   0.888  0.00  0.00    -0.082 A 
ATOM      9  C7  UNL d   1      -0.014  -0.947   2.298  0.00  0.00     0.045 A 
ENDROOT
TORSDOF 0
ENDMDL
