MODEL 1
REMARK minimizedAffinity 8.03534317
REMARK minimizedRMSD -1
REMARK  0 active torsions:
REMARK  status: ('A' for Active; 'I' for Inactive)
ROOT
ATOM      1  C1  DEN d   1       5.999   2.302  -0.285  0.00  0.00     0.130 A 
ATOM      2  C2  DEN d   1       5.569   2.550   1.089  0.00  0.00    -0.031 A 
ATOM      3  C3  DEN d   1       4.250   1.913   1.276  0.00  0.00     0.027 A 
ATOM      4  C4  DEN d   1       2.842   0.570  -0.417  0.00  0.00     0.027 A 
ATOM      5  C5  DEN d   1       2.787   0.105  -1.713  0.00  0.00    -0.003 A 
ATOM      6  C6  DEN d   1       3.774   0.366  -2.625  0.00  0.00     0.001 A 
ATOM      7  C7  DEN d   1       4.882   1.075  -2.242  0.00  0.00     0.017 A 
ATOM      8  C8  DEN d   1       4.941   1.554  -0.939  0.00  0.00    -0.094 A 
ATOM      9  C9  DEN d   1       3.938   1.269  -0.029  0.00  0.00    -0.072 A 
ENDROOT
TORSDOF 0
ENDMDL
