MODEL 1
REMARK minimizedAffinity 3.0175221
REMARK minimizedRMSD -1
REMARK  0 active torsions:
REMARK  status: ('A' for Active; 'I' for Inactive)
ROOT
ATOM      1  C1  DEN d   1       4.061   0.275  -2.206  0.00  0.00     0.130 A 
ATOM      2  C2  DEN d   1       4.081   1.038  -0.961  0.00  0.00    -0.031 A 
ATOM      3  C3  DEN d   1       3.603   0.156   0.122  0.00  0.00     0.027 A 
ATOM      4  C4  DEN d   1       2.841  -2.305  -0.006  0.00  0.00     0.027 A 
ATOM      5  C5  DEN d   1       2.638  -3.375  -0.850  0.00  0.00    -0.003 A 
ATOM      6  C6  DEN d   1       2.861  -3.293  -2.199  0.00  0.00     0.001 A 
ATOM      7  C7  DEN d   1       3.344  -2.130  -2.738  0.00  0.00     0.017 A 
ATOM      8  C8  DEN d   1       3.544  -1.045  -1.895  0.00  0.00    -0.094 A 
ATOM      9  C9  DEN d   1       3.324  -1.151  -0.532  0.00  0.00    -0.072 A 
ENDROOT
TORSDOF 0
ENDMDL
