MODEL 1
REMARK minimizedAffinity 5.90021372
REMARK minimizedRMSD -1
REMARK  0 active torsions:
REMARK  status: ('A' for Active; 'I' for Inactive)
ROOT
ATOM      1  C1  DEN d   1       4.446   2.794   0.812  0.00  0.00     0.130 A 
ATOM      2  C2  DEN d   1       5.565   3.572   0.287  0.00  0.00    -0.031 A 
ATOM      3  C3  DEN d   1       5.990   2.958  -0.987  0.00  0.00     0.027 A 
ATOM      4  C4  DEN d   1       5.026   0.892  -2.194  0.00  0.00     0.027 A 
ATOM      5  C5  DEN d   1       4.079  -0.105  -2.128  0.00  0.00    -0.003 A 
ATOM      6  C6  DEN d   1       3.217  -0.226  -1.071  0.00  0.00     0.001 A 
ATOM      7  C7  DEN d   1       3.255   0.694  -0.056  0.00  0.00     0.017 A 
ATOM      8  C8  DEN d   1       4.212   1.698  -0.111  0.00  0.00    -0.094 A 
ATOM      9  C9  DEN d   1       5.067   1.810  -1.195  0.00  0.00    -0.072 A 
ENDROOT
TORSDOF 0
ENDMDL
