MODEL 1
REMARK minimizedAffinity 8.01143742
REMARK minimizedRMSD -1
REMARK  0 active torsions:
REMARK  status: ('A' for Active; 'I' for Inactive)
ROOT
ATOM      1  C1  DEN d   1       2.643   0.733  -0.774  0.00  0.00     0.130 A 
ATOM      2  C2  DEN d   1       2.997  -0.609  -0.319  0.00  0.00    -0.031 A 
ATOM      3  C3  DEN d   1       4.326  -0.539   0.320  0.00  0.00     0.027 A 
ATOM      4  C4  DEN d   1       5.860   1.508   0.653  0.00  0.00     0.027 A 
ATOM      5  C5  DEN d   1       5.994   2.859   0.424  0.00  0.00    -0.003 A 
ATOM      6  C6  DEN d   1       5.044   3.584  -0.245  0.00  0.00     0.001 A 
ATOM      7  C7  DEN d   1       3.896   2.970  -0.669  0.00  0.00     0.017 A 
ATOM      8  C8  DEN d   1       3.757   1.606  -0.448  0.00  0.00    -0.094 A 
ATOM      9  C9  DEN d   1       4.723   0.893   0.241  0.00  0.00    -0.072 A 
ENDROOT
TORSDOF 0
ENDMDL
