MODEL 1
REMARK minimizedAffinity 9.96108818
REMARK minimizedRMSD -1
REMARK  0 active torsions:
REMARK  status: ('A' for Active; 'I' for Inactive)
ROOT
ATOM      1  C1  DEN d   1       0.963   4.217   5.975  0.00  0.00     0.130 A 
ATOM      2  C2  DEN d   1       1.718   5.466   5.981  0.00  0.00    -0.031 A 
ATOM      3  C3  DEN d   1       3.156   5.130   5.974  0.00  0.00     0.027 A 
ATOM      4  C4  DEN d   1       4.280   2.809   5.950  0.00  0.00     0.027 A 
ATOM      5  C5  DEN d   1       4.051   1.451   5.953  0.00  0.00    -0.003 A 
ATOM      6  C6  DEN d   1       2.787   0.924   5.997  0.00  0.00     0.001 A 
ATOM      7  C7  DEN d   1       1.702   1.760   5.995  0.00  0.00     0.017 A 
ATOM      8  C8  DEN d   1       1.926   3.131   6.000  0.00  0.00    -0.094 A 
ATOM      9  C9  DEN d   1       3.210   3.644   5.943  0.00  0.00    -0.072 A 
ENDROOT
TORSDOF 0
ENDMDL
