MODEL 1
REMARK minimizedAffinity 16.941494
REMARK minimizedRMSD -1
REMARK  0 active torsions:
REMARK  status: ('A' for Active; 'I' for Inactive)
ROOT
ATOM      1  C1  DEN d   1      -4.748   4.284  -1.776  0.00  0.00     0.130 A 
ATOM      2  C2  DEN d   1      -5.402   4.113  -3.070  0.00  0.00    -0.031 A 
ATOM      3  C3  DEN d   1      -6.000   2.763  -3.105  0.00  0.00     0.027 A 
ATOM      4  C4  DEN d   1      -5.982   0.933  -1.288  0.00  0.00     0.027 A 
ATOM      5  C5  DEN d   1      -5.542   0.611  -0.023  0.00  0.00    -0.003 A 
ATOM      6  C6  DEN d   1      -4.784   1.471   0.727  0.00  0.00     0.001 A 
ATOM      7  C7  DEN d   1      -4.481   2.714   0.236  0.00  0.00     0.017 A 
ATOM      8  C8  DEN d   1      -4.915   3.042  -1.042  0.00  0.00    -0.094 A 
ATOM      9  C9  DEN d   1      -5.690   2.164  -1.779  0.00  0.00    -0.072 A 
ENDROOT
TORSDOF 0
ENDMDL
