MODEL 1
REMARK minimizedAffinity 7.41334391
REMARK minimizedRMSD -1
REMARK  0 active torsions:
REMARK  status: ('A' for Active; 'I' for Inactive)
ROOT
ATOM      1  C1  DEN d   1       2.669   0.597  -0.569  0.00  0.00     0.130 A 
ATOM      2  C2  DEN d   1       3.169  -0.757  -0.352  0.00  0.00    -0.031 A 
ATOM      3  C3  DEN d   1       4.563  -0.659   0.126  0.00  0.00     0.027 A 
ATOM      4  C4  DEN d   1       5.986   1.450   0.553  0.00  0.00     0.027 A 
ATOM      5  C5  DEN d   1       5.997   2.826   0.500  0.00  0.00    -0.003 A 
ATOM      6  C6  DEN d   1       4.921   3.549   0.059  0.00  0.00     0.001 A 
ATOM      7  C7  DEN d   1       3.771   2.900  -0.304  0.00  0.00     0.017 A 
ATOM      8  C8  DEN d   1       3.754   1.512  -0.261  0.00  0.00    -0.094 A 
ATOM      9  C9  DEN d   1       4.849   0.800   0.199  0.00  0.00    -0.072 A 
ENDROOT
TORSDOF 0
ENDMDL
