MODEL 1
REMARK minimizedAffinity 5.53539801
REMARK minimizedRMSD -1
REMARK  0 active torsions:
REMARK  status: ('A' for Active; 'I' for Inactive)
ROOT
ATOM      1  C1  DEN d   1       2.034   1.864   5.995  0.00  0.00     0.130 A 
ATOM      2  C2  DEN d   1       3.444   1.486   5.962  0.00  0.00    -0.031 A 
ATOM      3  C3  DEN d   1       4.248   2.725   5.949  0.00  0.00     0.027 A 
ATOM      4  C4  DEN d   1       3.451   5.178   5.982  0.00  0.00     0.027 A 
ATOM      5  C5  DEN d   1       2.345   5.998   6.000  0.00  0.00    -0.003 A 
ATOM      6  C6  DEN d   1       1.068   5.503   5.983  0.00  0.00     0.001 A 
ATOM      7  C7  DEN d   1       0.865   4.149   5.993  0.00  0.00     0.017 A 
ATOM      8  C8  DEN d   1       1.975   3.315   5.968  0.00  0.00    -0.094 A 
ATOM      9  C9  DEN d   1       3.258   3.834   5.997  0.00  0.00    -0.072 A 
ENDROOT
TORSDOF 0
ENDMDL
