MODEL 1
REMARK minimizedAffinity -0.0796643123
REMARK minimizedRMSD -1
REMARK  0 active torsions:
REMARK  status: ('A' for Active; 'I' for Inactive)
ROOT
ATOM      1  C4' PXY d   1      -1.485  -1.117   3.745  0.00  0.00     0.077 C 
ATOM      2  C1' PXY d   1      -0.350  -2.352  -1.787  0.00  0.00     0.077 C 
ATOM      3  C1  PXY d   1      -0.647  -2.015  -0.339  0.00  0.00    -0.082 A 
ATOM      4  C2  PXY d   1      -0.383  -2.903   0.606  0.00  0.00     0.003 A 
ATOM      5  C3  PXY d   1      -0.675  -2.627   1.917  0.00  0.00     0.003 A 
ATOM      6  C4  PXY d   1      -1.193  -1.410   2.271  0.00  0.00    -0.082 A 
ATOM      7  C5  PXY d   1      -1.455  -0.495   1.313  0.00  0.00     0.003 A 
ATOM      8  C6  PXY d   1      -1.190  -0.810  -0.016  0.00  0.00     0.003 A 
ENDROOT
TORSDOF 0
ENDMDL
