MODEL 1
REMARK minimizedAffinity -1.57558584
REMARK minimizedRMSD -1
REMARK  0 active torsions:
REMARK  status: ('A' for Active; 'I' for Inactive)
ROOT
ATOM      1  C4' PXY d   1      -0.999  -2.300   1.104  0.00  0.00     0.077 C 
ATOM      2  C1' PXY d   1       1.255  -2.703  -4.204  0.00  0.00     0.077 C 
ATOM      3  C1  PXY d   1       0.660  -2.610  -2.813  0.00  0.00    -0.082 A 
ATOM      4  C2  PXY d   1       0.311  -1.429  -2.328  0.00  0.00     0.003 A 
ATOM      5  C3  PXY d   1      -0.199  -1.323  -1.060  0.00  0.00     0.003 A 
ATOM      6  C4  PXY d   1      -0.403  -2.443  -0.299  0.00  0.00    -0.082 A 
ATOM      7  C5  PXY d   1      -0.060  -3.652  -0.791  0.00  0.00     0.003 A 
ATOM      8  C6  PXY d   1       0.494  -3.734  -2.065  0.00  0.00     0.003 A 
ENDROOT
TORSDOF 0
ENDMDL
