MODEL 1
REMARK minimizedAffinity 5.91557026
REMARK minimizedRMSD -1
REMARK  0 active torsions:
REMARK  status: ('A' for Active; 'I' for Inactive)
ROOT
ATOM      1  C4' PXY d   1       1.117   0.932  -1.420  0.00  0.00     0.077 C 
ATOM      2  C1' PXY d   1      -0.884  -4.211  -3.141  0.00  0.00     0.077 C 
ATOM      3  C1  PXY d   1      -0.369  -2.861  -2.681  0.00  0.00    -0.082 A 
ATOM      4  C2  PXY d   1       0.395  -2.143  -3.488  0.00  0.00     0.003 A 
ATOM      5  C3  PXY d   1       0.895  -0.934  -3.076  0.00  0.00     0.003 A 
ATOM      6  C4  PXY d   1       0.567  -0.432  -1.846  0.00  0.00    -0.082 A 
ATOM      7  C5  PXY d   1      -0.221  -1.154  -1.021  0.00  0.00     0.003 A 
ATOM      8  C6  PXY d   1      -0.685  -2.397  -1.442  0.00  0.00     0.003 A 
ENDROOT
TORSDOF 0
ENDMDL
