MODEL 1
REMARK minimizedAffinity -1.78272057
REMARK minimizedRMSD -1
REMARK  0 active torsions:
REMARK  status: ('A' for Active; 'I' for Inactive)
ROOT
ATOM      1  C4' PXY d   1       0.455  -3.710  -2.005  0.00  0.00     0.077 C 
ATOM      2  C1' PXY d   1      -0.927  -2.160   3.390  0.00  0.00     0.077 C 
ATOM      3  C1  PXY d   1      -0.553  -2.570   1.979  0.00  0.00    -0.082 A 
ATOM      4  C2  PXY d   1      -1.138  -1.981   0.950  0.00  0.00     0.003 A 
ATOM      5  C3  PXY d   1      -0.835  -2.362  -0.332  0.00  0.00     0.003 A 
ATOM      6  C4  PXY d   1       0.116  -3.320  -0.563  0.00  0.00    -0.082 A 
ATOM      7  C5  PXY d   1       0.725  -3.919   0.482  0.00  0.00     0.003 A 
ATOM      8  C6  PXY d   1       0.373  -3.547   1.776  0.00  0.00     0.003 A 
ENDROOT
TORSDOF 0
ENDMDL
