MODEL 1
REMARK minimizedAffinity -5.01014709
REMARK minimizedRMSD -1
REMARK  0 active torsions:
REMARK  status: ('A' for Active; 'I' for Inactive)
ROOT
ATOM      1  C4' PXY d   1      -1.120  -1.837   3.274  0.00  0.00     0.077 C 
ATOM      2  C1' PXY d   1       0.652  -3.161  -2.067  0.00  0.00     0.077 C 
ATOM      3  C1  PXY d   1       0.188  -2.827  -0.663  0.00  0.00    -0.082 A 
ATOM      4  C2  PXY d   1      -0.549  -1.747  -0.457  0.00  0.00     0.003 A 
ATOM      5  C3  PXY d   1      -0.950  -1.412   0.810  0.00  0.00     0.003 A 
ATOM      6  C4  PXY d   1      -0.637  -2.219   1.872  0.00  0.00    -0.082 A 
ATOM      7  C5  PXY d   1       0.106  -3.328   1.668  0.00  0.00     0.003 A 
ATOM      8  C6  PXY d   1       0.538  -3.628   0.380  0.00  0.00     0.003 A 
ENDROOT
TORSDOF 0
ENDMDL
