MODEL 1
REMARK minimizedAffinity 0.912393749
REMARK minimizedRMSD -1
REMARK  0 active torsions:
REMARK  status: ('A' for Active; 'I' for Inactive)
ROOT
ATOM      1  C4' PXY d   1       1.093  -2.494  -4.215  0.00  0.00     0.077 C 
ATOM      2  C1' PXY d   1      -0.371  -3.124   1.341  0.00  0.00     0.077 C 
ATOM      3  C1  PXY d   1       0.007  -2.947  -0.116  0.00  0.00    -0.082 A 
ATOM      4  C2  PXY d   1       0.264  -4.011  -0.859  0.00  0.00     0.003 A 
ATOM      5  C3  PXY d   1       0.638  -3.868  -2.170  0.00  0.00     0.003 A 
ATOM      6  C4  PXY d   1       0.699  -2.625  -2.741  0.00  0.00    -0.082 A 
ATOM      7  C5  PXY d   1       0.427  -1.535  -1.993  0.00  0.00     0.003 A 
ATOM      8  C6  PXY d   1       0.089  -1.700  -0.653  0.00  0.00     0.003 A 
ENDROOT
TORSDOF 0
ENDMDL
