MODEL 1
REMARK minimizedAffinity 8.65714455
REMARK minimizedRMSD -1
REMARK  0 active torsions:
REMARK  status: ('A' for Active; 'I' for Inactive)
ROOT
ATOM      1  C4' PXY d   1      -1.702  -1.150   3.807  0.00  0.00     0.077 C 
ATOM      2  C1' PXY d   1      -0.590  -3.622  -1.298  0.00  0.00     0.077 C 
ATOM      3  C1  PXY d   1      -0.884  -2.963   0.034  0.00  0.00    -0.082 A 
ATOM      4  C2  PXY d   1      -0.400  -3.492   1.147  0.00  0.00     0.003 A 
ATOM      5  C3  PXY d   1      -0.683  -2.926   2.364  0.00  0.00     0.003 A 
ATOM      6  C4  PXY d   1      -1.423  -1.777   2.438  0.00  0.00    -0.082 A 
ATOM      7  C5  PXY d   1      -1.911  -1.225   1.307  0.00  0.00     0.003 A 
ATOM      8  C6  PXY d   1      -1.648  -1.838   0.085  0.00  0.00     0.003 A 
ENDROOT
TORSDOF 0
ENDMDL
