MODEL 1
REMARK minimizedAffinity 4.04591465
REMARK minimizedRMSD -1
REMARK  0 active torsions:
REMARK  status: ('A' for Active; 'I' for Inactive)
ROOT
ATOM      1  C4' PXY d   1       0.140  -1.600  -4.520  0.00  0.00     0.077 C 
ATOM      2  C1' PXY d   1      -0.377  -3.033   1.056  0.00  0.00     0.077 C 
ATOM      3  C1  PXY d   1      -0.238  -2.645  -0.403  0.00  0.00    -0.082 A 
ATOM      4  C2  PXY d   1      -0.910  -3.316  -1.325  0.00  0.00     0.003 A 
ATOM      5  C3  PXY d   1      -0.771  -2.999  -2.652  0.00  0.00     0.003 A 
ATOM      6  C4  PXY d   1       0.023  -1.951  -3.035  0.00  0.00    -0.082 A 
ATOM      7  C5  PXY d   1       0.703  -1.255  -2.099  0.00  0.00     0.003 A 
ATOM      8  C6  PXY d   1       0.580  -1.619  -0.761  0.00  0.00     0.003 A 
ENDROOT
TORSDOF 0
ENDMDL
