MODEL 1
REMARK minimizedAffinity 5.48990631
REMARK minimizedRMSD -1
REMARK  0 active torsions:
REMARK  status: ('A' for Active; 'I' for Inactive)
ROOT
ATOM      1  C4' PXY d   1      -1.723   1.435  -0.650  0.00  0.00     0.077 C 
ATOM      2  C1' PXY d   1       0.291  -3.851   0.542  0.00  0.00     0.077 C 
ATOM      3  C1  PXY d   1      -0.225  -2.461   0.225  0.00  0.00    -0.082 A 
ATOM      4  C2  PXY d   1      -1.263  -1.981   0.891  0.00  0.00     0.003 A 
ATOM      5  C3  PXY d   1      -1.763  -0.739   0.595  0.00  0.00     0.003 A 
ATOM      6  C4  PXY d   1      -1.162   0.041  -0.357  0.00  0.00    -0.082 A 
ATOM      7  C5  PXY d   1      -0.096  -0.438  -1.033  0.00  0.00     0.003 A 
ATOM      8  C6  PXY d   1       0.370  -1.717  -0.746  0.00  0.00     0.003 A 
ENDROOT
TORSDOF 0
ENDMDL
