MODEL 1
REMARK minimizedAffinity 8.92923069
REMARK minimizedRMSD -1
REMARK  0 active torsions:
REMARK  status: ('A' for Active; 'I' for Inactive)
ROOT
ATOM      1  C4' PXY d   1      -2.189   0.294   0.264  0.00  0.00     0.077 C 
ATOM      2  C1' PXY d   1      -3.396   5.911  -0.369  0.00  0.00     0.077 C 
ATOM      3  C1  PXY d   1      -3.068   4.441  -0.198  0.00  0.00    -0.082 A 
ATOM      4  C2  PXY d   1      -3.688   3.542  -0.944  0.00  0.00     0.003 A 
ATOM      5  C3  PXY d   1      -3.427   2.206  -0.780  0.00  0.00     0.003 A 
ATOM      6  C4  PXY d   1      -2.482   1.790   0.119  0.00  0.00    -0.082 A 
ATOM      7  C5  PXY d   1      -1.836   2.702   0.876  0.00  0.00     0.003 A 
ATOM      8  C6  PXY d   1      -2.146   4.051   0.723  0.00  0.00     0.003 A 
ENDROOT
TORSDOF 0
ENDMDL
