MODEL 1
REMARK minimizedAffinity 4.00189734
REMARK minimizedRMSD -1
REMARK  0 active torsions:
REMARK  status: ('A' for Active; 'I' for Inactive)
ROOT
ATOM      1  C4' PXY d   1      -0.275  -3.888  -1.568  0.00  0.00     0.077 C 
ATOM      2  C1' PXY d   1       1.629   1.567  -1.382  0.00  0.00     0.077 C 
ATOM      3  C1  PXY d   1       1.127   0.137  -1.444  0.00  0.00    -0.082 A 
ATOM      4  C2  PXY d   1       0.687  -0.449  -0.342  0.00  0.00     0.003 A 
ATOM      5  C3  PXY d   1       0.259  -1.752  -0.374  0.00  0.00     0.003 A 
ATOM      6  C4  PXY d   1       0.232  -2.444  -1.555  0.00  0.00    -0.082 A 
ATOM      7  C5  PXY d   1       0.669  -1.849  -2.685  0.00  0.00     0.003 A 
ATOM      8  C6  PXY d   1       1.138  -0.540  -2.624  0.00  0.00     0.003 A 
ENDROOT
TORSDOF 0
ENDMDL
