MODEL 1
REMARK minimizedAffinity 7.58643675
REMARK minimizedRMSD -1
REMARK  0 active torsions:
REMARK  status: ('A' for Active; 'I' for Inactive)
ROOT
ATOM      1  C4' PXY d   1      -0.558  -3.148  -2.936  0.00  0.00     0.077 C 
ATOM      2  C1' PXY d   1       2.768   1.347  -1.470  0.00  0.00     0.077 C 
ATOM      3  C1  PXY d   1       1.898   0.171  -1.867  0.00  0.00    -0.082 A 
ATOM      4  C2  PXY d   1       0.966  -0.264  -1.035  0.00  0.00     0.003 A 
ATOM      5  C3  PXY d   1       0.191  -1.346  -1.364  0.00  0.00     0.003 A 
ATOM      6  C4  PXY d   1       0.338  -1.958  -2.581  0.00  0.00    -0.082 A 
ATOM      7  C5  PXY d   1       1.280  -1.514  -3.440  0.00  0.00     0.003 A 
ATOM      8  C6  PXY d   1       2.083  -0.439  -3.069  0.00  0.00     0.003 A 
ENDROOT
TORSDOF 0
ENDMDL
