MODEL 1
REMARK minimizedAffinity 7.47057009
REMARK minimizedRMSD -1
REMARK  0 active torsions:
REMARK  status: ('A' for Active; 'I' for Inactive)
ROOT
ATOM      1  C4' PXY d   1      -0.138  -3.301  -2.190  0.00  0.00     0.077 C 
ATOM      2  C1' PXY d   1       3.291   1.346  -1.958  0.00  0.00     0.077 C 
ATOM      3  C1  PXY d   1       2.392   0.128  -2.031  0.00  0.00    -0.082 A 
ATOM      4  C2  PXY d   1       1.649  -0.200  -0.987  0.00  0.00     0.003 A 
ATOM      5  C3  PXY d   1       0.854  -1.317  -1.025  0.00  0.00     0.003 A 
ATOM      6  C4  PXY d   1       0.778  -2.074  -2.163  0.00  0.00    -0.082 A 
ATOM      7  C5  PXY d   1       1.524  -1.740  -3.237  0.00  0.00     0.003 A 
ATOM      8  C6  PXY d   1       2.356  -0.626  -3.163  0.00  0.00     0.003 A 
ENDROOT
TORSDOF 0
ENDMDL
