MODEL 1
REMARK minimizedAffinity 9.79690742
REMARK minimizedRMSD -1
REMARK  0 active torsions:
REMARK  status: ('A' for Active; 'I' for Inactive)
ROOT
ATOM      1  C4' PXY d   1      -0.919  -2.877   0.577  0.00  0.00     0.077 C 
ATOM      2  C1' PXY d   1       1.217  -1.048  -4.473  0.00  0.00     0.077 C 
ATOM      3  C1  PXY d   1       0.648  -1.535  -3.155  0.00  0.00    -0.082 A 
ATOM      4  C2  PXY d   1       0.784  -0.792  -2.069  0.00  0.00     0.003 A 
ATOM      5  C3  PXY d   1       0.304  -1.232  -0.862  0.00  0.00     0.003 A 
ATOM      6  C4  PXY d   1      -0.369  -2.421  -0.777  0.00  0.00    -0.082 A 
ATOM      7  C5  PXY d   1      -0.521  -3.180  -1.882  0.00  0.00     0.003 A 
ATOM      8  C6  PXY d   1       0.010  -2.735  -3.089  0.00  0.00     0.003 A 
ENDROOT
TORSDOF 0
ENDMDL
