MODEL 1
REMARK minimizedAffinity 1.86626697
REMARK minimizedRMSD -1
REMARK  0 active torsions:
REMARK  status: ('A' for Active; 'I' for Inactive)
ROOT
ATOM      1  C4' PXY d   1      -0.695  -1.098   3.326  0.00  0.00     0.077 C 
ATOM      2  C1' PXY d   1      -1.890  -3.782  -1.652  0.00  0.00     0.077 C 
ATOM      3  C1  PXY d   1      -1.576  -3.066  -0.353  0.00  0.00    -0.082 A 
ATOM      4  C2  PXY d   1      -1.064  -3.746   0.661  0.00  0.00     0.003 A 
ATOM      5  C3  PXY d   1      -0.804  -3.122   1.853  0.00  0.00     0.003 A 
ATOM      6  C4  PXY d   1      -1.019  -1.777   1.993  0.00  0.00    -0.082 A 
ATOM      7  C5  PXY d   1      -1.531  -1.074   0.960  0.00  0.00     0.003 A 
ATOM      8  C6  PXY d   1      -1.827  -1.735  -0.229  0.00  0.00     0.003 A 
ENDROOT
TORSDOF 0
ENDMDL
