MODEL 1
REMARK minimizedAffinity 16.8693523
REMARK minimizedRMSD -1
REMARK  0 active torsions:
REMARK  status: ('A' for Active; 'I' for Inactive)
ROOT
ATOM      1  C4' PXY d   1       3.584   0.220  -0.072  0.00  0.00     0.077 C 
ATOM      2  C1' PXY d   1       3.788  -4.193   3.656  0.00  0.00     0.077 C 
ATOM      3  C1  PXY d   1       3.744  -3.042   2.671  0.00  0.00    -0.082 A 
ATOM      4  C2  PXY d   1       3.314  -1.856   3.070  0.00  0.00     0.003 A 
ATOM      5  C3  PXY d   1       3.237  -0.812   2.185  0.00  0.00     0.003 A 
ATOM      6  C4  PXY d   1       3.655  -0.969   0.891  0.00  0.00    -0.082 A 
ATOM      7  C5  PXY d   1       4.105  -2.173   0.478  0.00  0.00     0.003 A 
ATOM      8  C6  PXY d   1       4.136  -3.231   1.382  0.00  0.00     0.003 A 
ENDROOT
TORSDOF 0
ENDMDL
