MODEL 1
REMARK minimizedAffinity 1.63693094
REMARK minimizedRMSD -1
REMARK  0 active torsions:
REMARK  status: ('A' for Active; 'I' for Inactive)
ROOT
ATOM      1  C4' PXY d   1       0.359  -0.005  -1.091  0.00  0.00     0.077 C 
ATOM      2  C1' PXY d   1      -3.741  -3.487   1.026  0.00  0.00     0.077 C 
ATOM      3  C1  PXY d   1      -2.675  -2.565   0.467  0.00  0.00    -0.082 A 
ATOM      4  C2  PXY d   1      -1.510  -3.066   0.088  0.00  0.00     0.003 A 
ATOM      5  C3  PXY d   1      -0.524  -2.243  -0.390  0.00  0.00     0.003 A 
ATOM      6  C4  PXY d   1      -0.750  -0.900  -0.530  0.00  0.00    -0.082 A 
ATOM      7  C5  PXY d   1      -1.939  -0.383  -0.156  0.00  0.00     0.003 A 
ATOM      8  C6  PXY d   1      -2.913  -1.230   0.365  0.00  0.00     0.003 A 
ENDROOT
TORSDOF 0
ENDMDL
