MODEL 1
REMARK minimizedAffinity 7.06903172
REMARK minimizedRMSD -1
REMARK  0 active torsions:
REMARK  status: ('A' for Active; 'I' for Inactive)
ROOT
ATOM      1  C4' PXY d   1      -0.409  -4.305  -2.284  0.00  0.00     0.077 C 
ATOM      2  C1' PXY d   1       1.493   1.144  -1.966  0.00  0.00     0.077 C 
ATOM      3  C1  PXY d   1       0.990  -0.284  -2.037  0.00  0.00    -0.082 A 
ATOM      4  C2  PXY d   1       1.504  -1.115  -2.930  0.00  0.00     0.003 A 
ATOM      5  C3  PXY d   1       1.038  -2.401  -3.029  0.00  0.00     0.003 A 
ATOM      6  C4  PXY d   1       0.075  -2.857  -2.170  0.00  0.00    -0.082 A 
ATOM      7  C5  PXY d   1      -0.447  -2.019  -1.249  0.00  0.00     0.003 A 
ATOM      8  C6  PXY d   1       0.010  -0.705  -1.192  0.00  0.00     0.003 A 
ENDROOT
TORSDOF 0
ENDMDL
