MODEL 1
REMARK minimizedAffinity 0.110327609
REMARK minimizedRMSD -1
REMARK  0 active torsions:
REMARK  status: ('A' for Active; 'I' for Inactive)
ROOT
ATOM      1  C4' PXY d   1      -3.054   5.995   2.141  0.00  0.00     0.077 C 
ATOM      2  C1' PXY d   1      -3.323   5.163  -3.574  0.00  0.00     0.077 C 
ATOM      3  C1  PXY d   1      -3.242   5.373  -2.074  0.00  0.00    -0.082 A 
ATOM      4  C2  PXY d   1      -4.315   5.772  -1.411  0.00  0.00     0.003 A 
ATOM      5  C3  PXY d   1      -4.252   5.997  -0.060  0.00  0.00     0.003 A 
ATOM      6  C4  PXY d   1      -3.092   5.762   0.628  0.00  0.00    -0.082 A 
ATOM      7  C5  PXY d   1      -1.995   5.345  -0.040  0.00  0.00     0.003 A 
ATOM      8  C6  PXY d   1      -2.069   5.161  -1.418  0.00  0.00     0.003 A 
ENDROOT
TORSDOF 0
ENDMDL
