MODEL 1
REMARK minimizedAffinity -4.17845678
REMARK minimizedRMSD -1
REMARK  0 active torsions:
REMARK  status: ('A' for Active; 'I' for Inactive)
ROOT
ATOM      1  C   UNL d   1      -5.731   1.400  -1.500  0.00  0.00     0.078 C 
ATOM      2  C1  UNL d   1      -5.048   2.683  -1.134  0.00  0.00    -0.077 A 
ATOM      3  C2  UNL d   1      -3.759   2.972  -1.597  0.00  0.00    -0.001 A 
ATOM      4  C3  UNL d   1      -3.131   4.166  -1.240  0.00  0.00     0.003 A 
ATOM      5  C4  UNL d   1      -3.785   5.081  -0.417  0.00  0.00    -0.005 A 
ATOM      6  C5  UNL d   1      -5.067   4.802   0.051  0.00  0.00     0.003 A 
ATOM      7  C6  UNL d   1      -5.696   3.608  -0.305  0.00  0.00    -0.001 A 
ENDROOT
TORSDOF 0
ENDMDL
