MODEL 1
REMARK minimizedAffinity -2.07838917
REMARK minimizedRMSD -1
REMARK  0 active torsions:
REMARK  status: ('A' for Active; 'I' for Inactive)
ROOT
ATOM      1  C   UNL d   1       2.047  -5.760  -2.352  0.00  0.00     0.078 C 
ATOM      2  C1  UNL d   1       1.143  -4.799  -3.066  0.00  0.00    -0.077 A 
ATOM      3  C2  UNL d   1       1.631  -3.584  -3.562  0.00  0.00    -0.001 A 
ATOM      4  C3  UNL d   1       0.776  -2.695  -4.215  0.00  0.00     0.003 A 
ATOM      5  C4  UNL d   1      -0.571  -3.011  -4.378  0.00  0.00    -0.005 A 
ATOM      6  C5  UNL d   1      -1.066  -4.217  -3.886  0.00  0.00     0.003 A 
ATOM      7  C6  UNL d   1      -0.213  -5.107  -3.232  0.00  0.00    -0.001 A 
ENDROOT
TORSDOF 0
ENDMDL
