MODEL 1
REMARK minimizedAffinity -0.812704027
REMARK minimizedRMSD -1
REMARK  0 active torsions:
REMARK  status: ('A' for Active; 'I' for Inactive)
ROOT
ATOM      1  C   UNL d   1      -3.596   0.868   0.825  0.00  0.00     0.078 C 
ATOM      2  C1  UNL d   1      -2.240   0.766   1.457  0.00  0.00    -0.077 A 
ATOM      3  C2  UNL d   1      -1.886   1.580   2.540  0.00  0.00    -0.001 A 
ATOM      4  C3  UNL d   1      -0.617   1.482   3.113  0.00  0.00     0.003 A 
ATOM      5  C4  UNL d   1       0.309   0.571   2.609  0.00  0.00    -0.005 A 
ATOM      6  C5  UNL d   1      -0.033  -0.242   1.530  0.00  0.00     0.003 A 
ATOM      7  C6  UNL d   1      -1.302  -0.145   0.956  0.00  0.00    -0.001 A 
ENDROOT
TORSDOF 0
ENDMDL
