MODEL 1
REMARK minimizedAffinity 0.0987831578
REMARK minimizedRMSD -1
REMARK  0 active torsions:
REMARK  status: ('A' for Active; 'I' for Inactive)
ROOT
ATOM      1  C   UNL d   1       0.079  -0.265  -5.252  0.00  0.00     0.078 C 
ATOM      2  C1  UNL d   1      -0.228  -1.732  -5.209  0.00  0.00    -0.077 A 
ATOM      3  C2  UNL d   1       0.550  -2.653  -5.920  0.00  0.00    -0.001 A 
ATOM      4  C3  UNL d   1       0.246  -4.015  -5.878  0.00  0.00     0.003 A 
ATOM      5  C4  UNL d   1      -0.837  -4.468  -5.127  0.00  0.00    -0.005 A 
ATOM      6  C5  UNL d   1      -1.618  -3.558  -4.417  0.00  0.00     0.003 A 
ATOM      7  C6  UNL d   1      -1.316  -2.196  -4.458  0.00  0.00    -0.001 A 
ENDROOT
TORSDOF 0
ENDMDL
