MODEL 1
REMARK minimizedAffinity -3.99823093
REMARK minimizedRMSD -1
REMARK  0 active torsions:
REMARK  status: ('A' for Active; 'I' for Inactive)
ROOT
ATOM      1  C   UNL d   1      -0.099  -0.042   2.920  0.00  0.00     0.078 C 
ATOM      2  C1  UNL d   1      -1.130   0.159   1.851  0.00  0.00    -0.077 A 
ATOM      3  C2  UNL d   1      -1.997   1.259   1.882  0.00  0.00    -0.001 A 
ATOM      4  C3  UNL d   1      -2.959   1.428   0.885  0.00  0.00     0.003 A 
ATOM      5  C4  UNL d   1      -3.064   0.502  -0.150  0.00  0.00    -0.005 A 
ATOM      6  C5  UNL d   1      -2.208  -0.597  -0.188  0.00  0.00     0.003 A 
ATOM      7  C6  UNL d   1      -1.246  -0.768   0.808  0.00  0.00    -0.001 A 
ENDROOT
TORSDOF 0
ENDMDL
