MODEL 1
REMARK minimizedAffinity 5.05624056
REMARK minimizedRMSD -1
REMARK  0 active torsions:
REMARK  status: ('A' for Active; 'I' for Inactive)
ROOT
ATOM      1  C   UNL d   1       0.253   0.646  -0.807  0.00  0.00     0.172 C 
ATOM      2  N   UNL d   1       0.146   1.883  -0.071  0.00  0.00    -0.070 N 
ATOM      3  C1  UNL d   1       0.337   2.028   1.278  0.00  0.00    -0.004 A 
ATOM      4  C2  UNL d   1       0.146   3.357   1.590  0.00  0.00    -0.047 A 
ATOM      5  C3  UNL d   1      -0.172   4.033   0.389  0.00  0.00    -0.047 A 
ATOM      6  C4  UNL d   1      -0.165   3.097  -0.624  0.00  0.00    -0.004 A 
ENDROOT
TORSDOF 0
ENDMDL
