MODEL 1
REMARK minimizedAffinity -1.07852781
REMARK minimizedRMSD -1
REMARK  0 active torsions:
REMARK  status: ('A' for Active; 'I' for Inactive)
ROOT
ATOM      1  C   UNL d   1      -3.729   1.613  -5.630  0.00  0.00     0.172 C 
ATOM      2  N   UNL d   1      -4.500   2.779  -5.267  0.00  0.00    -0.070 N 
ATOM      3  C1  UNL d   1      -5.527   3.315  -5.997  0.00  0.00    -0.004 A 
ATOM      4  C2  UNL d   1      -6.000   4.415  -5.315  0.00  0.00    -0.047 A 
ATOM      5  C3  UNL d   1      -5.230   4.545  -4.135  0.00  0.00    -0.047 A 
ATOM      6  C4  UNL d   1      -4.309   3.519  -4.131  0.00  0.00    -0.004 A 
ENDROOT
TORSDOF 0
ENDMDL
