MODEL 1
REMARK minimizedAffinity 7.11273718
REMARK minimizedRMSD -1
REMARK  0 active torsions:
REMARK  status: ('A' for Active; 'I' for Inactive)
ROOT
ATOM      1  C   UNL d   1       0.238  -0.494   4.801  0.00  0.00     0.172 C 
ATOM      2  N   UNL d   1      -0.140   0.565   3.895  0.00  0.00    -0.070 N 
ATOM      3  C1  UNL d   1      -1.420   0.975   3.635  0.00  0.00    -0.004 A 
ATOM      4  C2  UNL d   1      -1.356   2.005   2.722  0.00  0.00    -0.047 A 
ATOM      5  C3  UNL d   1       0.010   2.221   2.422  0.00  0.00    -0.047 A 
ATOM      6  C4  UNL d   1       0.741   1.317   3.162  0.00  0.00    -0.004 A 
ENDROOT
TORSDOF 0
ENDMDL
