MODEL 1
REMARK minimizedAffinity 3.06368613
REMARK minimizedRMSD -1
REMARK  0 active torsions:
REMARK  status: ('A' for Active; 'I' for Inactive)
ROOT
ATOM      1  C   UNL d   1      -1.732   6.000   2.081  0.00  0.00     0.172 C 
ATOM      2  N   UNL d   1      -0.900   5.316   1.119  0.00  0.00    -0.070 N 
ATOM      3  C1  UNL d   1      -0.359   4.068   1.275  0.00  0.00    -0.004 A 
ATOM      4  C2  UNL d   1       0.366   3.777   0.140  0.00  0.00    -0.047 A 
ATOM      5  C3  UNL d   1       0.258   4.889  -0.728  0.00  0.00    -0.047 A 
ATOM      6  C4  UNL d   1      -0.532   5.827  -0.098  0.00  0.00    -0.004 A 
ENDROOT
TORSDOF 0
ENDMDL
