MODEL 1
REMARK minimizedAffinity 2.55332017
REMARK minimizedRMSD -1
REMARK  0 active torsions:
REMARK  status: ('A' for Active; 'I' for Inactive)
ROOT
ATOM      1  C   UNL d   1       0.372   3.114   1.449  0.00  0.00     0.172 C 
ATOM      2  N   UNL d   1       0.393   4.213   0.512  0.00  0.00    -0.070 N 
ATOM      3  C1  UNL d   1       1.418   5.107   0.353  0.00  0.00    -0.004 A 
ATOM      4  C2  UNL d   1       1.053   5.996  -0.635  0.00  0.00    -0.047 A 
ATOM      5  C3  UNL d   1      -0.236   5.623  -1.085  0.00  0.00    -0.047 A 
ATOM      6  C4  UNL d   1      -0.620   4.516  -0.358  0.00  0.00    -0.004 A 
ENDROOT
TORSDOF 0
ENDMDL
