MODEL 1
REMARK minimizedAffinity 4.63094473
REMARK minimizedRMSD -1
REMARK  0 active torsions:
REMARK  status: ('A' for Active; 'I' for Inactive)
ROOT
ATOM      1  C   UNL d   1       0.387   2.552   0.725  0.00  0.00     0.172 C 
ATOM      2  N   UNL d   1       0.141   3.935   0.389  0.00  0.00    -0.070 N 
ATOM      3  C1  UNL d   1      -0.734   4.769   1.031  0.00  0.00    -0.004 A 
ATOM      4  C2  UNL d   1      -0.677   5.999   0.411  0.00  0.00    -0.047 A 
ATOM      5  C3  UNL d   1       0.265   5.900  -0.640  0.00  0.00    -0.047 A 
ATOM      6  C4  UNL d   1       0.756   4.612  -0.631  0.00  0.00    -0.004 A 
ENDROOT
TORSDOF 0
ENDMDL
