MODEL 1
REMARK minimizedAffinity 9.02777195
REMARK minimizedRMSD -1
REMARK  0 active torsions:
REMARK  status: ('A' for Active; 'I' for Inactive)
ROOT
ATOM      1  C   UNL d   1       0.689   3.173   1.783  0.00  0.00     0.172 C 
ATOM      2  N   UNL d   1       0.391   4.112   0.727  0.00  0.00    -0.070 N 
ATOM      3  C1  UNL d   1       0.386   3.830  -0.613  0.00  0.00    -0.004 A 
ATOM      4  C2  UNL d   1       0.054   4.986  -1.286  0.00  0.00    -0.047 A 
ATOM      5  C3  UNL d   1      -0.147   5.998  -0.316  0.00  0.00    -0.047 A 
ATOM      6  C4  UNL d   1       0.068   5.429   0.921  0.00  0.00    -0.004 A 
ENDROOT
TORSDOF 0
ENDMDL
