MODEL 1
REMARK minimizedAffinity 3.85352945
REMARK minimizedRMSD -1
REMARK  0 active torsions:
REMARK  status: ('A' for Active; 'I' for Inactive)
ROOT
ATOM      1  C   UNL d   1      -2.556  -5.942  -2.975  0.00  0.00     0.172 C 
ATOM      2  N   UNL d   1      -3.596  -5.956  -3.976  0.00  0.00    -0.070 N 
ATOM      3  C1  UNL d   1      -3.400  -5.931  -5.331  0.00  0.00    -0.004 A 
ATOM      4  C2  UNL d   1      -4.637  -5.957  -5.937  0.00  0.00    -0.047 A 
ATOM      5  C3  UNL d   1      -5.611  -6.000  -4.911  0.00  0.00    -0.047 A 
ATOM      6  C4  UNL d   1      -4.939  -5.998  -3.707  0.00  0.00    -0.004 A 
ENDROOT
TORSDOF 0
ENDMDL
