MODEL 1
REMARK minimizedAffinity 7.55432796
REMARK minimizedRMSD -1
REMARK  0 active torsions:
REMARK  status: ('A' for Active; 'I' for Inactive)
ROOT
ATOM      1  C   UNL d   1       1.304   0.268  -0.611  0.00  0.00     0.172 C 
ATOM      2  N   UNL d   1       0.004  -0.002  -1.179  0.00  0.00    -0.070 N 
ATOM      3  C1  UNL d   1      -1.199   0.227  -0.566  0.00  0.00    -0.004 A 
ATOM      4  C2  UNL d   1      -2.196  -0.162  -1.434  0.00  0.00    -0.047 A 
ATOM      5  C3  UNL d   1      -1.571  -0.643  -2.609  0.00  0.00    -0.047 A 
ATOM      6  C4  UNL d   1      -0.209  -0.533  -2.424  0.00  0.00    -0.004 A 
ENDROOT
TORSDOF 0
ENDMDL
