MODEL 1
REMARK minimizedAffinity 3.85936737
REMARK minimizedRMSD -1
REMARK  0 active torsions:
REMARK  status: ('A' for Active; 'I' for Inactive)
ROOT
ATOM      1  C   UNL d   1       2.224   4.199   2.511  0.00  0.00     0.172 C 
ATOM      2  N   UNL d   1       1.408   4.117   1.323  0.00  0.00    -0.070 N 
ATOM      3  C1  UNL d   1       0.342   3.277   1.142  0.00  0.00    -0.004 A 
ATOM      4  C2  UNL d   1      -0.166   3.504  -0.119  0.00  0.00    -0.047 A 
ATOM      5  C3  UNL d   1       0.623   4.515  -0.717  0.00  0.00    -0.047 A 
ATOM      6  C4  UNL d   1       1.590   4.876   0.197  0.00  0.00    -0.004 A 
ENDROOT
TORSDOF 0
ENDMDL
