MODEL 1
REMARK minimizedAffinity 6.52378893
REMARK minimizedRMSD -1
REMARK  0 active torsions:
REMARK  status: ('A' for Active; 'I' for Inactive)
ROOT
ATOM      1  C   UNL d   1       0.552   2.685   0.652  0.00  0.00     0.172 C 
ATOM      2  N   UNL d   1       0.328   1.395   0.042  0.00  0.00    -0.070 N 
ATOM      3  C1  UNL d   1      -0.891   0.876  -0.303  0.00  0.00    -0.004 A 
ATOM      4  C2  UNL d   1      -0.679  -0.368  -0.856  0.00  0.00    -0.047 A 
ATOM      5  C3  UNL d   1       0.716  -0.606  -0.842  0.00  0.00    -0.047 A 
ATOM      6  C4  UNL d   1       1.315   0.502  -0.281  0.00  0.00    -0.004 A 
ENDROOT
TORSDOF 0
ENDMDL
