MODEL 1
REMARK minimizedAffinity 3.67133284
REMARK minimizedRMSD -1
REMARK  0 active torsions:
REMARK  status: ('A' for Active; 'I' for Inactive)
ROOT
ATOM      1  C   UNL d   1       0.379   3.085   1.291  0.00  0.00     0.172 C 
ATOM      2  N   UNL d   1       0.363   4.269   0.465  0.00  0.00    -0.070 N 
ATOM      3  C1  UNL d   1      -0.758   4.922   0.028  0.00  0.00    -0.004 A 
ATOM      4  C2  UNL d   1      -0.351   5.999  -0.730  0.00  0.00    -0.047 A 
ATOM      5  C3  UNL d   1       1.064   5.993  -0.749  0.00  0.00    -0.047 A 
ATOM      6  C4  UNL d   1       1.480   4.911  -0.002  0.00  0.00    -0.004 A 
ENDROOT
TORSDOF 0
ENDMDL
