MODEL 1
REMARK minimizedAffinity 5.58535957
REMARK minimizedRMSD -1
REMARK  0 active torsions:
REMARK  status: ('A' for Active; 'I' for Inactive)
ROOT
ATOM      1  C   UNL d   1      -1.258  -1.170  -3.602  0.00  0.00     0.172 C 
ATOM      2  N   UNL d   1      -0.995  -0.529  -2.335  0.00  0.00    -0.070 N 
ATOM      3  C1  UNL d   1       0.230  -0.109  -1.892  0.00  0.00    -0.004 A 
ATOM      4  C2  UNL d   1       0.059   0.449  -0.643  0.00  0.00    -0.047 A 
ATOM      5  C3  UNL d   1      -1.317   0.360  -0.325  0.00  0.00    -0.047 A 
ATOM      6  C4  UNL d   1      -1.946  -0.249  -1.389  0.00  0.00    -0.004 A 
ENDROOT
TORSDOF 0
ENDMDL
