MODEL 1
REMARK minimizedAffinity 11.9460278
REMARK minimizedRMSD -1
REMARK  1 active torsions:
REMARK  status: ('A' for Active; 'I' for Inactive)
REMARK    1  A    between atoms: N_2  and  C1_3 
ROOT
ATOM      1  C1  UNL d   1      -0.112  -0.345   4.029  0.00  0.00     0.143 A 
ATOM      2  C2  UNL d   1       1.081  -1.048   4.228  0.00  0.00    -0.057 A 
ATOM      3  C3  UNL d   1       1.513  -2.018   3.315  0.00  0.00     0.033 A 
ATOM      4  C4  UNL d   1       0.741  -2.323   2.198  0.00  0.00    -0.042 A 
ATOM      5  C5  UNL d   1      -0.461  -1.655   1.994  0.00  0.00     0.033 A 
ATOM      6  C6  UNL d   1      -0.883  -0.682   2.906  0.00  0.00    -0.057 A 
ENDROOT
BRANCH   1   7
ATOM      7  N   UNL d   1      -0.644   0.560   4.951  0.00  0.00    -0.732 N 
ATOM      8  C   UNL d   1      -1.881   1.257   4.670  0.00  0.00     0.284 C 
ATOM      9  H3  UNL d   1      -0.560   0.232   5.910  0.00  0.00     0.395 HD
ENDBRANCH   1   7
TORSDOF 1
ENDMDL
