MODEL 1
REMARK minimizedAffinity 9.48688412
REMARK minimizedRMSD -1
REMARK  1 active torsions:
REMARK  status: ('A' for Active; 'I' for Inactive)
REMARK    1  A    between atoms: N_2  and  C1_3 
ROOT
ATOM      1  C1  UNL d   1       2.375   3.846  -3.210  0.00  0.00     0.143 A 
ATOM      2  C2  UNL d   1       2.744   3.116  -4.345  0.00  0.00    -0.057 A 
ATOM      3  C3  UNL d   1       4.058   3.141  -4.828  0.00  0.00     0.033 A 
ATOM      4  C4  UNL d   1       5.022   3.922  -4.199  0.00  0.00    -0.042 A 
ATOM      5  C5  UNL d   1       4.672   4.674  -3.084  0.00  0.00     0.033 A 
ATOM      6  C6  UNL d   1       3.359   4.640  -2.602  0.00  0.00    -0.057 A 
ENDROOT
BRANCH   1   7
ATOM      7  N   UNL d   1       1.063   3.940  -2.739  0.00  0.00    -0.732 N 
ATOM      8  C   UNL d   1       0.491   5.226  -2.402  0.00  0.00     0.284 C 
ATOM      9  H3  UNL d   1       0.427   3.319  -3.234  0.00  0.00     0.395 HD
ENDBRANCH   1   7
TORSDOF 1
ENDMDL
