MODEL 1
REMARK minimizedAffinity 7.48741388
REMARK minimizedRMSD -1
REMARK  1 active torsions:
REMARK  status: ('A' for Active; 'I' for Inactive)
REMARK    1  A    between atoms: N_2  and  C1_3 
ROOT
ATOM      1  C1  UNL d   1      -3.822   1.135   4.860  0.00  0.00     0.143 A 
ATOM      2  C2  UNL d   1      -3.938   0.640   3.556  0.00  0.00    -0.057 A 
ATOM      3  C3  UNL d   1      -2.821   0.166   2.858  0.00  0.00     0.033 A 
ATOM      4  C4  UNL d   1      -1.559   0.206   3.442  0.00  0.00    -0.042 A 
ATOM      5  C5  UNL d   1      -1.416   0.717   4.727  0.00  0.00     0.033 A 
ATOM      6  C6  UNL d   1      -2.536   1.183   5.422  0.00  0.00    -0.057 A 
ENDROOT
BRANCH   1   7
ATOM      7  N   UNL d   1      -4.878   1.712   5.570  0.00  0.00    -0.732 N 
ATOM      8  C   UNL d   1      -5.998   2.305   4.872  0.00  0.00     0.284 C 
ATOM      9  H3  UNL d   1      -5.139   1.167   6.388  0.00  0.00     0.395 HD
ENDBRANCH   1   7
TORSDOF 1
ENDMDL
