MODEL 1
REMARK minimizedAffinity 12.4892282
REMARK minimizedRMSD -1
REMARK  1 active torsions:
REMARK  status: ('A' for Active; 'I' for Inactive)
REMARK    1  A    between atoms: N_2  and  C1_3 
ROOT
ATOM      1  C1  UNL d   1      -3.100  -0.529   1.399  0.00  0.00     0.143 A 
ATOM      2  C2  UNL d   1      -2.145  -1.511   1.118  0.00  0.00    -0.057 A 
ATOM      3  C3  UNL d   1      -0.878  -1.484   1.714  0.00  0.00     0.033 A 
ATOM      4  C4  UNL d   1      -0.534  -0.454   2.583  0.00  0.00    -0.042 A 
ATOM      5  C5  UNL d   1      -1.460   0.547   2.858  0.00  0.00     0.033 A 
ATOM      6  C6  UNL d   1      -2.725   0.510   2.265  0.00  0.00    -0.057 A 
ENDROOT
BRANCH   1   7
ATOM      7  N   UNL d   1      -4.341  -0.446   0.763  0.00  0.00    -0.732 N 
ATOM      8  C   UNL d   1      -4.696   0.724  -0.012  0.00  0.00     0.284 C 
ATOM      9  H3  UNL d   1      -4.618  -1.327   0.335  0.00  0.00     0.395 HD
ENDBRANCH   1   7
TORSDOF 1
ENDMDL
