MODEL 1
REMARK minimizedAffinity 12.7241564
REMARK minimizedRMSD -1
REMARK  1 active torsions:
REMARK  status: ('A' for Active; 'I' for Inactive)
REMARK    1  A    between atoms: N_2  and  C1_3 
ROOT
ATOM      1  C1  UNL d   1       2.794   5.071  -2.026  0.00  0.00     0.143 A 
ATOM      2  C2  UNL d   1       1.532   5.638  -1.822  0.00  0.00    -0.057 A 
ATOM      3  C3  UNL d   1       0.364   4.877  -1.959  0.00  0.00     0.033 A 
ATOM      4  C4  UNL d   1       0.438   3.539  -2.331  0.00  0.00    -0.042 A 
ATOM      5  C5  UNL d   1       1.681   2.961  -2.563  0.00  0.00     0.033 A 
ATOM      6  C6  UNL d   1       2.844   3.724  -2.418  0.00  0.00    -0.057 A 
ENDROOT
BRANCH   1   7
ATOM      7  N   UNL d   1       3.987   5.799  -2.002  0.00  0.00    -0.732 N 
ATOM      8  C   UNL d   1       4.706   5.995  -0.761  0.00  0.00     0.284 C 
ATOM      9  H3  UNL d   1       4.583   5.594  -2.800  0.00  0.00     0.395 HD
ENDBRANCH   1   7
TORSDOF 1
ENDMDL
