MODEL 1
REMARK minimizedAffinity 8.14699841
REMARK minimizedRMSD -1
REMARK  1 active torsions:
REMARK  status: ('A' for Active; 'I' for Inactive)
REMARK    1  A    between atoms: N_2  and  C1_3 
ROOT
ATOM      1  C1  UNL d   1      -5.866   1.284  -1.625  0.00  0.00     0.143 A 
ATOM      2  C2  UNL d   1      -5.770   0.805  -0.314  0.00  0.00    -0.057 A 
ATOM      3  C3  UNL d   1      -5.751  -0.568  -0.043  0.00  0.00     0.033 A 
ATOM      4  C4  UNL d   1      -5.857  -1.490  -1.079  0.00  0.00    -0.042 A 
ATOM      5  C5  UNL d   1      -5.978  -1.036  -2.388  0.00  0.00     0.033 A 
ATOM      6  C6  UNL d   1      -5.990   0.337  -2.653  0.00  0.00    -0.057 A 
ENDROOT
BRANCH   1   7
ATOM      7  N   UNL d   1      -5.989   2.637  -1.952  0.00  0.00    -0.732 N 
ATOM      8  C   UNL d   1      -5.643   3.662  -0.991  0.00  0.00     0.284 C 
ATOM      9  H3  UNL d   1      -5.681   2.837  -2.901  0.00  0.00     0.395 HD
ENDBRANCH   1   7
TORSDOF 1
ENDMDL
