MODEL 1
REMARK minimizedAffinity 7.32082987
REMARK minimizedRMSD -1
REMARK  1 active torsions:
REMARK  status: ('A' for Active; 'I' for Inactive)
REMARK    1  A    between atoms: N_2  and  C1_3 
ROOT
ATOM      1  C1  UNL d   1      -0.519   4.389  -3.415  0.00  0.00     0.143 A 
ATOM      2  C2  UNL d   1       0.043   3.110  -3.491  0.00  0.00    -0.057 A 
ATOM      3  C3  UNL d   1       1.235   2.800  -2.826  0.00  0.00     0.033 A 
ATOM      4  C4  UNL d   1       1.904   3.775  -2.094  0.00  0.00    -0.042 A 
ATOM      5  C5  UNL d   1       1.378   5.060  -2.025  0.00  0.00     0.033 A 
ATOM      6  C6  UNL d   1       0.183   5.362  -2.686  0.00  0.00    -0.057 A 
ENDROOT
BRANCH   1   7
ATOM      7  N   UNL d   1      -1.649   4.786  -4.134  0.00  0.00    -0.732 N 
ATOM      8  C   UNL d   1      -1.603   4.900  -5.576  0.00  0.00     0.284 C 
ATOM      9  H3  UNL d   1      -2.504   4.365  -3.778  0.00  0.00     0.395 HD
ENDBRANCH   1   7
TORSDOF 1
ENDMDL
