MODEL 1
REMARK minimizedAffinity 9.4971447
REMARK minimizedRMSD -1
REMARK  1 active torsions:
REMARK  status: ('A' for Active; 'I' for Inactive)
REMARK    1  A    between atoms: N_2  and  C1_3 
ROOT
ATOM      1  C1  UNL d   1      -1.542   4.510  -3.378  0.00  0.00     0.143 A 
ATOM      2  C2  UNL d   1      -0.206   4.236  -3.067  0.00  0.00    -0.057 A 
ATOM      3  C3  UNL d   1       0.212   4.074  -1.740  0.00  0.00     0.033 A 
ATOM      4  C4  UNL d   1      -0.697   4.213  -0.696  0.00  0.00    -0.042 A 
ATOM      5  C5  UNL d   1      -2.025   4.511  -0.981  0.00  0.00     0.033 A 
ATOM      6  C6  UNL d   1      -2.438   4.665  -2.308  0.00  0.00    -0.057 A 
ENDROOT
BRANCH   1   7
ATOM      7  N   UNL d   1      -2.001   4.779  -4.670  0.00  0.00    -0.732 N 
ATOM      8  C   UNL d   1      -1.341   5.768  -5.495  0.00  0.00     0.284 C 
ATOM      9  H3  UNL d   1      -2.272   3.935  -5.169  0.00  0.00     0.395 HD
ENDBRANCH   1   7
TORSDOF 1
ENDMDL
