MODEL 1
REMARK minimizedAffinity 12.3443365
REMARK minimizedRMSD -1
REMARK  1 active torsions:
REMARK  status: ('A' for Active; 'I' for Inactive)
REMARK    1  A    between atoms: N_2  and  C1_3 
ROOT
ATOM      1  C1  UNL d   1       3.497   3.720  -3.456  0.00  0.00     0.143 A 
ATOM      2  C2  UNL d   1       4.089   4.537  -2.487  0.00  0.00    -0.057 A 
ATOM      3  C3  UNL d   1       5.320   5.163  -2.719  0.00  0.00     0.033 A 
ATOM      4  C4  UNL d   1       5.996   4.959  -3.917  0.00  0.00    -0.042 A 
ATOM      5  C5  UNL d   1       5.438   4.131  -4.885  0.00  0.00     0.033 A 
ATOM      6  C6  UNL d   1       4.205   3.514  -4.650  0.00  0.00    -0.057 A 
ENDROOT
BRANCH   1   7
ATOM      7  N   UNL d   1       2.323   2.992  -3.247  0.00  0.00    -0.732 N 
ATOM      8  C   UNL d   1       2.182   2.137  -2.088  0.00  0.00     0.284 C 
ATOM      9  H3  UNL d   1       1.488   3.528  -3.472  0.00  0.00     0.395 HD
ENDBRANCH   1   7
TORSDOF 1
ENDMDL
