MODEL 1
REMARK minimizedAffinity 6.17268133
REMARK minimizedRMSD -1
REMARK  1 active torsions:
REMARK  status: ('A' for Active; 'I' for Inactive)
REMARK    1  A    between atoms: N_2  and  C1_3 
ROOT
ATOM      1  C1  UNL d   1      -5.723  -0.349  -1.945  0.00  0.00     0.143 A 
ATOM      2  C2  UNL d   1      -5.836   1.030  -2.151  0.00  0.00    -0.057 A 
ATOM      3  C3  UNL d   1      -5.645   1.939  -1.103  0.00  0.00     0.033 A 
ATOM      4  C4  UNL d   1      -5.364   1.481   0.180  0.00  0.00    -0.042 A 
ATOM      5  C5  UNL d   1      -5.271   0.113   0.413  0.00  0.00     0.033 A 
ATOM      6  C6  UNL d   1      -5.456  -0.789  -0.639  0.00  0.00    -0.057 A 
ENDROOT
BRANCH   1   7
ATOM      7  N   UNL d   1      -5.998  -1.307  -2.924  0.00  0.00    -0.732 N 
ATOM      8  C   UNL d   1      -5.998  -0.949  -4.326  0.00  0.00     0.284 C 
ATOM      9  H3  UNL d   1      -5.562  -2.204  -2.724  0.00  0.00     0.395 HD
ENDBRANCH   1   7
TORSDOF 1
ENDMDL
