MODEL 1
REMARK minimizedAffinity 12.3336086
REMARK minimizedRMSD -1
REMARK  2 active torsions:
REMARK  status: ('A' for Active; 'I' for Inactive)
REMARK    1  A    between atoms: C1_2  and  C2_3 
REMARK    2  A    between atoms: C2_3  and  C3_4 
ROOT
ATOM      1  C3  UNL d   1       5.036   3.361  -1.162  0.00  0.00    -0.075 A 
ATOM      2  C4  UNL d   1       5.585   4.140  -2.191  0.00  0.00     0.002 A 
ATOM      3  C5  UNL d   1       5.999   5.449  -1.944  0.00  0.00     0.002 A 
ATOM      4  C6  UNL d   1       5.860   5.999  -0.672  0.00  0.00    -0.004 A 
ATOM      5  C7  UNL d   1       5.301   5.240   0.354  0.00  0.00     0.002 A 
ATOM      6  C8  UNL d   1       4.890   3.928   0.111  0.00  0.00     0.002 A 
ENDROOT
BRANCH   1   7
ATOM      7  C2  UNL d   1       4.613   1.934  -1.414  0.00  0.00     0.056 C 
BRANCH   7   8
ATOM      8  C1  UNL d   1       4.675   1.036  -0.174  0.00  0.00     0.007 C 
ATOM      9  C   UNL d   1       3.773  -0.187  -0.273  0.00  0.00     0.009 C 
ENDBRANCH   7   8
ENDBRANCH   1   7
TORSDOF 2
ENDMDL
