MODEL 1
REMARK minimizedAffinity 10.8766651
REMARK minimizedRMSD -1
REMARK  2 active torsions:
REMARK  status: ('A' for Active; 'I' for Inactive)
REMARK    1  A    between atoms: C1_2  and  C2_3 
REMARK    2  A    between atoms: C2_3  and  C3_4 
ROOT
ATOM      1  C3  UNL d   1       3.594  -1.957  -0.425  0.00  0.00    -0.075 A 
ATOM      2  C4  UNL d   1       3.568  -0.683  -1.012  0.00  0.00     0.002 A 
ATOM      3  C5  UNL d   1       4.503   0.285  -0.645  0.00  0.00     0.002 A 
ATOM      4  C6  UNL d   1       5.467  -0.004   0.318  0.00  0.00    -0.004 A 
ATOM      5  C7  UNL d   1       5.492  -1.260   0.920  0.00  0.00     0.002 A 
ATOM      6  C8  UNL d   1       4.560  -2.232   0.551  0.00  0.00     0.002 A 
ENDROOT
BRANCH   1   7
ATOM      7  C2  UNL d   1       2.603  -3.018  -0.839  0.00  0.00     0.056 C 
BRANCH   7   8
ATOM      8  C1  UNL d   1       2.253  -2.997  -2.331  0.00  0.00     0.007 C 
ATOM      9  C   UNL d   1       3.248  -3.764  -3.192  0.00  0.00     0.009 C 
ENDBRANCH   7   8
ENDBRANCH   1   7
TORSDOF 2
ENDMDL
