MODEL 1
REMARK minimizedAffinity 13.4395676
REMARK minimizedRMSD -1
REMARK  2 active torsions:
REMARK  status: ('A' for Active; 'I' for Inactive)
REMARK    1  A    between atoms: C1_2  and  C2_3 
REMARK    2  A    between atoms: C2_3  and  C3_4 
ROOT
ATOM      1  C3  UNL d   1       1.214  -3.219   3.708  0.00  0.00    -0.075 A 
ATOM      2  C4  UNL d   1      -0.075  -3.740   3.890  0.00  0.00     0.002 A 
ATOM      3  C5  UNL d   1      -0.304  -4.754   4.821  0.00  0.00     0.002 A 
ATOM      4  C6  UNL d   1       0.752  -5.266   5.572  0.00  0.00    -0.004 A 
ATOM      5  C7  UNL d   1       2.039  -4.767   5.387  0.00  0.00     0.002 A 
ATOM      6  C8  UNL d   1       2.270  -3.749   4.460  0.00  0.00     0.002 A 
ENDROOT
BRANCH   1   7
ATOM      7  C2  UNL d   1       1.463  -2.101   2.724  0.00  0.00     0.056 C 
BRANCH   7   8
ATOM      8  C1  UNL d   1       1.458  -0.703   3.354  0.00  0.00     0.007 C 
ATOM      9  C   UNL d   1       1.158   0.405   2.353  0.00  0.00     0.009 C 
ENDBRANCH   7   8
ENDBRANCH   1   7
TORSDOF 2
ENDMDL
