MODEL 1
REMARK minimizedAffinity 5.96136045
REMARK minimizedRMSD -1
REMARK  2 active torsions:
REMARK  status: ('A' for Active; 'I' for Inactive)
REMARK    1  A    between atoms: C1_2  and  C2_3 
REMARK    2  A    between atoms: C2_3  and  C3_4 
ROOT
ATOM      1  C3  UNL d   1       5.635   3.269  -1.185  0.00  0.00    -0.075 A 
ATOM      2  C4  UNL d   1       5.796   4.204  -2.218  0.00  0.00     0.002 A 
ATOM      3  C5  UNL d   1       5.982   5.556  -1.927  0.00  0.00     0.002 A 
ATOM      4  C6  UNL d   1       5.999   5.991  -0.603  0.00  0.00    -0.004 A 
ATOM      5  C7  UNL d   1       5.824   5.073   0.430  0.00  0.00     0.002 A 
ATOM      6  C8  UNL d   1       5.642   3.719   0.142  0.00  0.00     0.002 A 
ENDROOT
BRANCH   1   7
ATOM      7  C2  UNL d   1       5.463   1.801  -1.492  0.00  0.00     0.056 C 
BRANCH   7   8
ATOM      8  C1  UNL d   1       4.846   0.992  -0.346  0.00  0.00     0.007 C 
ATOM      9  C   UNL d   1       3.509   0.360  -0.709  0.00  0.00     0.009 C 
ENDBRANCH   7   8
ENDBRANCH   1   7
TORSDOF 2
ENDMDL
