MODEL 1
REMARK minimizedAffinity 11.5756378
REMARK minimizedRMSD -1
REMARK  2 active torsions:
REMARK  status: ('A' for Active; 'I' for Inactive)
REMARK    1  A    between atoms: C1_2  and  C2_3 
REMARK    2  A    between atoms: C2_3  and  C3_4 
ROOT
ATOM      1  C3  UNL d   1      -2.457   0.438  -3.867  0.00  0.00    -0.075 A 
ATOM      2  C4  UNL d   1      -2.296   1.288  -4.971  0.00  0.00     0.002 A 
ATOM      3  C5  UNL d   1      -3.397   1.669  -5.738  0.00  0.00     0.002 A 
ATOM      4  C6  UNL d   1      -4.669   1.198  -5.419  0.00  0.00    -0.004 A 
ATOM      5  C7  UNL d   1      -4.838   0.339  -4.335  0.00  0.00     0.002 A 
ATOM      6  C8  UNL d   1      -3.739  -0.040  -3.563  0.00  0.00     0.002 A 
ENDROOT
BRANCH   1   7
ATOM      7  C2  UNL d   1      -1.274   0.045  -3.015  0.00  0.00     0.056 C 
BRANCH   7   8
ATOM      8  C1  UNL d   1      -1.299   0.638  -1.602  0.00  0.00     0.007 C 
ATOM      9  C   UNL d   1       0.090   0.844  -1.012  0.00  0.00     0.009 C 
ENDBRANCH   7   8
ENDBRANCH   1   7
TORSDOF 2
ENDMDL
