MODEL 1
REMARK minimizedAffinity 7.12601328
REMARK minimizedRMSD -1
REMARK  2 active torsions:
REMARK  status: ('A' for Active; 'I' for Inactive)
REMARK    1  A    between atoms: C1_2  and  C2_3 
REMARK    2  A    between atoms: C2_3  and  C3_4 
ROOT
ATOM      1  C3  UNL d   1       3.743  -1.054  -2.317  0.00  0.00    -0.075 A 
ATOM      2  C4  UNL d   1       4.680  -0.012  -2.252  0.00  0.00     0.002 A 
ATOM      3  C5  UNL d   1       4.882   0.686  -1.061  0.00  0.00     0.002 A 
ATOM      4  C6  UNL d   1       4.145   0.359   0.075  0.00  0.00    -0.004 A 
ATOM      5  C7  UNL d   1       3.201  -0.664   0.018  0.00  0.00     0.002 A 
ATOM      6  C8  UNL d   1       2.999  -1.367  -1.171  0.00  0.00     0.002 A 
ENDROOT
BRANCH   1   7
ATOM      7  C2  UNL d   1       3.541  -1.833  -3.594  0.00  0.00     0.056 C 
BRANCH   7   8
ATOM      8  C1  UNL d   1       4.627  -2.879  -3.866  0.00  0.00     0.007 C 
ATOM      9  C   UNL d   1       5.999  -2.268  -4.118  0.00  0.00     0.009 C 
ENDBRANCH   7   8
ENDBRANCH   1   7
TORSDOF 2
ENDMDL
