MODEL 1
REMARK minimizedAffinity -1.60119438
REMARK minimizedRMSD -1
REMARK  0 active torsions:
REMARK  status: ('A' for Active; 'I' for Inactive)
ROOT
ATOM      1  C   UNL d   1       2.038  -1.694  -0.508  0.00  0.00    -0.002 A 
ATOM      2  C1  UNL d   1       2.730  -0.689  -1.170  0.00  0.00     0.010 A 
ATOM      3  C2  UNL d   1       2.079   0.483  -1.561  0.00  0.00     0.041 A 
ATOM      4  C3  UNL d   1       0.708   0.630  -1.271  0.00  0.00    -0.075 A 
ATOM      5  S   UNL d   1      -0.296   1.979  -1.653  0.00  0.00     0.015 SA
ATOM      6  C4  UNL d   1      -1.666   1.254  -0.946  0.00  0.00     0.022 A 
ATOM      7  C5  UNL d   1      -1.383   0.013  -0.427  0.00  0.00     0.026 A 
ATOM      8  C6  UNL d   1      -0.010  -0.367  -0.605  0.00  0.00    -0.082 A 
ATOM      9  C7  UNL d   1       0.678  -1.544  -0.222  0.00  0.00     0.045 A 
ENDROOT
TORSDOF 0
ENDMDL
