MODEL 1
REMARK minimizedAffinity 3.41949606
REMARK minimizedRMSD -1
REMARK  0 active torsions:
REMARK  status: ('A' for Active; 'I' for Inactive)
ROOT
ATOM      1  C   UNL d   1       1.908   0.306  -2.068  0.00  0.00    -0.002 A 
ATOM      2  C1  UNL d   1       2.240  -1.029  -1.889  0.00  0.00     0.010 A 
ATOM      3  C2  UNL d   1       1.554  -1.814  -0.960  0.00  0.00     0.041 A 
ATOM      4  C3  UNL d   1       0.517  -1.228  -0.207  0.00  0.00    -0.075 A 
ATOM      5  S   UNL d   1      -0.462  -1.995   0.987  0.00  0.00     0.015 SA
ATOM      6  C4  UNL d   1      -1.345  -0.568   1.287  0.00  0.00     0.022 A 
ATOM      7  C5  UNL d   1      -0.916   0.477   0.504  0.00  0.00     0.026 A 
ATOM      8  C6  UNL d   1       0.163   0.114  -0.370  0.00  0.00    -0.082 A 
ATOM      9  C7  UNL d   1       0.879   0.883  -1.320  0.00  0.00     0.045 A 
ENDROOT
TORSDOF 0
ENDMDL
