MODEL 1
REMARK minimizedAffinity -4.06473684
REMARK minimizedRMSD -1
REMARK  0 active torsions:
REMARK  status: ('A' for Active; 'I' for Inactive)
ROOT
ATOM      1  C   UNL d   1       2.702  -1.157  -1.189  0.00  0.00    -0.002 A 
ATOM      2  C1  UNL d   1       2.891   0.213  -1.306  0.00  0.00     0.010 A 
ATOM      3  C2  UNL d   1       1.857   1.101  -1.004  0.00  0.00     0.041 A 
ATOM      4  C3  UNL d   1       0.618   0.585  -0.576  0.00  0.00    -0.075 A 
ATOM      5  S   UNL d   1      -0.791   1.482  -0.149  0.00  0.00     0.015 SA
ATOM      6  C4  UNL d   1      -1.677   0.069   0.199  0.00  0.00     0.022 A 
ATOM      7  C5  UNL d   1      -0.931  -1.069  -0.000  0.00  0.00     0.026 A 
ATOM      8  C6  UNL d   1       0.404  -0.791  -0.449  0.00  0.00    -0.082 A 
ATOM      9  C7  UNL d   1       1.471  -1.665  -0.764  0.00  0.00     0.045 A 
ENDROOT
TORSDOF 0
ENDMDL
