MODEL 1
REMARK minimizedAffinity -3.89456701
REMARK minimizedRMSD -1
REMARK  0 active torsions:
REMARK  status: ('A' for Active; 'I' for Inactive)
ROOT
ATOM      1  C   UNL d   1       2.206  -1.490  -0.928  0.00  0.00    -0.002 A 
ATOM      2  C1  UNL d   1       1.219  -1.867  -0.028  0.00  0.00     0.010 A 
ATOM      3  C2  UNL d   1       0.047  -1.119   0.094  0.00  0.00     0.041 A 
ATOM      4  C3  UNL d   1      -0.120   0.024  -0.713  0.00  0.00    -0.075 A 
ATOM      5  S   UNL d   1      -1.473   1.092  -0.735  0.00  0.00     0.015 SA
ATOM      6  C4  UNL d   1      -0.774   2.073  -1.941  0.00  0.00     0.022 A 
ATOM      7  C5  UNL d   1       0.462   1.611  -2.328  0.00  0.00     0.026 A 
ATOM      8  C6  UNL d   1       0.859   0.423  -1.627  0.00  0.00    -0.082 A 
ATOM      9  C7  UNL d   1       2.037  -0.356  -1.727  0.00  0.00     0.045 A 
ENDROOT
TORSDOF 0
ENDMDL
