MODEL 1
REMARK minimizedAffinity -1.77600527
REMARK minimizedRMSD -1
REMARK  0 active torsions:
REMARK  status: ('A' for Active; 'I' for Inactive)
ROOT
ATOM      1  C   UNL d   1       2.674  -1.357  -1.946  0.00  0.00    -0.002 A 
ATOM      2  C1  UNL d   1       2.738   0.011  -2.168  0.00  0.00     0.010 A 
ATOM      3  C2  UNL d   1       1.770   0.864  -1.634  0.00  0.00     0.041 A 
ATOM      4  C3  UNL d   1       0.727   0.313  -0.863  0.00  0.00    -0.075 A 
ATOM      5  S   UNL d   1      -0.568   1.164  -0.108  0.00  0.00     0.015 SA
ATOM      6  C4  UNL d   1      -1.237  -0.269   0.528  0.00  0.00     0.022 A 
ATOM      7  C5  UNL d   1      -0.503  -1.379   0.182  0.00  0.00     0.026 A 
ATOM      8  C6  UNL d   1       0.642  -1.062  -0.625  0.00  0.00    -0.082 A 
ATOM      9  C7  UNL d   1       1.638  -1.900  -1.181  0.00  0.00     0.045 A 
ENDROOT
TORSDOF 0
ENDMDL
