MODEL 1
REMARK minimizedAffinity -2.62346435
REMARK minimizedRMSD -1
REMARK  0 active torsions:
REMARK  status: ('A' for Active; 'I' for Inactive)
ROOT
ATOM      1  C   UNL d   1      -0.409   0.640   1.127  0.00  0.00    -0.002 A 
ATOM      2  C1  UNL d   1      -1.009  -0.456   0.523  0.00  0.00     0.010 A 
ATOM      3  C2  UNL d   1      -0.312  -1.219  -0.415  0.00  0.00     0.041 A 
ATOM      4  C3  UNL d   1       1.011  -0.860  -0.739  0.00  0.00    -0.075 A 
ATOM      5  S   UNL d   1       2.058  -1.649  -1.859  0.00  0.00     0.015 SA
ATOM      6  C4  UNL d   1       3.327  -0.551  -1.561  0.00  0.00     0.022 A 
ATOM      7  C5  UNL d   1       2.977   0.401  -0.633  0.00  0.00     0.026 A 
ATOM      8  C6  UNL d   1       1.637   0.238  -0.143  0.00  0.00    -0.082 A 
ATOM      9  C7  UNL d   1       0.904   0.993   0.804  0.00  0.00     0.045 A 
ENDROOT
TORSDOF 0
ENDMDL
