MODEL 1
REMARK minimizedAffinity -0.642837346
REMARK minimizedRMSD -1
REMARK  0 active torsions:
REMARK  status: ('A' for Active; 'I' for Inactive)
ROOT
ATOM      1  C   UNL d   1      -0.827   0.720   0.424  0.00  0.00    -0.002 A 
ATOM      2  C1  UNL d   1      -1.431  -0.322  -0.266  0.00  0.00     0.010 A 
ATOM      3  C2  UNL d   1      -0.671  -1.181  -1.062  0.00  0.00     0.041 A 
ATOM      4  C3  UNL d   1       0.719  -0.976  -1.152  0.00  0.00    -0.075 A 
ATOM      5  S   UNL d   1       1.850  -1.903  -2.065  0.00  0.00     0.015 SA
ATOM      6  C4  UNL d   1       3.162  -0.939  -1.559  0.00  0.00     0.022 A 
ATOM      7  C5  UNL d   1       2.765   0.070  -0.715  0.00  0.00     0.026 A 
ATOM      8  C6  UNL d   1       1.351   0.065  -0.465  0.00  0.00    -0.082 A 
ATOM      9  C7  UNL d   1       0.553   0.920   0.332  0.00  0.00     0.045 A 
ENDROOT
TORSDOF 0
ENDMDL
