MODEL 1
REMARK minimizedAffinity -2.94334722
REMARK minimizedRMSD -1
REMARK  0 active torsions:
REMARK  status: ('A' for Active; 'I' for Inactive)
ROOT
ATOM      1  C   UNL d   1       3.040  -1.190  -1.326  0.00  0.00    -0.002 A 
ATOM      2  C1  UNL d   1       3.154   0.192  -1.370  0.00  0.00     0.010 A 
ATOM      3  C2  UNL d   1       2.111   1.005  -0.920  0.00  0.00     0.041 A 
ATOM      4  C3  UNL d   1       0.942   0.399  -0.420  0.00  0.00    -0.075 A 
ATOM      5  S   UNL d   1      -0.463   1.194   0.186  0.00  0.00     0.015 SA
ATOM      6  C4  UNL d   1      -1.246  -0.283   0.518  0.00  0.00     0.022 A 
ATOM      7  C5  UNL d   1      -0.470  -1.366   0.181  0.00  0.00     0.026 A 
ATOM      8  C6  UNL d   1       0.805  -0.991  -0.365  0.00  0.00    -0.082 A 
ATOM      9  C7  UNL d   1       1.879  -1.788  -0.829  0.00  0.00     0.045 A 
ENDROOT
TORSDOF 0
ENDMDL
