MODEL 1
REMARK minimizedAffinity -2.67946887
REMARK minimizedRMSD -1
REMARK  0 active torsions:
REMARK  status: ('A' for Active; 'I' for Inactive)
ROOT
ATOM      1  C   UNL d   1       1.851  -1.938  -0.299  0.00  0.00    -0.002 A 
ATOM      2  C1  UNL d   1       2.631  -1.122  -1.106  0.00  0.00     0.010 A 
ATOM      3  C2  UNL d   1       2.119   0.076  -1.610  0.00  0.00     0.041 A 
ATOM      4  C3  UNL d   1       0.799   0.444  -1.284  0.00  0.00    -0.075 A 
ATOM      5  S   UNL d   1      -0.038   1.865  -1.785  0.00  0.00     0.015 SA
ATOM      6  C4  UNL d   1      -1.450   1.422  -0.939  0.00  0.00     0.022 A 
ATOM      7  C5  UNL d   1      -1.304   0.222  -0.285  0.00  0.00     0.026 A 
ATOM      8  C6  UNL d   1      -0.005  -0.362  -0.472  0.00  0.00    -0.082 A 
ATOM      9  C7  UNL d   1       0.542  -1.570   0.022  0.00  0.00     0.045 A 
ENDROOT
TORSDOF 0
ENDMDL
