MODEL 1
REMARK minimizedAffinity -2.69707561
REMARK minimizedRMSD -1
REMARK  0 active torsions:
REMARK  status: ('A' for Active; 'I' for Inactive)
ROOT
ATOM      1  C   UNL d   1       2.072  -1.480  -1.116  0.00  0.00    -0.002 A 
ATOM      2  C1  UNL d   1       1.591  -2.095   0.031  0.00  0.00     0.010 A 
ATOM      3  C2  UNL d   1       0.484  -1.576   0.705  0.00  0.00     0.041 A 
ATOM      4  C3  UNL d   1      -0.139  -0.418   0.199  0.00  0.00    -0.075 A 
ATOM      5  S   UNL d   1      -1.510   0.396   0.857  0.00  0.00     0.015 SA
ATOM      6  C4  UNL d   1      -1.490   1.579  -0.371  0.00  0.00     0.022 A 
ATOM      7  C5  UNL d   1      -0.469   1.373  -1.268  0.00  0.00     0.026 A 
ATOM      8  C6  UNL d   1       0.326   0.219  -0.955  0.00  0.00    -0.082 A 
ATOM      9  C7  UNL d   1       1.451  -0.332  -1.614  0.00  0.00     0.045 A 
ENDROOT
TORSDOF 0
ENDMDL
