MODEL 1
REMARK minimizedAffinity -3.23444128
REMARK minimizedRMSD -1
REMARK  0 active torsions:
REMARK  status: ('A' for Active; 'I' for Inactive)
ROOT
ATOM      1  C   UNL d   1       2.514  -1.325  -1.103  0.00  0.00    -0.002 A 
ATOM      2  C1  UNL d   1       2.573  -0.104  -1.759  0.00  0.00     0.010 A 
ATOM      3  C2  UNL d   1       1.577   0.856  -1.565  0.00  0.00     0.041 A 
ATOM      4  C3  UNL d   1       0.512   0.565  -0.690  0.00  0.00    -0.075 A 
ATOM      5  S   UNL d   1      -0.819   1.588  -0.297  0.00  0.00     0.015 SA
ATOM      6  C4  UNL d   1      -1.496   0.429   0.753  0.00  0.00     0.022 A 
ATOM      7  C5  UNL d   1      -0.739  -0.717   0.814  0.00  0.00     0.026 A 
ATOM      8  C6  UNL d   1       0.432  -0.657  -0.016  0.00  0.00    -0.082 A 
ATOM      9  C7  UNL d   1       1.456  -1.609  -0.235  0.00  0.00     0.045 A 
ENDROOT
TORSDOF 0
ENDMDL
