MODEL 1
REMARK minimizedAffinity 5.08693027
REMARK minimizedRMSD -1
REMARK  1 active torsions:
REMARK  status: ('A' for Active; 'I' for Inactive)
REMARK    1  A    between atoms: C1_2  and  C2_3 
ROOT
ATOM      1  C2  UNL d   1       1.161   1.447   1.059  0.00  0.00    -0.077 A 
ATOM      2  C3  UNL d   1       0.727   1.190  -0.249  0.00  0.00     0.002 A 
ATOM      3  C4  UNL d   1      -0.223   2.016  -0.853  0.00  0.00     0.002 A 
ATOM      4  C5  UNL d   1      -0.743   3.107  -0.159  0.00  0.00    -0.004 A 
ATOM      5  C6  UNL d   1      -0.319   3.369   1.144  0.00  0.00     0.002 A 
ATOM      6  C7  UNL d   1       0.629   2.544   1.749  0.00  0.00     0.002 A 
ENDROOT
BRANCH   1   7
ATOM      7  C1  UNL d   1       2.221   0.587   1.694  0.00  0.00     0.055 C 
ATOM      8  C   UNL d   1       3.522   1.355   1.878  0.00  0.00     0.019 C 
ENDBRANCH   1   7
TORSDOF 1
ENDMDL
