MODEL 1
REMARK minimizedAffinity 1.28834045
REMARK minimizedRMSD -1
REMARK  1 active torsions:
REMARK  status: ('A' for Active; 'I' for Inactive)
REMARK    1  A    between atoms: C1_2  and  C2_3 
ROOT
ATOM      1  C2  UNL d   1      -1.060   1.740   0.344  0.00  0.00    -0.077 A 
ATOM      2  C3  UNL d   1      -1.339   0.656  -0.501  0.00  0.00     0.002 A 
ATOM      3  C4  UNL d   1      -0.356  -0.297  -0.773  0.00  0.00     0.002 A 
ATOM      4  C5  UNL d   1       0.909  -0.179  -0.202  0.00  0.00    -0.004 A 
ATOM      5  C6  UNL d   1       1.197   0.897   0.637  0.00  0.00     0.002 A 
ATOM      6  C7  UNL d   1       0.216   1.851   0.910  0.00  0.00     0.002 A 
ENDROOT
BRANCH   1   7
ATOM      7  C1  UNL d   1      -2.134   2.743   0.678  0.00  0.00     0.055 C 
ATOM      8  C   UNL d   1      -3.121   2.181   1.690  0.00  0.00     0.019 C 
ENDBRANCH   1   7
TORSDOF 1
ENDMDL
