MODEL 1
REMARK minimizedAffinity 1.124946
REMARK minimizedRMSD -1
REMARK  1 active torsions:
REMARK  status: ('A' for Active; 'I' for Inactive)
REMARK    1  A    between atoms: C1_2  and  C2_3 
ROOT
ATOM      1  C2  UNL d   1      -2.014   1.833   0.156  0.00  0.00    -0.077 A 
ATOM      2  C3  UNL d   1      -3.107   0.961   0.052  0.00  0.00     0.002 A 
ATOM      3  C4  UNL d   1      -4.206   1.102   0.901  0.00  0.00     0.002 A 
ATOM      4  C5  UNL d   1      -4.225   2.117   1.856  0.00  0.00    -0.004 A 
ATOM      5  C6  UNL d   1      -3.142   2.988   1.968  0.00  0.00     0.002 A 
ATOM      6  C7  UNL d   1      -2.042   2.847   1.121  0.00  0.00     0.002 A 
ENDROOT
BRANCH   1   7
ATOM      7  C1  UNL d   1      -0.849   1.712  -0.792  0.00  0.00     0.055 C 
ATOM      8  C   UNL d   1       0.351   2.506  -0.296  0.00  0.00     0.019 C 
ENDBRANCH   1   7
TORSDOF 1
ENDMDL
