MODEL 1
REMARK minimizedAffinity -3.07800412
REMARK minimizedRMSD -1
REMARK  1 active torsions:
REMARK  status: ('A' for Active; 'I' for Inactive)
REMARK    1  A    between atoms: C1_2  and  C2_3 
ROOT
ATOM      1  C2  UNL d   1      -1.438   1.873   1.288  0.00  0.00    -0.077 A 
ATOM      2  C3  UNL d   1      -2.042   1.054   0.324  0.00  0.00     0.002 A 
ATOM      3  C4  UNL d   1      -3.421   0.838   0.343  0.00  0.00     0.002 A 
ATOM      4  C5  UNL d   1      -4.208   1.442   1.322  0.00  0.00    -0.004 A 
ATOM      5  C6  UNL d   1      -3.617   2.257   2.286  0.00  0.00     0.002 A 
ATOM      6  C7  UNL d   1      -2.238   2.472   2.269  0.00  0.00     0.002 A 
ENDROOT
BRANCH   1   7
ATOM      7  C1  UNL d   1       0.043   2.146   1.239  0.00  0.00     0.055 C 
ATOM      8  C   UNL d   1       0.630   1.774  -0.114  0.00  0.00     0.019 C 
ENDBRANCH   1   7
TORSDOF 1
ENDMDL
