MODEL 1
REMARK minimizedAffinity 4.66497803
REMARK minimizedRMSD -1
REMARK  1 active torsions:
REMARK  status: ('A' for Active; 'I' for Inactive)
REMARK    1  A    between atoms: C1_2  and  C2_3 
ROOT
ATOM      1  C2  UNL d   1       2.482   0.592   0.309  0.00  0.00    -0.077 A 
ATOM      2  C3  UNL d   1       2.649  -0.416  -0.651  0.00  0.00     0.002 A 
ATOM      3  C4  UNL d   1       3.069  -1.692  -0.271  0.00  0.00     0.002 A 
ATOM      4  C5  UNL d   1       3.321  -1.973   1.070  0.00  0.00    -0.004 A 
ATOM      5  C6  UNL d   1       3.160  -0.978   2.033  0.00  0.00     0.002 A 
ATOM      6  C7  UNL d   1       2.741   0.299   1.654  0.00  0.00     0.002 A 
ENDROOT
BRANCH   1   7
ATOM      7  C1  UNL d   1       1.982   1.955  -0.092  0.00  0.00     0.055 C 
ATOM      8  C   UNL d   1       0.550   1.891  -0.603  0.00  0.00     0.019 C 
ENDBRANCH   1   7
TORSDOF 1
ENDMDL
