MODEL 1
REMARK minimizedAffinity 0.311526328
REMARK minimizedRMSD -1
REMARK  1 active torsions:
REMARK  status: ('A' for Active; 'I' for Inactive)
REMARK    1  A    between atoms: C1_2  and  C2_3 
ROOT
ATOM      1  C2  UNL d   1      -5.084   0.391  -2.279  0.00  0.00    -0.077 A 
ATOM      2  C3  UNL d   1      -5.623   1.682  -2.364  0.00  0.00     0.002 A 
ATOM      3  C4  UNL d   1      -5.717   2.329  -3.597  0.00  0.00     0.002 A 
ATOM      4  C5  UNL d   1      -5.278   1.691  -4.755  0.00  0.00    -0.004 A 
ATOM      5  C6  UNL d   1      -4.738   0.407  -4.681  0.00  0.00     0.002 A 
ATOM      6  C7  UNL d   1      -4.643  -0.240  -3.449  0.00  0.00     0.002 A 
ENDROOT
BRANCH   1   7
ATOM      7  C1  UNL d   1      -5.028  -0.328  -0.956  0.00  0.00     0.055 C 
ATOM      8  C   UNL d   1      -5.607   0.526   0.163  0.00  0.00     0.019 C 
ENDBRANCH   1   7
TORSDOF 1
ENDMDL
