MODEL 1
REMARK minimizedAffinity 2.407902
REMARK minimizedRMSD -1
REMARK  1 active torsions:
REMARK  status: ('A' for Active; 'I' for Inactive)
REMARK    1  A    between atoms: C1_2  and  C2_3 
ROOT
ATOM      1  C2  UNL d   1       0.729  -1.940  -1.839  0.00  0.00    -0.077 A 
ATOM      2  C3  UNL d   1      -0.188  -2.897  -1.382  0.00  0.00     0.002 A 
ATOM      3  C4  UNL d   1       0.040  -3.576  -0.184  0.00  0.00     0.002 A 
ATOM      4  C5  UNL d   1       1.180  -3.303   0.569  0.00  0.00    -0.004 A 
ATOM      5  C6  UNL d   1       2.099  -2.355   0.121  0.00  0.00     0.002 A 
ATOM      6  C7  UNL d   1       1.874  -1.675  -1.077  0.00  0.00     0.002 A 
ENDROOT
BRANCH   1   7
ATOM      7  C1  UNL d   1       0.461  -1.170  -3.106  0.00  0.00     0.055 C 
ATOM      8  C   UNL d   1      -0.726  -0.232  -2.944  0.00  0.00     0.019 C 
ENDBRANCH   1   7
TORSDOF 1
ENDMDL
