MODEL 1
REMARK minimizedAffinity 3.25444961
REMARK minimizedRMSD -1
REMARK  1 active torsions:
REMARK  status: ('A' for Active; 'I' for Inactive)
REMARK    1  A    between atoms: C1_2  and  C2_3 
ROOT
ATOM      1  C2  UNL d   1      -3.746   0.580  -3.132  0.00  0.00    -0.077 A 
ATOM      2  C3  UNL d   1      -4.044  -0.252  -4.219  0.00  0.00     0.002 A 
ATOM      3  C4  UNL d   1      -5.045   0.101  -5.126  0.00  0.00     0.002 A 
ATOM      4  C5  UNL d   1      -5.754   1.288  -4.956  0.00  0.00    -0.004 A 
ATOM      5  C6  UNL d   1      -5.467   2.122  -3.876  0.00  0.00     0.002 A 
ATOM      6  C7  UNL d   1      -4.467   1.770  -2.969  0.00  0.00     0.002 A 
ENDROOT
BRANCH   1   7
ATOM      7  C1  UNL d   1      -2.633   0.226  -2.181  0.00  0.00     0.055 C 
ATOM      8  C   UNL d   1      -1.645  -0.739  -2.821  0.00  0.00     0.019 C 
ENDBRANCH   1   7
TORSDOF 1
ENDMDL
