MODEL 1
REMARK minimizedAffinity 3.36375499
REMARK minimizedRMSD -1
REMARK  0 active torsions:
REMARK  status: ('A' for Active; 'I' for Inactive)
ROOT
ATOM      1  C   UNL d   1      -0.289   0.395   1.854  0.00  0.00     0.023 A 
ATOM      2  C1  UNL d   1       1.073   0.649   1.687  0.00  0.00     0.003 A 
ATOM      3  C2  UNL d   1       1.909  -0.336   1.158  0.00  0.00     0.048 A 
ATOM      4  C3  UNL d   1       1.376  -1.573   0.796  0.00  0.00     0.023 A 
ATOM      5  C4  UNL d   1       0.014  -1.832   0.960  0.00  0.00     0.048 A 
ATOM      6  C5  UNL d   1      -0.817  -0.844   1.491  0.00  0.00     0.003 A 
ATOM      7  I   UNL d   1       2.618  -3.042   0.008  0.00  0.00    -0.146 I 
ENDROOT
TORSDOF 0
ENDMDL
