MODEL 1
REMARK minimizedAffinity 3.79583144
REMARK minimizedRMSD -1
REMARK  0 active torsions:
REMARK  status: ('A' for Active; 'I' for Inactive)
ROOT
ATOM      1  C   UNL d   1       0.769   4.919  -6.000  0.00  0.00     0.023 A 
ATOM      2  C1  UNL d   1       0.366   3.656  -5.566  0.00  0.00     0.003 A 
ATOM      3  C2  UNL d   1      -0.943   3.453  -5.125  0.00  0.00     0.048 A 
ATOM      4  C3  UNL d   1      -1.844   4.517  -5.121  0.00  0.00     0.023 A 
ATOM      5  C4  UNL d   1      -1.446   5.783  -5.555  0.00  0.00     0.048 A 
ATOM      6  C5  UNL d   1      -0.135   5.981  -5.994  0.00  0.00     0.003 A 
ATOM      7  I   UNL d   1      -3.794   4.218  -4.465  0.00  0.00    -0.146 I 
ENDROOT
TORSDOF 0
ENDMDL
