MODEL 1
REMARK minimizedAffinity 4.23823214
REMARK minimizedRMSD -1
REMARK  0 active torsions:
REMARK  status: ('A' for Active; 'I' for Inactive)
ROOT
ATOM      1  C   UNL d   1       0.008  -2.597   1.638  0.00  0.00     0.023 A 
ATOM      2  C1  UNL d   1       1.148  -1.964   1.141  0.00  0.00     0.003 A 
ATOM      3  C2  UNL d   1       2.283  -2.713   0.825  0.00  0.00     0.048 A 
ATOM      4  C3  UNL d   1       2.271  -4.096   1.008  0.00  0.00     0.023 A 
ATOM      5  C4  UNL d   1       1.133  -4.733   1.504  0.00  0.00     0.048 A 
ATOM      6  C5  UNL d   1       0.001  -3.980   1.819  0.00  0.00     0.003 A 
ATOM      7  I   UNL d   1       3.959  -5.214   0.538  0.00  0.00    -0.146 I 
ENDROOT
TORSDOF 0
ENDMDL
