MODEL 1
REMARK minimizedAffinity 1.90351713
REMARK minimizedRMSD -1
REMARK  0 active torsions:
REMARK  status: ('A' for Active; 'I' for Inactive)
ROOT
ATOM      1  C   UNL d   1      -5.868   2.301   4.831  0.00  0.00     0.023 A 
ATOM      2  C1  UNL d   1      -4.613   1.935   4.343  0.00  0.00     0.003 A 
ATOM      3  C2  UNL d   1      -3.486   2.688   4.677  0.00  0.00     0.048 A 
ATOM      4  C3  UNL d   1      -3.619   3.805   5.500  0.00  0.00     0.023 A 
ATOM      5  C4  UNL d   1      -4.872   4.175   5.992  0.00  0.00     0.048 A 
ATOM      6  C5  UNL d   1      -5.997   3.420   5.654  0.00  0.00     0.003 A 
ATOM      7  I   UNL d   1      -1.943   4.927   5.999  0.00  0.00    -0.146 I 
ENDROOT
TORSDOF 0
ENDMDL
