MODEL 1
REMARK minimizedAffinity -4.22434568
REMARK minimizedRMSD -1
REMARK  2 active torsions:
REMARK  status: ('A' for Active; 'I' for Inactive)
REMARK    1  A    between atoms: C1_2  and  C2_3 
REMARK    2  A    between atoms: C2_3  and  C3_4 
ROOT
ATOM      1  C3  UNL d   1      -0.288   0.449  -0.190  0.00  0.00    -0.075 A 
ATOM      2  C4  UNL d   1       0.677  -0.566  -0.268  0.00  0.00     0.002 A 
ATOM      3  C5  UNL d   1       1.937  -0.389   0.305  0.00  0.00     0.002 A 
ATOM      4  C6  UNL d   1       2.251   0.804   0.952  0.00  0.00    -0.004 A 
ATOM      5  C7  UNL d   1       1.305   1.824   1.021  0.00  0.00     0.002 A 
ATOM      6  C8  UNL d   1       0.042   1.649   0.453  0.00  0.00     0.002 A 
ENDROOT
BRANCH   1   7
ATOM      7  C2  UNL d   1      -1.664   0.253  -0.781  0.00  0.00     0.056 C 
BRANCH   7   8
ATOM      8  C1  UNL d   1      -1.697  -0.696  -1.984  0.00  0.00     0.007 C 
ATOM      9  C   UNL d   1      -2.516  -0.160  -3.150  0.00  0.00     0.009 C 
ENDBRANCH   7   8
ENDBRANCH   1   7
TORSDOF 2
ENDMDL
