MODEL 1
REMARK minimizedAffinity -6.1612463
REMARK minimizedRMSD -1
REMARK  2 active torsions:
REMARK  status: ('A' for Active; 'I' for Inactive)
REMARK    1  A    between atoms: C1_2  and  C2_3 
REMARK    2  A    between atoms: C2_3  and  C3_4 
ROOT
ATOM      1  C3  UNL d   1       0.491  -0.044   0.427  0.00  0.00    -0.075 A 
ATOM      2  C4  UNL d   1       1.160  -1.272   0.527  0.00  0.00     0.002 A 
ATOM      3  C5  UNL d   1       2.526  -1.315   0.807  0.00  0.00     0.002 A 
ATOM      4  C6  UNL d   1       3.241  -0.132   0.981  0.00  0.00    -0.004 A 
ATOM      5  C7  UNL d   1       2.591   1.095   0.868  0.00  0.00     0.002 A 
ATOM      6  C8  UNL d   1       1.223   1.140   0.592  0.00  0.00     0.002 A 
ENDROOT
BRANCH   1   7
ATOM      7  C2  UNL d   1      -0.993   0.008   0.154  0.00  0.00     0.056 C 
BRANCH   7   8
ATOM      8  C1  UNL d   1      -1.370  -0.296  -1.300  0.00  0.00     0.007 C 
ATOM      9  C   UNL d   1      -2.659   0.384  -1.741  0.00  0.00     0.009 C 
ENDBRANCH   7   8
ENDBRANCH   1   7
TORSDOF 2
ENDMDL
