MODEL 1
REMARK minimizedAffinity -3.65223575
REMARK minimizedRMSD -1
REMARK  2 active torsions:
REMARK  status: ('A' for Active; 'I' for Inactive)
REMARK    1  A    between atoms: C1_2  and  C2_3 
REMARK    2  A    between atoms: C2_3  and  C3_4 
ROOT
ATOM      1  C3  UNL d   1      -0.369   0.103  -0.055  0.00  0.00    -0.075 A 
ATOM      2  C4  UNL d   1       0.689  -0.794  -0.265  0.00  0.00     0.002 A 
ATOM      3  C5  UNL d   1       1.927  -0.583   0.341  0.00  0.00     0.002 A 
ATOM      4  C6  UNL d   1       2.127   0.530   1.155  0.00  0.00    -0.004 A 
ATOM      5  C7  UNL d   1       1.089   1.436   1.357  0.00  0.00     0.002 A 
ATOM      6  C8  UNL d   1      -0.153   1.225   0.756  0.00  0.00     0.002 A 
ENDROOT
BRANCH   1   7
ATOM      7  C2  UNL d   1      -1.721  -0.136  -0.684  0.00  0.00     0.056 C 
BRANCH   7   8
ATOM      8  C1  UNL d   1      -1.657  -0.575  -2.151  0.00  0.00     0.007 C 
ATOM      9  C   UNL d   1      -2.928  -0.257  -2.928  0.00  0.00     0.009 C 
ENDBRANCH   7   8
ENDBRANCH   1   7
TORSDOF 2
ENDMDL
