MODEL 1
REMARK minimizedAffinity -6.32776499
REMARK minimizedRMSD -1
REMARK  2 active torsions:
REMARK  status: ('A' for Active; 'I' for Inactive)
REMARK    1  A    between atoms: C1_2  and  C2_3 
REMARK    2  A    between atoms: C2_3  and  C3_4 
ROOT
ATOM      1  C3  UNL d   1       0.230  -0.651   0.803  0.00  0.00    -0.075 A 
ATOM      2  C4  UNL d   1       0.927   0.525   0.491  0.00  0.00     0.002 A 
ATOM      3  C5  UNL d   1       2.314   0.585   0.632  0.00  0.00     0.002 A 
ATOM      4  C6  UNL d   1       3.018  -0.523   1.097  0.00  0.00    -0.004 A 
ATOM      5  C7  UNL d   1       2.334  -1.692   1.426  0.00  0.00     0.002 A 
ATOM      6  C8  UNL d   1       0.947  -1.756   1.281  0.00  0.00     0.002 A 
ENDROOT
BRANCH   1   7
ATOM      7  C2  UNL d   1      -1.267  -0.733   0.623  0.00  0.00     0.056 C 
BRANCH   7   8
ATOM      8  C1  UNL d   1      -1.838   0.316  -0.337  0.00  0.00     0.007 C 
ATOM      9  C   UNL d   1      -2.269  -0.268  -1.676  0.00  0.00     0.009 C 
ENDBRANCH   7   8
ENDBRANCH   1   7
TORSDOF 2
ENDMDL
