MODEL 1
REMARK minimizedAffinity -5.40397453
REMARK minimizedRMSD -1
REMARK  2 active torsions:
REMARK  status: ('A' for Active; 'I' for Inactive)
REMARK    1  A    between atoms: C1_2  and  C2_3 
REMARK    2  A    between atoms: C2_3  and  C3_4 
ROOT
ATOM      1  C3  UNL d   1      -0.152   0.565   0.121  0.00  0.00    -0.075 A 
ATOM      2  C4  UNL d   1       0.423   1.844   0.135  0.00  0.00     0.002 A 
ATOM      3  C5  UNL d   1       1.788   2.004   0.378  0.00  0.00     0.002 A 
ATOM      4  C6  UNL d   1       2.590   0.892   0.621  0.00  0.00    -0.004 A 
ATOM      5  C7  UNL d   1       2.026  -0.382   0.626  0.00  0.00     0.002 A 
ATOM      6  C8  UNL d   1       0.662  -0.546   0.378  0.00  0.00     0.002 A 
ENDROOT
BRANCH   1   7
ATOM      7  C2  UNL d   1      -1.622   0.382  -0.172  0.00  0.00     0.056 C 
BRANCH   7   8
ATOM      8  C1  UNL d   1      -1.931   0.058  -1.637  0.00  0.00     0.007 C 
ATOM      9  C   UNL d   1      -3.105   0.853  -2.193  0.00  0.00     0.009 C 
ENDBRANCH   7   8
ENDBRANCH   1   7
TORSDOF 2
ENDMDL
