MODEL 1
REMARK minimizedAffinity -6.18664646
REMARK minimizedRMSD -1
REMARK  2 active torsions:
REMARK  status: ('A' for Active; 'I' for Inactive)
REMARK    1  A    between atoms: C1_2  and  C2_3 
REMARK    2  A    between atoms: C2_3  and  C3_4 
ROOT
ATOM      1  C3  UNL d   1       0.844   0.042   0.408  0.00  0.00    -0.075 A 
ATOM      2  C4  UNL d   1       0.706  -1.285   0.841  0.00  0.00     0.002 A 
ATOM      3  C5  UNL d   1       1.727  -1.905   1.563  0.00  0.00     0.002 A 
ATOM      4  C6  UNL d   1       2.900  -1.211   1.852  0.00  0.00    -0.004 A 
ATOM      5  C7  UNL d   1       3.054   0.103   1.412  0.00  0.00     0.002 A 
ATOM      6  C8  UNL d   1       2.033   0.726   0.694  0.00  0.00     0.002 A 
ENDROOT
BRANCH   1   7
ATOM      7  C2  UNL d   1      -0.269   0.727  -0.347  0.00  0.00     0.056 C 
BRANCH   7   8
ATOM      8  C1  UNL d   1      -1.562  -0.090  -0.431  0.00  0.00     0.007 C 
ATOM      9  C   UNL d   1      -2.253   0.014  -1.784  0.00  0.00     0.009 C 
ENDBRANCH   7   8
ENDBRANCH   1   7
TORSDOF 2
ENDMDL
