MODEL 1
REMARK minimizedAffinity -6.1998291
REMARK minimizedRMSD -1
REMARK  2 active torsions:
REMARK  status: ('A' for Active; 'I' for Inactive)
REMARK    1  A    between atoms: C1_2  and  C2_3 
REMARK    2  A    between atoms: C2_3  and  C3_4 
ROOT
ATOM      1  C3  UNL d   1       0.400   0.417  -0.383  0.00  0.00    -0.075 A 
ATOM      2  C4  UNL d   1       0.651  -0.231  -1.601  0.00  0.00     0.002 A 
ATOM      3  C5  UNL d   1      -0.384  -0.855  -2.299  0.00  0.00     0.002 A 
ATOM      4  C6  UNL d   1      -1.678  -0.847  -1.783  0.00  0.00    -0.004 A 
ATOM      5  C7  UNL d   1      -1.936  -0.221  -0.566  0.00  0.00     0.002 A 
ATOM      6  C8  UNL d   1      -0.903   0.408   0.132  0.00  0.00     0.002 A 
ENDROOT
BRANCH   1   7
ATOM      7  C2  UNL d   1       1.510   1.119   0.361  0.00  0.00     0.056 C 
BRANCH   7   8
ATOM      8  C1  UNL d   1       2.811   0.313   0.447  0.00  0.00     0.007 C 
ATOM      9  C   UNL d   1       2.727  -0.860   1.414  0.00  0.00     0.009 C 
ENDBRANCH   7   8
ENDBRANCH   1   7
TORSDOF 2
ENDMDL
