MODEL 1
REMARK minimizedAffinity -0.809335709
REMARK minimizedRMSD -1
REMARK  2 active torsions:
REMARK  status: ('A' for Active; 'I' for Inactive)
REMARK    1  A    between atoms: C1_2  and  C2_3 
REMARK    2  A    between atoms: C2_3  and  C3_4 
ROOT
ATOM      1  C3  UNL d   1      -0.168   0.562   0.159  0.00  0.00    -0.075 A 
ATOM      2  C4  UNL d   1      -0.353  -0.287   1.259  0.00  0.00     0.002 A 
ATOM      3  C5  UNL d   1      -0.435  -1.669   1.081  0.00  0.00     0.002 A 
ATOM      4  C6  UNL d   1      -0.343  -2.216  -0.196  0.00  0.00    -0.004 A 
ATOM      5  C7  UNL d   1      -0.176  -1.381  -1.298  0.00  0.00     0.002 A 
ATOM      6  C8  UNL d   1      -0.089   0.002  -1.123  0.00  0.00     0.002 A 
ENDROOT
BRANCH   1   7
ATOM      7  C2  UNL d   1      -0.050   2.056   0.347  0.00  0.00     0.056 C 
BRANCH   7   8
ATOM      8  C1  UNL d   1       1.384   2.586   0.246  0.00  0.00     0.007 C 
ATOM      9  C   UNL d   1       2.341   1.919   1.225  0.00  0.00     0.009 C 
ENDBRANCH   7   8
ENDBRANCH   1   7
TORSDOF 2
ENDMDL
