MODEL 1
REMARK minimizedAffinity -5.24501705
REMARK minimizedRMSD -1
REMARK  0 active torsions:
REMARK  status: ('A' for Active; 'I' for Inactive)
ROOT
ATOM      1  C   UNL d   1       0.875  -0.596   1.797  0.00  0.00     0.078 C 
ATOM      2  C1  UNL d   1       0.103   0.607   1.346  0.00  0.00    -0.077 A 
ATOM      3  C2  UNL d   1      -0.444   0.672   0.058  0.00  0.00    -0.001 A 
ATOM      4  C3  UNL d   1      -1.152   1.803  -0.351  0.00  0.00     0.003 A 
ATOM      5  C4  UNL d   1      -1.319   2.878   0.520  0.00  0.00    -0.005 A 
ATOM      6  C5  UNL d   1      -0.777   2.823   1.802  0.00  0.00     0.003 A 
ATOM      7  C6  UNL d   1      -0.068   1.693   2.214  0.00  0.00    -0.001 A 
ENDROOT
TORSDOF 0
ENDMDL
