MODEL 1
REMARK minimizedAffinity -4.90692282
REMARK minimizedRMSD -1
REMARK  0 active torsions:
REMARK  status: ('A' for Active; 'I' for Inactive)
ROOT
ATOM      1  C   UNL d   1      -0.128   0.181  -0.999  0.00  0.00     0.078 C 
ATOM      2  C1  UNL d   1      -0.424   1.605  -0.634  0.00  0.00    -0.077 A 
ATOM      3  C2  UNL d   1      -0.483   2.604  -1.613  0.00  0.00    -0.001 A 
ATOM      4  C3  UNL d   1      -0.750   3.927  -1.257  0.00  0.00     0.003 A 
ATOM      5  C4  UNL d   1      -0.960   4.263   0.079  0.00  0.00    -0.005 A 
ATOM      6  C5  UNL d   1      -0.902   3.276   1.061  0.00  0.00     0.003 A 
ATOM      7  C6  UNL d   1      -0.634   1.953   0.707  0.00  0.00    -0.001 A 
ENDROOT
TORSDOF 0
ENDMDL
