MODEL 1
REMARK minimizedAffinity -1.42131507
REMARK minimizedRMSD -1
REMARK  0 active torsions:
REMARK  status: ('A' for Active; 'I' for Inactive)
ROOT
ATOM      1  C   UNL d   1      -0.027   2.237   1.768  0.00  0.00     0.078 C 
ATOM      2  C1  UNL d   1       0.025   1.273   0.621  0.00  0.00    -0.077 A 
ATOM      3  C2  UNL d   1       0.291  -0.085   0.833  0.00  0.00    -0.001 A 
ATOM      4  C3  UNL d   1       0.346  -0.970  -0.245  0.00  0.00     0.003 A 
ATOM      5  C4  UNL d   1       0.137  -0.506  -1.542  0.00  0.00    -0.005 A 
ATOM      6  C5  UNL d   1      -0.126   0.844  -1.763  0.00  0.00     0.003 A 
ATOM      7  C6  UNL d   1      -0.182   1.730  -0.686  0.00  0.00    -0.001 A 
ENDROOT
TORSDOF 0
ENDMDL
