MODEL 1
REMARK minimizedAffinity -2.19135141
REMARK minimizedRMSD -1
REMARK  0 active torsions:
REMARK  status: ('A' for Active; 'I' for Inactive)
ROOT
ATOM      1  C   UNL d   1      -0.221   0.719  -1.807  0.00  0.00     0.078 C 
ATOM      2  C1  UNL d   1       0.105   0.618  -0.347  0.00  0.00    -0.077 A 
ATOM      3  C2  UNL d   1       0.820  -0.475   0.158  0.00  0.00    -0.001 A 
ATOM      4  C3  UNL d   1       1.109  -0.560   1.521  0.00  0.00     0.003 A 
ATOM      5  C4  UNL d   1       0.685   0.443   2.390  0.00  0.00    -0.005 A 
ATOM      6  C5  UNL d   1      -0.029   1.533   1.897  0.00  0.00     0.003 A 
ATOM      7  C6  UNL d   1      -0.319   1.620   0.534  0.00  0.00    -0.001 A 
ENDROOT
TORSDOF 0
ENDMDL
