MODEL 1
REMARK minimizedAffinity -5.25876093
REMARK minimizedRMSD -1
REMARK  0 active torsions:
REMARK  status: ('A' for Active; 'I' for Inactive)
ROOT
ATOM      1  C   UNL d   1      -1.025   2.692  -1.426  0.00  0.00     0.078 C 
ATOM      2  C1  UNL d   1      -0.401   1.960  -0.276  0.00  0.00    -0.077 A 
ATOM      3  C2  UNL d   1      -0.465   2.473   1.026  0.00  0.00    -0.001 A 
ATOM      4  C3  UNL d   1       0.128   1.785   2.085  0.00  0.00     0.003 A 
ATOM      5  C4  UNL d   1       0.791   0.582   1.855  0.00  0.00    -0.005 A 
ATOM      6  C5  UNL d   1       0.862   0.065   0.563  0.00  0.00     0.003 A 
ATOM      7  C6  UNL d   1       0.269   0.751  -0.498  0.00  0.00    -0.001 A 
ENDROOT
TORSDOF 0
ENDMDL
