MODEL 1
REMARK minimizedAffinity -4.58670902
REMARK minimizedRMSD -1
REMARK  0 active torsions:
REMARK  status: ('A' for Active; 'I' for Inactive)
ROOT
ATOM      1  C   UNL d   1      -0.987   2.481   1.900  0.00  0.00     0.078 C 
ATOM      2  C1  UNL d   1      -0.480   1.437   0.950  0.00  0.00    -0.077 A 
ATOM      3  C2  UNL d   1       0.386   0.426   1.386  0.00  0.00    -0.001 A 
ATOM      4  C3  UNL d   1       0.858  -0.533   0.489  0.00  0.00     0.003 A 
ATOM      5  C4  UNL d   1       0.472  -0.490  -0.850  0.00  0.00    -0.005 A 
ATOM      6  C5  UNL d   1      -0.387   0.514  -1.292  0.00  0.00     0.003 A 
ATOM      7  C6  UNL d   1      -0.860   1.474  -0.397  0.00  0.00    -0.001 A 
ENDROOT
TORSDOF 0
ENDMDL
