MODEL 1
REMARK minimizedAffinity -4.42663574
REMARK minimizedRMSD -1
REMARK  0 active torsions:
REMARK  status: ('A' for Active; 'I' for Inactive)
ROOT
ATOM      1  C   UNL d   1      -0.757   2.936  -2.200  0.00  0.00     0.078 C 
ATOM      2  C1  UNL d   1      -0.847   2.589  -0.744  0.00  0.00    -0.077 A 
ATOM      3  C2  UNL d   1      -0.735   1.263  -0.310  0.00  0.00    -0.001 A 
ATOM      4  C3  UNL d   1      -0.831   0.954   1.048  0.00  0.00     0.003 A 
ATOM      5  C4  UNL d   1      -1.040   1.966   1.983  0.00  0.00    -0.005 A 
ATOM      6  C5  UNL d   1      -1.155   3.288   1.560  0.00  0.00     0.003 A 
ATOM      7  C6  UNL d   1      -1.060   3.599   0.203  0.00  0.00    -0.001 A 
ENDROOT
TORSDOF 0
ENDMDL
