MODEL 1
REMARK minimizedAffinity -4.99579811
REMARK minimizedRMSD -1
REMARK  0 active torsions:
REMARK  status: ('A' for Active; 'I' for Inactive)
ROOT
ATOM      1  C   UNL d   1       0.365  -0.823  -0.930  0.00  0.00     0.078 C 
ATOM      2  C1  UNL d   1      -0.090   0.211   0.056  0.00  0.00    -0.077 A 
ATOM      3  C2  UNL d   1       0.613   0.431   1.246  0.00  0.00    -0.001 A 
ATOM      4  C3  UNL d   1       0.172   1.391   2.160  0.00  0.00     0.003 A 
ATOM      5  C4  UNL d   1      -0.974   2.137   1.892  0.00  0.00    -0.005 A 
ATOM      6  C5  UNL d   1      -1.682   1.923   0.711  0.00  0.00     0.003 A 
ATOM      7  C6  UNL d   1      -1.242   0.964  -0.204  0.00  0.00    -0.001 A 
ENDROOT
TORSDOF 0
ENDMDL
