MODEL 1
REMARK minimizedAffinity -5.15479422
REMARK minimizedRMSD -1
REMARK  0 active torsions:
REMARK  status: ('A' for Active; 'I' for Inactive)
ROOT
ATOM      1  C   UNL d   1       0.224  -0.660  -0.706  0.00  0.00     0.078 C 
ATOM      2  C1  UNL d   1      -0.215   0.524   0.104  0.00  0.00    -0.077 A 
ATOM      3  C2  UNL d   1       0.002   0.572   1.487  0.00  0.00    -0.001 A 
ATOM      4  C3  UNL d   1      -0.421   1.675   2.230  0.00  0.00     0.003 A 
ATOM      5  C4  UNL d   1      -1.063   2.739   1.599  0.00  0.00    -0.005 A 
ATOM      6  C5  UNL d   1      -1.285   2.699   0.224  0.00  0.00     0.003 A 
ATOM      7  C6  UNL d   1      -0.863   1.596  -0.521  0.00  0.00    -0.001 A 
ENDROOT
TORSDOF 0
ENDMDL
