MODEL 1
REMARK minimizedAffinity -5.0727706
REMARK minimizedRMSD -1
REMARK  0 active torsions:
REMARK  status: ('A' for Active; 'I' for Inactive)
ROOT
ATOM      1  C   UNL d   1      -0.385   3.399  -1.134  0.00  0.00     0.078 C 
ATOM      2  C1  UNL d   1      -0.496   2.477   0.044  0.00  0.00    -0.077 A 
ATOM      3  C2  UNL d   1      -1.055   2.913   1.251  0.00  0.00    -0.001 A 
ATOM      4  C3  UNL d   1      -1.143   2.047   2.342  0.00  0.00     0.003 A 
ATOM      5  C4  UNL d   1      -0.671   0.740   2.238  0.00  0.00    -0.005 A 
ATOM      6  C5  UNL d   1      -0.110   0.297   1.041  0.00  0.00     0.003 A 
ATOM      7  C6  UNL d   1      -0.022   1.162  -0.051  0.00  0.00    -0.001 A 
ENDROOT
TORSDOF 0
ENDMDL
