MODEL 1
REMARK minimizedAffinity -0.297244251
REMARK minimizedRMSD -1
REMARK  0 active torsions:
REMARK  status: ('A' for Active; 'I' for Inactive)
ROOT
ATOM      1  C   UNL d   1       1.140  -5.316  -0.747  0.00  0.00     0.078 C 
ATOM      2  C1  UNL d   1       0.016  -4.597  -1.433  0.00  0.00    -0.077 A 
ATOM      3  C2  UNL d   1      -0.782  -3.678  -0.740  0.00  0.00    -0.001 A 
ATOM      4  C3  UNL d   1      -1.830  -3.024  -1.389  0.00  0.00     0.003 A 
ATOM      5  C4  UNL d   1      -2.091  -3.283  -2.733  0.00  0.00    -0.005 A 
ATOM      6  C5  UNL d   1      -1.304  -4.197  -3.430  0.00  0.00     0.003 A 
ATOM      7  C6  UNL d   1      -0.255  -4.852  -2.783  0.00  0.00    -0.001 A 
ENDROOT
TORSDOF 0
ENDMDL
