MODEL 1
REMARK minimizedAffinity -3.67228436
REMARK minimizedRMSD -1
REMARK  0 active torsions:
REMARK  status: ('A' for Active; 'I' for Inactive)
ROOT
ATOM      1  C   UNL d   1      -5.939   1.232   0.895  0.00  0.00     0.172 C 
ATOM      2  N   UNL d   1      -5.198   1.196   2.134  0.00  0.00    -0.070 N 
ATOM      3  C1  UNL d   1      -3.836   1.107   2.247  0.00  0.00    -0.004 A 
ATOM      4  C2  UNL d   1      -3.523   1.100   3.589  0.00  0.00    -0.047 A 
ATOM      5  C3  UNL d   1      -4.739   1.187   4.308  0.00  0.00    -0.047 A 
ATOM      6  C4  UNL d   1      -5.760   1.244   3.382  0.00  0.00    -0.004 A 
ENDROOT
TORSDOF 0
ENDMDL
