MODEL 1
REMARK minimizedAffinity 0.7887128
REMARK minimizedRMSD -1
REMARK  0 active torsions:
REMARK  status: ('A' for Active; 'I' for Inactive)
ROOT
ATOM      1  C   UNL d   1      -2.688   1.057   3.091  0.00  0.00     0.172 C 
ATOM      2  N   UNL d   1      -2.112  -0.127   2.499  0.00  0.00    -0.070 N 
ATOM      3  C1  UNL d   1      -2.720  -0.933   1.574  0.00  0.00    -0.004 A 
ATOM      4  C2  UNL d   1      -1.845  -1.952   1.262  0.00  0.00    -0.047 A 
ATOM      5  C3  UNL d   1      -0.672  -1.751   2.027  0.00  0.00    -0.047 A 
ATOM      6  C4  UNL d   1      -0.864  -0.615   2.784  0.00  0.00    -0.004 A 
ENDROOT
TORSDOF 0
ENDMDL
