MODEL 1
REMARK minimizedAffinity 4.16813374
REMARK minimizedRMSD -1
REMARK  0 active torsions:
REMARK  status: ('A' for Active; 'I' for Inactive)
ROOT
ATOM      1  C   UNL d   1       5.357   5.466  -1.523  0.00  0.00     0.172 C 
ATOM      2  N   UNL d   1       5.006   4.805  -2.758  0.00  0.00    -0.070 N 
ATOM      3  C1  UNL d   1       5.690   4.906  -3.940  0.00  0.00    -0.004 A 
ATOM      4  C2  UNL d   1       5.039   4.129  -4.872  0.00  0.00    -0.047 A 
ATOM      5  C3  UNL d   1       3.924   3.541  -4.229  0.00  0.00    -0.047 A 
ATOM      6  C4  UNL d   1       3.927   3.976  -2.921  0.00  0.00    -0.004 A 
ENDROOT
TORSDOF 0
ENDMDL
