MODEL 1
REMARK minimizedAffinity -2.697469
REMARK minimizedRMSD -1
REMARK  0 active torsions:
REMARK  status: ('A' for Active; 'I' for Inactive)
ROOT
ATOM      1  C   UNL d   1       1.267  -5.249  -4.872  0.00  0.00     0.172 C 
ATOM      2  N   UNL d   1      -0.171  -5.330  -4.984  0.00  0.00    -0.070 N 
ATOM      3  C1  UNL d   1      -1.072  -4.759  -4.127  0.00  0.00    -0.004 A 
ATOM      4  C2  UNL d   1      -2.337  -5.066  -4.577  0.00  0.00    -0.047 A 
ATOM      5  C3  UNL d   1      -2.192  -5.850  -5.746  0.00  0.00    -0.047 A 
ATOM      6  C4  UNL d   1      -0.840  -5.999  -5.975  0.00  0.00    -0.004 A 
ENDROOT
TORSDOF 0
ENDMDL
