MODEL 1
REMARK minimizedAffinity 2.40975976
REMARK minimizedRMSD -1
REMARK  0 active torsions:
REMARK  status: ('A' for Active; 'I' for Inactive)
ROOT
ATOM      1  C   UNL d   1      -4.767   0.607   0.587  0.00  0.00     0.172 C 
ATOM      2  N   UNL d   1      -3.587   0.337   1.376  0.00  0.00    -0.070 N 
ATOM      3  C1  UNL d   1      -3.141   1.090   2.429  0.00  0.00    -0.004 A 
ATOM      4  C2  UNL d   1      -1.992   0.502   2.911  0.00  0.00    -0.047 A 
ATOM      5  C3  UNL d   1      -1.738  -0.644   2.120  0.00  0.00    -0.047 A 
ATOM      6  C4  UNL d   1      -2.741  -0.722   1.177  0.00  0.00    -0.004 A 
ENDROOT
TORSDOF 0
ENDMDL
