MODEL 1
REMARK minimizedAffinity 5.73138142
REMARK minimizedRMSD -1
REMARK  0 active torsions:
REMARK  status: ('A' for Active; 'I' for Inactive)
ROOT
ATOM      1  C   UNL d   1      -2.808   0.282   2.203  0.00  0.00     0.172 C 
ATOM      2  N   UNL d   1      -3.686   0.338   1.058  0.00  0.00    -0.070 N 
ATOM      3  C1  UNL d   1      -3.453  -0.250  -0.156  0.00  0.00    -0.004 A 
ATOM      4  C2  UNL d   1      -4.524   0.036  -0.976  0.00  0.00    -0.047 A 
ATOM      5  C3  UNL d   1      -5.432   0.823  -0.228  0.00  0.00    -0.047 A 
ATOM      6  C4  UNL d   1      -4.888   0.995   1.028  0.00  0.00    -0.004 A 
ENDROOT
TORSDOF 0
ENDMDL
