MODEL 1
REMARK minimizedAffinity 1.0165863
REMARK minimizedRMSD -1
REMARK  0 active torsions:
REMARK  status: ('A' for Active; 'I' for Inactive)
ROOT
ATOM      1  C   UNL d   1      -1.190  -1.687   1.611  0.00  0.00     0.172 C 
ATOM      2  N   UNL d   1      -2.154  -0.642   1.863  0.00  0.00    -0.070 N 
ATOM      3  C1  UNL d   1      -3.385  -0.533   1.274  0.00  0.00    -0.004 A 
ATOM      4  C2  UNL d   1      -3.997   0.593   1.780  0.00  0.00    -0.047 A 
ATOM      5  C3  UNL d   1      -3.102   1.182   2.704  0.00  0.00    -0.047 A 
ATOM      6  C4  UNL d   1      -1.969   0.397   2.737  0.00  0.00    -0.004 A 
ENDROOT
TORSDOF 0
ENDMDL
