MODEL 1
REMARK minimizedAffinity 0.564291477
REMARK minimizedRMSD -1
REMARK  0 active torsions:
REMARK  status: ('A' for Active; 'I' for Inactive)
ROOT
ATOM      1  C   UNL d   1      -3.903   2.108   3.355  0.00  0.00     0.172 C 
ATOM      2  N   UNL d   1      -3.142   1.112   2.638  0.00  0.00    -0.070 N 
ATOM      3  C1  UNL d   1      -2.071   0.417   3.133  0.00  0.00    -0.004 A 
ATOM      4  C2  UNL d   1      -1.626  -0.433   2.143  0.00  0.00    -0.047 A 
ATOM      5  C3  UNL d   1      -2.459  -0.242   1.015  0.00  0.00    -0.047 A 
ATOM      6  C4  UNL d   1      -3.388   0.720   1.349  0.00  0.00    -0.004 A 
ENDROOT
TORSDOF 0
ENDMDL
