MODEL 1
REMARK minimizedAffinity 1.54492378
REMARK minimizedRMSD -1
REMARK  0 active torsions:
REMARK  status: ('A' for Active; 'I' for Inactive)
ROOT
ATOM      1  C   UNL d   1      -1.656  -1.611   1.555  0.00  0.00     0.172 C 
ATOM      2  N   UNL d   1      -2.535  -0.503   1.844  0.00  0.00    -0.070 N 
ATOM      3  C1  UNL d   1      -2.431   0.340   2.918  0.00  0.00    -0.004 A 
ATOM      4  C2  UNL d   1      -3.453   1.260   2.834  0.00  0.00    -0.047 A 
ATOM      5  C3  UNL d   1      -4.199   0.959   1.669  0.00  0.00    -0.047 A 
ATOM      6  C4  UNL d   1      -3.609  -0.137   1.076  0.00  0.00    -0.004 A 
ENDROOT
TORSDOF 0
ENDMDL
