MODEL 1
REMARK minimizedAffinity 3.4876821
REMARK minimizedRMSD -1
REMARK  0 active torsions:
REMARK  status: ('A' for Active; 'I' for Inactive)
ROOT
ATOM      1  C   UNL d   1       4.654   4.008  -3.916  0.00  0.00     0.172 C 
ATOM      2  N   UNL d   1       3.360   3.964  -3.276  0.00  0.00    -0.070 N 
ATOM      3  C1  UNL d   1       2.434   4.973  -3.279  0.00  0.00    -0.004 A 
ATOM      4  C2  UNL d   1       1.338   4.541  -2.563  0.00  0.00    -0.047 A 
ATOM      5  C3  UNL d   1       1.616   3.228  -2.114  0.00  0.00    -0.047 A 
ATOM      6  C4  UNL d   1       2.874   2.896  -2.569  0.00  0.00    -0.004 A 
ENDROOT
TORSDOF 0
ENDMDL
