MODEL 1
REMARK minimizedAffinity 4.97228146
REMARK minimizedRMSD -1
REMARK  0 active torsions:
REMARK  status: ('A' for Active; 'I' for Inactive)
ROOT
ATOM      1  C   UNL d   1      -5.406   5.299   5.923  0.00  0.00     0.172 C 
ATOM      2  N   UNL d   1      -5.157   3.909   5.619  0.00  0.00    -0.070 N 
ATOM      3  C1  UNL d   1      -4.053   3.194   6.000  0.00  0.00    -0.004 A 
ATOM      4  C2  UNL d   1      -4.193   1.911   5.515  0.00  0.00    -0.047 A 
ATOM      5  C3  UNL d   1      -5.424   1.854   4.818  0.00  0.00    -0.047 A 
ATOM      6  C4  UNL d   1      -6.000   3.104   4.898  0.00  0.00    -0.004 A 
ENDROOT
TORSDOF 0
ENDMDL
