MODEL 1
REMARK minimizedAffinity 3.20249891
REMARK minimizedRMSD -1
REMARK  0 active torsions:
REMARK  status: ('A' for Active; 'I' for Inactive)
ROOT
ATOM      1  C   UNL d   1      -2.567   1.153   2.652  0.00  0.00     0.172 C 
ATOM      2  N   UNL d   1      -1.871  -0.058   2.284  0.00  0.00    -0.070 N 
ATOM      3  C1  UNL d   1      -0.742  -0.545   2.886  0.00  0.00    -0.004 A 
ATOM      4  C2  UNL d   1      -0.393  -1.714   2.247  0.00  0.00    -0.047 A 
ATOM      5  C3  UNL d   1      -1.345  -1.938   1.223  0.00  0.00    -0.047 A 
ATOM      6  C4  UNL d   1      -2.249  -0.897   1.269  0.00  0.00    -0.004 A 
ENDROOT
TORSDOF 0
ENDMDL
