MODEL 1
REMARK minimizedAffinity 3.02839351
REMARK minimizedRMSD -1
REMARK  0 active torsions:
REMARK  status: ('A' for Active; 'I' for Inactive)
ROOT
ATOM      1  C   UNL d   1      -2.298   0.646   4.556  0.00  0.00     0.172 C 
ATOM      2  N   UNL d   1      -1.945   0.002   3.312  0.00  0.00    -0.070 N 
ATOM      3  C1  UNL d   1      -0.697  -0.020   2.750  0.00  0.00    -0.004 A 
ATOM      4  C2  UNL d   1      -0.776  -0.731   1.573  0.00  0.00    -0.047 A 
ATOM      5  C3  UNL d   1      -2.119  -1.150   1.421  0.00  0.00    -0.047 A 
ATOM      6  C4  UNL d   1      -2.821  -0.683   2.512  0.00  0.00    -0.004 A 
ENDROOT
TORSDOF 0
ENDMDL
