MODEL 1
REMARK minimizedAffinity 7.16331339
REMARK minimizedRMSD -1
REMARK  0 active torsions:
REMARK  status: ('A' for Active; 'I' for Inactive)
ROOT
ATOM      1  C   UNL d   1      -4.744  -4.550  -5.999  0.00  0.00     0.172 C 
ATOM      2  N   UNL d   1      -3.418  -4.864  -5.522  0.00  0.00    -0.070 N 
ATOM      3  C1  UNL d   1      -2.664  -4.083  -4.687  0.00  0.00    -0.004 A 
ATOM      4  C2  UNL d   1      -1.467  -4.731  -4.470  0.00  0.00    -0.047 A 
ATOM      5  C3  UNL d   1      -1.502  -5.942  -5.200  0.00  0.00    -0.047 A 
ATOM      6  C4  UNL d   1      -2.721  -5.999  -5.843  0.00  0.00    -0.004 A 
ENDROOT
TORSDOF 0
ENDMDL
