MODEL 1
REMARK minimizedAffinity 1.9688431
REMARK minimizedRMSD -1
REMARK  0 active torsions:
REMARK  status: ('A' for Active; 'I' for Inactive)
ROOT
ATOM      1  C   UNL d   1       1.997   3.082  -2.938  0.00  0.00     0.172 C 
ATOM      2  N   UNL d   1       3.252   3.771  -3.123  0.00  0.00    -0.070 N 
ATOM      3  C1  UNL d   1       3.729   4.786  -2.338  0.00  0.00    -0.004 A 
ATOM      4  C2  UNL d   1       4.953   5.171  -2.843  0.00  0.00    -0.047 A 
ATOM      5  C3  UNL d   1       5.219   4.359  -3.971  0.00  0.00    -0.047 A 
ATOM      6  C4  UNL d   1       4.150   3.502  -4.122  0.00  0.00    -0.004 A 
ENDROOT
TORSDOF 0
ENDMDL
