MODEL 1
REMARK minimizedAffinity 2.45885921
REMARK minimizedRMSD -1
REMARK  0 active torsions:
REMARK  status: ('A' for Active; 'I' for Inactive)
ROOT
ATOM      1  C   UNL d   1      -3.811   5.551  -4.491  0.00  0.00     0.172 C 
ATOM      2  N   UNL d   1      -4.409   5.333  -3.195  0.00  0.00    -0.070 N 
ATOM      3  C1  UNL d   1      -3.844   5.656  -1.990  0.00  0.00    -0.004 A 
ATOM      4  C2  UNL d   1      -4.728   5.291  -0.998  0.00  0.00    -0.047 A 
ATOM      5  C3  UNL d   1      -5.863   4.728  -1.628  0.00  0.00    -0.047 A 
ATOM      6  C4  UNL d   1      -5.639   4.766  -2.988  0.00  0.00    -0.004 A 
ENDROOT
TORSDOF 0
ENDMDL
