MODEL 1
REMARK minimizedAffinity 2.44503736
REMARK minimizedRMSD -1
REMARK  0 active torsions:
REMARK  status: ('A' for Active; 'I' for Inactive)
ROOT
ATOM      1  C   UNL d   1      -1.509   5.570  -5.254  0.00  0.00     0.172 C 
ATOM      2  N   UNL d   1      -2.939   5.602  -5.056  0.00  0.00    -0.070 N 
ATOM      3  C1  UNL d   1      -3.594   5.246  -3.907  0.00  0.00    -0.004 A 
ATOM      4  C2  UNL d   1      -4.944   5.417  -4.120  0.00  0.00    -0.047 A 
ATOM      5  C3  UNL d   1      -5.107   5.891  -5.444  0.00  0.00    -0.047 A 
ATOM      6  C4  UNL d   1      -3.850   5.996  -6.000  0.00  0.00    -0.004 A 
ENDROOT
TORSDOF 0
ENDMDL
