MODEL 1
REMARK minimizedAffinity 3.11642146
REMARK minimizedRMSD -1
REMARK  0 active torsions:
REMARK  status: ('A' for Active; 'I' for Inactive)
ROOT
ATOM      1  C   UNL d   1      -4.137   1.872   6.000  0.00  0.00     0.172 C 
ATOM      2  N   UNL d   1      -3.435   1.246   4.904  0.00  0.00    -0.070 N 
ATOM      3  C1  UNL d   1      -3.985   0.895   3.700  0.00  0.00    -0.004 A 
ATOM      4  C2  UNL d   1      -2.991   0.328   2.932  0.00  0.00    -0.047 A 
ATOM      5  C3  UNL d   1      -1.804   0.337   3.701  0.00  0.00    -0.047 A 
ATOM      6  C4  UNL d   1      -2.107   0.910   4.918  0.00  0.00    -0.004 A 
ENDROOT
TORSDOF 0
ENDMDL
