MODEL 1
REMARK minimizedAffinity 5.60189199
REMARK minimizedRMSD -1
REMARK  0 active torsions:
REMARK  status: ('A' for Active; 'I' for Inactive)
ROOT
ATOM      1  C4' PXY d   1       1.900   2.233  -0.280  0.00  0.00     0.077 C 
ATOM      2  C1' PXY d   1       2.693  -1.829   3.755  0.00  0.00     0.077 C 
ATOM      3  C1  PXY d   1       2.483  -0.773   2.688  0.00  0.00    -0.082 A 
ATOM      4  C2  PXY d   1       3.040   0.419   2.828  0.00  0.00     0.003 A 
ATOM      5  C3  PXY d   1       2.833   1.396   1.889  0.00  0.00     0.003 A 
ATOM      6  C4  PXY d   1       2.093   1.133   0.767  0.00  0.00    -0.082 A 
ATOM      7  C5  PXY d   1       1.531  -0.084   0.611  0.00  0.00     0.003 A 
ATOM      8  C6  PXY d   1       1.718  -1.049   1.597  0.00  0.00     0.003 A 
ENDROOT
TORSDOF 0
ENDMDL
