MODEL 1
REMARK minimizedAffinity 7.25273037
REMARK minimizedRMSD -1
REMARK  0 active torsions:
REMARK  status: ('A' for Active; 'I' for Inactive)
ROOT
ATOM      1  C4' PXY d   1       0.157  -1.393   0.920  0.00  0.00     0.077 C 
ATOM      2  C1' PXY d   1       4.055  -2.965   4.889  0.00  0.00     0.077 C 
ATOM      3  C1  PXY d   1       3.035  -2.540   3.852  0.00  0.00    -0.082 A 
ATOM      4  C2  PXY d   1       2.119  -3.404   3.443  0.00  0.00     0.003 A 
ATOM      5  C3  PXY d   1       1.209  -3.046   2.482  0.00  0.00     0.003 A 
ATOM      6  C4  PXY d   1       1.202  -1.775   1.973  0.00  0.00    -0.082 A 
ATOM      7  C5  PXY d   1       2.126  -0.885   2.392  0.00  0.00     0.003 A 
ATOM      8  C6  PXY d   1       3.067  -1.280   3.338  0.00  0.00     0.003 A 
ENDROOT
TORSDOF 0
ENDMDL
