MODEL 1
REMARK minimizedAffinity 3.2510922
REMARK minimizedRMSD -1
REMARK  0 active torsions:
REMARK  status: ('A' for Active; 'I' for Inactive)
ROOT
ATOM      1  C4' PXY d   1       1.903  -1.259   2.328  0.00  0.00     0.077 C 
ATOM      2  C1' PXY d   1       1.794   3.585  -0.825  0.00  0.00     0.077 C 
ATOM      3  C1  PXY d   1       1.833   2.310  -0.005  0.00  0.00    -0.082 A 
ATOM      4  C2  PXY d   1       0.744   1.907   0.630  0.00  0.00     0.003 A 
ATOM      5  C3  PXY d   1       0.770   0.774   1.401  0.00  0.00     0.003 A 
ATOM      6  C4  PXY d   1       1.908   0.016   1.481  0.00  0.00    -0.082 A 
ATOM      7  C5  PXY d   1       3.020   0.415   0.827  0.00  0.00     0.003 A 
ATOM      8  C6  PXY d   1       2.984   1.590   0.083  0.00  0.00     0.003 A 
ENDROOT
TORSDOF 0
ENDMDL
