MODEL 1
REMARK minimizedAffinity -3.52007151
REMARK minimizedRMSD -1
REMARK  0 active torsions:
REMARK  status: ('A' for Active; 'I' for Inactive)
ROOT
ATOM      1  C4' PXY d   1       5.994   5.528  -5.088  0.00  0.00     0.077 C 
ATOM      2  C1' PXY d   1       1.448   5.413  -1.519  0.00  0.00     0.077 C 
ATOM      3  C1  PXY d   1       2.648   5.442  -2.445  0.00  0.00    -0.082 A 
ATOM      4  C2  PXY d   1       2.537   5.994  -3.642  0.00  0.00     0.003 A 
ATOM      5  C3  PXY d   1       3.603   6.000  -4.504  0.00  0.00     0.003 A 
ATOM      6  C4  PXY d   1       4.811   5.484  -4.116  0.00  0.00    -0.082 A 
ATOM      7  C5  PXY d   1       4.935   4.930  -2.892  0.00  0.00     0.003 A 
ATOM      8  C6  PXY d   1       3.829   4.896  -2.048  0.00  0.00     0.003 A 
ENDROOT
TORSDOF 0
ENDMDL
