MODEL 1
REMARK minimizedAffinity 5.19046307
REMARK minimizedRMSD -1
REMARK  0 active torsions:
REMARK  status: ('A' for Active; 'I' for Inactive)
ROOT
ATOM      1  C4' PXY d   1      -2.478  -1.068   0.037  0.00  0.00     0.077 C 
ATOM      2  C1' PXY d   1       2.286  -3.276  -2.381  0.00  0.00     0.077 C 
ATOM      3  C1  PXY d   1       1.041  -2.701  -1.735  0.00  0.00    -0.082 A 
ATOM      4  C2  PXY d   1      -0.062  -2.559  -2.452  0.00  0.00     0.003 A 
ATOM      5  C3  PXY d   1      -1.188  -2.011  -1.893  0.00  0.00     0.003 A 
ATOM      6  C4  PXY d   1      -1.200  -1.653  -0.571  0.00  0.00    -0.082 A 
ATOM      7  C5  PXY d   1      -0.082  -1.804   0.170  0.00  0.00     0.003 A 
ATOM      8  C6  PXY d   1       1.062  -2.324  -0.428  0.00  0.00     0.003 A 
ENDROOT
TORSDOF 0
ENDMDL
