MODEL 1
REMARK minimizedAffinity 7.72913551
REMARK minimizedRMSD -1
REMARK  0 active torsions:
REMARK  status: ('A' for Active; 'I' for Inactive)
ROOT
ATOM      1  C4' PXY d   1      -2.199  -0.466  -0.298  0.00  0.00     0.077 C 
ATOM      2  C1' PXY d   1       2.378  -3.895  -1.138  0.00  0.00     0.077 C 
ATOM      3  C1  PXY d   1       1.177  -2.993  -0.930  0.00  0.00    -0.082 A 
ATOM      4  C2  PXY d   1       0.998  -2.400   0.239  0.00  0.00     0.003 A 
ATOM      5  C3  PXY d   1      -0.099  -1.607   0.454  0.00  0.00     0.003 A 
ATOM      6  C4  PXY d   1      -0.996  -1.377  -0.556  0.00  0.00    -0.082 A 
ATOM      7  C5  PXY d   1      -0.815  -1.970  -1.755  0.00  0.00     0.003 A 
ATOM      8  C6  PXY d   1       0.284  -2.804  -1.940  0.00  0.00     0.003 A 
ENDROOT
TORSDOF 0
ENDMDL
