MODEL 1
REMARK minimizedAffinity 4.73956299
REMARK minimizedRMSD -1
REMARK  0 active torsions:
REMARK  status: ('A' for Active; 'I' for Inactive)
ROOT
ATOM      1  C4' PXY d   1       2.912   2.062   1.194  0.00  0.00     0.077 C 
ATOM      2  C1' PXY d   1       1.582  -3.200   3.183  0.00  0.00     0.077 C 
ATOM      3  C1  PXY d   1       1.928  -1.815   2.673  0.00  0.00    -0.082 A 
ATOM      4  C2  PXY d   1       1.868  -1.562   1.376  0.00  0.00     0.003 A 
ATOM      5  C3  PXY d   1       2.209  -0.324   0.895  0.00  0.00     0.003 A 
ATOM      6  C4  PXY d   1       2.563   0.681   1.755  0.00  0.00    -0.082 A 
ATOM      7  C5  PXY d   1       2.615   0.433   3.081  0.00  0.00     0.003 A 
ATOM      8  C6  PXY d   1       2.306  -0.842   3.546  0.00  0.00     0.003 A 
ENDROOT
TORSDOF 0
ENDMDL
