MODEL 1
REMARK minimizedAffinity 4.47570753
REMARK minimizedRMSD -1
REMARK  0 active torsions:
REMARK  status: ('A' for Active; 'I' for Inactive)
ROOT
ATOM      1  C4' PXY d   1       2.786   2.373   0.034  0.00  0.00     0.077 C 
ATOM      2  C1' PXY d   1       2.014  -2.216   3.464  0.00  0.00     0.077 C 
ATOM      3  C1  PXY d   1       2.210  -1.005   2.573  0.00  0.00    -0.082 A 
ATOM      4  C2  PXY d   1       2.353  -1.169   1.268  0.00  0.00     0.003 A 
ATOM      5  C3  PXY d   1       2.564  -0.088   0.452  0.00  0.00     0.003 A 
ATOM      6  C4  PXY d   1       2.576   1.180   0.970  0.00  0.00    -0.082 A 
ATOM      7  C5  PXY d   1       2.420   1.356   2.299  0.00  0.00     0.003 A 
ATOM      8  C6  PXY d   1       2.248   0.242   3.116  0.00  0.00     0.003 A 
ENDROOT
TORSDOF 0
ENDMDL
