MODEL 1
REMARK minimizedAffinity 4.36736536
REMARK minimizedRMSD -1
REMARK  0 active torsions:
REMARK  status: ('A' for Active; 'I' for Inactive)
ROOT
ATOM      1  C4' PXY d   1       1.244  -3.053   3.659  0.00  0.00     0.077 C 
ATOM      2  C1' PXY d   1       2.709   1.631   0.604  0.00  0.00     0.077 C 
ATOM      3  C1  PXY d   1       2.314   0.401   1.399  0.00  0.00    -0.082 A 
ATOM      4  C2  PXY d   1       2.807   0.221   2.613  0.00  0.00     0.003 A 
ATOM      5  C3  PXY d   1       2.485  -0.901   3.333  0.00  0.00     0.003 A 
ATOM      6  C4  PXY d   1       1.608  -1.822   2.825  0.00  0.00    -0.082 A 
ATOM      7  C5  PXY d   1       1.093  -1.640   1.591  0.00  0.00     0.003 A 
ATOM      8  C6  PXY d   1       1.465  -0.515   0.860  0.00  0.00     0.003 A 
ENDROOT
TORSDOF 0
ENDMDL
