MODEL 1
REMARK minimizedAffinity 1.84703815
REMARK minimizedRMSD -1
REMARK  0 active torsions:
REMARK  status: ('A' for Active; 'I' for Inactive)
ROOT
ATOM      1  C2' OXE d   1       5.252   5.467   3.684  0.00  0.00     0.078 C 
ATOM      2  C1' OXE d   1       5.737   3.198   5.265  0.00  0.00     0.078 C 
ATOM      3  C1  OXE d   1       4.338   3.763   5.255  0.00  0.00    -0.078 A 
ATOM      4  C2  OXE d   1       4.121   4.901   4.515  0.00  0.00    -0.078 A 
ATOM      5  C3  OXE d   1       2.837   5.431   4.428  0.00  0.00     0.003 A 
ATOM      6  C4  OXE d   1       1.799   4.907   5.207  0.00  0.00    -0.002 A 
ATOM      7  C5  OXE d   1       2.008   3.773   5.998  0.00  0.00    -0.002 A 
ATOM      8  C6  OXE d   1       3.259   3.164   6.000  0.00  0.00     0.003 A 
ENDROOT
TORSDOF 0
ENDMDL
