MODEL 1
REMARK minimizedAffinity 5.35427237
REMARK minimizedRMSD -1
REMARK  0 active torsions:
REMARK  status: ('A' for Active; 'I' for Inactive)
ROOT
ATOM      1  C2' OXE d   1      -3.827   1.882   1.633  0.00  0.00     0.078 C 
ATOM      2  C1' OXE d   1      -5.779   0.504   0.159  0.00  0.00     0.078 C 
ATOM      3  C1  OXE d   1      -4.345   0.388  -0.292  0.00  0.00    -0.078 A 
ATOM      4  C2  OXE d   1      -3.402   1.103   0.407  0.00  0.00    -0.078 A 
ATOM      5  C3  OXE d   1      -2.057   0.988   0.066  0.00  0.00     0.003 A 
ATOM      6  C4  OXE d   1      -1.674   0.274  -1.075  0.00  0.00    -0.002 A 
ATOM      7  C5  OXE d   1      -2.623  -0.429  -1.825  0.00  0.00    -0.002 A 
ATOM      8  C6  OXE d   1      -3.954  -0.417  -1.423  0.00  0.00     0.003 A 
ENDROOT
TORSDOF 0
ENDMDL
