MODEL 1
REMARK minimizedAffinity 8.85464096
REMARK minimizedRMSD -1
REMARK  0 active torsions:
REMARK  status: ('A' for Active; 'I' for Inactive)
ROOT
ATOM      1  C2' OXE d   1       1.937  -3.301  -0.121  0.00  0.00     0.078 C 
ATOM      2  C1' OXE d   1       2.777  -2.788  -2.750  0.00  0.00     0.078 C 
ATOM      3  C1  OXE d   1       2.983  -1.704  -1.722  0.00  0.00    -0.078 A 
ATOM      4  C2  OXE d   1       2.526  -1.946  -0.448  0.00  0.00    -0.078 A 
ATOM      5  C3  OXE d   1       2.740  -1.001   0.551  0.00  0.00     0.003 A 
ATOM      6  C4  OXE d   1       3.277   0.253   0.238  0.00  0.00    -0.002 A 
ATOM      7  C5  OXE d   1       3.712   0.535  -1.061  0.00  0.00    -0.002 A 
ATOM      8  C6  OXE d   1       3.611  -0.446  -2.041  0.00  0.00     0.003 A 
ENDROOT
TORSDOF 0
ENDMDL
