MODEL 1
REMARK minimizedAffinity 5.6226263
REMARK minimizedRMSD -1
REMARK  0 active torsions:
REMARK  status: ('A' for Active; 'I' for Inactive)
ROOT
ATOM      1  C2' OXE d   1       4.171   2.999   1.073  0.00  0.00     0.078 C 
ATOM      2  C1' OXE d   1       6.000   3.291  -1.037  0.00  0.00     0.078 C 
ATOM      3  C1  OXE d   1       5.082   2.095  -1.062  0.00  0.00    -0.078 A 
ATOM      4  C2  OXE d   1       4.222   1.935  -0.002  0.00  0.00    -0.078 A 
ATOM      5  C3  OXE d   1       3.316   0.878  -0.003  0.00  0.00     0.003 A 
ATOM      6  C4  OXE d   1       3.377  -0.107  -0.996  0.00  0.00    -0.002 A 
ATOM      7  C5  OXE d   1       4.272   0.016  -2.064  0.00  0.00    -0.002 A 
ATOM      8  C6  OXE d   1       5.100   1.130  -2.134  0.00  0.00     0.003 A 
ENDROOT
TORSDOF 0
ENDMDL
