MODEL 1
REMARK minimizedAffinity 6.02749872
REMARK minimizedRMSD -1
REMARK  0 active torsions:
REMARK  status: ('A' for Active; 'I' for Inactive)
ROOT
ATOM      1  C2' OXE d   1       1.857   4.590   5.942  0.00  0.00     0.078 C 
ATOM      2  C1' OXE d   1       4.612   4.993   5.583  0.00  0.00     0.078 C 
ATOM      3  C1  OXE d   1       4.119   3.573   5.709  0.00  0.00    -0.078 A 
ATOM      4  C2  OXE d   1       2.776   3.387   5.931  0.00  0.00    -0.078 A 
ATOM      5  C3  OXE d   1       2.261   2.096   6.000  0.00  0.00     0.003 A 
ATOM      6  C4  OXE d   1       3.119   0.990   5.999  0.00  0.00    -0.002 A 
ATOM      7  C5  OXE d   1       4.496   1.159   5.814  0.00  0.00    -0.002 A 
ATOM      8  C6  OXE d   1       5.005   2.439   5.625  0.00  0.00     0.003 A 
ENDROOT
TORSDOF 0
ENDMDL
