MODEL 1
REMARK minimizedAffinity 2.85947037
REMARK minimizedRMSD -1
REMARK  0 active torsions:
REMARK  status: ('A' for Active; 'I' for Inactive)
ROOT
ATOM      1  C2' OXE d   1       3.376   3.279   1.829  0.00  0.00     0.078 C 
ATOM      2  C1' OXE d   1       5.998   2.278   1.797  0.00  0.00     0.078 C 
ATOM      3  C1  OXE d   1       5.041   1.776   0.745  0.00  0.00    -0.078 A 
ATOM      4  C2  OXE d   1       3.747   2.236   0.796  0.00  0.00    -0.078 A 
ATOM      5  C3  OXE d   1       2.838   1.847  -0.183  0.00  0.00     0.003 A 
ATOM      6  C4  OXE d   1       3.186   0.874  -1.128  0.00  0.00    -0.002 A 
ATOM      7  C5  OXE d   1       4.488   0.363  -1.174  0.00  0.00    -0.002 A 
ATOM      8  C6  OXE d   1       5.437   0.835  -0.273  0.00  0.00     0.003 A 
ENDROOT
TORSDOF 0
ENDMDL
