MODEL 1
REMARK minimizedAffinity 6.85039759
REMARK minimizedRMSD -1
REMARK  0 active torsions:
REMARK  status: ('A' for Active; 'I' for Inactive)
ROOT
ATOM      1  C2' OXE d   1       3.413  -0.227  -0.351  0.00  0.00     0.078 C 
ATOM      2  C1' OXE d   1       5.999  -0.084   0.732  0.00  0.00     0.078 C 
ATOM      3  C1  OXE d   1       5.350   1.203   0.289  0.00  0.00    -0.078 A 
ATOM      4  C2  OXE d   1       4.103   1.119  -0.282  0.00  0.00    -0.078 A 
ATOM      5  C3  OXE d   1       3.437   2.282  -0.658  0.00  0.00     0.003 A 
ATOM      6  C4  OXE d   1       4.086   3.521  -0.601  0.00  0.00    -0.002 A 
ATOM      7  C5  OXE d   1       5.371   3.624  -0.058  0.00  0.00    -0.002 A 
ATOM      8  C6  OXE d   1       5.999   2.483   0.429  0.00  0.00     0.003 A 
ENDROOT
TORSDOF 0
ENDMDL
