MODEL 1
REMARK minimizedAffinity 9.67879963
REMARK minimizedRMSD -1
REMARK  0 active torsions:
REMARK  status: ('A' for Active; 'I' for Inactive)
ROOT
ATOM      1  C2' OXE d   1       3.298   0.209  -0.768  0.00  0.00     0.078 C 
ATOM      2  C1' OXE d   1       5.999  -0.103  -0.072  0.00  0.00     0.078 C 
ATOM      3  C1  OXE d   1       5.319   1.188   0.310  0.00  0.00    -0.078 A 
ATOM      4  C2  OXE d   1       4.010   1.351  -0.076  0.00  0.00    -0.078 A 
ATOM      5  C3  OXE d   1       3.319   2.500   0.298  0.00  0.00     0.003 A 
ATOM      6  C4  OXE d   1       3.988   3.555   0.930  0.00  0.00    -0.002 A 
ATOM      7  C5  OXE d   1       5.332   3.426   1.297  0.00  0.00    -0.002 A 
ATOM      8  C6  OXE d   1       5.998   2.235   1.033  0.00  0.00     0.003 A 
ENDROOT
TORSDOF 0
ENDMDL
