MODEL 1
REMARK minimizedAffinity 4.7917161
REMARK minimizedRMSD -1
REMARK  0 active torsions:
REMARK  status: ('A' for Active; 'I' for Inactive)
ROOT
ATOM      1  C2' OXE d   1       3.353  -2.774  -3.014  0.00  0.00     0.078 C 
ATOM      2  C1' OXE d   1       2.518  -2.666  -0.336  0.00  0.00     0.078 C 
ATOM      3  C1  OXE d   1       3.195  -1.447  -0.912  0.00  0.00    -0.078 A 
ATOM      4  C2  OXE d   1       3.642  -1.525  -2.209  0.00  0.00    -0.078 A 
ATOM      5  C3  OXE d   1       4.224  -0.411  -2.806  0.00  0.00     0.003 A 
ATOM      6  C4  OXE d   1       4.496   0.737  -2.051  0.00  0.00    -0.002 A 
ATOM      7  C5  OXE d   1       4.085   0.823  -0.717  0.00  0.00    -0.002 A 
ATOM      8  C6  OXE d   1       3.397  -0.242  -0.146  0.00  0.00     0.003 A 
ENDROOT
TORSDOF 0
ENDMDL
