MODEL 1
REMARK minimizedAffinity 15.4880228
REMARK minimizedRMSD -1
REMARK  0 active torsions:
REMARK  status: ('A' for Active; 'I' for Inactive)
ROOT
ATOM      1  C2' OXE d   1      -6.000   0.362  -0.758  0.00  0.00     0.078 C 
ATOM      2  C1' OXE d   1      -5.877   2.762  -2.208  0.00  0.00     0.078 C 
ATOM      3  C1  OXE d   1      -5.138   2.695  -0.895  0.00  0.00    -0.078 A 
ATOM      4  C2  OXE d   1      -5.242   1.532  -0.169  0.00  0.00    -0.078 A 
ATOM      5  C3  OXE d   1      -4.536   1.398   1.023  0.00  0.00     0.003 A 
ATOM      6  C4  OXE d   1      -3.846   2.489   1.565  0.00  0.00    -0.002 A 
ATOM      7  C5  OXE d   1      -3.761   3.695   0.861  0.00  0.00    -0.002 A 
ATOM      8  C6  OXE d   1      -4.364   3.800  -0.387  0.00  0.00     0.003 A 
ENDROOT
TORSDOF 0
ENDMDL
