MODEL 1
REMARK minimizedAffinity 7.88177538
REMARK minimizedRMSD -1
REMARK  0 active torsions:
REMARK  status: ('A' for Active; 'I' for Inactive)
ROOT
ATOM      1  C2' OXE d   1       3.344   5.899   5.949  0.00  0.00     0.078 C 
ATOM      2  C1' OXE d   1       0.672   5.041   5.931  0.00  0.00     0.078 C 
ATOM      3  C1  OXE d   1       1.749   3.985   5.958  0.00  0.00    -0.078 A 
ATOM      4  C2  OXE d   1       3.054   4.414   5.919  0.00  0.00    -0.078 A 
ATOM      5  C3  OXE d   1       4.087   3.484   5.997  0.00  0.00     0.003 A 
ATOM      6  C4  OXE d   1       3.810   2.112   5.959  0.00  0.00    -0.002 A 
ATOM      7  C5  OXE d   1       2.489   1.654   5.958  0.00  0.00    -0.002 A 
ATOM      8  C6  OXE d   1       1.448   2.576   6.000  0.00  0.00     0.003 A 
ENDROOT
TORSDOF 0
ENDMDL
