MODEL 1
REMARK minimizedAffinity -4.81351423
REMARK minimizedRMSD -1
REMARK  0 active torsions:
REMARK  status: ('A' for Active; 'I' for Inactive)
ROOT
ATOM      1  N1  IND d   1       0.255   0.199  -0.884  0.00  0.00    -0.196 N 
ATOM      2  C2  IND d   1      -0.028   0.757   0.331  0.00  0.00     0.054 A 
ATOM      3  C3  IND d   1      -0.267  -0.208   1.247  0.00  0.00    -0.031 A 
ATOM      4  C4  IND d   1      -0.150  -2.768   0.996  0.00  0.00     0.051 A 
ATOM      5  C5  IND d   1       0.034  -3.751   0.065  0.00  0.00    -0.031 A 
ATOM      6  C6  IND d   1       0.308  -3.463  -1.256  0.00  0.00     0.015 A 
ATOM      7  C7  IND d   1       0.422  -2.174  -1.695  0.00  0.00    -0.016 A 
ATOM      8  C8  IND d   1       0.229  -1.172  -0.754  0.00  0.00    -0.047 A 
ATOM      9  C9  IND d   1      -0.092  -1.459   0.579  0.00  0.00    -0.096 A 
ATOM     10  HN1 IND d   1       0.421   0.632  -1.609  0.00  0.00     0.298 HD
ENDROOT
TORSDOF 0
ENDMDL
