MODEL 1
REMARK minimizedAffinity -3.64828777
REMARK minimizedRMSD -1
REMARK  0 active torsions:
REMARK  status: ('A' for Active; 'I' for Inactive)
ROOT
ATOM      1  N1  IND d   1       0.097   0.072  -1.379  0.00  0.00    -0.196 N 
ATOM      2  C2  IND d   1       0.039   1.178  -0.577  0.00  0.00     0.054 A 
ATOM      3  C3  IND d   1      -0.502   0.863   0.621  0.00  0.00    -0.031 A 
ATOM      4  C4  IND d   1      -1.268  -1.426   1.518  0.00  0.00     0.051 A 
ATOM      5  C5  IND d   1      -1.445  -2.727   1.139  0.00  0.00    -0.031 A 
ATOM      6  C6  IND d   1      -1.107  -3.171  -0.123  0.00  0.00     0.015 A 
ATOM      7  C7  IND d   1      -0.567  -2.329  -1.053  0.00  0.00    -0.016 A 
ATOM      8  C8  IND d   1      -0.393  -1.006  -0.675  0.00  0.00    -0.047 A 
ATOM      9  C9  IND d   1      -0.773  -0.540   0.590  0.00  0.00    -0.096 A 
ATOM     10  HN1 IND d   1       0.390   0.053  -2.187  0.00  0.00     0.298 HD
ENDROOT
TORSDOF 0
ENDMDL
