MODEL 1
REMARK minimizedAffinity -2.27259541
REMARK minimizedRMSD -1
REMARK  0 active torsions:
REMARK  status: ('A' for Active; 'I' for Inactive)
ROOT
ATOM      1  N1  IND d   1       0.011  -0.094  -2.014  0.00  0.00    -0.196 N 
ATOM      2  C2  IND d   1      -0.269   1.175  -1.591  0.00  0.00     0.054 A 
ATOM      3  C3  IND d   1      -0.858   1.146  -0.374  0.00  0.00    -0.031 A 
ATOM      4  C4  IND d   1      -1.363  -0.866   1.150  0.00  0.00     0.051 A 
ATOM      5  C5  IND d   1      -1.321  -2.232   1.181  0.00  0.00    -0.031 A 
ATOM      6  C6  IND d   1      -0.820  -2.970   0.128  0.00  0.00     0.015 A 
ATOM      7  C7  IND d   1      -0.330  -2.366  -0.995  0.00  0.00    -0.016 A 
ATOM      8  C8  IND d   1      -0.377  -0.979  -1.033  0.00  0.00    -0.047 A 
ATOM      9  C9  IND d   1      -0.924  -0.227   0.015  0.00  0.00    -0.096 A 
ATOM     10  HN1 IND d   1       0.370  -0.304  -2.767  0.00  0.00     0.298 HD
ENDROOT
TORSDOF 0
ENDMDL
