MODEL 1
REMARK minimizedAffinity -4.53080177
REMARK minimizedRMSD -1
REMARK  0 active torsions:
REMARK  status: ('A' for Active; 'I' for Inactive)
ROOT
ATOM      1  N1  IND d   1       0.759  -0.883  -0.825  0.00  0.00    -0.196 N 
ATOM      2  C2  IND d   1       0.917  -2.189  -1.200  0.00  0.00     0.054 A 
ATOM      3  C3  IND d   1       0.094  -2.987  -0.483  0.00  0.00    -0.031 A 
ATOM      4  C4  IND d   1      -1.668  -2.354   1.284  0.00  0.00     0.051 A 
ATOM      5  C5  IND d   1      -2.153  -1.287   1.988  0.00  0.00    -0.031 A 
ATOM      6  C6  IND d   1      -1.684  -0.005   1.784  0.00  0.00     0.015 A 
ATOM      7  C7  IND d   1      -0.717   0.261   0.856  0.00  0.00    -0.016 A 
ATOM      8  C8  IND d   1      -0.218  -0.821   0.145  0.00  0.00    -0.047 A 
ATOM      9  C9  IND d   1      -0.659  -2.130   0.378  0.00  0.00    -0.096 A 
ATOM     10  HN1 IND d   1       1.196  -0.214  -1.142  0.00  0.00     0.298 HD
ENDROOT
TORSDOF 0
ENDMDL
