MODEL 1
REMARK minimizedAffinity -3.40063548
REMARK minimizedRMSD -1
REMARK  0 active torsions:
REMARK  status: ('A' for Active; 'I' for Inactive)
ROOT
ATOM      1  N1  IND d   1       0.442  -0.429  -2.436  0.00  0.00    -0.196 N 
ATOM      2  C2  IND d   1       0.323  -1.576  -3.171  0.00  0.00     0.054 A 
ATOM      3  C3  IND d   1      -0.171  -2.576  -2.406  0.00  0.00    -0.031 A 
ATOM      4  C4  IND d   1      -0.949  -2.526   0.047  0.00  0.00     0.051 A 
ATOM      5  C5  IND d   1      -1.001  -1.713   1.145  0.00  0.00    -0.031 A 
ATOM      6  C6  IND d   1      -0.569  -0.403   1.103  0.00  0.00     0.015 A 
ATOM      7  C7  IND d   1      -0.076   0.148  -0.046  0.00  0.00    -0.016 A 
ATOM      8  C8  IND d   1      -0.015  -0.677  -1.161  0.00  0.00    -0.047 A 
ATOM      9  C9  IND d   1      -0.413  -2.019  -1.113  0.00  0.00    -0.096 A 
ATOM     10  HN1 IND d   1       0.750   0.320  -2.723  0.00  0.00     0.298 HD
ENDROOT
TORSDOF 0
ENDMDL
