MODEL 1
REMARK minimizedAffinity -4.30531931
REMARK minimizedRMSD -1
REMARK  0 active torsions:
REMARK  status: ('A' for Active; 'I' for Inactive)
ROOT
ATOM      1  N1  IND d   1       1.591   2.465  -0.021  0.00  0.00    -0.196 N 
ATOM      2  C2  IND d   1       2.705   2.561   0.767  0.00  0.00     0.054 A 
ATOM      3  C3  IND d   1       2.681   1.615   1.732  0.00  0.00    -0.031 A 
ATOM      4  C4  IND d   1       0.965  -0.259   2.143  0.00  0.00     0.051 A 
ATOM      5  C5  IND d   1      -0.242  -0.730   1.706  0.00  0.00    -0.031 A 
ATOM      6  C6  IND d   1      -0.911  -0.149   0.649  0.00  0.00     0.015 A 
ATOM      7  C7  IND d   1      -0.391   0.922  -0.022  0.00  0.00    -0.016 A 
ATOM      8  C8  IND d   1       0.831   1.406   0.423  0.00  0.00    -0.047 A 
ATOM      9  C9  IND d   1       1.494   0.848   1.523  0.00  0.00    -0.096 A 
ATOM     10  HN1 IND d   1       1.399   2.980  -0.682  0.00  0.00     0.298 HD
ENDROOT
TORSDOF 0
ENDMDL
