MODEL 1
REMARK minimizedAffinity -6.25016594
REMARK minimizedRMSD -1
REMARK  0 active torsions:
REMARK  status: ('A' for Active; 'I' for Inactive)
ROOT
ATOM      1  N1  IND d   1       0.174   0.493  -1.051  0.00  0.00    -0.196 N 
ATOM      2  C2  IND d   1      -0.392   1.084   0.044  0.00  0.00     0.054 A 
ATOM      3  C3  IND d   1      -0.745   0.147   0.953  0.00  0.00    -0.031 A 
ATOM      4  C4  IND d   1      -0.394  -2.402   0.896  0.00  0.00     0.051 A 
ATOM      5  C5  IND d   1       0.048  -3.411   0.087  0.00  0.00    -0.031 A 
ATOM      6  C6  IND d   1       0.568  -3.164  -1.168  0.00  0.00     0.015 A 
ATOM      7  C7  IND d   1       0.676  -1.893  -1.657  0.00  0.00    -0.016 A 
ATOM      8  C8  IND d   1       0.221  -0.867  -0.840  0.00  0.00    -0.047 A 
ATOM      9  C9  IND d   1      -0.346  -1.115   0.416  0.00  0.00    -0.096 A 
ATOM     10  HN1 IND d   1       0.454   0.903  -1.753  0.00  0.00     0.298 HD
ENDROOT
TORSDOF 0
ENDMDL
