MODEL 1
REMARK minimizedAffinity -3.43518686
REMARK minimizedRMSD -1
REMARK  0 active torsions:
REMARK  status: ('A' for Active; 'I' for Inactive)
ROOT
ATOM      1  N1  IND d   1      -0.872   0.735  -0.620  0.00  0.00    -0.196 N 
ATOM      2  C2  IND d   1      -0.067   0.726  -1.724  0.00  0.00     0.054 A 
ATOM      3  C3  IND d   1       0.497  -0.492  -1.885  0.00  0.00    -0.031 A 
ATOM      4  C4  IND d   1       0.160  -2.644  -0.513  0.00  0.00     0.051 A 
ATOM      5  C5  IND d   1      -0.453  -3.119   0.613  0.00  0.00    -0.031 A 
ATOM      6  C6  IND d   1      -1.256  -2.319   1.399  0.00  0.00     0.015 A 
ATOM      7  C7  IND d   1      -1.485  -1.010   1.081  0.00  0.00    -0.016 A 
ATOM      8  C8  IND d   1      -0.859  -0.522  -0.056  0.00  0.00    -0.047 A 
ATOM      9  C9  IND d   1      -0.009  -1.318  -0.835  0.00  0.00    -0.096 A 
ATOM     10  HN1 IND d   1      -1.313   1.412  -0.326  0.00  0.00     0.298 HD
ENDROOT
TORSDOF 0
ENDMDL
