MODEL 1
REMARK minimizedAffinity -5.15986013
REMARK minimizedRMSD -1
REMARK  0 active torsions:
REMARK  status: ('A' for Active; 'I' for Inactive)
ROOT
ATOM      1  N1  IND d   1       0.065  -0.058  -1.099  0.00  0.00    -0.196 N 
ATOM      2  C2  IND d   1       0.604  -0.893  -2.038  0.00  0.00     0.054 A 
ATOM      3  C3  IND d   1       0.449  -2.183  -1.665  0.00  0.00    -0.031 A 
ATOM      4  C4  IND d   1      -0.749  -3.157   0.395  0.00  0.00     0.051 A 
ATOM      5  C5  IND d   1      -1.368  -2.787   1.556  0.00  0.00    -0.031 A 
ATOM      6  C6  IND d   1      -1.546  -1.462   1.897  0.00  0.00     0.015 A 
ATOM      7  C7  IND d   1      -1.121  -0.452   1.081  0.00  0.00    -0.016 A 
ATOM      8  C8  IND d   1      -0.486  -0.824  -0.096  0.00  0.00    -0.047 A 
ATOM      9  C9  IND d   1      -0.265  -2.167  -0.428  0.00  0.00    -0.096 A 
ATOM     10  HN1 IND d   1       0.069   0.802  -1.130  0.00  0.00     0.298 HD
ENDROOT
TORSDOF 0
ENDMDL
