MODEL 1
REMARK minimizedAffinity -5.73005676
REMARK minimizedRMSD -1
REMARK  0 active torsions:
REMARK  status: ('A' for Active; 'I' for Inactive)
ROOT
ATOM      1  N1  IND d   1       0.159   0.596  -1.234  0.00  0.00    -0.196 N 
ATOM      2  C2  IND d   1      -0.091   1.022   0.040  0.00  0.00     0.054 A 
ATOM      3  C3  IND d   1      -0.319  -0.034   0.853  0.00  0.00    -0.031 A 
ATOM      4  C4  IND d   1      -0.230  -2.552   0.326  0.00  0.00     0.051 A 
ATOM      5  C5  IND d   1      -0.077  -3.431  -0.710  0.00  0.00    -0.031 A 
ATOM      6  C6  IND d   1       0.170  -3.004  -1.998  0.00  0.00     0.015 A 
ATOM      7  C7  IND d   1       0.285  -1.677  -2.299  0.00  0.00    -0.016 A 
ATOM      8  C8  IND d   1       0.123  -0.781  -1.251  0.00  0.00    -0.047 A 
ATOM      9  C9  IND d   1      -0.170  -1.207   0.050  0.00  0.00    -0.096 A 
ATOM     10  HN1 IND d   1       0.312   1.103  -1.912  0.00  0.00     0.298 HD
ENDROOT
TORSDOF 0
ENDMDL
