MODEL 1
REMARK minimizedAffinity -1.51979899
REMARK minimizedRMSD -1
REMARK  0 active torsions:
REMARK  status: ('A' for Active; 'I' for Inactive)
ROOT
ATOM      1  N1  IND d   1       0.075  -0.970  -2.210  0.00  0.00    -0.196 N 
ATOM      2  C2  IND d   1      -0.139  -2.139  -2.885  0.00  0.00     0.054 A 
ATOM      3  C3  IND d   1      -0.708  -3.055  -2.070  0.00  0.00    -0.031 A 
ATOM      4  C4  IND d   1      -1.470  -2.817   0.378  0.00  0.00     0.051 A 
ATOM      5  C5  IND d   1      -1.452  -1.948   1.432  0.00  0.00    -0.031 A 
ATOM      6  C6  IND d   1      -0.915  -0.681   1.323  0.00  0.00     0.015 A 
ATOM      7  C7  IND d   1      -0.385  -0.231   0.147  0.00  0.00    -0.016 A 
ATOM      8  C8  IND d   1      -0.395  -1.114  -0.923  0.00  0.00    -0.047 A 
ATOM      9  C9  IND d   1      -0.900  -2.415  -0.807  0.00  0.00    -0.096 A 
ATOM     10  HN1 IND d   1       0.442  -0.263  -2.535  0.00  0.00     0.298 HD
ENDROOT
TORSDOF 0
ENDMDL
