MODEL 1
REMARK minimizedAffinity -4.99681473
REMARK minimizedRMSD -1
REMARK  0 active torsions:
REMARK  status: ('A' for Active; 'I' for Inactive)
ROOT
ATOM      1  N1  IND d   1       0.074  -0.935  -2.215  0.00  0.00    -0.196 N 
ATOM      2  C2  IND d   1      -0.066  -2.231  -2.628  0.00  0.00     0.054 A 
ATOM      3  C3  IND d   1      -0.486  -3.008  -1.605  0.00  0.00    -0.031 A 
ATOM      4  C4  IND d   1      -1.103  -2.347   0.806  0.00  0.00     0.051 A 
ATOM      5  C5  IND d   1      -1.102  -1.284   1.665  0.00  0.00    -0.031 A 
ATOM      6  C6  IND d   1      -0.704  -0.024   1.265  0.00  0.00     0.015 A 
ATOM      7  C7  IND d   1      -0.300   0.223  -0.016  0.00  0.00    -0.016 A 
ATOM      8  C8  IND d   1      -0.293  -0.856  -0.889  0.00  0.00    -0.047 A 
ATOM      9  C9  IND d   1      -0.656  -2.145  -0.479  0.00  0.00    -0.096 A 
ATOM     10  HN1 IND d   1       0.346  -0.280  -2.701  0.00  0.00     0.298 HD
ENDROOT
TORSDOF 0
ENDMDL
