MODEL 1
REMARK minimizedAffinity -3.75346708
REMARK minimizedRMSD -1
REMARK  0 active torsions:
REMARK  status: ('A' for Active; 'I' for Inactive)
ROOT
ATOM      1  N1  IND d   1      -1.383   0.422   0.797  0.00  0.00    -0.196 N 
ATOM      2  C2  IND d   1      -0.413   1.280   0.358  0.00  0.00     0.054 A 
ATOM      3  C3  IND d   1       0.667   0.589  -0.071  0.00  0.00    -0.031 A 
ATOM      4  C4  IND d   1       1.021  -1.956  -0.237  0.00  0.00     0.051 A 
ATOM      5  C5  IND d   1       0.432  -3.148   0.078  0.00  0.00    -0.031 A 
ATOM      6  C6  IND d   1      -0.819  -3.213   0.658  0.00  0.00     0.015 A 
ATOM      7  C7  IND d   1      -1.535  -2.083   0.935  0.00  0.00    -0.016 A 
ATOM      8  C8  IND d   1      -0.937  -0.870   0.623  0.00  0.00    -0.047 A 
ATOM      9  C9  IND d   1       0.350  -0.797   0.073  0.00  0.00    -0.096 A 
ATOM     10  HN1 IND d   1      -2.143   0.651   1.126  0.00  0.00     0.298 HD
ENDROOT
TORSDOF 0
ENDMDL
