MODEL 1
REMARK minimizedAffinity -2.81816816
REMARK minimizedRMSD -1
REMARK  0 active torsions:
REMARK  status: ('A' for Active; 'I' for Inactive)
ROOT
ATOM      1  N1  IND d   1      -1.287  -2.635   0.878  0.00  0.00    -0.196 N 
ATOM      2  C2  IND d   1      -0.443  -3.422   0.146  0.00  0.00     0.054 A 
ATOM      3  C3  IND d   1       0.370  -2.657  -0.617  0.00  0.00    -0.031 A 
ATOM      4  C4  IND d   1       0.557  -0.092  -0.744  0.00  0.00     0.051 A 
ATOM      5  C5  IND d   1      -0.029   1.055  -0.288  0.00  0.00    -0.031 A 
ATOM      6  C6  IND d   1      -1.084   1.030   0.601  0.00  0.00     0.015 A 
ATOM      7  C7  IND d   1      -1.587  -0.148   1.077  0.00  0.00    -0.016 A 
ATOM      8  C8  IND d   1      -0.999  -1.314   0.610  0.00  0.00    -0.047 A 
ATOM      9  C9  IND d   1       0.044  -1.297  -0.324  0.00  0.00    -0.096 A 
ATOM     10  HN1 IND d   1      -1.896  -2.917   1.416  0.00  0.00     0.298 HD
ENDROOT
TORSDOF 0
ENDMDL
