MODEL 1
REMARK minimizedAffinity -1.45474911
REMARK minimizedRMSD -1
REMARK  0 active torsions:
REMARK  status: ('A' for Active; 'I' for Inactive)
ROOT
ATOM      1  N1  IND d   1      -0.132  -0.498  -1.354  0.00  0.00    -0.196 N 
ATOM      2  C2  IND d   1      -0.090   0.862  -1.221  0.00  0.00     0.054 A 
ATOM      3  C3  IND d   1      -0.520   1.228   0.007  0.00  0.00    -0.031 A 
ATOM      4  C4  IND d   1      -1.243  -0.243   1.992  0.00  0.00     0.051 A 
ATOM      5  C5  IND d   1      -1.482  -1.543   2.339  0.00  0.00    -0.031 A 
ATOM      6  C6  IND d   1      -1.276  -2.583   1.455  0.00  0.00     0.015 A 
ATOM      7  C7  IND d   1      -0.811  -2.361   0.190  0.00  0.00    -0.016 A 
ATOM      8  C8  IND d   1      -0.574  -1.041  -0.167  0.00  0.00    -0.047 A 
ATOM      9  C9  IND d   1      -0.822   0.022   0.711  0.00  0.00    -0.096 A 
ATOM     10  HN1 IND d   1       0.082  -0.940  -2.060  0.00  0.00     0.298 HD
ENDROOT
TORSDOF 0
ENDMDL
