MODEL 1
REMARK minimizedAffinity -1.46816611
REMARK minimizedRMSD -1
REMARK  0 active torsions:
REMARK  status: ('A' for Active; 'I' for Inactive)
ROOT
ATOM      1  N1  IND d   1       1.300   1.482  -1.409  0.00  0.00    -0.196 N 
ATOM      2  C2  IND d   1       0.070   0.887  -1.410  0.00  0.00     0.054 A 
ATOM      3  C3  IND d   1      -0.694   1.384  -0.411  0.00  0.00    -0.031 A 
ATOM      4  C4  IND d   1      -0.164   3.252   1.279  0.00  0.00     0.051 A 
ATOM      5  C5  IND d   1       0.847   4.072   1.696  0.00  0.00    -0.031 A 
ATOM      6  C6  IND d   1       2.084   4.073   1.086  0.00  0.00     0.015 A 
ATOM      7  C7  IND d   1       2.355   3.258   0.023  0.00  0.00    -0.016 A 
ATOM      8  C8  IND d   1       1.333   2.419  -0.399  0.00  0.00    -0.047 A 
ATOM      9  C9  IND d   1       0.089   2.383   0.244  0.00  0.00    -0.096 A 
ATOM     10  HN1 IND d   1       1.945   1.303  -1.949  0.00  0.00     0.298 HD
ENDROOT
TORSDOF 0
ENDMDL
