MODEL 1
REMARK minimizedAffinity 0.157099992
REMARK minimizedRMSD -1
REMARK  0 active torsions:
REMARK  status: ('A' for Active; 'I' for Inactive)
ROOT
ATOM      1  N1  IND d   1       0.183   0.242  -1.255  0.00  0.00    -0.196 N 
ATOM      2  C2  IND d   1       0.535   1.327  -0.501  0.00  0.00     0.054 A 
ATOM      3  C3  IND d   1       0.259   1.104   0.803  0.00  0.00    -0.031 A 
ATOM      4  C4  IND d   1      -0.678  -1.009   1.938  0.00  0.00     0.051 A 
ATOM      5  C5  IND d   1      -1.185  -2.247   1.659  0.00  0.00    -0.031 A 
ATOM      6  C6  IND d   1      -1.261  -2.729   0.368  0.00  0.00     0.015 A 
ATOM      7  C7  IND d   1      -0.820  -1.993  -0.695  0.00  0.00    -0.016 A 
ATOM      8  C8  IND d   1      -0.311  -0.732  -0.416  0.00  0.00    -0.047 A 
ATOM      9  C9  IND d   1      -0.271  -0.220   0.888  0.00  0.00    -0.096 A 
ATOM     10  HN1 IND d   1       0.258   0.179  -2.109  0.00  0.00     0.298 HD
ENDROOT
TORSDOF 0
ENDMDL
