MODEL 1
REMARK minimizedAffinity -5.63046789
REMARK minimizedRMSD -1
REMARK  0 active torsions:
REMARK  status: ('A' for Active; 'I' for Inactive)
ROOT
ATOM      1  N1  IND d   1      -0.438   0.198  -1.741  0.00  0.00    -0.196 N 
ATOM      2  C2  IND d   1       0.214  -0.253  -2.855  0.00  0.00     0.054 A 
ATOM      3  C3  IND d   1       0.732  -1.482  -2.631  0.00  0.00    -0.031 A 
ATOM      4  C4  IND d   1       0.545  -2.982  -0.547  0.00  0.00     0.051 A 
ATOM      5  C5  IND d   1       0.078  -2.988   0.737  0.00  0.00    -0.031 A 
ATOM      6  C6  IND d   1      -0.601  -1.912   1.271  0.00  0.00     0.015 A 
ATOM      7  C7  IND d   1      -0.849  -0.789   0.533  0.00  0.00    -0.016 A 
ATOM      8  C8  IND d   1      -0.370  -0.776  -0.769  0.00  0.00    -0.047 A 
ATOM      9  C9  IND d   1       0.356  -1.849  -1.303  0.00  0.00    -0.096 A 
ATOM     10  HN1 IND d   1      -0.825   0.961  -1.661  0.00  0.00     0.298 HD
ENDROOT
TORSDOF 0
ENDMDL
