MODEL 1
REMARK minimizedAffinity 2.93254924
REMARK minimizedRMSD -1
REMARK  1 active torsions:
REMARK  status: ('A' for Active; 'I' for Inactive)
REMARK    1  A    between atoms: C3_4  and  O_7 
ROOT
ATOM      1  C   UNL d   1       3.415  -5.999  -4.326  0.00  0.00    -0.033 A 
ATOM      2  C1  UNL d   1       2.698  -4.815  -4.147  0.00  0.00     0.039 A 
ATOM      3  C2  UNL d   1       3.206  -3.609  -4.637  0.00  0.00    -0.080 A 
ATOM      4  C3  UNL d   1       4.428  -3.603  -5.302  0.00  0.00     0.150 A 
ATOM      5  C4  UNL d   1       5.146  -4.780  -5.486  0.00  0.00    -0.007 A 
ATOM      6  C5  UNL d   1       4.638  -5.982  -4.996  0.00  0.00     0.039 A 
ENDROOT
BRANCH   4   7
ATOM      7  O   UNL d   1       4.966  -2.450  -5.793  0.00  0.00    -0.526 OA
ATOM      8  H5  UNL d   1       4.374  -1.713  -5.567  0.00  0.00     0.418 HD
ENDBRANCH   4   7
TORSDOF 1
ENDMDL
