MODEL 1
REMARK minimizedAffinity 2.35341954
REMARK minimizedRMSD -1
REMARK  1 active torsions:
REMARK  status: ('A' for Active; 'I' for Inactive)
REMARK    1  A    between atoms: C3_4  and  O_7 
ROOT
ATOM      1  C   UNL d   1       4.376  -5.961  -4.845  0.00  0.00    -0.033 A 
ATOM      2  C1  UNL d   1       5.547  -5.839  -5.596  0.00  0.00     0.039 A 
ATOM      3  C2  UNL d   1       6.000  -4.578  -5.987  0.00  0.00    -0.080 A 
ATOM      4  C3  UNL d   1       5.274  -3.447  -5.620  0.00  0.00     0.150 A 
ATOM      5  C4  UNL d   1       4.109  -3.561  -4.869  0.00  0.00    -0.007 A 
ATOM      6  C5  UNL d   1       3.658  -4.822  -4.480  0.00  0.00     0.039 A 
ENDROOT
BRANCH   4   7
ATOM      7  O   UNL d   1       5.674  -2.195  -5.982  0.00  0.00    -0.526 OA
ATOM      8  H5  UNL d   1       6.478  -2.273  -6.522  0.00  0.00     0.418 HD
ENDBRANCH   4   7
TORSDOF 1
ENDMDL
