MODEL 1
REMARK minimizedAffinity 4.1806221
REMARK minimizedRMSD -1
REMARK  1 active torsions:
REMARK  status: ('A' for Active; 'I' for Inactive)
REMARK    1  A    between atoms: C3_4  and  O_7 
ROOT
ATOM      1  C   UNL d   1       2.466  -1.902   3.616  0.00  0.00    -0.033 A 
ATOM      2  C1  UNL d   1       2.750  -1.466   2.320  0.00  0.00     0.039 A 
ATOM      3  C2  UNL d   1       3.593  -2.216   1.497  0.00  0.00    -0.080 A 
ATOM      4  C3  UNL d   1       4.143  -3.400   1.981  0.00  0.00     0.150 A 
ATOM      5  C4  UNL d   1       3.861  -3.843   3.269  0.00  0.00    -0.007 A 
ATOM      6  C5  UNL d   1       3.021  -3.092   4.090  0.00  0.00     0.039 A 
ENDROOT
BRANCH   4   7
ATOM      7  O   UNL d   1       4.974  -4.164   1.217  0.00  0.00    -0.526 OA
ATOM      8  H5  UNL d   1       5.101  -3.719   0.362  0.00  0.00     0.418 HD
ENDBRANCH   4   7
TORSDOF 1
ENDMDL
