MODEL 1
REMARK minimizedAffinity -2.02492619
REMARK minimizedRMSD -1
REMARK  1 active torsions:
REMARK  status: ('A' for Active; 'I' for Inactive)
REMARK    1  A    between atoms: C3_4  and  O_7 
ROOT
ATOM      1  C   UNL d   1       3.974   5.628  -1.497  0.00  0.00    -0.033 A 
ATOM      2  C1  UNL d   1       3.313   4.582  -2.144  0.00  0.00     0.039 A 
ATOM      3  C2  UNL d   1       3.979   3.823  -3.109  0.00  0.00    -0.080 A 
ATOM      4  C3  UNL d   1       5.304   4.120  -3.416  0.00  0.00     0.150 A 
ATOM      5  C4  UNL d   1       5.970   5.159  -2.773  0.00  0.00    -0.007 A 
ATOM      6  C5  UNL d   1       5.303   5.916  -1.811  0.00  0.00     0.039 A 
ENDROOT
BRANCH   4   7
ATOM      7  O   UNL d   1       5.994   3.411  -4.354  0.00  0.00    -0.526 OA
ATOM      8  H5  UNL d   1       5.399   2.744  -4.735  0.00  0.00     0.418 HD
ENDBRANCH   4   7
TORSDOF 1
ENDMDL
