MODEL 1
REMARK minimizedAffinity -0.613336444
REMARK minimizedRMSD -1
REMARK  1 active torsions:
REMARK  status: ('A' for Active; 'I' for Inactive)
REMARK    1  A    between atoms: C3_4  and  O_7 
ROOT
ATOM      1  C   UNL d   1       0.286  -4.380  -1.167  0.00  0.00    -0.033 A 
ATOM      2  C1  UNL d   1      -0.202  -3.116  -0.831  0.00  0.00     0.039 A 
ATOM      3  C2  UNL d   1      -1.351  -2.995  -0.047  0.00  0.00    -0.080 A 
ATOM      4  C3  UNL d   1      -2.000  -4.145   0.395  0.00  0.00     0.150 A 
ATOM      5  C4  UNL d   1      -1.517  -5.407   0.067  0.00  0.00    -0.007 A 
ATOM      6  C5  UNL d   1      -0.370  -5.525  -0.717  0.00  0.00     0.039 A 
ENDROOT
BRANCH   4   7
ATOM      7  O   UNL d   1      -3.128  -4.078   1.158  0.00  0.00    -0.526 OA
ATOM      8  H5  UNL d   1      -3.361  -3.143   1.281  0.00  0.00     0.418 HD
ENDBRANCH   4   7
TORSDOF 1
ENDMDL
