MODEL 1
REMARK minimizedAffinity 7.7946744
REMARK minimizedRMSD -1
REMARK  1 active torsions:
REMARK  status: ('A' for Active; 'I' for Inactive)
REMARK    1  A    between atoms: C3_4  and  O_7 
ROOT
ATOM      1  C   UNL d   1      -4.249   3.821  -3.163  0.00  0.00    -0.033 A 
ATOM      2  C1  UNL d   1      -3.989   3.196  -1.942  0.00  0.00     0.039 A 
ATOM      3  C2  UNL d   1      -3.454   1.907  -1.915  0.00  0.00    -0.080 A 
ATOM      4  C3  UNL d   1      -3.185   1.254  -3.115  0.00  0.00     0.150 A 
ATOM      5  C4  UNL d   1      -3.438   1.872  -4.335  0.00  0.00    -0.007 A 
ATOM      6  C5  UNL d   1      -3.973   3.159  -4.360  0.00  0.00     0.039 A 
ENDROOT
BRANCH   4   7
ATOM      7  O   UNL d   1      -2.667  -0.007  -3.139  0.00  0.00    -0.526 OA
ATOM      8  H5  UNL d   1      -2.571  -0.318  -2.223  0.00  0.00     0.418 HD
ENDBRANCH   4   7
TORSDOF 1
ENDMDL
