MODEL 1
REMARK minimizedAffinity -1.37273335
REMARK minimizedRMSD -1
REMARK  1 active torsions:
REMARK  status: ('A' for Active; 'I' for Inactive)
REMARK    1  A    between atoms: C3_4  and  O_7 
ROOT
ATOM      1  C   UNL d   1       5.916  -0.128  -4.779  0.00  0.00    -0.033 A 
ATOM      2  C1  UNL d   1       5.891  -0.821  -5.991  0.00  0.00     0.039 A 
ATOM      3  C2  UNL d   1       5.895  -2.217  -5.999  0.00  0.00    -0.080 A 
ATOM      4  C3  UNL d   1       5.923  -2.907  -4.790  0.00  0.00     0.150 A 
ATOM      5  C4  UNL d   1       5.945  -2.223  -3.579  0.00  0.00    -0.007 A 
ATOM      6  C5  UNL d   1       5.942  -0.829  -3.573  0.00  0.00     0.039 A 
ENDROOT
BRANCH   4   7
ATOM      7  O   UNL d   1       5.933  -4.270  -4.748  0.00  0.00    -0.526 OA
ATOM      8  H5  UNL d   1       5.945  -4.606  -5.659  0.00  0.00     0.418 HD
ENDBRANCH   4   7
TORSDOF 1
ENDMDL
