MODEL 1
REMARK minimizedAffinity -5.04533148
REMARK minimizedRMSD -1
REMARK  1 active torsions:
REMARK  status: ('A' for Active; 'I' for Inactive)
REMARK    1  A    between atoms: C3_4  and  O_7 
ROOT
ATOM      1  C   UNL d   1       2.853  -0.076   0.803  0.00  0.00    -0.033 A 
ATOM      2  C1  UNL d   1       2.961  -1.177   1.656  0.00  0.00     0.039 A 
ATOM      3  C2  UNL d   1       2.560  -1.071   2.989  0.00  0.00    -0.080 A 
ATOM      4  C3  UNL d   1       2.054   0.139   3.457  0.00  0.00     0.150 A 
ATOM      5  C4  UNL d   1       1.940   1.238   2.612  0.00  0.00    -0.007 A 
ATOM      6  C5  UNL d   1       2.341   1.131   1.281  0.00  0.00     0.039 A 
ENDROOT
BRANCH   4   7
ATOM      7  O   UNL d   1       1.654   0.291   4.751  0.00  0.00    -0.526 OA
ATOM      8  H5  UNL d   1       1.818  -0.542   5.224  0.00  0.00     0.418 HD
ENDBRANCH   4   7
TORSDOF 1
ENDMDL
