MODEL 1
REMARK minimizedAffinity -3.74914551
REMARK minimizedRMSD -1
REMARK  0 active torsions:
REMARK  status: ('A' for Active; 'I' for Inactive)
ROOT
ATOM      1  C   UNL d   1       0.091   1.109  -0.060  0.00  0.00     0.172 C 
ATOM      2  N   UNL d   1      -0.018  -0.287   0.295  0.00  0.00    -0.070 N 
ATOM      3  C1  UNL d   1       0.314  -1.344  -0.510  0.00  0.00    -0.004 A 
ATOM      4  C2  UNL d   1       0.067  -2.503   0.192  0.00  0.00    -0.047 A 
ATOM      5  C3  UNL d   1      -0.432  -2.130   1.463  0.00  0.00    -0.047 A 
ATOM      6  C4  UNL d   1      -0.474  -0.753   1.499  0.00  0.00    -0.004 A 
ENDROOT
TORSDOF 0
ENDMDL
