MODEL 1
REMARK minimizedAffinity -1.1971612
REMARK minimizedRMSD -1
REMARK  0 active torsions:
REMARK  status: ('A' for Active; 'I' for Inactive)
ROOT
ATOM      1  C   UNL d   1      -0.663  -3.201   0.521  0.00  0.00     0.172 C 
ATOM      2  N   UNL d   1      -0.349  -1.885   0.018  0.00  0.00    -0.070 N 
ATOM      3  C1  UNL d   1      -0.353  -0.728   0.751  0.00  0.00    -0.004 A 
ATOM      4  C2  UNL d   1      -0.001   0.305  -0.090  0.00  0.00    -0.047 A 
ATOM      5  C3  UNL d   1       0.221  -0.249  -1.373  0.00  0.00    -0.047 A 
ATOM      6  C4  UNL d   1      -0.002  -1.607  -1.277  0.00  0.00    -0.004 A 
ENDROOT
TORSDOF 0
ENDMDL
