MODEL 1
REMARK minimizedAffinity -2.02617216
REMARK minimizedRMSD -1
REMARK  0 active torsions:
REMARK  status: ('A' for Active; 'I' for Inactive)
ROOT
ATOM      1  C   UNL d   1       0.563   2.048  -0.387  0.00  0.00     0.172 C 
ATOM      2  N   UNL d   1       0.626   0.608  -0.303  0.00  0.00    -0.070 N 
ATOM      3  C1  UNL d   1       0.804  -0.246  -1.359  0.00  0.00    -0.004 A 
ATOM      4  C2  UNL d   1       0.807  -1.533  -0.865  0.00  0.00    -0.047 A 
ATOM      5  C3  UNL d   1       0.624  -1.449   0.536  0.00  0.00    -0.047 A 
ATOM      6  C4  UNL d   1       0.515  -0.112   0.857  0.00  0.00    -0.004 A 
ENDROOT
TORSDOF 0
ENDMDL
