MODEL 1
REMARK minimizedAffinity -2.41674709
REMARK minimizedRMSD -1
REMARK  0 active torsions:
REMARK  status: ('A' for Active; 'I' for Inactive)
ROOT
ATOM      1  C   UNL d   1      -0.473   1.286  -0.328  0.00  0.00     0.172 C 
ATOM      2  N   UNL d   1      -0.218   0.033   0.343  0.00  0.00    -0.070 N 
ATOM      3  C1  UNL d   1       0.482  -0.120   1.510  0.00  0.00    -0.004 A 
ATOM      4  C2  UNL d   1       0.502  -1.463   1.817  0.00  0.00    -0.047 A 
ATOM      5  C3  UNL d   1      -0.210  -2.141   0.799  0.00  0.00    -0.047 A 
ATOM      6  C4  UNL d   1      -0.645  -1.191  -0.101  0.00  0.00    -0.004 A 
ENDROOT
TORSDOF 0
ENDMDL
