MODEL 1
REMARK minimizedAffinity -2.24842882
REMARK minimizedRMSD -1
REMARK  0 active torsions:
REMARK  status: ('A' for Active; 'I' for Inactive)
ROOT
ATOM      1  C   UNL d   1      -0.296   0.681  -0.098  0.00  0.00     0.172 C 
ATOM      2  N   UNL d   1      -0.294  -0.571   0.620  0.00  0.00    -0.070 N 
ATOM      3  C1  UNL d   1       0.184  -1.763   0.146  0.00  0.00    -0.004 A 
ATOM      4  C2  UNL d   1       0.005  -2.712   1.129  0.00  0.00    -0.047 A 
ATOM      5  C3  UNL d   1      -0.602  -2.068   2.233  0.00  0.00    -0.047 A 
ATOM      6  C4  UNL d   1      -0.776  -0.743   1.891  0.00  0.00    -0.004 A 
ENDROOT
TORSDOF 0
ENDMDL
