MODEL 1
REMARK minimizedAffinity -1.78678381
REMARK minimizedRMSD -1
REMARK  0 active torsions:
REMARK  status: ('A' for Active; 'I' for Inactive)
ROOT
ATOM      1  C   UNL d   1      -0.084   1.084  -0.197  0.00  0.00     0.172 C 
ATOM      2  N   UNL d   1      -0.379  -0.262   0.235  0.00  0.00    -0.070 N 
ATOM      3  C1  UNL d   1      -0.410  -0.696   1.533  0.00  0.00    -0.004 A 
ATOM      4  C2  UNL d   1      -0.729  -2.036   1.523  0.00  0.00    -0.047 A 
ATOM      5  C3  UNL d   1      -0.893  -2.423   0.172  0.00  0.00    -0.047 A 
ATOM      6  C4  UNL d   1      -0.671  -1.305  -0.605  0.00  0.00    -0.004 A 
ENDROOT
TORSDOF 0
ENDMDL
