MODEL 1
REMARK minimizedAffinity -3.83131862
REMARK minimizedRMSD -1
REMARK  0 active torsions:
REMARK  status: ('A' for Active; 'I' for Inactive)
ROOT
ATOM      1  C   UNL d   1       0.314  -3.263   0.505  0.00  0.00     0.172 C 
ATOM      2  N   UNL d   1       0.126  -1.865   0.193  0.00  0.00    -0.070 N 
ATOM      3  C1  UNL d   1       0.417  -1.269  -1.005  0.00  0.00    -0.004 A 
ATOM      4  C2  UNL d   1       0.096   0.067  -0.900  0.00  0.00    -0.047 A 
ATOM      5  C3  UNL d   1      -0.404   0.281   0.407  0.00  0.00    -0.047 A 
ATOM      6  C4  UNL d   1      -0.375  -0.932   1.062  0.00  0.00    -0.004 A 
ENDROOT
TORSDOF 0
ENDMDL
