MODEL 1
REMARK minimizedAffinity -3.08643913
REMARK minimizedRMSD -1
REMARK  0 active torsions:
REMARK  status: ('A' for Active; 'I' for Inactive)
ROOT
ATOM      1  C   UNL d   1       0.419   1.272  -0.269  0.00  0.00     0.172 C 
ATOM      2  N   UNL d   1       0.247  -0.146  -0.059  0.00  0.00    -0.070 N 
ATOM      3  C1  UNL d   1       0.782  -1.139  -0.837  0.00  0.00    -0.004 A 
ATOM      4  C2  UNL d   1       0.387  -2.348  -0.307  0.00  0.00    -0.047 A 
ATOM      5  C3  UNL d   1      -0.413  -2.073   0.827  0.00  0.00    -0.047 A 
ATOM      6  C4  UNL d   1      -0.483  -0.702   0.957  0.00  0.00    -0.004 A 
ENDROOT
TORSDOF 0
ENDMDL
