MODEL 1
REMARK minimizedAffinity -3.49752951
REMARK minimizedRMSD -1
REMARK  0 active torsions:
REMARK  status: ('A' for Active; 'I' for Inactive)
ROOT
ATOM      1  C   UNL d   1      -0.024   0.381  -0.240  0.00  0.00     0.172 C 
ATOM      2  N   UNL d   1      -0.158  -1.042  -0.442  0.00  0.00    -0.070 N 
ATOM      3  C1  UNL d   1      -0.507  -1.955   0.517  0.00  0.00    -0.004 A 
ATOM      4  C2  UNL d   1      -0.526  -3.200  -0.073  0.00  0.00    -0.047 A 
ATOM      5  C3  UNL d   1      -0.175  -3.030  -1.433  0.00  0.00    -0.047 A 
ATOM      6  C4  UNL d   1       0.047  -1.684  -1.635  0.00  0.00    -0.004 A 
ENDROOT
TORSDOF 0
ENDMDL
