MODEL 1
REMARK minimizedAffinity -3.44773698
REMARK minimizedRMSD -1
REMARK  0 active torsions:
REMARK  status: ('A' for Active; 'I' for Inactive)
ROOT
ATOM      1  C   UNL d   1      -0.020  -2.606   0.499  0.00  0.00     0.172 C 
ATOM      2  N   UNL d   1       0.218  -1.198   0.284  0.00  0.00    -0.070 N 
ATOM      3  C1  UNL d   1      -0.032  -0.514  -0.876  0.00  0.00    -0.004 A 
ATOM      4  C2  UNL d   1       0.328   0.801  -0.677  0.00  0.00    -0.047 A 
ATOM      5  C3  UNL d   1       0.811   0.912   0.648  0.00  0.00    -0.047 A 
ATOM      6  C4  UNL d   1       0.732  -0.340   1.220  0.00  0.00    -0.004 A 
ENDROOT
TORSDOF 0
ENDMDL
