MODEL 1
REMARK minimizedAffinity -2.75761747
REMARK minimizedRMSD -1
REMARK  0 active torsions:
REMARK  status: ('A' for Active; 'I' for Inactive)
ROOT
ATOM      1  C   UNL d   1       0.436   1.118  -0.016  0.00  0.00     0.172 C 
ATOM      2  N   UNL d   1       0.090  -0.271   0.177  0.00  0.00    -0.070 N 
ATOM      3  C1  UNL d   1       0.643  -1.331  -0.491  0.00  0.00    -0.004 A 
ATOM      4  C2  UNL d   1       0.047  -2.482  -0.022  0.00  0.00    -0.047 A 
ATOM      5  C3  UNL d   1      -0.897  -2.100   0.960  0.00  0.00    -0.047 A 
ATOM      6  C4  UNL d   1      -0.850  -0.726   1.063  0.00  0.00    -0.004 A 
ENDROOT
TORSDOF 0
ENDMDL
