MODEL 1
REMARK minimizedAffinity -3.8043561
REMARK minimizedRMSD -1
REMARK  0 active torsions:
REMARK  status: ('A' for Active; 'I' for Inactive)
ROOT
ATOM      1  C   UNL d   1       0.003  -3.134  -1.236  0.00  0.00     0.172 C 
ATOM      2  N   UNL d   1      -0.216  -2.083  -0.271  0.00  0.00    -0.070 N 
ATOM      3  C1  UNL d   1      -1.073  -2.144   0.796  0.00  0.00    -0.004 A 
ATOM      4  C2  UNL d   1      -0.993  -0.945   1.471  0.00  0.00    -0.047 A 
ATOM      5  C3  UNL d   1      -0.056  -0.135   0.786  0.00  0.00    -0.047 A 
ATOM      6  C4  UNL d   1       0.409  -0.864  -0.288  0.00  0.00    -0.004 A 
ENDROOT
TORSDOF 0
ENDMDL
