MODEL 1
REMARK minimizedAffinity -2.74801707
REMARK minimizedRMSD -1
REMARK  0 active torsions:
REMARK  status: ('A' for Active; 'I' for Inactive)
ROOT
ATOM      1  C   UNL d   1       2.085   3.424   0.438  0.00  0.00     0.172 C 
ATOM      2  N   UNL d   1       1.106   2.404   0.143  0.00  0.00    -0.070 N 
ATOM      3  C1  UNL d   1      -0.070   2.598  -0.532  0.00  0.00    -0.004 A 
ATOM      4  C2  UNL d   1      -0.718   1.384  -0.607  0.00  0.00    -0.047 A 
ATOM      5  C3  UNL d   1       0.096   0.428   0.046  0.00  0.00    -0.047 A 
ATOM      6  C4  UNL d   1       1.219   1.087   0.501  0.00  0.00    -0.004 A 
ENDROOT
TORSDOF 0
ENDMDL
