MODEL 1
REMARK minimizedAffinity -3.33661056
REMARK minimizedRMSD -1
REMARK  0 active torsions:
REMARK  status: ('A' for Active; 'I' for Inactive)
ROOT
ATOM      1  C   UNL d   1      -0.178  -2.576  -2.364  0.00  0.00     0.172 C 
ATOM      2  N   UNL d   1      -0.087  -2.235  -0.964  0.00  0.00    -0.070 N 
ATOM      3  C1  UNL d   1       0.090  -0.974  -0.460  0.00  0.00    -0.004 A 
ATOM      4  C2  UNL d   1       0.124  -1.071   0.915  0.00  0.00    -0.047 A 
ATOM      5  C3  UNL d   1      -0.037  -2.437   1.248  0.00  0.00    -0.047 A 
ATOM      6  C4  UNL d   1      -0.165  -3.135   0.066  0.00  0.00    -0.004 A 
ENDROOT
TORSDOF 0
ENDMDL
