MODEL 1
REMARK minimizedAffinity -2.39306498
REMARK minimizedRMSD -1
REMARK  0 active torsions:
REMARK  status: ('A' for Active; 'I' for Inactive)
ROOT
ATOM      1  C   UNL d   1       0.743   3.346   0.507  0.00  0.00     0.172 C 
ATOM      2  N   UNL d   1       0.370   1.969   0.281  0.00  0.00    -0.070 N 
ATOM      3  C1  UNL d   1      -0.035   1.438  -0.914  0.00  0.00    -0.004 A 
ATOM      4  C2  UNL d   1      -0.297   0.100  -0.714  0.00  0.00    -0.047 A 
ATOM      5  C3  UNL d   1      -0.041  -0.182   0.649  0.00  0.00    -0.047 A 
ATOM      6  C4  UNL d   1       0.371   0.993   1.241  0.00  0.00    -0.004 A 
ENDROOT
TORSDOF 0
ENDMDL
