MODEL 1
REMARK minimizedAffinity -2.80604482
REMARK minimizedRMSD -1
REMARK  0 active torsions:
REMARK  status: ('A' for Active; 'I' for Inactive)
ROOT
ATOM      1  C   UNL d   1      -1.894   0.300   0.750  0.00  0.00     0.172 C 
ATOM      2  N   UNL d   1      -0.971  -0.804   0.635  0.00  0.00    -0.070 N 
ATOM      3  C1  UNL d   1      -1.316  -2.122   0.501  0.00  0.00    -0.004 A 
ATOM      4  C2  UNL d   1      -0.153  -2.858   0.423  0.00  0.00    -0.047 A 
ATOM      5  C3  UNL d   1       0.929  -1.950   0.515  0.00  0.00    -0.047 A 
ATOM      6  C4  UNL d   1       0.394  -0.686   0.645  0.00  0.00    -0.004 A 
ENDROOT
TORSDOF 0
ENDMDL
