MODEL 1
REMARK minimizedAffinity -3.52180409
REMARK minimizedRMSD -1
REMARK  0 active torsions:
REMARK  status: ('A' for Active; 'I' for Inactive)
ROOT
ATOM      1  C   UNL d   1       0.459   0.549   0.020  0.00  0.00     0.172 C 
ATOM      2  N   UNL d   1       0.273  -0.883   0.061  0.00  0.00    -0.070 N 
ATOM      3  C1  UNL d   1       0.198  -1.710  -1.027  0.00  0.00    -0.004 A 
ATOM      4  C2  UNL d   1       0.018  -2.997  -0.568  0.00  0.00    -0.047 A 
ATOM      5  C3  UNL d   1      -0.017  -2.941   0.846  0.00  0.00    -0.047 A 
ATOM      6  C4  UNL d   1       0.143  -1.620   1.209  0.00  0.00    -0.004 A 
ENDROOT
TORSDOF 0
ENDMDL
