MODEL 1
REMARK minimizedAffinity -2.22280741
REMARK minimizedRMSD -1
REMARK  0 active torsions:
REMARK  status: ('A' for Active; 'I' for Inactive)
ROOT
ATOM      1  C   UNL d   1      -1.470  -2.680   0.816  0.00  0.00     0.172 C 
ATOM      2  N   UNL d   1      -0.693  -1.475   0.653  0.00  0.00    -0.070 N 
ATOM      3  C1  UNL d   1      -0.872  -0.309   1.349  0.00  0.00    -0.004 A 
ATOM      4  C2  UNL d   1       0.066   0.597   0.903  0.00  0.00    -0.047 A 
ATOM      5  C3  UNL d   1       0.835  -0.046  -0.096  0.00  0.00    -0.047 A 
ATOM      6  C4  UNL d   1       0.344  -1.328  -0.230  0.00  0.00    -0.004 A 
ENDROOT
TORSDOF 0
ENDMDL
