MODEL 1
REMARK minimizedAffinity 5.35498857
REMARK minimizedRMSD -1
REMARK  3 active torsions:
REMARK  status: ('A' for Active; 'I' for Inactive)
REMARK    1  A    between atoms: C3'_2  and  C2'_3 
REMARK    2  A    between atoms: C2'_3  and  C1'_4 
REMARK    3  A    between atoms: C1'_4  and  C1_5 
ROOT
ATOM      1  C1  N4B d   1      -3.216   3.560   3.380  0.00  0.00    -0.075 A 
ATOM      2  C2  N4B d   1      -3.964   4.395   4.237  0.00  0.00     0.002 A 
ATOM      3  C3  N4B d   1      -4.436   5.601   3.781  0.00  0.00     0.002 A 
ATOM      4  C4  N4B d   1      -4.158   6.000   2.482  0.00  0.00    -0.004 A 
ATOM      5  C5  N4B d   1      -3.455   5.176   1.652  0.00  0.00     0.002 A 
ATOM      6  C6  N4B d   1      -2.978   3.959   2.096  0.00  0.00     0.002 A 
ENDROOT
BRANCH   1   7
ATOM      7  C1' N4B d   1      -2.606   2.271   3.860  0.00  0.00     0.057 C 
BRANCH   7   8
ATOM      8  C2' N4B d   1      -3.700   1.391   4.455  0.00  0.00     0.009 C 
BRANCH   8   9
ATOM      9  C3' N4B d   1      -3.563  -0.058   4.021  0.00  0.00     0.004 C 
ATOM     10  C4' N4B d   1      -2.247  -0.661   4.415  0.00  0.00     0.003 C 
ENDBRANCH   8   9
ENDBRANCH   7   8
ENDBRANCH   1   7
TORSDOF 3
ENDMDL
