MODEL 1
REMARK minimizedAffinity 3.80379224
REMARK minimizedRMSD -1
REMARK  3 active torsions:
REMARK  status: ('A' for Active; 'I' for Inactive)
REMARK    1  A    between atoms: C3'_2  and  C2'_3 
REMARK    2  A    between atoms: C2'_3  and  C1'_4 
REMARK    3  A    between atoms: C1'_4  and  C1_5 
ROOT
ATOM      1  C1  N4B d   1      -3.864   1.187   5.008  0.00  0.00    -0.075 A 
ATOM      2  C2  N4B d   1      -2.554   0.673   4.900  0.00  0.00     0.002 A 
ATOM      3  C3  N4B d   1      -2.293  -0.367   4.041  0.00  0.00     0.002 A 
ATOM      4  C4  N4B d   1      -3.326  -0.917   3.297  0.00  0.00    -0.004 A 
ATOM      5  C5  N4B d   1      -4.584  -0.397   3.388  0.00  0.00     0.002 A 
ATOM      6  C6  N4B d   1      -4.859   0.650   4.244  0.00  0.00     0.002 A 
ENDROOT
BRANCH   1   7
ATOM      7  C1' N4B d   1      -4.215   2.266   5.996  0.00  0.00     0.057 C 
BRANCH   7   8
ATOM      8  C2' N4B d   1      -4.143   3.623   5.303  0.00  0.00     0.009 C 
BRANCH   8   9
ATOM      9  C3' N4B d   1      -5.006   4.662   5.998  0.00  0.00     0.004 C 
ATOM     10  C4' N4B d   1      -5.093   5.950   5.234  0.00  0.00     0.003 C 
ENDBRANCH   8   9
ENDBRANCH   7   8
ENDBRANCH   1   7
TORSDOF 3
ENDMDL
