MODEL 1
REMARK minimizedAffinity 4.09096241
REMARK minimizedRMSD -1
REMARK  3 active torsions:
REMARK  status: ('A' for Active; 'I' for Inactive)
REMARK    1  A    between atoms: C3'_2  and  C2'_3 
REMARK    2  A    between atoms: C2'_3  and  C1'_4 
REMARK    3  A    between atoms: C1'_4  and  C1_5 
ROOT
ATOM      1  C1  N4B d   1       1.141   0.193  -2.762  0.00  0.00    -0.075 A 
ATOM      2  C2  N4B d   1       1.566  -0.086  -4.080  0.00  0.00     0.002 A 
ATOM      3  C3  N4B d   1       1.760  -1.386  -4.478  0.00  0.00     0.002 A 
ATOM      4  C4  N4B d   1       1.555  -2.417  -3.574  0.00  0.00    -0.004 A 
ATOM      5  C5  N4B d   1       1.121  -2.141  -2.311  0.00  0.00     0.002 A 
ATOM      6  C6  N4B d   1       0.917  -0.840  -1.899  0.00  0.00     0.002 A 
ENDROOT
BRANCH   1   7
ATOM      7  C1' N4B d   1       0.998   1.602  -2.255  0.00  0.00     0.057 C 
BRANCH   7   8
ATOM      8  C2' N4B d   1       0.381   1.572  -0.860  0.00  0.00     0.009 C 
BRANCH   8   9
ATOM      9  C3' N4B d   1       1.256   2.274   0.164  0.00  0.00     0.004 C 
ATOM     10  C4' N4B d   1       2.641   2.546  -0.345  0.00  0.00     0.003 C 
ENDBRANCH   8   9
ENDBRANCH   7   8
ENDBRANCH   1   7
TORSDOF 3
ENDMDL
