MODEL 1
REMARK minimizedAffinity 1.92602098
REMARK minimizedRMSD -1
REMARK  3 active torsions:
REMARK  status: ('A' for Active; 'I' for Inactive)
REMARK    1  A    between atoms: C3'_2  and  C2'_3 
REMARK    2  A    between atoms: C2'_3  and  C1'_4 
REMARK    3  A    between atoms: C1'_4  and  C1_5 
ROOT
ATOM      1  C1  N4B d   1       1.076  -0.226  -1.219  0.00  0.00    -0.075 A 
ATOM      2  C2  N4B d   1       0.879   0.983  -1.921  0.00  0.00     0.002 A 
ATOM      3  C3  N4B d   1       0.697   0.965  -3.282  0.00  0.00     0.002 A 
ATOM      4  C4  N4B d   1       0.727  -0.243  -3.962  0.00  0.00    -0.004 A 
ATOM      5  C5  N4B d   1       0.893  -1.409  -3.274  0.00  0.00     0.002 A 
ATOM      6  C6  N4B d   1       1.073  -1.406  -1.905  0.00  0.00     0.002 A 
ENDROOT
BRANCH   1   7
ATOM      7  C1' N4B d   1       1.365  -0.250   0.257  0.00  0.00     0.057 C 
BRANCH   7   8
ATOM      8  C2' N4B d   1       2.741   0.361   0.508  0.00  0.00     0.009 C 
BRANCH   8   9
ATOM      9  C3' N4B d   1       2.664   1.584   1.405  0.00  0.00     0.004 C 
ATOM     10  C4' N4B d   1       3.886   1.757   2.257  0.00  0.00     0.003 C 
ENDBRANCH   8   9
ENDBRANCH   7   8
ENDBRANCH   1   7
TORSDOF 3
ENDMDL
