MODEL 1
REMARK minimizedAffinity 2.60915971
REMARK minimizedRMSD -1
REMARK  3 active torsions:
REMARK  status: ('A' for Active; 'I' for Inactive)
REMARK    1  A    between atoms: C3'_2  and  C2'_3 
REMARK    2  A    between atoms: C2'_3  and  C1'_4 
REMARK    3  A    between atoms: C1'_4  and  C1_5 
ROOT
ATOM      1  C1  N4B d   1       0.955   1.671  -3.559  0.00  0.00    -0.075 A 
ATOM      2  C2  N4B d   1       1.442   0.427  -4.016  0.00  0.00     0.002 A 
ATOM      3  C3  N4B d   1       1.422  -0.665  -3.184  0.00  0.00     0.002 A 
ATOM      4  C4  N4B d   1       0.939  -0.534  -1.890  0.00  0.00    -0.004 A 
ATOM      5  C5  N4B d   1       0.447   0.665  -1.465  0.00  0.00     0.002 A 
ATOM      6  C6  N4B d   1       0.458   1.771  -2.292  0.00  0.00     0.002 A 
ENDROOT
BRANCH   1   7
ATOM      7  C1' N4B d   1       1.035   2.914  -4.402  0.00  0.00     0.057 C 
BRANCH   7   8
ATOM      8  C2' N4B d   1       2.323   2.881  -5.221  0.00  0.00     0.009 C 
BRANCH   8   9
ATOM      9  C3' N4B d   1       2.872   4.275  -5.472  0.00  0.00     0.004 C 
ATOM     10  C4' N4B d   1       3.757   4.760  -4.363  0.00  0.00     0.003 C 
ENDBRANCH   8   9
ENDBRANCH   7   8
ENDBRANCH   1   7
TORSDOF 3
ENDMDL
