MODEL 1
REMARK minimizedAffinity -1.21393764
REMARK minimizedRMSD -1
REMARK  3 active torsions:
REMARK  status: ('A' for Active; 'I' for Inactive)
REMARK    1  A    between atoms: C3'_2  and  C2'_3 
REMARK    2  A    between atoms: C2'_3  and  C1'_4 
REMARK    3  A    between atoms: C1'_4  and  C1_5 
ROOT
ATOM      1  C1  N4B d   1       1.684   0.367  -3.046  0.00  0.00    -0.075 A 
ATOM      2  C2  N4B d   1       1.139   1.424  -2.284  0.00  0.00     0.002 A 
ATOM      3  C3  N4B d   1       0.423   1.151  -1.144  0.00  0.00     0.002 A 
ATOM      4  C4  N4B d   1       0.223  -0.166  -0.759  0.00  0.00    -0.004 A 
ATOM      5  C5  N4B d   1       0.774  -1.180  -1.486  0.00  0.00     0.002 A 
ATOM      6  C6  N4B d   1       1.499  -0.921  -2.631  0.00  0.00     0.002 A 
ENDROOT
BRANCH   1   7
ATOM      7  C1' N4B d   1       2.401   0.611  -4.345  0.00  0.00     0.057 C 
BRANCH   7   8
ATOM      8  C2' N4B d   1       3.880   0.281  -4.170  0.00  0.00     0.009 C 
BRANCH   8   9
ATOM      9  C3' N4B d   1       4.689   0.622  -5.410  0.00  0.00     0.004 C 
ATOM     10  C4' N4B d   1       6.000  -0.104  -5.467  0.00  0.00     0.003 C 
ENDBRANCH   8   9
ENDBRANCH   7   8
ENDBRANCH   1   7
TORSDOF 3
ENDMDL
