MODEL 1
REMARK minimizedAffinity 6.75219202
REMARK minimizedRMSD -1
REMARK  3 active torsions:
REMARK  status: ('A' for Active; 'I' for Inactive)
REMARK    1  A    between atoms: C3'_2  and  C2'_3 
REMARK    2  A    between atoms: C2'_3  and  C1'_4 
REMARK    3  A    between atoms: C1'_4  and  C1_5 
ROOT
ATOM      1  C1  N4B d   1       5.393   2.572  -4.820  0.00  0.00    -0.075 A 
ATOM      2  C2  N4B d   1       5.368   1.796  -6.000  0.00  0.00     0.002 A 
ATOM      3  C3  N4B d   1       5.639   0.451  -5.943  0.00  0.00     0.002 A 
ATOM      4  C4  N4B d   1       5.954  -0.135  -4.726  0.00  0.00    -0.004 A 
ATOM      5  C5  N4B d   1       5.951   0.617  -3.587  0.00  0.00     0.002 A 
ATOM      6  C6  N4B d   1       5.677   1.969  -3.629  0.00  0.00     0.002 A 
ENDROOT
BRANCH   1   7
ATOM      7  C1' N4B d   1       5.188   4.062  -4.845  0.00  0.00     0.057 C 
BRANCH   7   8
ATOM      8  C2' N4B d   1       3.883   4.400  -4.131  0.00  0.00     0.009 C 
BRANCH   8   9
ATOM      9  C3' N4B d   1       4.122   5.177  -2.848  0.00  0.00     0.004 C 
ATOM     10  C4' N4B d   1       2.949   5.134  -1.915  0.00  0.00     0.003 C 
ENDBRANCH   8   9
ENDBRANCH   7   8
ENDBRANCH   1   7
TORSDOF 3
ENDMDL
