MODEL 1
REMARK minimizedAffinity 2.12039638
REMARK minimizedRMSD -1
REMARK  3 active torsions:
REMARK  status: ('A' for Active; 'I' for Inactive)
REMARK    1  A    between atoms: C3'_2  and  C2'_3 
REMARK    2  A    between atoms: C2'_3  and  C1'_4 
REMARK    3  A    between atoms: C1'_4  and  C1_5 
ROOT
ATOM      1  C1  N4B d   1       1.641  -0.614  -3.530  0.00  0.00    -0.075 A 
ATOM      2  C2  N4B d   1       1.556  -1.931  -3.029  0.00  0.00     0.002 A 
ATOM      3  C3  N4B d   1       0.948  -2.168  -1.820  0.00  0.00     0.002 A 
ATOM      4  C4  N4B d   1       0.438  -1.105  -1.089  0.00  0.00    -0.004 A 
ATOM      5  C5  N4B d   1       0.502   0.161  -1.593  0.00  0.00     0.002 A 
ATOM      6  C6  N4B d   1       1.106   0.413  -2.808  0.00  0.00     0.002 A 
ENDROOT
BRANCH   1   7
ATOM      7  C1' N4B d   1       2.372  -0.295  -4.806  0.00  0.00     0.057 C 
BRANCH   7   8
ATOM      8  C2' N4B d   1       3.809   0.098  -4.475  0.00  0.00     0.009 C 
BRANCH   8   9
ATOM      9  C3' N4B d   1       4.515   0.726  -5.665  0.00  0.00     0.004 C 
ATOM     10  C4' N4B d   1       5.998   0.827  -5.473  0.00  0.00     0.003 C 
ENDBRANCH   8   9
ENDBRANCH   7   8
ENDBRANCH   1   7
TORSDOF 3
ENDMDL
