MODEL 1
REMARK minimizedAffinity 0.529441178
REMARK minimizedRMSD -1
REMARK  3 active torsions:
REMARK  status: ('A' for Active; 'I' for Inactive)
REMARK    1  A    between atoms: C3'_2  and  C2'_3 
REMARK    2  A    between atoms: C2'_3  and  C1'_4 
REMARK    3  A    between atoms: C1'_4  and  C1_5 
ROOT
ATOM      1  C1  N4B d   1       1.283   0.857  -3.495  0.00  0.00    -0.075 A 
ATOM      2  C2  N4B d   1       0.738   0.302  -2.316  0.00  0.00     0.002 A 
ATOM      3  C3  N4B d   1       0.860  -1.044  -2.071  0.00  0.00     0.002 A 
ATOM      4  C4  N4B d   1       1.502  -1.854  -2.995  0.00  0.00    -0.004 A 
ATOM      5  C5  N4B d   1       2.048  -1.306  -4.119  0.00  0.00     0.002 A 
ATOM      6  C6  N4B d   1       1.937   0.045  -4.377  0.00  0.00     0.002 A 
ENDROOT
BRANCH   1   7
ATOM      7  C1' N4B d   1       1.100   2.308  -3.848  0.00  0.00     0.057 C 
BRANCH   7   8
ATOM      8  C2' N4B d   1       1.811   2.596  -5.167  0.00  0.00     0.009 C 
BRANCH   8   9
ATOM      9  C3' N4B d   1       2.186   4.061  -5.302  0.00  0.00     0.004 C 
ATOM     10  C4' N4B d   1       1.133   4.869  -6.000  0.00  0.00     0.003 C 
ENDBRANCH   8   9
ENDBRANCH   7   8
ENDBRANCH   1   7
TORSDOF 3
ENDMDL
