MODEL 1
REMARK minimizedAffinity 0.38081488
REMARK minimizedRMSD -1
REMARK  3 active torsions:
REMARK  status: ('A' for Active; 'I' for Inactive)
REMARK    1  A    between atoms: C3'_2  and  C2'_3 
REMARK    2  A    between atoms: C2'_3  and  C1'_4 
REMARK    3  A    between atoms: C1'_4  and  C1_5 
ROOT
ATOM      1  C1  N4B d   1       3.850   2.828  -5.636  0.00  0.00    -0.075 A 
ATOM      2  C2  N4B d   1       4.923   3.380  -4.902  0.00  0.00     0.002 A 
ATOM      3  C3  N4B d   1       5.992   2.591  -4.551  0.00  0.00     0.002 A 
ATOM      4  C4  N4B d   1       6.000   1.250  -4.905  0.00  0.00    -0.004 A 
ATOM      5  C5  N4B d   1       4.971   0.732  -5.636  0.00  0.00     0.002 A 
ATOM      6  C6  N4B d   1       3.893   1.514  -5.999  0.00  0.00     0.002 A 
ENDROOT
BRANCH   1   7
ATOM      7  C1' N4B d   1       2.621   3.630  -5.969  0.00  0.00     0.057 C 
BRANCH   7   8
ATOM      8  C2' N4B d   1       1.576   3.420  -4.877  0.00  0.00     0.009 C 
BRANCH   8   9
ATOM      9  C3' N4B d   1       1.522   1.975  -4.412  0.00  0.00     0.004 C 
ATOM     10  C4' N4B d   1       0.780   1.809  -3.119  0.00  0.00     0.003 C 
ENDBRANCH   8   9
ENDBRANCH   7   8
ENDBRANCH   1   7
TORSDOF 3
ENDMDL
