MODEL 1
REMARK minimizedAffinity 1.43630826
REMARK minimizedRMSD -1
REMARK  3 active torsions:
REMARK  status: ('A' for Active; 'I' for Inactive)
REMARK    1  A    between atoms: C3'_2  and  C2'_3 
REMARK    2  A    between atoms: C2'_3  and  C1'_4 
REMARK    3  A    between atoms: C1'_4  and  C1_5 
ROOT
ATOM      1  C1  N4B d   1      -3.429   1.677   4.935  0.00  0.00    -0.075 A 
ATOM      2  C2  N4B d   1      -4.179   1.122   5.995  0.00  0.00     0.002 A 
ATOM      3  C3  N4B d   1      -4.470  -0.220   6.000  0.00  0.00     0.002 A 
ATOM      4  C4  N4B d   1      -4.040  -1.019   4.951  0.00  0.00    -0.004 A 
ATOM      5  C5  N4B d   1      -3.295  -0.480   3.944  0.00  0.00     0.002 A 
ATOM      6  C6  N4B d   1      -2.991   0.867   3.928  0.00  0.00     0.002 A 
ENDROOT
BRANCH   1   7
ATOM      7  C1' N4B d   1      -3.159   3.154   4.842  0.00  0.00     0.057 C 
BRANCH   7   8
ATOM      8  C2' N4B d   1      -3.897   3.870   5.969  0.00  0.00     0.009 C 
BRANCH   8   9
ATOM      9  C3' N4B d   1      -3.666   5.371   5.936  0.00  0.00     0.004 C 
ATOM     10  C4' N4B d   1      -3.330   5.877   4.566  0.00  0.00     0.003 C 
ENDBRANCH   8   9
ENDBRANCH   7   8
ENDBRANCH   1   7
TORSDOF 3
ENDMDL
