MODEL 1
REMARK minimizedAffinity 1.52332962
REMARK minimizedRMSD -1
REMARK  3 active torsions:
REMARK  status: ('A' for Active; 'I' for Inactive)
REMARK    1  A    between atoms: C3'_2  and  C2'_3 
REMARK    2  A    between atoms: C2'_3  and  C1'_4 
REMARK    3  A    between atoms: C1'_4  and  C1_5 
ROOT
ATOM      1  C1  N4B d   1       0.995   1.330  -2.688  0.00  0.00    -0.075 A 
ATOM      2  C2  N4B d   1       1.300   0.184  -3.454  0.00  0.00     0.002 A 
ATOM      3  C3  N4B d   1       1.274  -1.059  -2.870  0.00  0.00     0.002 A 
ATOM      4  C4  N4B d   1       0.965  -1.177  -1.523  0.00  0.00    -0.004 A 
ATOM      5  C5  N4B d   1       0.647  -0.068  -0.796  0.00  0.00     0.002 A 
ATOM      6  C6  N4B d   1       0.665   1.187  -1.371  0.00  0.00     0.002 A 
ENDROOT
BRANCH   1   7
ATOM      7  C1' N4B d   1       1.094   2.718  -3.261  0.00  0.00     0.057 C 
BRANCH   7   8
ATOM      8  C2' N4B d   1       1.855   2.660  -4.582  0.00  0.00     0.009 C 
BRANCH   8   9
ATOM      9  C3' N4B d   1       2.222   4.045  -5.087  0.00  0.00     0.004 C 
ATOM     10  C4' N4B d   1       1.107   4.702  -5.845  0.00  0.00     0.003 C 
ENDBRANCH   8   9
ENDBRANCH   7   8
ENDBRANCH   1   7
TORSDOF 3
ENDMDL
