MODEL 1
REMARK minimizedAffinity 6.07918787
REMARK minimizedRMSD -1
REMARK  3 active torsions:
REMARK  status: ('A' for Active; 'I' for Inactive)
REMARK    1  A    between atoms: C3'_2  and  C2'_3 
REMARK    2  A    between atoms: C2'_3  and  C1'_4 
REMARK    3  A    between atoms: C1'_4  and  C1_5 
ROOT
ATOM      1  C1  N4B d   1       0.881  -0.885  -1.565  0.00  0.00    -0.075 A 
ATOM      2  C2  N4B d   1       1.065  -2.185  -2.085  0.00  0.00     0.002 A 
ATOM      3  C3  N4B d   1       1.271  -2.364  -3.431  0.00  0.00     0.002 A 
ATOM      4  C4  N4B d   1       1.279  -1.263  -4.276  0.00  0.00    -0.004 A 
ATOM      5  C5  N4B d   1       1.126  -0.009  -3.762  0.00  0.00     0.002 A 
ATOM      6  C6  N4B d   1       0.922   0.186  -2.411  0.00  0.00     0.002 A 
ENDROOT
BRANCH   1   7
ATOM      7  C1' N4B d   1       0.566  -0.648  -0.114  0.00  0.00     0.057 C 
BRANCH   7   8
ATOM      8  C2' N4B d   1      -0.771  -1.300   0.222  0.00  0.00     0.009 C 
BRANCH   8   9
ATOM      9  C3' N4B d   1      -0.708  -2.093   1.516  0.00  0.00     0.004 C 
ATOM     10  C4' N4B d   1      -1.206  -3.499   1.360  0.00  0.00     0.003 C 
ENDBRANCH   8   9
ENDBRANCH   7   8
ENDBRANCH   1   7
TORSDOF 3
ENDMDL
