MODEL 1
REMARK minimizedAffinity 3.68625116
REMARK minimizedRMSD -1
REMARK  1 active torsions:
REMARK  status: ('A' for Active; 'I' for Inactive)
REMARK    1  A    between atoms: C3_4  and  O_7 
ROOT
ATOM      1  C   UNL d   1       0.916   3.110   0.681  0.00  0.00    -0.033 A 
ATOM      2  C1  UNL d   1       1.358   3.699  -0.505  0.00  0.00     0.039 A 
ATOM      3  C2  UNL d   1       0.443   4.308  -1.367  0.00  0.00    -0.080 A 
ATOM      4  C3  UNL d   1      -0.908   4.321  -1.031  0.00  0.00     0.150 A 
ATOM      5  C4  UNL d   1      -1.354   3.739   0.151  0.00  0.00    -0.007 A 
ATOM      6  C5  UNL d   1      -0.440   3.131   1.010  0.00  0.00     0.039 A 
ENDROOT
BRANCH   4   7
ATOM      7  O   UNL d   1      -1.838   4.898  -1.843  0.00  0.00    -0.526 OA
ATOM      8  H5  UNL d   1      -1.389   5.233  -2.637  0.00  0.00     0.418 HD
ENDBRANCH   4   7
TORSDOF 1
ENDMDL
