MODEL 1
REMARK minimizedAffinity 4.08967304
REMARK minimizedRMSD -1
REMARK  1 active torsions:
REMARK  status: ('A' for Active; 'I' for Inactive)
REMARK    1  A    between atoms: C3_4  and  O_7 
ROOT
ATOM      1  C   UNL d   1      -1.580   5.879  -2.002  0.00  0.00    -0.033 A 
ATOM      2  C1  UNL d   1      -0.781   4.868  -2.539  0.00  0.00     0.039 A 
ATOM      3  C2  UNL d   1      -0.119   3.975  -1.694  0.00  0.00    -0.080 A 
ATOM      4  C3  UNL d   1      -0.265   4.104  -0.315  0.00  0.00     0.150 A 
ATOM      5  C4  UNL d   1      -1.062   5.107   0.227  0.00  0.00    -0.007 A 
ATOM      6  C5  UNL d   1      -1.722   5.998  -0.619  0.00  0.00     0.039 A 
ENDROOT
BRANCH   4   7
ATOM      7  O   UNL d   1       0.365   3.260   0.550  0.00  0.00    -0.526 OA
ATOM      8  H5  UNL d   1       0.904   2.636   0.034  0.00  0.00     0.418 HD
ENDBRANCH   4   7
TORSDOF 1
ENDMDL
