MODEL 1
REMARK minimizedAffinity -2.23879075
REMARK minimizedRMSD -1
REMARK  1 active torsions:
REMARK  status: ('A' for Active; 'I' for Inactive)
REMARK    1  A    between atoms: C3_4  and  O_7 
ROOT
ATOM      1  C   UNL d   1       0.373   3.755   0.369  0.00  0.00    -0.033 A 
ATOM      2  C1  UNL d   1       1.121   4.129  -0.749  0.00  0.00     0.039 A 
ATOM      3  C2  UNL d   1       0.532   4.887  -1.763  0.00  0.00    -0.080 A 
ATOM      4  C3  UNL d   1      -0.803   5.264  -1.647  0.00  0.00     0.150 A 
ATOM      5  C4  UNL d   1      -1.553   4.899  -0.533  0.00  0.00    -0.007 A 
ATOM      6  C5  UNL d   1      -0.963   4.141   0.478  0.00  0.00     0.039 A 
ENDROOT
BRANCH   4   7
ATOM      7  O   UNL d   1      -1.423   6.000  -2.613  0.00  0.00    -0.526 OA
ATOM      8  H5  UNL d   1      -0.791   6.154  -3.335  0.00  0.00     0.418 HD
ENDBRANCH   4   7
TORSDOF 1
ENDMDL
