MODEL 1
REMARK minimizedAffinity -1.60195577
REMARK minimizedRMSD -1
REMARK  1 active torsions:
REMARK  status: ('A' for Active; 'I' for Inactive)
REMARK    1  A    between atoms: C3_4  and  O_7 
ROOT
ATOM      1  C   UNL d   1      -2.472   3.292  -1.886  0.00  0.00    -0.033 A 
ATOM      2  C1  UNL d   1      -1.557   2.279  -1.595  0.00  0.00     0.039 A 
ATOM      3  C2  UNL d   1      -0.292   2.599  -1.099  0.00  0.00    -0.080 A 
ATOM      4  C3  UNL d   1       0.045   3.935  -0.898  0.00  0.00     0.150 A 
ATOM      5  C4  UNL d   1      -0.863   4.949  -1.181  0.00  0.00    -0.007 A 
ATOM      6  C5  UNL d   1      -2.125   4.628  -1.677  0.00  0.00     0.039 A 
ENDROOT
BRANCH   4   7
ATOM      7  O   UNL d   1       1.270   4.296  -0.420  0.00  0.00    -0.526 OA
ATOM      8  H5  UNL d   1       1.802   3.492  -0.297  0.00  0.00     0.418 HD
ENDBRANCH   4   7
TORSDOF 1
ENDMDL
