MODEL 1
REMARK minimizedAffinity 7.28192234
REMARK minimizedRMSD -1
REMARK  1 active torsions:
REMARK  status: ('A' for Active; 'I' for Inactive)
REMARK    1  A    between atoms: C3_4  and  O_7 
ROOT
ATOM      1  C   UNL d   1       2.688  -2.029  -0.753  0.00  0.00    -0.033 A 
ATOM      2  C1  UNL d   1       2.140  -3.281  -0.464  0.00  0.00     0.039 A 
ATOM      3  C2  UNL d   1       0.813  -3.558  -0.799  0.00  0.00    -0.080 A 
ATOM      4  C3  UNL d   1       0.047  -2.577  -1.423  0.00  0.00     0.150 A 
ATOM      5  C4  UNL d   1       0.588  -1.329  -1.717  0.00  0.00    -0.007 A 
ATOM      6  C5  UNL d   1       1.913  -1.054  -1.381  0.00  0.00     0.039 A 
ENDROOT
BRANCH   4   7
ATOM      7  O   UNL d   1      -1.254  -2.799  -1.764  0.00  0.00    -0.526 OA
ATOM      8  H5  UNL d   1      -1.500  -3.693  -1.474  0.00  0.00     0.418 HD
ENDBRANCH   4   7
TORSDOF 1
ENDMDL
