MODEL 1
REMARK minimizedAffinity 0.400104493
REMARK minimizedRMSD -1
REMARK  1 active torsions:
REMARK  status: ('A' for Active; 'I' for Inactive)
REMARK    1  A    between atoms: C3_4  and  O_7 
ROOT
ATOM      1  C   UNL d   1       1.138  -2.732  -0.404  0.00  0.00    -0.033 A 
ATOM      2  C1  UNL d   1       0.968  -4.040  -0.861  0.00  0.00     0.039 A 
ATOM      3  C2  UNL d   1       0.004  -4.322  -1.832  0.00  0.00    -0.080 A 
ATOM      4  C3  UNL d   1      -0.781  -3.288  -2.336  0.00  0.00     0.150 A 
ATOM      5  C4  UNL d   1      -0.614  -1.982  -1.887  0.00  0.00    -0.007 A 
ATOM      6  C5  UNL d   1       0.348  -1.703  -0.918  0.00  0.00     0.039 A 
ENDROOT
BRANCH   4   7
ATOM      7  O   UNL d   1      -1.737  -3.516  -3.281  0.00  0.00    -0.526 OA
ATOM      8  H5  UNL d   1      -1.759  -4.468  -3.474  0.00  0.00     0.418 HD
ENDBRANCH   4   7
TORSDOF 1
ENDMDL
