MODEL 1
REMARK minimizedAffinity 0.918620706
REMARK minimizedRMSD -1
REMARK  1 active torsions:
REMARK  status: ('A' for Active; 'I' for Inactive)
REMARK    1  A    between atoms: C3_4  and  O_7 
ROOT
ATOM      1  C   UNL d   1      -5.997  -1.051   5.892  0.00  0.00    -0.033 A 
ATOM      2  C1  UNL d   1      -6.000   0.341   6.000  0.00  0.00     0.039 A 
ATOM      3  C2  UNL d   1      -5.832   1.131   4.861  0.00  0.00    -0.080 A 
ATOM      4  C3  UNL d   1      -5.664   0.518   3.623  0.00  0.00     0.150 A 
ATOM      5  C4  UNL d   1      -5.665  -0.868   3.507  0.00  0.00    -0.007 A 
ATOM      6  C5  UNL d   1      -5.831  -1.656   4.646  0.00  0.00     0.039 A 
ENDROOT
BRANCH   4   7
ATOM      7  O   UNL d   1      -5.492   1.248   2.484  0.00  0.00    -0.526 OA
ATOM      8  H5  UNL d   1      -5.485   2.190   2.720  0.00  0.00     0.418 HD
ENDBRANCH   4   7
TORSDOF 1
ENDMDL
