MODEL 1
REMARK minimizedAffinity 1.40065086
REMARK minimizedRMSD -1
REMARK  1 active torsions:
REMARK  status: ('A' for Active; 'I' for Inactive)
REMARK    1  A    between atoms: C3_4  and  O_7 
ROOT
ATOM      1  C   UNL d   1      -0.857   5.198  -1.810  0.00  0.00    -0.033 A 
ATOM      2  C1  UNL d   1      -0.784   5.756  -0.533  0.00  0.00     0.039 A 
ATOM      3  C2  UNL d   1      -0.493   4.949   0.568  0.00  0.00    -0.080 A 
ATOM      4  C3  UNL d   1      -0.277   3.587   0.379  0.00  0.00     0.150 A 
ATOM      5  C4  UNL d   1      -0.344   3.024  -0.892  0.00  0.00    -0.007 A 
ATOM      6  C5  UNL d   1      -0.636   3.832  -1.990  0.00  0.00     0.039 A 
ENDROOT
BRANCH   4   7
ATOM      7  O   UNL d   1       0.006   2.758   1.424  0.00  0.00    -0.526 OA
ATOM      8  H5  UNL d   1      -0.009   3.280   2.243  0.00  0.00     0.418 HD
ENDBRANCH   4   7
TORSDOF 1
ENDMDL
