MODEL 1
REMARK minimizedAffinity 7.27435589
REMARK minimizedRMSD -1
REMARK  0 active torsions:
REMARK  status: ('A' for Active; 'I' for Inactive)
ROOT
ATOM      1  C   UNL d   1      -2.150  -2.337  -3.220  0.00  0.00     0.078 C 
ATOM      2  C1  UNL d   1      -1.842  -2.024  -1.786  0.00  0.00    -0.077 A 
ATOM      3  C2  UNL d   1      -2.714  -1.246  -1.015  0.00  0.00    -0.001 A 
ATOM      4  C3  UNL d   1      -2.410  -0.955   0.316  0.00  0.00     0.003 A 
ATOM      5  C4  UNL d   1      -1.234  -1.436   0.887  0.00  0.00    -0.005 A 
ATOM      6  C5  UNL d   1      -0.359  -2.209   0.126  0.00  0.00     0.003 A 
ATOM      7  C6  UNL d   1      -0.661  -2.502  -1.205  0.00  0.00    -0.001 A 
ENDROOT
TORSDOF 0
ENDMDL
