MODEL 1
REMARK minimizedAffinity -0.896789312
REMARK minimizedRMSD -1
REMARK  0 active torsions:
REMARK  status: ('A' for Active; 'I' for Inactive)
ROOT
ATOM      1  C   UNL d   1       4.518   5.982  -5.999  0.00  0.00     0.078 C 
ATOM      2  C1  UNL d   1       3.310   5.448  -5.288  0.00  0.00    -0.077 A 
ATOM      3  C2  UNL d   1       2.166   5.064  -5.999  0.00  0.00    -0.001 A 
ATOM      4  C3  UNL d   1       1.046   4.578  -5.323  0.00  0.00     0.003 A 
ATOM      5  C4  UNL d   1       1.058   4.474  -3.933  0.00  0.00    -0.005 A 
ATOM      6  C5  UNL d   1       2.190   4.856  -3.218  0.00  0.00     0.003 A 
ATOM      7  C6  UNL d   1       3.312   5.342  -3.892  0.00  0.00    -0.001 A 
ENDROOT
TORSDOF 0
ENDMDL
