MODEL 1
REMARK minimizedAffinity 7.92396784
REMARK minimizedRMSD -1
REMARK  0 active torsions:
REMARK  status: ('A' for Active; 'I' for Inactive)
ROOT
ATOM      1  C   UNL d   1       0.116   4.972  -5.951  0.00  0.00     0.078 C 
ATOM      2  C1  UNL d   1       1.608   4.823  -5.973  0.00  0.00    -0.077 A 
ATOM      3  C2  UNL d   1       2.207   3.557  -5.967  0.00  0.00    -0.001 A 
ATOM      4  C3  UNL d   1       3.597   3.433  -5.978  0.00  0.00     0.003 A 
ATOM      5  C4  UNL d   1       4.401   4.571  -5.994  0.00  0.00    -0.005 A 
ATOM      6  C5  UNL d   1       3.814   5.835  -5.997  0.00  0.00     0.003 A 
ATOM      7  C6  UNL d   1       2.424   5.961  -5.986  0.00  0.00    -0.001 A 
ENDROOT
TORSDOF 0
ENDMDL
