MODEL 1
REMARK minimizedAffinity -2.21441746
REMARK minimizedRMSD -1
REMARK  0 active torsions:
REMARK  status: ('A' for Active; 'I' for Inactive)
ROOT
ATOM      1  C   UNL d   1       5.662   2.023  -1.772  0.00  0.00     0.078 C 
ATOM      2  C1  UNL d   1       4.656   2.104  -0.663  0.00  0.00    -0.077 A 
ATOM      3  C2  UNL d   1       4.646   1.160   0.371  0.00  0.00    -0.001 A 
ATOM      4  C3  UNL d   1       3.698   1.241   1.392  0.00  0.00     0.003 A 
ATOM      5  C4  UNL d   1       2.752   2.264   1.389  0.00  0.00    -0.005 A 
ATOM      6  C5  UNL d   1       2.752   3.207   0.363  0.00  0.00     0.003 A 
ATOM      7  C6  UNL d   1       3.700   3.127  -0.659  0.00  0.00    -0.001 A 
ENDROOT
TORSDOF 0
ENDMDL
