MODEL 1
REMARK minimizedAffinity -3.0668633
REMARK minimizedRMSD -1
REMARK  0 active torsions:
REMARK  status: ('A' for Active; 'I' for Inactive)
ROOT
ATOM      1  C   UNL d   1      -1.446  -1.542  -4.221  0.00  0.00     0.078 C 
ATOM      2  C1  UNL d   1      -2.195  -2.308  -3.172  0.00  0.00    -0.077 A 
ATOM      3  C2  UNL d   1      -2.750  -3.562  -3.453  0.00  0.00    -0.001 A 
ATOM      4  C3  UNL d   1      -3.453  -4.260  -2.470  0.00  0.00     0.003 A 
ATOM      5  C4  UNL d   1      -3.609  -3.710  -1.199  0.00  0.00    -0.005 A 
ATOM      6  C5  UNL d   1      -3.062  -2.461  -0.910  0.00  0.00     0.003 A 
ATOM      7  C6  UNL d   1      -2.359  -1.763  -1.893  0.00  0.00    -0.001 A 
ENDROOT
TORSDOF 0
ENDMDL
