MODEL 1
REMARK minimizedAffinity 3.58131552
REMARK minimizedRMSD -1
REMARK  0 active torsions:
REMARK  status: ('A' for Active; 'I' for Inactive)
ROOT
ATOM      1  C   UNL d   1      -4.877  -3.574  -2.371  0.00  0.00     0.078 C 
ATOM      2  C1  UNL d   1      -4.006  -3.613  -3.591  0.00  0.00    -0.077 A 
ATOM      3  C2  UNL d   1      -2.628  -3.842  -3.487  0.00  0.00    -0.001 A 
ATOM      4  C3  UNL d   1      -1.828  -3.866  -4.630  0.00  0.00     0.003 A 
ATOM      5  C4  UNL d   1      -2.396  -3.661  -5.886  0.00  0.00    -0.005 A 
ATOM      6  C5  UNL d   1      -3.766  -3.431  -6.000  0.00  0.00     0.003 A 
ATOM      7  C6  UNL d   1      -4.567  -3.406  -4.857  0.00  0.00    -0.001 A 
ENDROOT
TORSDOF 0
ENDMDL
