MODEL 1
REMARK minimizedAffinity 2.31584358
REMARK minimizedRMSD -1
REMARK  0 active torsions:
REMARK  status: ('A' for Active; 'I' for Inactive)
ROOT
ATOM      1  C   UNL d   1       1.627  -1.173  -0.254  0.00  0.00     0.078 C 
ATOM      2  C1  UNL d   1       0.186  -1.371  -0.618  0.00  0.00    -0.077 A 
ATOM      3  C2  UNL d   1      -0.294  -1.008  -1.882  0.00  0.00    -0.001 A 
ATOM      4  C3  UNL d   1      -1.640  -1.189  -2.205  0.00  0.00     0.003 A 
ATOM      5  C4  UNL d   1      -2.517  -1.734  -1.268  0.00  0.00    -0.005 A 
ATOM      6  C5  UNL d   1      -2.048  -2.096  -0.007  0.00  0.00     0.003 A 
ATOM      7  C6  UNL d   1      -0.703  -1.916   0.317  0.00  0.00    -0.001 A 
ENDROOT
TORSDOF 0
ENDMDL
