MODEL 1
REMARK minimizedAffinity 5.05288029
REMARK minimizedRMSD -1
REMARK  0 active torsions:
REMARK  status: ('A' for Active; 'I' for Inactive)
ROOT
ATOM      1  C   UNL d   1       0.001  -0.269   4.603  0.00  0.00     0.078 C 
ATOM      2  C1  UNL d   1       1.250  -0.337   3.776  0.00  0.00    -0.077 A 
ATOM      3  C2  UNL d   1       2.441  -0.843   4.309  0.00  0.00    -0.001 A 
ATOM      4  C3  UNL d   1       3.599  -0.891   3.531  0.00  0.00     0.003 A 
ATOM      5  C4  UNL d   1       3.576  -0.433   2.215  0.00  0.00    -0.005 A 
ATOM      6  C5  UNL d   1       2.396   0.075   1.676  0.00  0.00     0.003 A 
ATOM      7  C6  UNL d   1       1.237   0.123   2.453  0.00  0.00    -0.001 A 
ENDROOT
TORSDOF 0
ENDMDL
