MODEL 1
REMARK minimizedAffinity 7.26715326
REMARK minimizedRMSD -1
REMARK  0 active torsions:
REMARK  status: ('A' for Active; 'I' for Inactive)
ROOT
ATOM      1  C   UNL d   1       2.665   5.589   2.272  0.00  0.00     0.078 C 
ATOM      2  C1  UNL d   1       3.753   5.479   3.299  0.00  0.00    -0.077 A 
ATOM      3  C2  UNL d   1       4.967   4.849   2.998  0.00  0.00    -0.001 A 
ATOM      4  C3  UNL d   1       5.967   4.745   3.967  0.00  0.00     0.003 A 
ATOM      5  C4  UNL d   1       5.762   5.268   5.242  0.00  0.00    -0.005 A 
ATOM      6  C5  UNL d   1       4.557   5.895   5.551  0.00  0.00     0.003 A 
ATOM      7  C6  UNL d   1       3.556   6.000   4.584  0.00  0.00    -0.001 A 
ENDROOT
TORSDOF 0
ENDMDL
