MODEL 1
REMARK minimizedAffinity 3.08785462
REMARK minimizedRMSD -1
REMARK  0 active torsions:
REMARK  status: ('A' for Active; 'I' for Inactive)
ROOT
ATOM      1  C   UNL d   1       0.692   3.735  -3.001  0.00  0.00     0.078 C 
ATOM      2  C1  UNL d   1       1.661   4.221  -4.038  0.00  0.00    -0.077 A 
ATOM      3  C2  UNL d   1       2.089   5.554  -4.056  0.00  0.00    -0.001 A 
ATOM      4  C3  UNL d   1       2.983   5.994  -5.033  0.00  0.00     0.003 A 
ATOM      5  C4  UNL d   1       3.456   5.109  -5.999  0.00  0.00    -0.005 A 
ATOM      6  C5  UNL d   1       3.034   3.781  -5.990  0.00  0.00     0.003 A 
ATOM      7  C6  UNL d   1       2.140   3.338  -5.014  0.00  0.00    -0.001 A 
ENDROOT
TORSDOF 0
ENDMDL
