MODEL 1
REMARK minimizedAffinity -1.27467561
REMARK minimizedRMSD -1
REMARK  0 active torsions:
REMARK  status: ('A' for Active; 'I' for Inactive)
ROOT
ATOM      1  C   UNL d   1      -5.357  -4.905  -1.113  0.00  0.00     0.078 C 
ATOM      2  C1  UNL d   1      -4.080  -4.122  -1.159  0.00  0.00    -0.077 A 
ATOM      3  C2  UNL d   1      -3.089  -4.413  -2.104  0.00  0.00    -0.001 A 
ATOM      4  C3  UNL d   1      -1.900  -3.682  -2.129  0.00  0.00     0.003 A 
ATOM      5  C4  UNL d   1      -1.691  -2.656  -1.211  0.00  0.00    -0.005 A 
ATOM      6  C5  UNL d   1      -2.670  -2.360  -0.265  0.00  0.00     0.003 A 
ATOM      7  C6  UNL d   1      -3.860  -3.090  -0.239  0.00  0.00    -0.001 A 
ENDROOT
TORSDOF 0
ENDMDL
