MODEL 1
REMARK minimizedAffinity 8.24883556
REMARK minimizedRMSD -1
REMARK  0 active torsions:
REMARK  status: ('A' for Active; 'I' for Inactive)
ROOT
ATOM      1  C   UNL d   1      -0.675  -0.820   1.976  0.00  0.00     0.078 C 
ATOM      2  C1  UNL d   1      -0.933  -1.694   0.785  0.00  0.00    -0.077 A 
ATOM      3  C2  UNL d   1       0.047  -2.572   0.308  0.00  0.00    -0.001 A 
ATOM      4  C3  UNL d   1      -0.204  -3.372  -0.807  0.00  0.00     0.003 A 
ATOM      5  C4  UNL d   1      -1.435  -3.302  -1.457  0.00  0.00    -0.005 A 
ATOM      6  C5  UNL d   1      -2.416  -2.429  -0.991  0.00  0.00     0.003 A 
ATOM      7  C6  UNL d   1      -2.167  -1.628   0.124  0.00  0.00    -0.001 A 
ENDROOT
TORSDOF 0
ENDMDL
