MODEL 1
REMARK minimizedAffinity 3.64614463
REMARK minimizedRMSD -1
REMARK  0 active torsions:
REMARK  status: ('A' for Active; 'I' for Inactive)
ROOT
ATOM      1  C   UNL d   1      -1.486  -1.658   2.589  0.00  0.00     0.078 C 
ATOM      2  C1  UNL d   1      -1.540  -2.037   1.139  0.00  0.00    -0.077 A 
ATOM      3  C2  UNL d   1      -2.747  -2.012   0.431  0.00  0.00    -0.001 A 
ATOM      4  C3  UNL d   1      -2.784  -2.378  -0.916  0.00  0.00     0.003 A 
ATOM      5  C4  UNL d   1      -1.616  -2.771  -1.566  0.00  0.00    -0.005 A 
ATOM      6  C5  UNL d   1      -0.410  -2.801  -0.869  0.00  0.00     0.003 A 
ATOM      7  C6  UNL d   1      -0.371  -2.436   0.478  0.00  0.00    -0.001 A 
ENDROOT
TORSDOF 0
ENDMDL
