MODEL 1
REMARK minimizedAffinity 14.9502506
REMARK minimizedRMSD -1
REMARK  0 active torsions:
REMARK  status: ('A' for Active; 'I' for Inactive)
ROOT
ATOM      1  C   UNL d   1       5.926   5.981   5.429  0.00  0.00     0.078 C 
ATOM      2  C1  UNL d   1       5.114   5.995   4.168  0.00  0.00    -0.077 A 
ATOM      3  C2  UNL d   1       3.715   5.993   4.212  0.00  0.00    -0.001 A 
ATOM      4  C3  UNL d   1       2.972   5.995   3.030  0.00  0.00     0.003 A 
ATOM      5  C4  UNL d   1       3.619   5.999   1.797  0.00  0.00    -0.005 A 
ATOM      6  C5  UNL d   1       5.012   5.998   1.743  0.00  0.00     0.003 A 
ATOM      7  C6  UNL d   1       5.756   5.996   2.924  0.00  0.00    -0.001 A 
ENDROOT
TORSDOF 0
ENDMDL
