MODEL 1
REMARK minimizedAffinity 4.79395628
REMARK minimizedRMSD -1
REMARK  0 active torsions:
REMARK  status: ('A' for Active; 'I' for Inactive)
ROOT
ATOM      1  C   UNL d   1      -2.048  -0.892   3.000  0.00  0.00     0.078 C 
ATOM      2  C1  UNL d   1      -1.499  -2.101   2.303  0.00  0.00    -0.077 A 
ATOM      3  C2  UNL d   1      -0.870  -1.991   1.057  0.00  0.00    -0.001 A 
ATOM      4  C3  UNL d   1      -0.372  -3.126   0.415  0.00  0.00     0.003 A 
ATOM      5  C4  UNL d   1      -0.499  -4.379   1.011  0.00  0.00    -0.005 A 
ATOM      6  C5  UNL d   1      -1.125  -4.499   2.250  0.00  0.00     0.003 A 
ATOM      7  C6  UNL d   1      -1.624  -3.365   2.893  0.00  0.00    -0.001 A 
ENDROOT
TORSDOF 0
ENDMDL
