MODEL 1
REMARK minimizedAffinity 0.480803072
REMARK minimizedRMSD -1
REMARK  0 active torsions:
REMARK  status: ('A' for Active; 'I' for Inactive)
ROOT
ATOM      1  C   UNL d   1       3.003   1.864  -5.968  0.00  0.00     0.078 C 
ATOM      2  C1  UNL d   1       2.658   3.301  -5.712  0.00  0.00    -0.077 A 
ATOM      3  C2  UNL d   1       3.573   4.323  -5.993  0.00  0.00    -0.001 A 
ATOM      4  C3  UNL d   1       3.243   5.655  -5.739  0.00  0.00     0.003 A 
ATOM      5  C4  UNL d   1       1.998   5.978  -5.203  0.00  0.00    -0.005 A 
ATOM      6  C5  UNL d   1       1.082   4.967  -4.918  0.00  0.00     0.003 A 
ATOM      7  C6  UNL d   1       1.410   3.635  -5.170  0.00  0.00    -0.001 A 
ENDROOT
TORSDOF 0
ENDMDL
