MODEL 1
REMARK minimizedAffinity 10.8890877
REMARK minimizedRMSD -1
REMARK  0 active torsions:
REMARK  status: ('A' for Active; 'I' for Inactive)
ROOT
ATOM      1  C   UNL d   1       4.311   3.057  -0.448  0.00  0.00     0.078 C 
ATOM      2  C1  UNL d   1       3.467   2.193   0.441  0.00  0.00    -0.077 A 
ATOM      3  C2  UNL d   1       3.851   0.882   0.749  0.00  0.00    -0.001 A 
ATOM      4  C3  UNL d   1       3.051   0.087   1.571  0.00  0.00     0.003 A 
ATOM      5  C4  UNL d   1       1.861   0.593   2.091  0.00  0.00    -0.005 A 
ATOM      6  C5  UNL d   1       1.470   1.895   1.788  0.00  0.00     0.003 A 
ATOM      7  C6  UNL d   1       2.268   2.692   0.967  0.00  0.00    -0.001 A 
ENDROOT
TORSDOF 0
ENDMDL
