MODEL 1
REMARK minimizedAffinity 2.30134749
REMARK minimizedRMSD -1
REMARK  0 active torsions:
REMARK  status: ('A' for Active; 'I' for Inactive)
ROOT
ATOM      1  C   UNL d   1      -1.413  -2.635  -4.267  0.00  0.00     0.078 C 
ATOM      2  C1  UNL d   1      -2.488  -2.543  -3.227  0.00  0.00    -0.077 A 
ATOM      3  C2  UNL d   1      -3.762  -3.076  -3.457  0.00  0.00    -0.001 A 
ATOM      4  C3  UNL d   1      -4.757  -2.975  -2.483  0.00  0.00     0.003 A 
ATOM      5  C4  UNL d   1      -4.488  -2.340  -1.272  0.00  0.00    -0.005 A 
ATOM      6  C5  UNL d   1      -3.224  -1.804  -1.035  0.00  0.00     0.003 A 
ATOM      7  C6  UNL d   1      -2.229  -1.904  -2.008  0.00  0.00    -0.001 A 
ENDROOT
TORSDOF 0
ENDMDL
