MODEL 1
REMARK minimizedAffinity -1.20952237
REMARK minimizedRMSD -1
REMARK  0 active torsions:
REMARK  status: ('A' for Active; 'I' for Inactive)
ROOT
ATOM      1  C   UNL d   1       4.758   2.230  -5.980  0.00  0.00     0.078 C 
ATOM      2  C1  UNL d   1       4.143   3.538  -5.581  0.00  0.00    -0.077 A 
ATOM      3  C2  UNL d   1       2.852   3.885  -6.000  0.00  0.00    -0.001 A 
ATOM      4  C3  UNL d   1       2.295   5.110  -5.629  0.00  0.00     0.003 A 
ATOM      5  C4  UNL d   1       3.022   5.998  -4.839  0.00  0.00    -0.005 A 
ATOM      6  C5  UNL d   1       4.308   5.662  -4.419  0.00  0.00     0.003 A 
ATOM      7  C6  UNL d   1       4.866   4.438  -4.789  0.00  0.00    -0.001 A 
ENDROOT
TORSDOF 0
ENDMDL
