MODEL 1
REMARK minimizedAffinity 21.4071426
REMARK minimizedRMSD -1
REMARK  0 active torsions:
REMARK  status: ('A' for Active; 'I' for Inactive)
ROOT
ATOM      1  C   UNL d   1       1.149  -1.348   1.870  0.00  0.00     0.124 A 
ATOM      2  C1  UNL d   1       1.770  -1.792   3.029  0.00  0.00     0.062 A 
ATOM      3  C2  UNL d   1       3.155  -1.926   3.073  0.00  0.00     0.162 A 
ATOM      4  C3  UNL d   1       3.928  -1.615   1.955  0.00  0.00    -0.034 A 
ATOM      5  C4  UNL d   1       3.296  -1.170   0.792  0.00  0.00     0.162 A 
ATOM      6  C5  UNL d   1       1.912  -1.037   0.753  0.00  0.00     0.062 A 
ATOM      7  F   UNL d   1       1.313  -0.608  -0.368  0.00  0.00    -0.097 F 
ATOM      8  F1  UNL d   1       4.009  -0.863  -0.301  0.00  0.00    -0.096 F 
ATOM      9  I   UNL d   1       5.999  -1.815   2.017  0.00  0.00    -0.060 I 
ATOM     10  F2  UNL d   1       3.728  -2.357   4.206  0.00  0.00    -0.096 F 
ATOM     11  F3  UNL d   1       1.035  -2.093   4.109  0.00  0.00    -0.097 F 
ATOM     12  F4  UNL d   1      -0.184  -1.220   1.830  0.00  0.00    -0.092 F 
ENDROOT
TORSDOF 0
ENDMDL
