MODEL 1
REMARK minimizedAffinity 15.5764704
REMARK minimizedRMSD -1
REMARK  0 active torsions:
REMARK  status: ('A' for Active; 'I' for Inactive)
ROOT
ATOM      1  C   UNL d   1      -3.849   4.475   2.348  0.00  0.00     0.124 A 
ATOM      2  C1  UNL d   1      -4.903   4.489   1.445  0.00  0.00     0.062 A 
ATOM      3  C2  UNL d   1      -4.825   3.753   0.267  0.00  0.00     0.162 A 
ATOM      4  C3  UNL d   1      -3.688   2.995  -0.016  0.00  0.00    -0.034 A 
ATOM      5  C4  UNL d   1      -2.632   2.987   0.897  0.00  0.00     0.162 A 
ATOM      6  C5  UNL d   1      -2.715   3.725   2.073  0.00  0.00     0.062 A 
ATOM      7  F   UNL d   1      -1.695   3.710   2.945  0.00  0.00    -0.097 F 
ATOM      8  F1  UNL d   1      -1.524   2.270   0.657  0.00  0.00    -0.096 F 
ATOM      9  I   UNL d   1      -3.567   1.893  -1.777  0.00  0.00    -0.060 I 
ATOM     10  F2  UNL d   1      -5.858   3.784  -0.588  0.00  0.00    -0.096 F 
ATOM     11  F3  UNL d   1      -6.000   5.214   1.708  0.00  0.00    -0.097 F 
ATOM     12  F4  UNL d   1      -3.927   5.186   3.481  0.00  0.00    -0.092 F 
ENDROOT
TORSDOF 0
ENDMDL
