MODEL 1
REMARK minimizedAffinity 18.7187519
REMARK minimizedRMSD -1
REMARK  0 active torsions:
REMARK  status: ('A' for Active; 'I' for Inactive)
ROOT
ATOM      1  C   UNL d   1       3.152  -1.073   1.243  0.00  0.00     0.124 A 
ATOM      2  C1  UNL d   1       4.241  -1.913   1.434  0.00  0.00     0.062 A 
ATOM      3  C2  UNL d   1       4.047  -3.276   1.635  0.00  0.00     0.162 A 
ATOM      4  C3  UNL d   1       2.758  -3.810   1.646  0.00  0.00    -0.034 A 
ATOM      5  C4  UNL d   1       1.668  -2.959   1.454  0.00  0.00     0.162 A 
ATOM      6  C5  UNL d   1       1.867  -1.597   1.253  0.00  0.00     0.062 A 
ATOM      7  F   UNL d   1       0.814  -0.788   1.069  0.00  0.00    -0.097 F 
ATOM      8  F1  UNL d   1       0.415  -3.439   1.458  0.00  0.00    -0.096 F 
ATOM      9  I   UNL d   1       2.464  -5.848   1.946  0.00  0.00    -0.060 I 
ATOM     10  F2  UNL d   1       5.118  -4.064   1.816  0.00  0.00    -0.096 F 
ATOM     11  F3  UNL d   1       5.484  -1.409   1.425  0.00  0.00    -0.097 F 
ATOM     12  F4  UNL d   1       3.342   0.238   1.050  0.00  0.00    -0.092 F 
ENDROOT
TORSDOF 0
ENDMDL
