MODEL 1
REMARK minimizedAffinity 10.2762804
REMARK minimizedRMSD -1
REMARK  0 active torsions:
REMARK  status: ('A' for Active; 'I' for Inactive)
ROOT
ATOM      1  C   UNL d   1       3.437   3.889  -1.208  0.00  0.00     0.124 A 
ATOM      2  C1  UNL d   1       4.370   4.905  -1.364  0.00  0.00     0.062 A 
ATOM      3  C2  UNL d   1       5.102   5.008  -2.543  0.00  0.00     0.162 A 
ATOM      4  C3  UNL d   1       4.904   4.092  -3.577  0.00  0.00    -0.034 A 
ATOM      5  C4  UNL d   1       3.965   3.073  -3.412  0.00  0.00     0.162 A 
ATOM      6  C5  UNL d   1       3.235   2.974  -2.232  0.00  0.00     0.062 A 
ATOM      7  F   UNL d   1       2.335   1.992  -2.083  0.00  0.00    -0.097 F 
ATOM      8  F1  UNL d   1       3.749   2.175  -4.386  0.00  0.00    -0.096 F 
ATOM      9  I   UNL d   1       5.997   4.242  -5.342  0.00  0.00    -0.060 I 
ATOM     10  F2  UNL d   1       5.997   5.999  -2.667  0.00  0.00    -0.096 F 
ATOM     11  F3  UNL d   1       4.567   5.790  -0.376  0.00  0.00    -0.097 F 
ATOM     12  F4  UNL d   1       2.735   3.792  -0.072  0.00  0.00    -0.092 F 
ENDROOT
TORSDOF 0
ENDMDL
