MODEL 1
REMARK minimizedAffinity 11.1844873
REMARK minimizedRMSD -1
REMARK  0 active torsions:
REMARK  status: ('A' for Active; 'I' for Inactive)
ROOT
ATOM      1  C   UNL d   1       1.227  -1.084   4.341  0.00  0.00     0.124 A 
ATOM      2  C1  UNL d   1       1.660   0.230   4.238  0.00  0.00     0.062 A 
ATOM      3  C2  UNL d   1       2.290   0.671   3.078  0.00  0.00     0.162 A 
ATOM      4  C3  UNL d   1       2.490  -0.204   2.010  0.00  0.00    -0.034 A 
ATOM      5  C4  UNL d   1       2.052  -1.524   2.121  0.00  0.00     0.162 A 
ATOM      6  C5  UNL d   1       1.423  -1.960   3.283  0.00  0.00     0.062 A 
ATOM      7  F   UNL d   1       1.005  -3.231   3.380  0.00  0.00    -0.097 F 
ATOM      8  F1  UNL d   1       2.228  -2.392   1.113  0.00  0.00    -0.096 F 
ATOM      9  I   UNL d   1       3.431   0.452   0.274  0.00  0.00    -0.060 I 
ATOM     10  F2  UNL d   1       2.698   1.947   3.007  0.00  0.00    -0.096 F 
ATOM     11  F3  UNL d   1       1.472   1.078   5.260  0.00  0.00    -0.097 F 
ATOM     12  F4  UNL d   1       0.622  -1.506   5.459  0.00  0.00    -0.092 F 
ENDROOT
TORSDOF 0
ENDMDL
