MODEL 1
REMARK minimizedAffinity 2.69987512
REMARK minimizedRMSD -1
REMARK  0 active torsions:
REMARK  status: ('A' for Active; 'I' for Inactive)
ROOT
ATOM      1  C   UNL d   1      -0.006   1.947  -0.101  0.00  0.00     0.077 C 
ATOM      2  C1  UNL d   1       1.307   1.233   0.019  0.00  0.00    -0.074 A 
ATOM      3  C2  UNL d   1       2.496   1.944   0.219  0.00  0.00    -0.005 A 
ATOM      4  C3  UNL d   1       3.709   1.266   0.338  0.00  0.00     0.006 A 
ATOM      5  C4  UNL d   1       3.746  -0.127   0.259  0.00  0.00    -0.005 A 
ATOM      6  C5  UNL d   1       2.568  -0.854   0.061  0.00  0.00    -0.074 A 
ATOM      7  C6  UNL d   1       2.589  -2.352  -0.016  0.00  0.00     0.077 C 
ATOM      8  C7  UNL d   1       1.352  -0.166  -0.051  0.00  0.00    -0.001 A 
ENDROOT
TORSDOF 0
ENDMDL
