MODEL 1
REMARK minimizedAffinity 6.4015727
REMARK minimizedRMSD -1
REMARK  0 active torsions:
REMARK  status: ('A' for Active; 'I' for Inactive)
ROOT
ATOM      1  C   UNL d   1      -0.058   0.429  -1.799  0.00  0.00     0.077 C 
ATOM      2  C1  UNL d   1       0.561  -0.737  -1.089  0.00  0.00    -0.074 A 
ATOM      3  C2  UNL d   1       1.820  -0.627  -0.488  0.00  0.00    -0.005 A 
ATOM      4  C3  UNL d   1       2.379  -1.718   0.177  0.00  0.00     0.006 A 
ATOM      5  C4  UNL d   1       1.687  -2.927   0.249  0.00  0.00    -0.005 A 
ATOM      6  C5  UNL d   1       0.428  -3.056  -0.345  0.00  0.00    -0.074 A 
ATOM      7  C6  UNL d   1      -0.334  -4.346  -0.268  0.00  0.00     0.077 C 
ATOM      8  C7  UNL d   1      -0.131  -1.953  -1.006  0.00  0.00    -0.001 A 
ENDROOT
TORSDOF 0
ENDMDL
