MODEL 1
REMARK minimizedAffinity 7.91707659
REMARK minimizedRMSD -1
REMARK  0 active torsions:
REMARK  status: ('A' for Active; 'I' for Inactive)
ROOT
ATOM      1  C   UNL d   1      -0.775  -3.353  -1.163  0.00  0.00     0.077 C 
ATOM      2  C1  UNL d   1       0.507  -2.709  -0.727  0.00  0.00    -0.074 A 
ATOM      3  C2  UNL d   1       0.954  -2.819   0.594  0.00  0.00    -0.005 A 
ATOM      4  C3  UNL d   1       2.153  -2.223   0.983  0.00  0.00     0.006 A 
ATOM      5  C4  UNL d   1       2.916  -1.510   0.057  0.00  0.00    -0.005 A 
ATOM      6  C5  UNL d   1       2.486  -1.390  -1.268  0.00  0.00    -0.074 A 
ATOM      7  C6  UNL d   1       3.299  -0.637  -2.279  0.00  0.00     0.077 C 
ATOM      8  C7  UNL d   1       1.283  -1.998  -1.653  0.00  0.00    -0.001 A 
ENDROOT
TORSDOF 0
ENDMDL
