MODEL 1
REMARK minimizedAffinity 8.14034653
REMARK minimizedRMSD -1
REMARK  0 active torsions:
REMARK  status: ('A' for Active; 'I' for Inactive)
ROOT
ATOM      1  C   UNL d   1       2.948  -1.657   0.461  0.00  0.00     0.077 C 
ATOM      2  C1  UNL d   1       1.783  -2.160  -0.339  0.00  0.00    -0.074 A 
ATOM      3  C2  UNL d   1       1.130  -3.346   0.010  0.00  0.00    -0.005 A 
ATOM      4  C3  UNL d   1       0.042  -3.796  -0.738  0.00  0.00     0.006 A 
ATOM      5  C4  UNL d   1      -0.404  -3.065  -1.840  0.00  0.00    -0.005 A 
ATOM      6  C5  UNL d   1       0.236  -1.876  -2.203  0.00  0.00    -0.074 A 
ATOM      7  C6  UNL d   1      -0.237  -1.073  -3.379  0.00  0.00     0.077 C 
ATOM      8  C7  UNL d   1       1.324  -1.427  -1.443  0.00  0.00    -0.001 A 
ENDROOT
TORSDOF 0
ENDMDL
