MODEL 1
REMARK minimizedAffinity 1.28470206
REMARK minimizedRMSD -1
REMARK  0 active torsions:
REMARK  status: ('A' for Active; 'I' for Inactive)
ROOT
ATOM      1  C   UNL d   1       1.129  -2.846   4.336  0.00  0.00     0.077 C 
ATOM      2  C1  UNL d   1       1.420  -2.993   2.873  0.00  0.00    -0.074 A 
ATOM      3  C2  UNL d   1       2.613  -2.511   2.325  0.00  0.00    -0.005 A 
ATOM      4  C3  UNL d   1       2.874  -2.663   0.963  0.00  0.00     0.006 A 
ATOM      5  C4  UNL d   1       1.946  -3.298   0.137  0.00  0.00    -0.005 A 
ATOM      6  C5  UNL d   1       0.748  -3.787   0.667  0.00  0.00    -0.074 A 
ATOM      7  C6  UNL d   1      -0.256  -4.480  -0.206  0.00  0.00     0.077 C 
ATOM      8  C7  UNL d   1       0.496  -3.636   2.037  0.00  0.00    -0.001 A 
ENDROOT
TORSDOF 0
ENDMDL
