MODEL 1
REMARK minimizedAffinity 6.56354141
REMARK minimizedRMSD -1
REMARK  0 active torsions:
REMARK  status: ('A' for Active; 'I' for Inactive)
ROOT
ATOM      1  C   UNL d   1      -0.498   1.653   1.269  0.00  0.00     0.077 C 
ATOM      2  C1  UNL d   1       0.982   1.591   1.032  0.00  0.00    -0.074 A 
ATOM      3  C2  UNL d   1       1.731   2.759   0.853  0.00  0.00    -0.005 A 
ATOM      4  C3  UNL d   1       3.108   2.686   0.643  0.00  0.00     0.006 A 
ATOM      5  C4  UNL d   1       3.749   1.447   0.610  0.00  0.00    -0.005 A 
ATOM      6  C5  UNL d   1       3.017   0.269   0.788  0.00  0.00    -0.074 A 
ATOM      7  C6  UNL d   1       3.692  -1.070   0.765  0.00  0.00     0.077 C 
ATOM      8  C7  UNL d   1       1.635   0.351   1.006  0.00  0.00    -0.001 A 
ENDROOT
TORSDOF 0
ENDMDL
