MODEL 1
REMARK minimizedAffinity 5.4993968
REMARK minimizedRMSD -1
REMARK  0 active torsions:
REMARK  status: ('A' for Active; 'I' for Inactive)
ROOT
ATOM      1  C   UNL d   1       3.827  -1.981  -2.025  0.00  0.00     0.077 C 
ATOM      2  C1  UNL d   1       3.330  -1.337  -0.765  0.00  0.00    -0.074 A 
ATOM      3  C2  UNL d   1       3.545  -1.935   0.481  0.00  0.00    -0.005 A 
ATOM      4  C3  UNL d   1       3.085  -1.319   1.645  0.00  0.00     0.006 A 
ATOM      5  C4  UNL d   1       2.406  -0.102   1.575  0.00  0.00    -0.005 A 
ATOM      6  C5  UNL d   1       2.183   0.511   0.338  0.00  0.00    -0.074 A 
ATOM      7  C6  UNL d   1       1.463   1.824   0.245  0.00  0.00     0.077 C 
ATOM      8  C7  UNL d   1       2.654  -0.111  -0.827  0.00  0.00    -0.001 A 
ENDROOT
TORSDOF 0
ENDMDL
