MODEL 1
REMARK minimizedAffinity 9.12873268
REMARK minimizedRMSD -1
REMARK  0 active torsions:
REMARK  status: ('A' for Active; 'I' for Inactive)
ROOT
ATOM      1  C   UNL d   1      -0.412   2.302   1.209  0.00  0.00     0.077 C 
ATOM      2  C1  UNL d   1       0.437   1.388   0.376  0.00  0.00    -0.074 A 
ATOM      3  C2  UNL d   1       1.728   1.036   0.782  0.00  0.00    -0.005 A 
ATOM      4  C3  UNL d   1       2.501   0.177   0.002  0.00  0.00     0.006 A 
ATOM      5  C4  UNL d   1       1.993  -0.337  -1.191  0.00  0.00    -0.005 A 
ATOM      6  C5  UNL d   1       0.704   0.003  -1.614  0.00  0.00    -0.074 A 
ATOM      7  C6  UNL d   1       0.138  -0.550  -2.888  0.00  0.00     0.077 C 
ATOM      8  C7  UNL d   1      -0.070   0.861  -0.820  0.00  0.00    -0.001 A 
ENDROOT
TORSDOF 0
ENDMDL
