MODEL 1
REMARK minimizedAffinity 6.73215771
REMARK minimizedRMSD -1
REMARK  0 active torsions:
REMARK  status: ('A' for Active; 'I' for Inactive)
ROOT
ATOM      1  C   UNL d   1       1.384   2.372   0.457  0.00  0.00     0.077 C 
ATOM      2  C1  UNL d   1       1.175   0.967  -0.026  0.00  0.00    -0.074 A 
ATOM      3  C2  UNL d   1       0.253   0.686  -1.039  0.00  0.00    -0.005 A 
ATOM      4  C3  UNL d   1       0.076  -0.624  -1.484  0.00  0.00     0.006 A 
ATOM      5  C4  UNL d   1       0.817  -1.664  -0.921  0.00  0.00    -0.005 A 
ATOM      6  C5  UNL d   1       1.744  -1.401   0.093  0.00  0.00    -0.074 A 
ATOM      7  C6  UNL d   1       2.556  -2.506   0.702  0.00  0.00     0.077 C 
ATOM      8  C7  UNL d   1       1.921  -0.081   0.529  0.00  0.00    -0.001 A 
ENDROOT
TORSDOF 0
ENDMDL
