MODEL 1
REMARK minimizedAffinity 5.40140963
REMARK minimizedRMSD -1
REMARK  0 active torsions:
REMARK  status: ('A' for Active; 'I' for Inactive)
ROOT
ATOM      1  C   UNL d   1       2.000  -2.491  -0.524  0.00  0.00     0.077 C 
ATOM      2  C1  UNL d   1       2.256  -1.102  -0.020  0.00  0.00    -0.074 A 
ATOM      3  C2  UNL d   1       3.467  -0.774   0.599  0.00  0.00    -0.005 A 
ATOM      4  C3  UNL d   1       3.695   0.525   1.054  0.00  0.00     0.006 A 
ATOM      5  C4  UNL d   1       2.716   1.507   0.896  0.00  0.00    -0.005 A 
ATOM      6  C5  UNL d   1       1.500   1.198   0.278  0.00  0.00    -0.074 A 
ATOM      7  C6  UNL d   1       0.441   2.243   0.091  0.00  0.00     0.077 C 
ATOM      8  C7  UNL d   1       1.281  -0.108  -0.183  0.00  0.00    -0.001 A 
ENDROOT
TORSDOF 0
ENDMDL
