MODEL 1
REMARK minimizedAffinity -0.570276022
REMARK minimizedRMSD -1
REMARK  1 active torsions:
REMARK  status: ('A' for Active; 'I' for Inactive)
REMARK    1  A    between atoms: C1_2  and  C2_3 
ROOT
ATOM      1  C2  UNL d   1       1.873  -2.808   3.232  0.00  0.00    -0.081 A 
ATOM      2  C3  UNL d   1       1.720  -2.422   1.895  0.00  0.00     0.006 A 
ATOM      3  C4  UNL d   1       1.831  -1.078   1.529  0.00  0.00     0.002 A 
ATOM      4  C5  UNL d   1       2.105  -0.101   2.491  0.00  0.00    -0.080 A 
ATOM      5  C6  UNL d   1       2.258   1.341   2.107  0.00  0.00     0.076 C 
ATOM      6  C7  UNL d   1       2.241  -0.484   3.830  0.00  0.00     0.002 A 
ATOM      7  C8  UNL d   1       2.129  -1.827   4.197  0.00  0.00     0.006 A 
ENDROOT
BRANCH   1   8
ATOM      8  C1  UNL d   1       1.817  -4.264   3.620  0.00  0.00     0.054 C 
ATOM      9  C   UNL d   1       2.985  -5.039   3.028  0.00  0.00     0.018 C 
ENDBRANCH   1   8
TORSDOF 1
ENDMDL
