MODEL 1
REMARK minimizedAffinity -1.69609034
REMARK minimizedRMSD -1
REMARK  1 active torsions:
REMARK  status: ('A' for Active; 'I' for Inactive)
REMARK    1  A    between atoms: C1_2  and  C2_3 
ROOT
ATOM      1  C2  UNL d   1       0.587  -1.654   0.715  0.00  0.00    -0.081 A 
ATOM      2  C3  UNL d   1       0.866  -1.428   2.069  0.00  0.00     0.006 A 
ATOM      3  C4  UNL d   1       1.768  -0.432   2.449  0.00  0.00     0.002 A 
ATOM      4  C5  UNL d   1       2.401   0.360   1.484  0.00  0.00    -0.080 A 
ATOM      5  C6  UNL d   1       3.348   1.452   1.880  0.00  0.00     0.076 C 
ATOM      6  C7  UNL d   1       2.135   0.122   0.131  0.00  0.00     0.002 A 
ATOM      7  C8  UNL d   1       1.234  -0.874  -0.250  0.00  0.00     0.006 A 
ENDROOT
BRANCH   1   8
ATOM      8  C1  UNL d   1      -0.434  -2.684   0.305  0.00  0.00     0.054 C 
ATOM      9  C   UNL d   1      -1.792  -2.045   0.051  0.00  0.00     0.018 C 
ENDBRANCH   1   8
TORSDOF 1
ENDMDL
