MODEL 1
REMARK minimizedAffinity 12.5238018
REMARK minimizedRMSD -1
REMARK  1 active torsions:
REMARK  status: ('A' for Active; 'I' for Inactive)
REMARK    1  A    between atoms: C1_2  and  C2_3 
ROOT
ATOM      1  C2  UNL d   1       2.581  -5.880  -3.502  0.00  0.00    -0.081 A 
ATOM      2  C3  UNL d   1       1.939  -5.599  -2.290  0.00  0.00     0.006 A 
ATOM      3  C4  UNL d   1       2.682  -5.430  -1.118  0.00  0.00     0.002 A 
ATOM      4  C5  UNL d   1       4.077  -5.532  -1.141  0.00  0.00    -0.080 A 
ATOM      5  C6  UNL d   1       4.887  -5.323   0.103  0.00  0.00     0.076 C 
ATOM      6  C7  UNL d   1       4.716  -5.830  -2.349  0.00  0.00     0.002 A 
ATOM      7  C8  UNL d   1       3.975  -6.000  -3.520  0.00  0.00     0.006 A 
ENDROOT
BRANCH   1   8
ATOM      8  C1  UNL d   1       1.789  -5.998  -4.779  0.00  0.00     0.054 C 
ATOM      9  C   UNL d   1       2.700  -5.992  -5.998  0.00  0.00     0.018 C 
ENDBRANCH   1   8
TORSDOF 1
ENDMDL
