MODEL 1
REMARK minimizedAffinity 7.89080048
REMARK minimizedRMSD -1
REMARK  0 active torsions:
REMARK  status: ('A' for Active; 'I' for Inactive)
ROOT
ATOM      1  C   UNL d   1       1.215  -1.372   2.084  0.00  0.00     0.023 A 
ATOM      2  C1  UNL d   1       2.018  -0.741   1.134  0.00  0.00     0.003 A 
ATOM      3  C2  UNL d   1       3.391  -0.992   1.100  0.00  0.00     0.048 A 
ATOM      4  C3  UNL d   1       3.955  -1.876   2.019  0.00  0.00     0.023 A 
ATOM      5  C4  UNL d   1       3.156  -2.511   2.972  0.00  0.00     0.048 A 
ATOM      6  C5  UNL d   1       1.784  -2.256   3.002  0.00  0.00     0.003 A 
ATOM      7  I   UNL d   1       5.999  -2.252   1.971  0.00  0.00    -0.146 I 
ENDROOT
TORSDOF 0
ENDMDL
