MODEL 1
REMARK minimizedAffinity 12.7390833
REMARK minimizedRMSD -1
REMARK  0 active torsions:
REMARK  status: ('A' for Active; 'I' for Inactive)
ROOT
ATOM      1  C   UNL d   1      -5.139  -4.959  -5.903  0.00  0.00     0.023 A 
ATOM      2  C1  UNL d   1      -3.987  -4.906  -5.117  0.00  0.00     0.003 A 
ATOM      3  C2  UNL d   1      -3.663  -3.735  -4.429  0.00  0.00     0.048 A 
ATOM      4  C3  UNL d   1      -4.496  -2.621  -4.529  0.00  0.00     0.023 A 
ATOM      5  C4  UNL d   1      -5.650  -2.670  -5.313  0.00  0.00     0.048 A 
ATOM      6  C5  UNL d   1      -5.969  -3.842  -6.000  0.00  0.00     0.003 A 
ATOM      7  I   UNL d   1      -4.016  -0.877  -3.505  0.00  0.00    -0.146 I 
ENDROOT
TORSDOF 0
ENDMDL
