MODEL 1
REMARK minimizedAffinity 7.64405918
REMARK minimizedRMSD -1
REMARK  0 active torsions:
REMARK  status: ('A' for Active; 'I' for Inactive)
ROOT
ATOM      1  C   UNL d   1       1.711   0.769   1.920  0.00  0.00     0.023 A 
ATOM      2  C1  UNL d   1       2.844   0.105   1.449  0.00  0.00     0.003 A 
ATOM      3  C2  UNL d   1       2.916  -1.288   1.515  0.00  0.00     0.048 A 
ATOM      4  C3  UNL d   1       1.851  -2.011   2.051  0.00  0.00     0.023 A 
ATOM      5  C4  UNL d   1       0.715  -1.350   2.522  0.00  0.00     0.048 A 
ATOM      6  C5  UNL d   1       0.648   0.043   2.455  0.00  0.00     0.003 A 
ATOM      7  I   UNL d   1       1.955  -4.084   2.149  0.00  0.00    -0.146 I 
ENDROOT
TORSDOF 0
ENDMDL
