MODEL 1
REMARK minimizedAffinity 6.0796957
REMARK minimizedRMSD -1
REMARK  0 active torsions:
REMARK  status: ('A' for Active; 'I' for Inactive)
ROOT
ATOM      1  C   UNL d   1       1.421  -0.995   1.886  0.00  0.00     0.023 A 
ATOM      2  C1  UNL d   1       2.068  -2.223   1.743  0.00  0.00     0.003 A 
ATOM      3  C2  UNL d   1       1.935  -3.202   2.729  0.00  0.00     0.048 A 
ATOM      4  C3  UNL d   1       1.153  -2.948   3.855  0.00  0.00     0.023 A 
ATOM      5  C4  UNL d   1       0.504  -1.721   4.002  0.00  0.00     0.048 A 
ATOM      6  C5  UNL d   1       0.640  -0.745   3.014  0.00  0.00     0.003 A 
ATOM      7  I   UNL d   1       0.954  -4.404   5.325  0.00  0.00    -0.146 I 
ENDROOT
TORSDOF 0
ENDMDL
