MODEL 1
REMARK minimizedAffinity 4.76158762
REMARK minimizedRMSD -1
REMARK  0 active torsions:
REMARK  status: ('A' for Active; 'I' for Inactive)
ROOT
ATOM      1  C   UNL d   1       3.311   0.265   0.956  0.00  0.00     0.023 A 
ATOM      2  C1  UNL d   1       3.443  -1.114   1.120  0.00  0.00     0.003 A 
ATOM      3  C2  UNL d   1       2.717  -1.772   2.115  0.00  0.00     0.048 A 
ATOM      4  C3  UNL d   1       1.860  -1.046   2.941  0.00  0.00     0.023 A 
ATOM      5  C4  UNL d   1       1.724   0.334   2.780  0.00  0.00     0.048 A 
ATOM      6  C5  UNL d   1       2.453   0.988   1.784  0.00  0.00     0.003 A 
ATOM      7  I   UNL d   1       0.779  -2.024   4.422  0.00  0.00    -0.146 I 
ENDROOT
TORSDOF 0
ENDMDL
