MODEL 1
REMARK minimizedAffinity -7.05886507
REMARK minimizedRMSD -1
REMARK  3 active torsions:
REMARK  status: ('A' for Active; 'I' for Inactive)
REMARK    1  A    between atoms: C3'_2  and  C2'_3 
REMARK    2  A    between atoms: C2'_3  and  C1'_4 
REMARK    3  A    between atoms: C1'_4  and  C1_5 
ROOT
ATOM      1  C1  N4B d   1      -1.894   0.289   2.166  0.00  0.00    -0.075 A 
ATOM      2  C2  N4B d   1      -1.534  -0.843   1.402  0.00  0.00     0.002 A 
ATOM      3  C3  N4B d   1      -0.374  -0.834   0.666  0.00  0.00     0.002 A 
ATOM      4  C4  N4B d   1       0.429   0.297   0.664  0.00  0.00    -0.004 A 
ATOM      5  C5  N4B d   1       0.087   1.377   1.425  0.00  0.00     0.002 A 
ATOM      6  C6  N4B d   1      -1.074   1.381   2.172  0.00  0.00     0.002 A 
ENDROOT
BRANCH   1   7
ATOM      7  C1' N4B d   1      -3.195   0.359   2.917  0.00  0.00     0.057 C 
BRANCH   7   8
ATOM      8  C2' N4B d   1      -3.378   1.768   3.472  0.00  0.00     0.009 C 
BRANCH   8   9
ATOM      9  C3' N4B d   1      -4.720   1.936   4.165  0.00  0.00     0.004 C 
ATOM     10  C4' N4B d   1      -4.593   2.512   5.544  0.00  0.00     0.003 C 
ENDBRANCH   8   9
ENDBRANCH   7   8
ENDBRANCH   1   7
TORSDOF 3
ENDMDL
