MODEL 1
REMARK minimizedAffinity -0.420507073
REMARK minimizedRMSD -1
REMARK  3 active torsions:
REMARK  status: ('A' for Active; 'I' for Inactive)
REMARK    1  A    between atoms: C3'_2  and  C2'_3 
REMARK    2  A    between atoms: C2'_3  and  C1'_4 
REMARK    3  A    between atoms: C1'_4  and  C1_5 
ROOT
ATOM      1  C1  N4B d   1      -1.690   1.551   2.470  0.00  0.00    -0.075 A 
ATOM      2  C2  N4B d   1      -0.691   2.051   1.605  0.00  0.00     0.002 A 
ATOM      3  C3  N4B d   1       0.145   1.182   0.947  0.00  0.00     0.002 A 
ATOM      4  C4  N4B d   1       0.014  -0.183   1.152  0.00  0.00    -0.004 A 
ATOM      5  C5  N4B d   1      -0.970  -0.659   1.969  0.00  0.00     0.002 A 
ATOM      6  C6  N4B d   1      -1.819   0.202   2.634  0.00  0.00     0.002 A 
ENDROOT
BRANCH   1   7
ATOM      7  C1' N4B d   1      -2.571   2.465   3.277  0.00  0.00     0.057 C 
BRANCH   7   8
ATOM      8  C2' N4B d   1      -3.643   1.636   3.978  0.00  0.00     0.009 C 
BRANCH   8   9
ATOM      9  C3' N4B d   1      -4.737   2.507   4.573  0.00  0.00     0.004 C 
ATOM     10  C4' N4B d   1      -5.067   2.138   5.988  0.00  0.00     0.003 C 
ENDBRANCH   8   9
ENDBRANCH   7   8
ENDBRANCH   1   7
TORSDOF 3
ENDMDL
