MODEL 1
REMARK minimizedAffinity -1.41044891
REMARK minimizedRMSD -1
REMARK  3 active torsions:
REMARK  status: ('A' for Active; 'I' for Inactive)
REMARK    1  A    between atoms: C3'_2  and  C2'_3 
REMARK    2  A    between atoms: C2'_3  and  C1'_4 
REMARK    3  A    between atoms: C1'_4  and  C1_5 
ROOT
ATOM      1  C1  N4B d   1      -0.625   1.931   1.767  0.00  0.00    -0.075 A 
ATOM      2  C2  N4B d   1       0.297   2.266   0.751  0.00  0.00     0.002 A 
ATOM      3  C3  N4B d   1       1.339   1.419   0.463  0.00  0.00     0.002 A 
ATOM      4  C4  N4B d   1       1.489   0.245   1.187  0.00  0.00    -0.004 A 
ATOM      5  C5  N4B d   1       0.579  -0.083   2.149  0.00  0.00     0.002 A 
ATOM      6  C6  N4B d   1      -0.475   0.757   2.446  0.00  0.00     0.002 A 
ENDROOT
BRANCH   1   7
ATOM      7  C1' N4B d   1      -1.730   2.867   2.175  0.00  0.00     0.057 C 
BRANCH   7   8
ATOM      8  C2' N4B d   1      -2.499   2.254   3.343  0.00  0.00     0.009 C 
BRANCH   8   9
ATOM      9  C3' N4B d   1      -3.857   2.906   3.533  0.00  0.00     0.004 C 
ATOM     10  C4' N4B d   1      -4.438   2.652   4.892  0.00  0.00     0.003 C 
ENDBRANCH   8   9
ENDBRANCH   7   8
ENDBRANCH   1   7
TORSDOF 3
ENDMDL
