MODEL 1
REMARK minimizedAffinity 4.59231281
REMARK minimizedRMSD -1
REMARK  3 active torsions:
REMARK  status: ('A' for Active; 'I' for Inactive)
REMARK    1  A    between atoms: C3'_2  and  C2'_3 
REMARK    2  A    between atoms: C2'_3  and  C1'_4 
REMARK    3  A    between atoms: C1'_4  and  C1_5 
ROOT
ATOM      1  C1  N4B d   1      -1.476   2.386   2.151  0.00  0.00    -0.075 A 
ATOM      2  C2  N4B d   1      -1.515   0.979   2.041  0.00  0.00     0.002 A 
ATOM      3  C3  N4B d   1      -0.448   0.303   1.500  0.00  0.00     0.002 A 
ATOM      4  C4  N4B d   1       0.655   1.012   1.048  0.00  0.00    -0.004 A 
ATOM      5  C5  N4B d   1       0.695   2.369   1.182  0.00  0.00     0.002 A 
ATOM      6  C6  N4B d   1      -0.368   3.061   1.727  0.00  0.00     0.002 A 
ENDROOT
BRANCH   1   7
ATOM      7  C1' N4B d   1      -2.652   3.176   2.657  0.00  0.00     0.057 C 
BRANCH   7   8
ATOM      8  C2' N4B d   1      -3.364   2.375   3.743  0.00  0.00     0.009 C 
BRANCH   8   9
ATOM      9  C3' N4B d   1      -4.197   3.263   4.650  0.00  0.00     0.004 C 
ATOM     10  C4' N4B d   1      -4.583   2.585   5.931  0.00  0.00     0.003 C 
ENDBRANCH   8   9
ENDBRANCH   7   8
ENDBRANCH   1   7
TORSDOF 3
ENDMDL
