MODEL 1
REMARK minimizedAffinity -3.33173132
REMARK minimizedRMSD -1
REMARK  3 active torsions:
REMARK  status: ('A' for Active; 'I' for Inactive)
REMARK    1  A    between atoms: C3'_2  and  C2'_3 
REMARK    2  A    between atoms: C2'_3  and  C1'_4 
REMARK    3  A    between atoms: C1'_4  and  C1_5 
ROOT
ATOM      1  C1  N4B d   1      -1.413   0.195   1.549  0.00  0.00    -0.075 A 
ATOM      2  C2  N4B d   1      -0.936   1.348   0.888  0.00  0.00     0.002 A 
ATOM      3  C3  N4B d   1       0.328   1.358   0.351  0.00  0.00     0.002 A 
ATOM      4  C4  N4B d   1       1.136   0.238   0.478  0.00  0.00    -0.004 A 
ATOM      5  C5  N4B d   1       0.658  -0.881   1.096  0.00  0.00     0.002 A 
ATOM      6  C6  N4B d   1      -0.611  -0.906   1.637  0.00  0.00     0.002 A 
ENDROOT
BRANCH   1   7
ATOM      7  C1' N4B d   1      -2.756   0.167   2.228  0.00  0.00     0.057 C 
BRANCH   7   8
ATOM      8  C2' N4B d   1      -2.982   1.493   2.947  0.00  0.00     0.009 C 
BRANCH   8   9
ATOM      9  C3' N4B d   1      -4.280   1.498   3.736  0.00  0.00     0.004 C 
ATOM     10  C4' N4B d   1      -4.297   2.536   4.818  0.00  0.00     0.003 C 
ENDBRANCH   8   9
ENDBRANCH   7   8
ENDBRANCH   1   7
TORSDOF 3
ENDMDL
