MODEL 1
REMARK minimizedAffinity -2.61942172
REMARK minimizedRMSD -1
REMARK  3 active torsions:
REMARK  status: ('A' for Active; 'I' for Inactive)
REMARK    1  A    between atoms: C3'_2  and  C2'_3 
REMARK    2  A    between atoms: C2'_3  and  C1'_4 
REMARK    3  A    between atoms: C1'_4  and  C1_5 
ROOT
ATOM      1  C1  N4B d   1      -1.489   1.548   1.504  0.00  0.00    -0.075 A 
ATOM      2  C2  N4B d   1      -0.438   2.037   0.698  0.00  0.00     0.002 A 
ATOM      3  C3  N4B d   1       0.677   1.265   0.480  0.00  0.00     0.002 A 
ATOM      4  C4  N4B d   1       0.770   0.014   1.071  0.00  0.00    -0.004 A 
ATOM      5  C5  N4B d   1      -0.260  -0.462   1.827  0.00  0.00     0.002 A 
ATOM      6  C6  N4B d   1      -1.388   0.301   2.051  0.00  0.00     0.002 A 
ENDROOT
BRANCH   1   7
ATOM      7  C1' N4B d   1      -2.690   2.389   1.841  0.00  0.00     0.057 C 
BRANCH   7   8
ATOM      8  C2' N4B d   1      -3.025   2.215   3.319  0.00  0.00     0.009 C 
BRANCH   8   9
ATOM      9  C3' N4B d   1      -4.489   1.872   3.533  0.00  0.00     0.004 C 
ATOM     10  C4' N4B d   1      -4.999   2.313   4.873  0.00  0.00     0.003 C 
ENDBRANCH   8   9
ENDBRANCH   7   8
ENDBRANCH   1   7
TORSDOF 3
ENDMDL
