MODEL 1
REMARK minimizedAffinity -0.822273493
REMARK minimizedRMSD -1
REMARK  3 active torsions:
REMARK  status: ('A' for Active; 'I' for Inactive)
REMARK    1  A    between atoms: C3'_2  and  C2'_3 
REMARK    2  A    between atoms: C2'_3  and  C1'_4 
REMARK    3  A    between atoms: C1'_4  and  C1_5 
ROOT
ATOM      1  C1  N4B d   1      -2.173   1.504   2.710  0.00  0.00    -0.075 A 
ATOM      2  C2  N4B d   1      -1.234   0.586   2.189  0.00  0.00     0.002 A 
ATOM      3  C3  N4B d   1      -0.351   0.985   1.216  0.00  0.00     0.002 A 
ATOM      4  C4  N4B d   1      -0.400   2.285   0.737  0.00  0.00    -0.004 A 
ATOM      5  C5  N4B d   1      -1.293   3.172   1.263  0.00  0.00     0.002 A 
ATOM      6  C6  N4B d   1      -2.183   2.787   2.244  0.00  0.00     0.002 A 
ENDROOT
BRANCH   1   7
ATOM      7  C1' N4B d   1      -3.215   1.091   3.713  0.00  0.00     0.057 C 
BRANCH   7   8
ATOM      8  C2' N4B d   1      -4.102   2.290   4.035  0.00  0.00     0.009 C 
BRANCH   8   9
ATOM      9  C3' N4B d   1      -4.861   2.101   5.338  0.00  0.00     0.004 C 
ATOM     10  C4' N4B d   1      -5.784   3.244   5.643  0.00  0.00     0.003 C 
ENDBRANCH   8   9
ENDBRANCH   7   8
ENDBRANCH   1   7
TORSDOF 3
ENDMDL
