MODEL 1
REMARK minimizedAffinity -2.12527871
REMARK minimizedRMSD -1
REMARK  0 active torsions:
REMARK  status: ('A' for Active; 'I' for Inactive)
ROOT
ATOM      1  C1  BNZ d   1       3.072   2.498   1.022  0.00  0.00     0.000 A 
ATOM      2  C2  BNZ d   1       2.945   1.910  -0.209  0.00  0.00     0.000 A 
ATOM      3  C3  BNZ d   1       2.170   0.797  -0.376  0.00  0.00     0.000 A 
ATOM      4  C4  BNZ d   1       1.557   0.249   0.693  0.00  0.00     0.000 A 
ATOM      5  C5  BNZ d   1       1.683   0.824   1.942  0.00  0.00     0.000 A 
ATOM      6  C6  BNZ d   1       2.432   1.967   2.099  0.00  0.00     0.000 A 
ENDROOT
TORSDOF 0
ENDMDL
