MODEL 1
REMARK minimizedAffinity -4.44997787
REMARK minimizedRMSD -1
REMARK  0 active torsions:
REMARK  status: ('A' for Active; 'I' for Inactive)
ROOT
ATOM      1  C1  BNZ d   1      -2.057  -2.525   1.396  0.00  0.00     0.000 A 
ATOM      2  C2  BNZ d   1      -0.813  -2.033   1.105  0.00  0.00     0.000 A 
ATOM      3  C3  BNZ d   1      -0.667  -0.839   0.457  0.00  0.00     0.000 A 
ATOM      4  C4  BNZ d   1      -1.763  -0.158   0.065  0.00  0.00     0.000 A 
ATOM      5  C5  BNZ d   1      -3.025  -0.646   0.342  0.00  0.00     0.000 A 
ATOM      6  C6  BNZ d   1      -3.168  -1.829   1.029  0.00  0.00     0.000 A 
ENDROOT
TORSDOF 0
ENDMDL
