MODEL 1
REMARK minimizedAffinity -4.08132124
REMARK minimizedRMSD -1
REMARK  0 active torsions:
REMARK  status: ('A' for Active; 'I' for Inactive)
ROOT
ATOM      1  C1  BNZ d   1       0.036  -0.798   0.335  0.00  0.00     0.000 A 
ATOM      2  C2  BNZ d   1      -1.058  -1.574   0.614  0.00  0.00     0.000 A 
ATOM      3  C3  BNZ d   1      -2.194  -1.477  -0.139  0.00  0.00     0.000 A 
ATOM      4  C4  BNZ d   1      -2.250  -0.578  -1.143  0.00  0.00     0.000 A 
ATOM      5  C5  BNZ d   1      -1.159   0.218  -1.430  0.00  0.00     0.000 A 
ATOM      6  C6  BNZ d   1      -0.003   0.090  -0.694  0.00  0.00     0.000 A 
ENDROOT
TORSDOF 0
ENDMDL
