MODEL 1
REMARK minimizedAffinity -5.43975401
REMARK minimizedRMSD -1
REMARK  0 active torsions:
REMARK  status: ('A' for Active; 'I' for Inactive)
ROOT
ATOM      1  C1  BNZ d   1      -2.389  -2.276   0.797  0.00  0.00     0.000 A 
ATOM      2  C2  BNZ d   1      -1.168  -1.706   1.038  0.00  0.00     0.000 A 
ATOM      3  C3  BNZ d   1      -0.660  -0.757   0.196  0.00  0.00     0.000 A 
ATOM      4  C4  BNZ d   1      -1.354  -0.410  -0.907  0.00  0.00     0.000 A 
ATOM      5  C5  BNZ d   1      -2.583  -0.983  -1.169  0.00  0.00     0.000 A 
ATOM      6  C6  BNZ d   1      -3.109  -1.909  -0.298  0.00  0.00     0.000 A 
ENDROOT
TORSDOF 0
ENDMDL
