MODEL 1
REMARK minimizedAffinity -4.83860683
REMARK minimizedRMSD -1
REMARK  0 active torsions:
REMARK  status: ('A' for Active; 'I' for Inactive)
ROOT
ATOM      1  C1  BNZ d   1       0.038  -0.797   1.153  0.00  0.00     0.000 A 
ATOM      2  C2  BNZ d   1      -1.226  -1.278   1.366  0.00  0.00     0.000 A 
ATOM      3  C3  BNZ d   1      -2.226  -1.040   0.465  0.00  0.00     0.000 A 
ATOM      4  C4  BNZ d   1      -1.971  -0.288  -0.626  0.00  0.00     0.000 A 
ATOM      5  C5  BNZ d   1      -0.704   0.212  -0.849  0.00  0.00     0.000 A 
ATOM      6  C6  BNZ d   1       0.310  -0.063   0.040  0.00  0.00     0.000 A 
ENDROOT
TORSDOF 0
ENDMDL
