MODEL 1
REMARK minimizedAffinity -4.43254375
REMARK minimizedRMSD -1
REMARK  0 active torsions:
REMARK  status: ('A' for Active; 'I' for Inactive)
ROOT
ATOM      1  C1  BNZ d   1      -0.089  -0.407  -1.961  0.00  0.00     0.000 A 
ATOM      2  C2  BNZ d   1      -1.386  -0.665  -1.603  0.00  0.00     0.000 A 
ATOM      3  C3  BNZ d   1      -1.861  -0.292  -0.378  0.00  0.00     0.000 A 
ATOM      4  C4  BNZ d   1      -1.031   0.302   0.503  0.00  0.00     0.000 A 
ATOM      5  C5  BNZ d   1       0.282   0.561   0.162  0.00  0.00     0.000 A 
ATOM      6  C6  BNZ d   1       0.747   0.219  -1.088  0.00  0.00     0.000 A 
ENDROOT
TORSDOF 0
ENDMDL
