MODEL 1
REMARK minimizedAffinity -4.34366131
REMARK minimizedRMSD -1
REMARK  0 active torsions:
REMARK  status: ('A' for Active; 'I' for Inactive)
ROOT
ATOM      1  C1  BNZ d   1      -1.086   0.198  -1.116  0.00  0.00     0.000 A 
ATOM      2  C2  BNZ d   1      -2.400  -0.185  -1.079  0.00  0.00     0.000 A 
ATOM      3  C3  BNZ d   1      -2.888  -0.907  -0.026  0.00  0.00     0.000 A 
ATOM      4  C4  BNZ d   1      -2.055  -1.279   0.967  0.00  0.00     0.000 A 
ATOM      5  C5  BNZ d   1      -0.725  -0.908   0.939  0.00  0.00     0.000 A 
ATOM      6  C6  BNZ d   1      -0.246  -0.148  -0.103  0.00  0.00     0.000 A 
ENDROOT
TORSDOF 0
ENDMDL
