MODEL 1
REMARK minimizedAffinity 0.600776374
REMARK minimizedRMSD -1
REMARK  0 active torsions:
REMARK  status: ('A' for Active; 'I' for Inactive)
ROOT
ATOM      1  C1  BNZ d   1      -0.213   0.564  -1.441  0.00  0.00     0.000 A 
ATOM      2  C2  BNZ d   1       0.845   0.536  -0.573  0.00  0.00     0.000 A 
ATOM      3  C3  BNZ d   1       0.804  -0.232   0.557  0.00  0.00     0.000 A 
ATOM      4  C4  BNZ d   1      -0.310  -0.939   0.838  0.00  0.00     0.000 A 
ATOM      5  C5  BNZ d   1      -1.389  -0.914  -0.023  0.00  0.00     0.000 A 
ATOM      6  C6  BNZ d   1      -1.329  -0.170  -1.179  0.00  0.00     0.000 A 
ENDROOT
TORSDOF 0
ENDMDL
