MODEL 1
REMARK minimizedAffinity -5.07438898
REMARK minimizedRMSD -1
REMARK  0 active torsions:
REMARK  status: ('A' for Active; 'I' for Inactive)
ROOT
ATOM      1  C1  BNZ d   1      -2.324  -0.008  -1.380  0.00  0.00     0.000 A 
ATOM      2  C2  BNZ d   1      -1.045   0.349  -1.713  0.00  0.00     0.000 A 
ATOM      3  C3  BNZ d   1      -0.015   0.163  -0.833  0.00  0.00     0.000 A 
ATOM      4  C4  BNZ d   1      -0.273  -0.342   0.391  0.00  0.00     0.000 A 
ATOM      5  C5  BNZ d   1      -1.559  -0.697   0.745  0.00  0.00     0.000 A 
ATOM      6  C6  BNZ d   1      -2.586  -0.545  -0.158  0.00  0.00     0.000 A 
ENDROOT
TORSDOF 0
ENDMDL
