MODEL 1
REMARK minimizedAffinity -5.24881506
REMARK minimizedRMSD -1
REMARK  0 active torsions:
REMARK  status: ('A' for Active; 'I' for Inactive)
ROOT
ATOM      1  C1  BNZ d   1      -3.218  -2.032  -0.254  0.00  0.00     0.000 A 
ATOM      2  C2  BNZ d   1      -2.833  -0.826  -0.774  0.00  0.00     0.000 A 
ATOM      3  C3  BNZ d   1      -1.645  -0.254  -0.411  0.00  0.00     0.000 A 
ATOM      4  C4  BNZ d   1      -0.865  -0.869   0.501  0.00  0.00     0.000 A 
ATOM      5  C5  BNZ d   1      -1.244  -2.081   1.042  0.00  0.00     0.000 A 
ATOM      6  C6  BNZ d   1      -2.421  -2.673   0.645  0.00  0.00     0.000 A 
ENDROOT
TORSDOF 0
ENDMDL
