MODEL 1
REMARK minimizedAffinity -3.63710833
REMARK minimizedRMSD -1
REMARK  0 active torsions:
REMARK  status: ('A' for Active; 'I' for Inactive)
ROOT
ATOM      1  C1  BNZ d   1      -0.993   0.163  -1.482  0.00  0.00     0.000 A 
ATOM      2  C2  BNZ d   1      -2.299  -0.242  -1.565  0.00  0.00     0.000 A 
ATOM      3  C3  BNZ d   1      -2.950  -0.735  -0.470  0.00  0.00     0.000 A 
ATOM      4  C4  BNZ d   1      -2.284  -0.860   0.696  0.00  0.00     0.000 A 
ATOM      5  C5  BNZ d   1      -0.965  -0.465   0.794  0.00  0.00     0.000 A 
ATOM      6  C6  BNZ d   1      -0.324   0.067  -0.301  0.00  0.00     0.000 A 
ENDROOT
TORSDOF 0
ENDMDL
