MODEL 1
REMARK minimizedAffinity -3.96055841
REMARK minimizedRMSD -1
REMARK  0 active torsions:
REMARK  status: ('A' for Active; 'I' for Inactive)
ROOT
ATOM      1  C1  BNZ d   1       0.161  -0.398   0.725  0.00  0.00     0.000 A 
ATOM      2  C2  BNZ d   1      -1.141  -0.810   0.820  0.00  0.00     0.000 A 
ATOM      3  C3  BNZ d   1      -1.981  -0.730  -0.255  0.00  0.00     0.000 A 
ATOM      4  C4  BNZ d   1      -1.530  -0.201  -1.411  0.00  0.00     0.000 A 
ATOM      5  C5  BNZ d   1      -0.222   0.228  -1.520  0.00  0.00     0.000 A 
ATOM      6  C6  BNZ d   1       0.631   0.109  -0.447  0.00  0.00     0.000 A 
ENDROOT
TORSDOF 0
ENDMDL
