MODEL 1
REMARK minimizedAffinity -4.45510006
REMARK minimizedRMSD -1
REMARK  0 active torsions:
REMARK  status: ('A' for Active; 'I' for Inactive)
ROOT
ATOM      1  C1  BNZ d   1      -1.552   0.069  -0.876  0.00  0.00     0.000 A 
ATOM      2  C2  BNZ d   1      -2.644  -0.420  -1.543  0.00  0.00     0.000 A 
ATOM      3  C3  BNZ d   1      -3.325  -1.506  -1.069  0.00  0.00     0.000 A 
ATOM      4  C4  BNZ d   1      -2.891  -2.125   0.048  0.00  0.00     0.000 A 
ATOM      5  C5  BNZ d   1      -1.786  -1.649   0.726  0.00  0.00     0.000 A 
ATOM      6  C6  BNZ d   1      -1.126  -0.533   0.267  0.00  0.00     0.000 A 
ENDROOT
TORSDOF 0
ENDMDL
