MODEL 1
REMARK minimizedAffinity -4.47791719
REMARK minimizedRMSD -1
REMARK  0 active torsions:
REMARK  status: ('A' for Active; 'I' for Inactive)
ROOT
ATOM      1  C1  BNZ d   1      -0.986  -1.155   1.221  0.00  0.00     0.000 A 
ATOM      2  C2  BNZ d   1       0.315  -0.800   0.984  0.00  0.00     0.000 A 
ATOM      3  C3  BNZ d   1       0.647  -0.050  -0.110  0.00  0.00     0.000 A 
ATOM      4  C4  BNZ d   1      -0.314   0.309  -0.985  0.00  0.00     0.000 A 
ATOM      5  C5  BNZ d   1      -1.629  -0.049  -0.764  0.00  0.00     0.000 A 
ATOM      6  C6  BNZ d   1      -1.966  -0.770   0.358  0.00  0.00     0.000 A 
ENDROOT
TORSDOF 0
ENDMDL
