MODEL 1
REMARK minimizedAffinity -3.58385539
REMARK minimizedRMSD -1
REMARK  0 active torsions:
REMARK  status: ('A' for Active; 'I' for Inactive)
ROOT
ATOM      1  C1  BNZ d   1       1.629   2.460   1.544  0.00  0.00     0.000 A 
ATOM      2  C2  BNZ d   1       2.125   3.711   1.289  0.00  0.00     0.000 A 
ATOM      3  C3  BNZ d   1       2.900   3.945   0.188  0.00  0.00     0.000 A 
ATOM      4  C4  BNZ d   1       3.212   2.921  -0.634  0.00  0.00     0.000 A 
ATOM      5  C5  BNZ d   1       2.727   1.653  -0.385  0.00  0.00     0.000 A 
ATOM      6  C6  BNZ d   1       1.915   1.429   0.703  0.00  0.00     0.000 A 
ENDROOT
TORSDOF 0
ENDMDL
