MODEL 1
REMARK minimizedAffinity -4.30787802
REMARK minimizedRMSD -1
REMARK  0 active torsions:
REMARK  status: ('A' for Active; 'I' for Inactive)
ROOT
ATOM      1  C1  BNZ d   1      -2.082  -1.330   1.017  0.00  0.00     0.000 A 
ATOM      2  C2  BNZ d   1      -0.920  -0.620   0.872  0.00  0.00     0.000 A 
ATOM      3  C3  BNZ d   1      -0.639   0.032  -0.296  0.00  0.00     0.000 A 
ATOM      4  C4  BNZ d   1      -1.501  -0.059  -1.330  0.00  0.00     0.000 A 
ATOM      5  C5  BNZ d   1      -2.673  -0.778  -1.202  0.00  0.00     0.000 A 
ATOM      6  C6  BNZ d   1      -2.970  -1.401  -0.011  0.00  0.00     0.000 A 
ENDROOT
TORSDOF 0
ENDMDL
