MODEL 1
REMARK minimizedAffinity -1.94321692
REMARK minimizedRMSD -1
REMARK  1 active torsions:
REMARK  status: ('A' for Active; 'I' for Inactive)
REMARK    1  A    between atoms: C3_4  and  O_7 
ROOT
ATOM      1  C   UNL d   1      -3.206   5.135  -5.999  0.00  0.00    -0.033 A 
ATOM      2  C1  UNL d   1      -1.867   4.741  -5.998  0.00  0.00     0.039 A 
ATOM      3  C2  UNL d   1      -1.068   4.978  -4.878  0.00  0.00    -0.080 A 
ATOM      4  C3  UNL d   1      -1.620   5.608  -3.766  0.00  0.00     0.150 A 
ATOM      5  C4  UNL d   1      -2.955   6.000  -3.759  0.00  0.00    -0.007 A 
ATOM      6  C5  UNL d   1      -3.751   5.763  -4.879  0.00  0.00     0.039 A 
ENDROOT
BRANCH   4   7
ATOM      7  O   UNL d   1      -0.879   5.864  -2.651  0.00  0.00    -0.526 OA
ATOM      8  H5  UNL d   1       0.031   5.564  -2.811  0.00  0.00     0.418 HD
ENDBRANCH   4   7
TORSDOF 1
ENDMDL
