MODEL 1
REMARK minimizedAffinity 1.13114023
REMARK minimizedRMSD -1
REMARK  1 active torsions:
REMARK  status: ('A' for Active; 'I' for Inactive)
REMARK    1  A    between atoms: C3_4  and  O_7 
ROOT
ATOM      1  C   UNL d   1       2.111   2.945  -3.073  0.00  0.00    -0.033 A 
ATOM      2  C1  UNL d   1       1.953   3.984  -2.153  0.00  0.00     0.039 A 
ATOM      3  C2  UNL d   1       3.056   4.746  -1.762  0.00  0.00    -0.080 A 
ATOM      4  C3  UNL d   1       4.309   4.460  -2.298  0.00  0.00     0.150 A 
ATOM      5  C4  UNL d   1       4.472   3.429  -3.218  0.00  0.00    -0.007 A 
ATOM      6  C5  UNL d   1       3.370   2.669  -3.607  0.00  0.00     0.039 A 
ENDROOT
BRANCH   4   7
ATOM      7  O   UNL d   1       5.415   5.173  -1.943  0.00  0.00    -0.526 OA
ATOM      8  H5  UNL d   1       5.156   5.833  -1.279  0.00  0.00     0.418 HD
ENDBRANCH   4   7
TORSDOF 1
ENDMDL
