MODEL 1
REMARK minimizedAffinity 1.17806244
REMARK minimizedRMSD -1
REMARK  1 active torsions:
REMARK  status: ('A' for Active; 'I' for Inactive)
REMARK    1  A    between atoms: C3_4  and  O_7 
ROOT
ATOM      1  C   UNL d   1      -5.999   4.661  -0.760  0.00  0.00    -0.033 A 
ATOM      2  C1  UNL d   1      -5.968   5.905  -1.393  0.00  0.00     0.039 A 
ATOM      3  C2  UNL d   1      -5.588   6.000  -2.733  0.00  0.00    -0.080 A 
ATOM      4  C3  UNL d   1      -5.244   4.844  -3.429  0.00  0.00     0.150 A 
ATOM      5  C4  UNL d   1      -5.277   3.601  -2.807  0.00  0.00    -0.007 A 
ATOM      6  C5  UNL d   1      -5.655   3.508  -1.468  0.00  0.00     0.039 A 
ENDROOT
BRANCH   4   7
ATOM      7  O   UNL d   1      -4.863   4.887  -4.737  0.00  0.00    -0.526 OA
ATOM      8  H5  UNL d   1      -4.860   5.815  -5.027  0.00  0.00     0.418 HD
ENDBRANCH   4   7
TORSDOF 1
ENDMDL
