MODEL 1
REMARK minimizedAffinity -0.496031284
REMARK minimizedRMSD -1
REMARK  1 active torsions:
REMARK  status: ('A' for Active; 'I' for Inactive)
REMARK    1  A    between atoms: C3_4  and  O_7 
ROOT
ATOM      1  C   UNL d   1      -4.523  -0.916   2.374  0.00  0.00    -0.033 A 
ATOM      2  C1  UNL d   1      -3.166  -0.706   2.125  0.00  0.00     0.039 A 
ATOM      3  C2  UNL d   1      -2.392   0.020   3.033  0.00  0.00    -0.080 A 
ATOM      4  C3  UNL d   1      -2.988   0.530   4.184  0.00  0.00     0.150 A 
ATOM      5  C4  UNL d   1      -4.339   0.321   4.439  0.00  0.00    -0.007 A 
ATOM      6  C5  UNL d   1      -5.110  -0.404   3.531  0.00  0.00     0.039 A 
ENDROOT
BRANCH   4   7
ATOM      7  O   UNL d   1      -2.275   1.249   5.096  0.00  0.00    -0.526 OA
ATOM      8  H5  UNL d   1      -1.362   1.337   4.774  0.00  0.00     0.418 HD
ENDBRANCH   4   7
TORSDOF 1
ENDMDL
