MODEL 1
REMARK minimizedAffinity 14.9522886
REMARK minimizedRMSD -1
REMARK  1 active torsions:
REMARK  status: ('A' for Active; 'I' for Inactive)
REMARK    1  A    between atoms: C3_4  and  O_7 
ROOT
ATOM      1  C   UNL d   1       1.689  -4.527   0.839  0.00  0.00    -0.033 A 
ATOM      2  C1  UNL d   1       2.278  -3.330   1.251  0.00  0.00     0.039 A 
ATOM      3  C2  UNL d   1       3.502  -2.930   0.711  0.00  0.00    -0.080 A 
ATOM      4  C3  UNL d   1       4.125  -3.735  -0.239  0.00  0.00     0.150 A 
ATOM      5  C4  UNL d   1       3.542  -4.927  -0.657  0.00  0.00    -0.007 A 
ATOM      6  C5  UNL d   1       2.320  -5.325  -0.115  0.00  0.00     0.039 A 
ENDROOT
BRANCH   4   7
ATOM      7  O   UNL d   1       5.322  -3.389  -0.791  0.00  0.00    -0.526 OA
ATOM      8  H5  UNL d   1       5.619  -2.557  -0.387  0.00  0.00     0.418 HD
ENDBRANCH   4   7
TORSDOF 1
ENDMDL
