MODEL 1
REMARK minimizedAffinity 8.38148975
REMARK minimizedRMSD -1
REMARK  1 active torsions:
REMARK  status: ('A' for Active; 'I' for Inactive)
REMARK    1  A    between atoms: C3_4  and  O_7 
ROOT
ATOM      1  C   UNL d   1      -0.199  -4.507  -3.084  0.00  0.00    -0.033 A 
ATOM      2  C1  UNL d   1       0.046  -5.405  -4.125  0.00  0.00     0.039 A 
ATOM      3  C2  UNL d   1      -1.016  -5.917  -4.872  0.00  0.00    -0.080 A 
ATOM      4  C3  UNL d   1      -2.316  -5.523  -4.570  0.00  0.00     0.150 A 
ATOM      5  C4  UNL d   1      -2.568  -4.626  -3.537  0.00  0.00    -0.007 A 
ATOM      6  C5  UNL d   1      -1.506  -4.117  -2.791  0.00  0.00     0.039 A 
ENDROOT
BRANCH   4   7
ATOM      7  O   UNL d   1      -3.386  -6.000  -5.268  0.00  0.00    -0.526 OA
ATOM      8  H5  UNL d   1      -3.063  -6.632  -5.932  0.00  0.00     0.418 HD
ENDBRANCH   4   7
TORSDOF 1
ENDMDL
