MODEL 1
REMARK minimizedAffinity 14.8943644
REMARK minimizedRMSD -1
REMARK  1 active torsions:
REMARK  status: ('A' for Active; 'I' for Inactive)
REMARK    1  A    between atoms: C3_4  and  O_7 
ROOT
ATOM      1  C   UNL d   1      -1.935  -4.181  -2.441  0.00  0.00    -0.033 A 
ATOM      2  C1  UNL d   1      -0.775  -3.762  -3.096  0.00  0.00     0.039 A 
ATOM      3  C2  UNL d   1      -0.393  -4.363  -4.297  0.00  0.00    -0.080 A 
ATOM      4  C3  UNL d   1      -1.179  -5.380  -4.833  0.00  0.00     0.150 A 
ATOM      5  C4  UNL d   1      -2.338  -5.800  -4.188  0.00  0.00    -0.007 A 
ATOM      6  C5  UNL d   1      -2.717  -5.199  -2.988  0.00  0.00     0.039 A 
ENDROOT
BRANCH   4   7
ATOM      7  O   UNL d   1      -0.844  -5.999  -6.000  0.00  0.00    -0.526 OA
ATOM      8  H5  UNL d   1      -0.005  -5.625  -6.317  0.00  0.00     0.418 HD
ENDBRANCH   4   7
TORSDOF 1
ENDMDL
