MODEL 1
REMARK minimizedAffinity 10.6339617
REMARK minimizedRMSD -1
REMARK  1 active torsions:
REMARK  status: ('A' for Active; 'I' for Inactive)
REMARK    1  A    between atoms: C3_4  and  O_7 
ROOT
ATOM      1  C   UNL d   1      -5.266   1.400   0.476  0.00  0.00    -0.033 A 
ATOM      2  C1  UNL d   1      -4.923   0.090   0.137  0.00  0.00     0.039 A 
ATOM      3  C2  UNL d   1      -5.118  -0.370  -1.167  0.00  0.00    -0.080 A 
ATOM      4  C3  UNL d   1      -5.656   0.490  -2.121  0.00  0.00     0.150 A 
ATOM      5  C4  UNL d   1      -5.996   1.797  -1.791  0.00  0.00    -0.007 A 
ATOM      6  C5  UNL d   1      -5.801   2.254  -0.488  0.00  0.00     0.039 A 
ENDROOT
BRANCH   4   7
ATOM      7  O   UNL d   1      -5.869   0.085  -3.405  0.00  0.00    -0.526 OA
ATOM      8  H5  UNL d   1      -5.614  -0.850  -3.479  0.00  0.00     0.418 HD
ENDBRANCH   4   7
TORSDOF 1
ENDMDL
