MODEL 1
REMARK minimizedAffinity 12.2413445
REMARK minimizedRMSD -1
REMARK  1 active torsions:
REMARK  status: ('A' for Active; 'I' for Inactive)
REMARK    1  A    between atoms: C3_4  and  O_7 
ROOT
ATOM      1  C   UNL d   1       2.328   0.706   0.720  0.00  0.00    -0.033 A 
ATOM      2  C1  UNL d   1       2.997   0.227  -0.408  0.00  0.00     0.039 A 
ATOM      3  C2  UNL d   1       4.236   0.761  -0.767  0.00  0.00    -0.080 A 
ATOM      4  C3  UNL d   1       4.795   1.772   0.010  0.00  0.00     0.150 A 
ATOM      5  C4  UNL d   1       4.136   2.252   1.137  0.00  0.00    -0.007 A 
ATOM      6  C5  UNL d   1       2.898   1.718   1.493  0.00  0.00     0.039 A 
ENDROOT
BRANCH   4   7
ATOM      7  O   UNL d   1       6.000   2.328  -0.303  0.00  0.00    -0.526 OA
ATOM      8  H5  UNL d   1       6.324   1.918  -1.122  0.00  0.00     0.418 HD
ENDBRANCH   4   7
TORSDOF 1
ENDMDL
