MODEL 1
REMARK minimizedAffinity 10.5524874
REMARK minimizedRMSD -1
REMARK  1 active torsions:
REMARK  status: ('A' for Active; 'I' for Inactive)
REMARK    1  A    between atoms: C3_4  and  O_7 
ROOT
ATOM      1  C   UNL d   1       5.977   4.415  -3.618  0.00  0.00    -0.033 A 
ATOM      2  C1  UNL d   1       5.250   4.743  -2.472  0.00  0.00     0.039 A 
ATOM      3  C2  UNL d   1       3.943   4.279  -2.315  0.00  0.00    -0.080 A 
ATOM      4  C3  UNL d   1       3.375   3.488  -3.310  0.00  0.00     0.150 A 
ATOM      5  C4  UNL d   1       4.095   3.153  -4.452  0.00  0.00    -0.007 A 
ATOM      6  C5  UNL d   1       5.400   3.619  -4.607  0.00  0.00     0.039 A 
ENDROOT
BRANCH   4   7
ATOM      7  O   UNL d   1       2.101   3.016  -3.204  0.00  0.00    -0.526 OA
ATOM      8  H5  UNL d   1       1.716   3.350  -2.377  0.00  0.00     0.418 HD
ENDBRANCH   4   7
TORSDOF 1
ENDMDL
