MODEL 1
REMARK minimizedAffinity 7.3927412
REMARK minimizedRMSD -1
REMARK  1 active torsions:
REMARK  status: ('A' for Active; 'I' for Inactive)
REMARK    1  A    between atoms: C3_4  and  O_7 
ROOT
ATOM      1  C   UNL d   1      -1.933  -0.673   1.544  0.00  0.00    -0.033 A 
ATOM      2  C1  UNL d   1      -2.576   0.484   1.991  0.00  0.00     0.039 A 
ATOM      3  C2  UNL d   1      -2.333   0.967   3.278  0.00  0.00    -0.080 A 
ATOM      4  C3  UNL d   1      -1.446   0.286   4.107  0.00  0.00     0.150 A 
ATOM      5  C4  UNL d   1      -0.800  -0.865   3.668  0.00  0.00    -0.007 A 
ATOM      6  C5  UNL d   1      -1.044  -1.346   2.382  0.00  0.00     0.039 A 
ENDROOT
BRANCH   4   7
ATOM      7  O   UNL d   1      -1.181   0.716   5.374  0.00  0.00    -0.526 OA
ATOM      8  H5  UNL d   1      -1.721   1.505   5.550  0.00  0.00     0.418 HD
ENDBRANCH   4   7
TORSDOF 1
ENDMDL
