MODEL 1
REMARK minimizedAffinity 8.10770988
REMARK minimizedRMSD -1
REMARK  1 active torsions:
REMARK  status: ('A' for Active; 'I' for Inactive)
REMARK    1  A    between atoms: C3_4  and  O_7 
ROOT
ATOM      1  C   UNL d   1       4.061   2.975  -1.856  0.00  0.00    -0.033 A 
ATOM      2  C1  UNL d   1       5.023   3.661  -2.599  0.00  0.00     0.039 A 
ATOM      3  C2  UNL d   1       4.934   3.701  -3.992  0.00  0.00    -0.080 A 
ATOM      4  C3  UNL d   1       3.879   3.053  -4.628  0.00  0.00     0.150 A 
ATOM      5  C4  UNL d   1       2.914   2.371  -3.893  0.00  0.00    -0.007 A 
ATOM      6  C5  UNL d   1       3.006   2.331  -2.503  0.00  0.00     0.039 A 
ENDROOT
BRANCH   4   7
ATOM      7  O   UNL d   1       3.752   3.060  -5.985  0.00  0.00    -0.526 OA
ATOM      8  H5  UNL d   1       4.505   3.545  -6.362  0.00  0.00     0.418 HD
ENDBRANCH   4   7
TORSDOF 1
ENDMDL
