MODEL 1
REMARK minimizedAffinity 9.61564922
REMARK minimizedRMSD -1
REMARK  1 active torsions:
REMARK  status: ('A' for Active; 'I' for Inactive)
REMARK    1  A    between atoms: C3_4  and  O_7 
ROOT
ATOM      1  C   UNL d   1      -5.970  -4.736   5.577  0.00  0.00    -0.033 A 
ATOM      2  C1  UNL d   1      -5.938  -3.545   4.850  0.00  0.00     0.039 A 
ATOM      3  C2  UNL d   1      -5.886  -3.579   3.455  0.00  0.00    -0.080 A 
ATOM      4  C3  UNL d   1      -5.867  -4.807   2.801  0.00  0.00     0.150 A 
ATOM      5  C4  UNL d   1      -5.902  -5.998   3.520  0.00  0.00    -0.007 A 
ATOM      6  C5  UNL d   1      -5.954  -5.963   4.912  0.00  0.00     0.039 A 
ENDROOT
BRANCH   4   7
ATOM      7  O   UNL d   1      -5.811  -4.890   1.441  0.00  0.00    -0.526 OA
ATOM      8  H5  UNL d   1      -5.762  -3.990   1.080  0.00  0.00     0.418 HD
ENDBRANCH   4   7
TORSDOF 1
ENDMDL
