MODEL 1
REMARK minimizedAffinity 9.3065176
REMARK minimizedRMSD -1
REMARK  1 active torsions:
REMARK  status: ('A' for Active; 'I' for Inactive)
REMARK    1  A    between atoms: C3_4  and  O_7 
ROOT
ATOM      1  C   UNL d   1      -0.053  -1.754   2.042  0.00  0.00    -0.033 A 
ATOM      2  C1  UNL d   1       0.316  -1.513   3.367  0.00  0.00     0.039 A 
ATOM      3  C2  UNL d   1      -0.424  -0.625   4.149  0.00  0.00    -0.080 A 
ATOM      4  C3  UNL d   1      -1.530   0.016   3.596  0.00  0.00     0.150 A 
ATOM      5  C4  UNL d   1      -1.905  -0.222   2.277  0.00  0.00    -0.007 A 
ATOM      6  C5  UNL d   1      -1.164  -1.109   1.498  0.00  0.00     0.039 A 
ENDROOT
BRANCH   4   7
ATOM      7  O   UNL d   1      -2.280   0.895   4.318  0.00  0.00    -0.526 OA
ATOM      8  H5  UNL d   1      -1.886   0.982   5.202  0.00  0.00     0.418 HD
ENDBRANCH   4   7
TORSDOF 1
ENDMDL
