MODEL 1
REMARK minimizedAffinity 5.33849335
REMARK minimizedRMSD -1
REMARK  1 active torsions:
REMARK  status: ('A' for Active; 'I' for Inactive)
REMARK    1  A    between atoms: C3_4  and  O_7 
ROOT
ATOM      1  C   UNL d   1      -1.210  -2.044   0.998  0.00  0.00    -0.033 A 
ATOM      2  C1  UNL d   1      -2.581  -1.943   1.242  0.00  0.00     0.039 A 
ATOM      3  C2  UNL d   1      -3.111  -0.770   1.784  0.00  0.00    -0.080 A 
ATOM      4  C3  UNL d   1      -2.260   0.293   2.076  0.00  0.00     0.150 A 
ATOM      5  C4  UNL d   1      -0.894   0.200   1.832  0.00  0.00    -0.007 A 
ATOM      6  C5  UNL d   1      -0.367  -0.972   1.292  0.00  0.00     0.039 A 
ENDROOT
BRANCH   4   7
ATOM      7  O   UNL d   1      -2.730   1.455   2.611  0.00  0.00    -0.526 OA
ATOM      8  H5  UNL d   1      -3.687   1.364   2.752  0.00  0.00     0.418 HD
ENDBRANCH   4   7
TORSDOF 1
ENDMDL
