MODEL 1
REMARK minimizedAffinity 8.08546734
REMARK minimizedRMSD -1
REMARK  1 active torsions:
REMARK  status: ('A' for Active; 'I' for Inactive)
REMARK    1  A    between atoms: C3_4  and  O_7 
ROOT
ATOM      1  C   UNL d   1       1.249   4.169  -3.238  0.00  0.00    -0.033 A 
ATOM      2  C1  UNL d   1       2.141   3.188  -3.676  0.00  0.00     0.039 A 
ATOM      3  C2  UNL d   1       3.512   3.341  -3.459  0.00  0.00    -0.080 A 
ATOM      4  C3  UNL d   1       3.977   4.477  -2.802  0.00  0.00     0.150 A 
ATOM      5  C4  UNL d   1       3.093   5.457  -2.360  0.00  0.00    -0.007 A 
ATOM      6  C5  UNL d   1       1.725   5.303  -2.579  0.00  0.00     0.039 A 
ENDROOT
BRANCH   4   7
ATOM      7  O   UNL d   1       5.306   4.673  -2.571  0.00  0.00    -0.526 OA
ATOM      8  H5  UNL d   1       5.798   3.929  -2.957  0.00  0.00     0.418 HD
ENDBRANCH   4   7
TORSDOF 1
ENDMDL
