MODEL 1
REMARK minimizedAffinity 6.1250267
REMARK minimizedRMSD -1
REMARK  1 active torsions:
REMARK  status: ('A' for Active; 'I' for Inactive)
REMARK    1  A    between atoms: C3_4  and  O_7 
ROOT
ATOM      1  C   UNL d   1       5.930   5.994  -3.560  0.00  0.00    -0.033 A 
ATOM      2  C1  UNL d   1       4.938   5.939  -2.580  0.00  0.00     0.039 A 
ATOM      3  C2  UNL d   1       4.005   4.900  -2.585  0.00  0.00    -0.080 A 
ATOM      4  C3  UNL d   1       4.076   3.923  -3.575  0.00  0.00     0.150 A 
ATOM      5  C4  UNL d   1       5.065   3.969  -4.552  0.00  0.00    -0.007 A 
ATOM      6  C5  UNL d   1       5.995   5.008  -4.545  0.00  0.00     0.039 A 
ENDROOT
BRANCH   4   7
ATOM      7  O   UNL d   1       3.185   2.893  -3.624  0.00  0.00    -0.526 OA
ATOM      8  H5  UNL d   1       2.543   3.007  -2.904  0.00  0.00     0.418 HD
ENDBRANCH   4   7
TORSDOF 1
ENDMDL
