MODEL 1
REMARK minimizedAffinity -2.81743264
REMARK minimizedRMSD -1
REMARK  0 active torsions:
REMARK  status: ('A' for Active; 'I' for Inactive)
ROOT
ATOM      1  C   UNL d   1      -3.076  -0.226   2.416  0.00  0.00     0.077 C 
ATOM      2  C1  UNL d   1      -1.815  -0.621   1.707  0.00  0.00    -0.074 A 
ATOM      3  C2  UNL d   1      -1.348  -1.939   1.752  0.00  0.00    -0.005 A 
ATOM      4  C3  UNL d   1      -0.178  -2.294   1.079  0.00  0.00     0.006 A 
ATOM      5  C4  UNL d   1       0.535  -1.337   0.357  0.00  0.00    -0.005 A 
ATOM      6  C5  UNL d   1       0.083  -0.014   0.300  0.00  0.00    -0.074 A 
ATOM      7  C6  UNL d   1       0.832   1.025  -0.480  0.00  0.00     0.077 C 
ATOM      8  C7  UNL d   1      -1.097   0.333   0.973  0.00  0.00    -0.001 A 
ENDROOT
TORSDOF 0
ENDMDL
