MODEL 1
REMARK minimizedAffinity -5.51730824
REMARK minimizedRMSD -1
REMARK  0 active torsions:
REMARK  status: ('A' for Active; 'I' for Inactive)
ROOT
ATOM      1  C   UNL d   1       1.361  -0.765   0.295  0.00  0.00     0.077 C 
ATOM      2  C1  UNL d   1      -0.008  -1.278   0.632  0.00  0.00    -0.074 A 
ATOM      3  C2  UNL d   1      -0.238  -2.645   0.816  0.00  0.00    -0.005 A 
ATOM      4  C3  UNL d   1      -1.514  -3.106   1.139  0.00  0.00     0.006 A 
ATOM      5  C4  UNL d   1      -2.571  -2.206   1.280  0.00  0.00    -0.005 A 
ATOM      6  C5  UNL d   1      -2.360  -0.836   1.101  0.00  0.00    -0.074 A 
ATOM      7  C6  UNL d   1      -3.483   0.146   1.259  0.00  0.00     0.077 C 
ATOM      8  C7  UNL d   1      -1.073  -0.380   0.784  0.00  0.00    -0.001 A 
ENDROOT
TORSDOF 0
ENDMDL
