MODEL 1
REMARK minimizedAffinity -4.15543747
REMARK minimizedRMSD -1
REMARK  0 active torsions:
REMARK  status: ('A' for Active; 'I' for Inactive)
ROOT
ATOM      1  C   UNL d   1       2.786  -1.500   0.288  0.00  0.00     0.077 C 
ATOM      2  C1  UNL d   1       1.341  -1.099   0.284  0.00  0.00    -0.074 A 
ATOM      3  C2  UNL d   1       0.959   0.211  -0.020  0.00  0.00    -0.005 A 
ATOM      4  C3  UNL d   1      -0.390   0.567  -0.028  0.00  0.00     0.006 A 
ATOM      5  C4  UNL d   1      -1.369  -0.383   0.267  0.00  0.00    -0.005 A 
ATOM      6  C5  UNL d   1      -1.006  -1.699   0.572  0.00  0.00    -0.074 A 
ATOM      7  C6  UNL d   1      -2.046  -2.734   0.882  0.00  0.00     0.077 C 
ATOM      8  C7  UNL d   1       0.351  -2.050   0.572  0.00  0.00    -0.001 A 
ENDROOT
TORSDOF 0
ENDMDL
