MODEL 1
REMARK minimizedAffinity -1.1783514
REMARK minimizedRMSD -1
REMARK  0 active torsions:
REMARK  status: ('A' for Active; 'I' for Inactive)
ROOT
ATOM      1  C   UNL d   1      -2.617  -2.924   1.489  0.00  0.00     0.077 C 
ATOM      2  C1  UNL d   1      -1.317  -2.261   1.144  0.00  0.00    -0.074 A 
ATOM      3  C2  UNL d   1      -0.129  -2.997   1.079  0.00  0.00    -0.005 A 
ATOM      4  C3  UNL d   1       1.071  -2.367   0.748  0.00  0.00     0.006 A 
ATOM      5  C4  UNL d   1       1.095  -0.998   0.479  0.00  0.00    -0.005 A 
ATOM      6  C5  UNL d   1      -0.082  -0.247   0.538  0.00  0.00    -0.074 A 
ATOM      7  C6  UNL d   1      -0.075   1.224   0.242  0.00  0.00     0.077 C 
ATOM      8  C7  UNL d   1      -1.285  -0.887   0.864  0.00  0.00    -0.001 A 
ENDROOT
TORSDOF 0
ENDMDL
