MODEL 1
REMARK minimizedAffinity -3.44875741
REMARK minimizedRMSD -1
REMARK  0 active torsions:
REMARK  status: ('A' for Active; 'I' for Inactive)
ROOT
ATOM      1  C   UNL d   1      -1.888  -2.341   0.695  0.00  0.00     0.077 C 
ATOM      2  C1  UNL d   1      -1.539  -0.883   0.645  0.00  0.00    -0.074 A 
ATOM      3  C2  UNL d   1      -2.368   0.075   1.237  0.00  0.00    -0.005 A 
ATOM      4  C3  UNL d   1      -2.025   1.427   1.190  0.00  0.00     0.006 A 
ATOM      5  C4  UNL d   1      -0.852   1.833   0.553  0.00  0.00    -0.005 A 
ATOM      6  C5  UNL d   1      -0.010   0.889  -0.043  0.00  0.00    -0.074 A 
ATOM      7  C6  UNL d   1       1.259   1.307  -0.723  0.00  0.00     0.077 C 
ATOM      8  C7  UNL d   1      -0.358  -0.468   0.014  0.00  0.00    -0.001 A 
ENDROOT
TORSDOF 0
ENDMDL
