MODEL 1
REMARK minimizedAffinity -2.57906127
REMARK minimizedRMSD -1
REMARK  0 active torsions:
REMARK  status: ('A' for Active; 'I' for Inactive)
ROOT
ATOM      1  C   UNL d   1      -3.043   1.003   1.340  0.00  0.00     0.077 C 
ATOM      2  C1  UNL d   1      -2.210  -0.244   1.358  0.00  0.00    -0.074 A 
ATOM      3  C2  UNL d   1      -2.682  -1.415   1.960  0.00  0.00    -0.005 A 
ATOM      4  C3  UNL d   1      -1.900  -2.570   1.960  0.00  0.00     0.006 A 
ATOM      5  C4  UNL d   1      -0.640  -2.565   1.360  0.00  0.00    -0.005 A 
ATOM      6  C5  UNL d   1      -0.152  -1.404   0.753  0.00  0.00    -0.074 A 
ATOM      7  C6  UNL d   1       1.196  -1.385   0.094  0.00  0.00     0.077 C 
ATOM      8  C7  UNL d   1      -0.947  -0.249   0.750  0.00  0.00    -0.001 A 
ENDROOT
TORSDOF 0
ENDMDL
