MODEL 1
REMARK minimizedAffinity -5.63293743
REMARK minimizedRMSD -1
REMARK  0 active torsions:
REMARK  status: ('A' for Active; 'I' for Inactive)
ROOT
ATOM      1  C   UNL d   1      -1.900  -2.491   1.168  0.00  0.00     0.077 C 
ATOM      2  C1  UNL d   1      -0.584  -1.896   0.760  0.00  0.00    -0.074 A 
ATOM      3  C2  UNL d   1       0.591  -2.652   0.807  0.00  0.00    -0.005 A 
ATOM      4  C3  UNL d   1       1.806  -2.089   0.415  0.00  0.00     0.006 A 
ATOM      5  C4  UNL d   1       1.857  -0.767  -0.027  0.00  0.00    -0.005 A 
ATOM      6  C5  UNL d   1       0.691   0.004  -0.081  0.00  0.00    -0.074 A 
ATOM      7  C6  UNL d   1       0.727   1.424  -0.563  0.00  0.00     0.077 C 
ATOM      8  C7  UNL d   1      -0.526  -0.571   0.307  0.00  0.00    -0.001 A 
ENDROOT
TORSDOF 0
ENDMDL
