MODEL 1
REMARK minimizedAffinity -4.52956152
REMARK minimizedRMSD -1
REMARK  0 active torsions:
REMARK  status: ('A' for Active; 'I' for Inactive)
ROOT
ATOM      1  C   UNL d   1      -1.253   1.954   0.694  0.00  0.00     0.077 C 
ATOM      2  C1  UNL d   1      -0.610   0.602   0.613  0.00  0.00    -0.074 A 
ATOM      3  C2  UNL d   1       0.782   0.467   0.588  0.00  0.00    -0.005 A 
ATOM      4  C3  UNL d   1       1.365  -0.798   0.522  0.00  0.00     0.006 A 
ATOM      5  C4  UNL d   1       0.564  -1.940   0.482  0.00  0.00    -0.005 A 
ATOM      6  C5  UNL d   1      -0.829  -1.825   0.507  0.00  0.00    -0.074 A 
ATOM      7  C6  UNL d   1      -1.705  -3.043   0.474  0.00  0.00     0.077 C 
ATOM      8  C7  UNL d   1      -1.408  -0.551   0.580  0.00  0.00    -0.001 A 
ENDROOT
TORSDOF 0
ENDMDL
