MODEL 1
REMARK minimizedAffinity -2.54974294
REMARK minimizedRMSD -1
REMARK  0 active torsions:
REMARK  status: ('A' for Active; 'I' for Inactive)
ROOT
ATOM      1  C   UNL d   1      -2.611  -2.749   0.470  0.00  0.00     0.077 C 
ATOM      2  C1  UNL d   1      -1.353  -1.933   0.436  0.00  0.00    -0.074 A 
ATOM      3  C2  UNL d   1      -0.107  -2.523   0.669  0.00  0.00    -0.005 A 
ATOM      4  C3  UNL d   1       1.056  -1.753   0.624  0.00  0.00     0.006 A 
ATOM      5  C4  UNL d   1       0.984  -0.388   0.347  0.00  0.00    -0.005 A 
ATOM      6  C5  UNL d   1      -0.254   0.220   0.110  0.00  0.00    -0.074 A 
ATOM      7  C6  UNL d   1      -0.348   1.684  -0.199  0.00  0.00     0.077 C 
ATOM      8  C7  UNL d   1      -1.416  -0.562   0.150  0.00  0.00    -0.001 A 
ENDROOT
TORSDOF 0
ENDMDL
