MODEL 1
REMARK minimizedAffinity -5.27825308
REMARK minimizedRMSD -1
REMARK  0 active torsions:
REMARK  status: ('A' for Active; 'I' for Inactive)
ROOT
ATOM      1  C   UNL d   1       0.783  -0.743  -0.057  0.00  0.00     0.077 C 
ATOM      2  C1  UNL d   1      -0.500  -1.076   0.645  0.00  0.00    -0.074 A 
ATOM      3  C2  UNL d   1      -0.793  -2.390   1.023  0.00  0.00    -0.005 A 
ATOM      4  C3  UNL d   1      -1.987  -2.683   1.683  0.00  0.00     0.006 A 
ATOM      5  C4  UNL d   1      -2.898  -1.666   1.971  0.00  0.00    -0.005 A 
ATOM      6  C5  UNL d   1      -2.622  -0.345   1.601  0.00  0.00    -0.074 A 
ATOM      7  C6  UNL d   1      -3.586   0.761   1.911  0.00  0.00     0.077 C 
ATOM      8  C7  UNL d   1      -1.417  -0.059   0.944  0.00  0.00    -0.001 A 
ENDROOT
TORSDOF 0
ENDMDL
