MODEL 1
REMARK minimizedAffinity -2.88693333
REMARK minimizedRMSD -1
REMARK  0 active torsions:
REMARK  status: ('A' for Active; 'I' for Inactive)
ROOT
ATOM      1  C   UNL d   1      -1.472  -2.867   1.058  0.00  0.00     0.077 C 
ATOM      2  C1  UNL d   1      -0.461  -1.825   0.683  0.00  0.00    -0.074 A 
ATOM      3  C2  UNL d   1       0.908  -2.109   0.708  0.00  0.00    -0.005 A 
ATOM      4  C3  UNL d   1       1.836  -1.132   0.347  0.00  0.00     0.006 A 
ATOM      5  C4  UNL d   1       1.405   0.137  -0.042  0.00  0.00    -0.005 A 
ATOM      6  C5  UNL d   1       0.040   0.439  -0.074  0.00  0.00    -0.074 A 
ATOM      7  C6  UNL d   1      -0.441   1.795  -0.499  0.00  0.00     0.077 C 
ATOM      8  C7  UNL d   1      -0.887  -0.550   0.283  0.00  0.00    -0.001 A 
ENDROOT
TORSDOF 0
ENDMDL
