MODEL 1
REMARK minimizedAffinity -4.2299571
REMARK minimizedRMSD -1
REMARK  0 active torsions:
REMARK  status: ('A' for Active; 'I' for Inactive)
ROOT
ATOM      1  C   UNL d   1      -3.498  -0.042   1.581  0.00  0.00     0.077 C 
ATOM      2  C1  UNL d   1      -2.282  -0.850   1.235  0.00  0.00    -0.074 A 
ATOM      3  C2  UNL d   1      -2.243  -2.228   1.474  0.00  0.00    -0.005 A 
ATOM      4  C3  UNL d   1      -1.110  -2.968   1.137  0.00  0.00     0.006 A 
ATOM      5  C4  UNL d   1      -0.006  -2.339   0.560  0.00  0.00    -0.005 A 
ATOM      6  C5  UNL d   1      -0.027  -0.962   0.314  0.00  0.00    -0.074 A 
ATOM      7  C6  UNL d   1       1.147  -0.273  -0.315  0.00  0.00     0.077 C 
ATOM      8  C7  UNL d   1      -1.172  -0.227   0.648  0.00  0.00    -0.001 A 
ENDROOT
TORSDOF 0
ENDMDL
