MODEL 1
REMARK minimizedAffinity -6.12140179
REMARK minimizedRMSD -1
REMARK  0 active torsions:
REMARK  status: ('A' for Active; 'I' for Inactive)
ROOT
ATOM      1  C   UNL d   1      -2.207  -2.783   0.956  0.00  0.00     0.077 C 
ATOM      2  C1  UNL d   1      -0.959  -1.982   0.731  0.00  0.00    -0.074 A 
ATOM      3  C2  UNL d   1       0.297  -2.598   0.716  0.00  0.00    -0.005 A 
ATOM      4  C3  UNL d   1       1.448  -1.842   0.497  0.00  0.00     0.006 A 
ATOM      5  C4  UNL d   1       1.356  -0.465   0.289  0.00  0.00    -0.005 A 
ATOM      6  C5  UNL d   1       0.109   0.168   0.299  0.00  0.00    -0.074 A 
ATOM      7  C6  UNL d   1      -0.009   1.645   0.067  0.00  0.00     0.077 C 
ATOM      8  C7  UNL d   1      -1.044  -0.600   0.513  0.00  0.00    -0.001 A 
ENDROOT
TORSDOF 0
ENDMDL
