MODEL 1
REMARK minimizedAffinity -5.0852747
REMARK minimizedRMSD -1
REMARK  0 active torsions:
REMARK  status: ('A' for Active; 'I' for Inactive)
ROOT
ATOM      1  C   UNL d   1       2.682  -1.507   0.668  0.00  0.00     0.077 C 
ATOM      2  C1  UNL d   1       1.218  -1.238   0.480  0.00  0.00    -0.074 A 
ATOM      3  C2  UNL d   1       0.776  -0.046  -0.103  0.00  0.00    -0.005 A 
ATOM      4  C3  UNL d   1      -0.588   0.186  -0.280  0.00  0.00     0.006 A 
ATOM      5  C4  UNL d   1      -1.522  -0.770   0.123  0.00  0.00    -0.005 A 
ATOM      6  C5  UNL d   1      -1.098  -1.968   0.707  0.00  0.00    -0.074 A 
ATOM      7  C6  UNL d   1      -2.087  -3.010   1.137  0.00  0.00     0.077 C 
ATOM      8  C7  UNL d   1       0.275  -2.197   0.875  0.00  0.00    -0.001 A 
ENDROOT
TORSDOF 0
ENDMDL
