MODEL 1
REMARK minimizedAffinity -2.11961961
REMARK minimizedRMSD -1
REMARK  0 active torsions:
REMARK  status: ('A' for Active; 'I' for Inactive)
ROOT
ATOM      1  C   UNL d   1      -1.127  -0.309   0.556  0.00  0.00     0.124 A 
ATOM      2  C1  UNL d   1      -0.103   0.194  -0.236  0.00  0.00     0.062 A 
ATOM      3  C2  UNL d   1       0.730  -0.674  -0.936  0.00  0.00     0.162 A 
ATOM      4  C3  UNL d   1       0.543  -2.053  -0.849  0.00  0.00    -0.034 A 
ATOM      5  C4  UNL d   1      -0.488  -2.551  -0.050  0.00  0.00     0.162 A 
ATOM      6  C5  UNL d   1      -1.318  -1.680   0.648  0.00  0.00     0.062 A 
ATOM      7  F   UNL d   1      -2.307  -2.167   1.412  0.00  0.00    -0.097 F 
ATOM      8  F1  UNL d   1      -0.696  -3.872   0.057  0.00  0.00    -0.096 F 
ATOM      9  I   UNL d   1       1.787  -3.354  -1.894  0.00  0.00    -0.060 I 
ATOM     10  F2  UNL d   1       1.711  -0.161  -1.694  0.00  0.00    -0.096 F 
ATOM     11  F3  UNL d   1       0.084   1.518  -0.326  0.00  0.00    -0.097 F 
ATOM     12  F4  UNL d   1      -1.927   0.528   1.229  0.00  0.00    -0.092 F 
ENDROOT
TORSDOF 0
ENDMDL
