MODEL 1
REMARK minimizedAffinity -1.72694147
REMARK minimizedRMSD -1
REMARK  0 active torsions:
REMARK  status: ('A' for Active; 'I' for Inactive)
ROOT
ATOM      1  C   UNL d   1       1.178   0.082  -1.120  0.00  0.00     0.124 A 
ATOM      2  C1  UNL d   1       0.837   1.406  -1.360  0.00  0.00     0.062 A 
ATOM      3  C2  UNL d   1      -0.098   2.045  -0.551  0.00  0.00     0.162 A 
ATOM      4  C3  UNL d   1      -0.697   1.363   0.508  0.00  0.00    -0.034 A 
ATOM      5  C4  UNL d   1      -0.349   0.031   0.743  0.00  0.00     0.162 A 
ATOM      6  C5  UNL d   1       0.585  -0.604  -0.069  0.00  0.00     0.062 A 
ATOM      7  F   UNL d   1       0.914  -1.883   0.165  0.00  0.00    -0.097 F 
ATOM      8  F1  UNL d   1      -0.906  -0.655   1.752  0.00  0.00    -0.096 F 
ATOM      9  I   UNL d   1      -2.094   2.316   1.720  0.00  0.00    -0.060 I 
ATOM     10  F2  UNL d   1      -0.409   3.325  -0.806  0.00  0.00    -0.096 F 
ATOM     11  F3  UNL d   1       1.407   2.070  -2.375  0.00  0.00    -0.097 F 
ATOM     12  F4  UNL d   1       2.076  -0.532  -1.900  0.00  0.00    -0.092 F 
ENDROOT
TORSDOF 0
ENDMDL
