MODEL 1
REMARK minimizedAffinity -0.0480526276
REMARK minimizedRMSD -1
REMARK  0 active torsions:
REMARK  status: ('A' for Active; 'I' for Inactive)
ROOT
ATOM      1  C   UNL d   1      -0.540   2.706  -0.802  0.00  0.00     0.124 A 
ATOM      2  C1  UNL d   1       0.461   1.760  -0.974  0.00  0.00     0.062 A 
ATOM      3  C2  UNL d   1       0.537   0.658  -0.127  0.00  0.00     0.162 A 
ATOM      4  C3  UNL d   1      -0.393   0.495   0.900  0.00  0.00    -0.034 A 
ATOM      5  C4  UNL d   1      -1.396   1.451   1.068  0.00  0.00     0.162 A 
ATOM      6  C5  UNL d   1      -1.468   2.550   0.219  0.00  0.00     0.062 A 
ATOM      7  F   UNL d   1      -2.436   3.463   0.387  0.00  0.00    -0.097 F 
ATOM      8  F1  UNL d   1      -2.306   1.325   2.046  0.00  0.00    -0.096 F 
ATOM      9  I   UNL d   1      -0.283  -1.151   2.169  0.00  0.00    -0.060 I 
ATOM     10  F2  UNL d   1       1.515  -0.240  -0.317  0.00  0.00    -0.096 F 
ATOM     11  F3  UNL d   1       1.359   1.908  -1.959  0.00  0.00    -0.097 F 
ATOM     12  F4  UNL d   1      -0.610   3.765  -1.618  0.00  0.00    -0.092 F 
ENDROOT
TORSDOF 0
ENDMDL
