MODEL 1
REMARK minimizedAffinity 1.43709016
REMARK minimizedRMSD -1
REMARK  0 active torsions:
REMARK  status: ('A' for Active; 'I' for Inactive)
ROOT
ATOM      1  C   UNL d   1      -1.257   1.800   0.851  0.00  0.00     0.124 A 
ATOM      2  C1  UNL d   1      -0.586   1.844  -0.364  0.00  0.00     0.062 A 
ATOM      3  C2  UNL d   1       0.113   0.729  -0.817  0.00  0.00     0.162 A 
ATOM      4  C3  UNL d   1       0.144  -0.440  -0.056  0.00  0.00    -0.034 A 
ATOM      5  C4  UNL d   1      -0.532  -0.475   1.164  0.00  0.00     0.162 A 
ATOM      6  C5  UNL d   1      -1.230   0.641   1.613  0.00  0.00     0.062 A 
ATOM      7  F   UNL d   1      -1.877   0.598   2.787  0.00  0.00    -0.097 F 
ATOM      8  F1  UNL d   1      -0.523  -1.583   1.921  0.00  0.00    -0.096 F 
ATOM      9  I   UNL d   1       1.188  -2.109  -0.731  0.00  0.00    -0.060 I 
ATOM     10  F2  UNL d   1       0.752   0.799  -1.994  0.00  0.00    -0.096 F 
ATOM     11  F3  UNL d   1      -0.610   2.963  -1.102  0.00  0.00    -0.097 F 
ATOM     12  F4  UNL d   1      -1.928   2.875   1.285  0.00  0.00    -0.092 F 
ENDROOT
TORSDOF 0
ENDMDL
