MODEL 1
REMARK minimizedAffinity 4.77981997
REMARK minimizedRMSD -1
REMARK  0 active torsions:
REMARK  status: ('A' for Active; 'I' for Inactive)
ROOT
ATOM      1  C   UNL d   1      -1.238   1.762   1.255  0.00  0.00     0.124 A 
ATOM      2  C1  UNL d   1      -0.403   0.947   2.006  0.00  0.00     0.062 A 
ATOM      3  C2  UNL d   1       0.238  -0.136   1.411  0.00  0.00     0.162 A 
ATOM      4  C3  UNL d   1       0.046  -0.410   0.057  0.00  0.00    -0.034 A 
ATOM      5  C4  UNL d   1      -0.796   0.414  -0.691  0.00  0.00     0.162 A 
ATOM      6  C5  UNL d   1      -1.434   1.495  -0.092  0.00  0.00     0.062 A 
ATOM      7  F   UNL d   1      -2.240   2.282  -0.819  0.00  0.00    -0.097 F 
ATOM      8  F1  UNL d   1      -1.002   0.180  -1.996  0.00  0.00    -0.096 F 
ATOM      9  I   UNL d   1       1.002  -2.028  -0.836  0.00  0.00    -0.060 I 
ATOM     10  F2  UNL d   1       1.039  -0.908   2.161  0.00  0.00    -0.096 F 
ATOM     11  F3  UNL d   1      -0.213   1.202   3.309  0.00  0.00    -0.097 F 
ATOM     12  F4  UNL d   1      -1.854   2.803   1.831  0.00  0.00    -0.092 F 
ENDROOT
TORSDOF 0
ENDMDL
