MODEL 1
REMARK minimizedAffinity -3.65760422
REMARK minimizedRMSD -1
REMARK  0 active torsions:
REMARK  status: ('A' for Active; 'I' for Inactive)
ROOT
ATOM      1  C   UNL d   1      -1.147   2.656   0.361  0.00  0.00     0.124 A 
ATOM      2  C1  UNL d   1      -1.452   1.413   0.899  0.00  0.00     0.062 A 
ATOM      3  C2  UNL d   1      -0.731   0.287   0.511  0.00  0.00     0.162 A 
ATOM      4  C3  UNL d   1       0.303   0.399  -0.419  0.00  0.00    -0.034 A 
ATOM      5  C4  UNL d   1       0.603   1.652  -0.956  0.00  0.00     0.162 A 
ATOM      6  C5  UNL d   1      -0.120   2.775  -0.565  0.00  0.00     0.062 A 
ATOM      7  F   UNL d   1       0.176   3.975  -1.085  0.00  0.00    -0.097 F 
ATOM      8  F1  UNL d   1       1.590   1.796  -1.852  0.00  0.00    -0.096 F 
ATOM      9  I   UNL d   1       1.382  -1.282  -1.001  0.00  0.00    -0.060 I 
ATOM     10  F2  UNL d   1      -1.048  -0.901   1.046  0.00  0.00    -0.096 F 
ATOM     11  F3  UNL d   1      -2.444   1.296   1.793  0.00  0.00    -0.097 F 
ATOM     12  F4  UNL d   1      -1.842   3.738   0.736  0.00  0.00    -0.092 F 
ENDROOT
TORSDOF 0
ENDMDL
