MODEL 1
REMARK minimizedAffinity -1.63379788
REMARK minimizedRMSD -1
REMARK  0 active torsions:
REMARK  status: ('A' for Active; 'I' for Inactive)
ROOT
ATOM      1  C   UNL d   1       1.527  -0.182  -0.710  0.00  0.00     0.124 A 
ATOM      2  C1  UNL d   1       1.099   1.057  -1.167  0.00  0.00     0.062 A 
ATOM      3  C2  UNL d   1       0.114   1.756  -0.474  0.00  0.00     0.162 A 
ATOM      4  C3  UNL d   1      -0.449   1.218   0.683  0.00  0.00    -0.034 A 
ATOM      5  C4  UNL d   1      -0.014  -0.029   1.135  0.00  0.00     0.162 A 
ATOM      6  C5  UNL d   1       0.970  -0.724   0.440  0.00  0.00     0.062 A 
ATOM      7  F   UNL d   1       1.382  -1.921   0.882  0.00  0.00    -0.097 F 
ATOM      8  F1  UNL d   1      -0.534  -0.576   2.244  0.00  0.00    -0.096 F 
ATOM      9  I   UNL d   1      -1.921   2.260   1.721  0.00  0.00    -0.060 I 
ATOM     10  F2  UNL d   1      -0.280   2.951  -0.938  0.00  0.00    -0.096 F 
ATOM     11  F3  UNL d   1       1.634   1.582  -2.278  0.00  0.00    -0.097 F 
ATOM     12  F4  UNL d   1       2.473  -0.853  -1.379  0.00  0.00    -0.092 F 
ENDROOT
TORSDOF 0
ENDMDL
