MODEL 1
REMARK minimizedAffinity -2.06105375
REMARK minimizedRMSD -1
REMARK  0 active torsions:
REMARK  status: ('A' for Active; 'I' for Inactive)
ROOT
ATOM      1  C   UNL d   1      -0.399   0.654   1.762  0.00  0.00     0.124 A 
ATOM      2  C1  UNL d   1      -1.199   1.127   0.731  0.00  0.00     0.062 A 
ATOM      3  C2  UNL d   1      -1.041   0.633  -0.560  0.00  0.00     0.162 A 
ATOM      4  C3  UNL d   1      -0.080  -0.342  -0.828  0.00  0.00    -0.034 A 
ATOM      5  C4  UNL d   1       0.721  -0.813   0.214  0.00  0.00     0.162 A 
ATOM      6  C5  UNL d   1       0.560  -0.315   1.503  0.00  0.00     0.062 A 
ATOM      7  F   UNL d   1       1.333  -0.774   2.498  0.00  0.00    -0.097 F 
ATOM      8  F1  UNL d   1       1.655  -1.750  -0.009  0.00  0.00    -0.096 F 
ATOM      9  I   UNL d   1       0.160  -1.084  -2.758  0.00  0.00    -0.060 I 
ATOM     10  F2  UNL d   1      -1.827   1.108  -1.537  0.00  0.00    -0.096 F 
ATOM     11  F3  UNL d   1      -2.125   2.064   0.979  0.00  0.00    -0.097 F 
ATOM     12  F4  UNL d   1      -0.553   1.132   3.004  0.00  0.00    -0.092 F 
ENDROOT
TORSDOF 0
ENDMDL
