MODEL 1
REMARK minimizedAffinity -0.325309455
REMARK minimizedRMSD -1
REMARK  0 active torsions:
REMARK  status: ('A' for Active; 'I' for Inactive)
ROOT
ATOM      1  C   UNL d   1       1.140  -0.884   0.252  0.00  0.00     0.124 A 
ATOM      2  C1  UNL d   1       0.625  -0.929   1.540  0.00  0.00     0.062 A 
ATOM      3  C2  UNL d   1      -0.356  -0.024   1.934  0.00  0.00     0.162 A 
ATOM      4  C3  UNL d   1      -0.829   0.935   1.038  0.00  0.00    -0.034 A 
ATOM      5  C4  UNL d   1      -0.305   0.975  -0.255  0.00  0.00     0.162 A 
ATOM      6  C5  UNL d   1       0.675   0.068  -0.644  0.00  0.00     0.062 A 
ATOM      7  F   UNL d   1       1.173   0.113  -1.888  0.00  0.00    -0.097 F 
ATOM      8  F1  UNL d   1      -0.736   1.884  -1.142  0.00  0.00    -0.096 F 
ATOM      9  I   UNL d   1      -2.295   2.292   1.623  0.00  0.00    -0.060 I 
ATOM     10  F2  UNL d   1      -0.836  -0.091   3.185  0.00  0.00    -0.096 F 
ATOM     11  F3  UNL d   1       1.073  -1.848   2.408  0.00  0.00    -0.097 F 
ATOM     12  F4  UNL d   1       2.085  -1.756  -0.123  0.00  0.00    -0.092 F 
ENDROOT
TORSDOF 0
ENDMDL
