MODEL 1
REMARK minimizedAffinity -0.231976435
REMARK minimizedRMSD -1
REMARK  0 active torsions:
REMARK  status: ('A' for Active; 'I' for Inactive)
ROOT
ATOM      1  C   UNL d   1      -0.396   1.563   0.910  0.00  0.00     0.124 A 
ATOM      2  C1  UNL d   1       0.254   1.586  -0.316  0.00  0.00     0.062 A 
ATOM      3  C2  UNL d   1       0.651   0.396  -0.920  0.00  0.00     0.162 A 
ATOM      4  C3  UNL d   1       0.398  -0.827  -0.298  0.00  0.00    -0.034 A 
ATOM      5  C4  UNL d   1      -0.255  -0.841   0.935  0.00  0.00     0.162 A 
ATOM      6  C5  UNL d   1      -0.650   0.351   1.534  0.00  0.00     0.062 A 
ATOM      7  F   UNL d   1      -1.278   0.327   2.719  0.00  0.00    -0.097 F 
ATOM      8  F1  UNL d   1      -0.514  -1.999   1.561  0.00  0.00    -0.096 F 
ATOM      9  I   UNL d   1       0.991  -2.608  -1.197  0.00  0.00    -0.060 I 
ATOM     10  F2  UNL d   1       1.277   0.447  -2.105  0.00  0.00    -0.096 F 
ATOM     11  F3  UNL d   1       0.501   2.756  -0.921  0.00  0.00    -0.097 F 
ATOM     12  F4  UNL d   1      -0.776   2.710   1.489  0.00  0.00    -0.092 F 
ENDROOT
TORSDOF 0
ENDMDL
