MODEL 1
REMARK minimizedAffinity -2.16686869
REMARK minimizedRMSD -1
REMARK  0 active torsions:
REMARK  status: ('A' for Active; 'I' for Inactive)
ROOT
ATOM      1  C   UNL d   1      -0.179   0.881   1.690  0.00  0.00     0.124 A 
ATOM      2  C1  UNL d   1       0.885  -0.002   1.568  0.00  0.00     0.062 A 
ATOM      3  C2  UNL d   1       0.990  -0.822   0.449  0.00  0.00     0.162 A 
ATOM      4  C3  UNL d   1       0.027  -0.763  -0.559  0.00  0.00    -0.034 A 
ATOM      5  C4  UNL d   1      -1.040   0.126  -0.430  0.00  0.00     0.162 A 
ATOM      6  C5  UNL d   1      -1.140   0.944   0.691  0.00  0.00     0.062 A 
ATOM      7  F   UNL d   1      -2.169   1.797   0.807  0.00  0.00    -0.097 F 
ATOM      8  F1  UNL d   1      -1.983   0.209  -1.380  0.00  0.00    -0.096 F 
ATOM      9  I   UNL d   1       0.180  -1.989  -2.235  0.00  0.00    -0.060 I 
ATOM     10  F2  UNL d   1       2.029  -1.666   0.358  0.00  0.00    -0.096 F 
ATOM     11  F3  UNL d   1       1.815  -0.066   2.532  0.00  0.00    -0.097 F 
ATOM     12  F4  UNL d   1      -0.278   1.669   2.768  0.00  0.00    -0.092 F 
ENDROOT
TORSDOF 0
ENDMDL
