MODEL 1
REMARK minimizedAffinity -1.63919938
REMARK minimizedRMSD -1
REMARK  0 active torsions:
REMARK  status: ('A' for Active; 'I' for Inactive)
ROOT
ATOM      1  C   UNL d   1      -1.001   1.567  -0.572  0.00  0.00     0.124 A 
ATOM      2  C1  UNL d   1       0.374   1.592  -0.763  0.00  0.00     0.062 A 
ATOM      3  C2  UNL d   1       1.092   0.403  -0.839  0.00  0.00     0.162 A 
ATOM      4  C3  UNL d   1       0.437  -0.824  -0.724  0.00  0.00    -0.034 A 
ATOM      5  C4  UNL d   1      -0.946  -0.841  -0.530  0.00  0.00     0.162 A 
ATOM      6  C5  UNL d   1      -1.659   0.351  -0.455  0.00  0.00     0.062 A 
ATOM      7  F   UNL d   1      -2.987   0.324  -0.270  0.00  0.00    -0.097 F 
ATOM      8  F1  UNL d   1      -1.607  -2.002  -0.416  0.00  0.00    -0.096 F 
ATOM      9  I   UNL d   1       1.507  -2.605  -0.837  0.00  0.00    -0.060 I 
ATOM     10  F2  UNL d   1       2.419   0.457  -1.025  0.00  0.00    -0.096 F 
ATOM     11  F3  UNL d   1       1.012   2.766  -0.875  0.00  0.00    -0.097 F 
ATOM     12  F4  UNL d   1      -1.689   2.713  -0.498  0.00  0.00    -0.092 F 
ENDROOT
TORSDOF 0
ENDMDL
