MODEL 1
REMARK minimizedAffinity -2.10192919
REMARK minimizedRMSD -1
REMARK  0 active torsions:
REMARK  status: ('A' for Active; 'I' for Inactive)
ROOT
ATOM      1  C   UNL d   1      -1.310   2.077   1.095  0.00  0.00     0.124 A 
ATOM      2  C1  UNL d   1      -0.962   2.118  -0.248  0.00  0.00     0.062 A 
ATOM      3  C2  UNL d   1      -0.059   1.194  -0.766  0.00  0.00     0.162 A 
ATOM      4  C3  UNL d   1       0.503   0.221   0.059  0.00  0.00    -0.034 A 
ATOM      5  C4  UNL d   1       0.150   0.186   1.410  0.00  0.00     0.162 A 
ATOM      6  C5  UNL d   1      -0.753   1.111   1.922  0.00  0.00     0.062 A 
ATOM      7  F   UNL d   1      -1.087   1.070   3.221  0.00  0.00    -0.097 F 
ATOM      8  F1  UNL d   1       0.672  -0.736   2.231  0.00  0.00    -0.096 F 
ATOM      9  I   UNL d   1       1.855  -1.162  -0.711  0.00  0.00    -0.060 I 
ATOM     10  F2  UNL d   1       0.258   1.257  -2.068  0.00  0.00    -0.096 F 
ATOM     11  F3  UNL d   1      -1.498   3.050  -1.049  0.00  0.00    -0.097 F 
ATOM     12  F4  UNL d   1      -2.178   2.967   1.591  0.00  0.00    -0.092 F 
ENDROOT
TORSDOF 0
ENDMDL
