MODEL 1
REMARK minimizedAffinity 0.578454971
REMARK minimizedRMSD -1
REMARK  0 active torsions:
REMARK  status: ('A' for Active; 'I' for Inactive)
ROOT
ATOM      1  C   UNL d   1      -0.056   1.055   0.019  0.00  0.00     0.124 A 
ATOM      2  C1  UNL d   1       0.976   0.583  -0.780  0.00  0.00     0.062 A 
ATOM      3  C2  UNL d   1       0.905  -0.691  -1.335  0.00  0.00     0.162 A 
ATOM      4  C3  UNL d   1      -0.203  -1.503  -1.093  0.00  0.00    -0.034 A 
ATOM      5  C4  UNL d   1      -1.236  -1.022  -0.287  0.00  0.00     0.162 A 
ATOM      6  C5  UNL d   1      -1.161   0.253   0.265  0.00  0.00     0.062 A 
ATOM      7  F   UNL d   1      -2.159   0.707   1.036  0.00  0.00    -0.097 F 
ATOM      8  F1  UNL d   1      -2.316  -1.776  -0.034  0.00  0.00    -0.096 F 
ATOM      9  I   UNL d   1      -0.313  -3.410  -1.920  0.00  0.00    -0.060 I 
ATOM     10  F2  UNL d   1       1.917  -1.122  -2.103  0.00  0.00    -0.096 F 
ATOM     11  F3  UNL d   1       2.045   1.357  -1.019  0.00  0.00    -0.097 F 
ATOM     12  F4  UNL d   1       0.015   2.282   0.552  0.00  0.00    -0.092 F 
ENDROOT
TORSDOF 0
ENDMDL
