MODEL 1
REMARK minimizedAffinity 1.61715543
REMARK minimizedRMSD -1
REMARK  0 active torsions:
REMARK  status: ('A' for Active; 'I' for Inactive)
ROOT
ATOM      1  C   UNL d   1      -0.583   0.665   1.358  0.00  0.00     0.124 A 
ATOM      2  C1  UNL d   1       0.402  -0.313   1.334  0.00  0.00     0.062 A 
ATOM      3  C2  UNL d   1       0.572  -1.107   0.203  0.00  0.00     0.162 A 
ATOM      4  C3  UNL d   1      -0.244  -0.926  -0.914  0.00  0.00    -0.034 A 
ATOM      5  C4  UNL d   1      -1.233   0.059  -0.881  0.00  0.00     0.162 A 
ATOM      6  C5  UNL d   1      -1.399   0.850   0.251  0.00  0.00     0.062 A 
ATOM      7  F   UNL d   1      -2.351   1.794   0.272  0.00  0.00    -0.097 F 
ATOM      8  F1  UNL d   1      -2.035   0.260  -1.938  0.00  0.00    -0.096 F 
ATOM      9  I   UNL d   1       0.007  -2.111  -2.606  0.00  0.00    -0.060 I 
ATOM     10  F2  UNL d   1       1.531  -2.045   0.208  0.00  0.00    -0.096 F 
ATOM     11  F3  UNL d   1       1.191  -0.495   2.402  0.00  0.00    -0.097 F 
ATOM     12  F4  UNL d   1      -0.745   1.426   2.447  0.00  0.00    -0.092 F 
ENDROOT
TORSDOF 0
ENDMDL
