MODEL 1
REMARK minimizedAffinity -2.68603444
REMARK minimizedRMSD -1
REMARK  0 active torsions:
REMARK  status: ('A' for Active; 'I' for Inactive)
ROOT
ATOM      1  C   UNL d   1      -1.346   1.946   0.185  0.00  0.00     0.124 A 
ATOM      2  C1  UNL d   1      -1.754   0.755   0.769  0.00  0.00     0.062 A 
ATOM      3  C2  UNL d   1      -1.064  -0.425   0.506  0.00  0.00     0.162 A 
ATOM      4  C3  UNL d   1       0.042  -0.420  -0.344  0.00  0.00    -0.034 A 
ATOM      5  C4  UNL d   1       0.445   0.782  -0.928  0.00  0.00     0.162 A 
ATOM      6  C5  UNL d   1      -0.248   1.959  -0.663  0.00  0.00     0.062 A 
ATOM      7  F   UNL d   1       0.147   3.109  -1.228  0.00  0.00    -0.097 F 
ATOM      8  F1  UNL d   1       1.504   0.823  -1.751  0.00  0.00    -0.096 F 
ATOM      9  I   UNL d   1       1.076  -2.182  -0.739  0.00  0.00    -0.060 I 
ATOM     10  F2  UNL d   1      -1.480  -1.562   1.085  0.00  0.00    -0.096 F 
ATOM     11  F3  UNL d   1      -2.815   0.740   1.588  0.00  0.00    -0.097 F 
ATOM     12  F4  UNL d   1      -2.013   3.080   0.438  0.00  0.00    -0.092 F 
ENDROOT
TORSDOF 0
ENDMDL
