MODEL 1
REMARK minimizedAffinity 1.00220382
REMARK minimizedRMSD -1
REMARK  0 active torsions:
REMARK  status: ('A' for Active; 'I' for Inactive)
ROOT
ATOM      1  N1  IND d   1      -1.016  -2.142  -0.904  0.00  0.00    -0.196 N 
ATOM      2  C2  IND d   1      -1.077  -3.023  -1.948  0.00  0.00     0.054 A 
ATOM      3  C3  IND d   1      -0.872  -2.380  -3.119  0.00  0.00    -0.031 A 
ATOM      4  C4  IND d   1      -0.316   0.096  -3.550  0.00  0.00     0.051 A 
ATOM      5  C5  IND d   1      -0.190   1.298  -2.912  0.00  0.00    -0.031 A 
ATOM      6  C6  IND d   1      -0.332   1.417  -1.545  0.00  0.00     0.015 A 
ATOM      7  C7  IND d   1      -0.596   0.331  -0.759  0.00  0.00    -0.016 A 
ATOM      8  C8  IND d   1      -0.733  -0.890  -1.404  0.00  0.00    -0.047 A 
ATOM      9  C9  IND d   1      -0.631  -1.010  -2.796  0.00  0.00    -0.096 A 
ATOM     10  HN1 IND d   1      -1.134  -2.337  -0.075  0.00  0.00     0.298 HD
ENDROOT
TORSDOF 0
ENDMDL
