MODEL 1
REMARK minimizedAffinity 1.15535009
REMARK minimizedRMSD -1
REMARK  0 active torsions:
REMARK  status: ('A' for Active; 'I' for Inactive)
ROOT
ATOM      1  N1  IND d   1      -3.959   1.174  -5.705  0.00  0.00    -0.196 N 
ATOM      2  C2  IND d   1      -5.054   0.411  -6.000  0.00  0.00     0.054 A 
ATOM      3  C3  IND d   1      -5.998   0.554  -5.043  0.00  0.00    -0.031 A 
ATOM      4  C4  IND d   1      -6.000   2.066  -2.959  0.00  0.00     0.051 A 
ATOM      5  C5  IND d   1      -5.205   2.921  -2.248  0.00  0.00    -0.031 A 
ATOM      6  C6  IND d   1      -3.929   3.246  -2.663  0.00  0.00     0.015 A 
ATOM      7  C7  IND d   1      -3.403   2.734  -3.815  0.00  0.00    -0.016 A 
ATOM      8  C8  IND d   1      -4.205   1.861  -4.536  0.00  0.00    -0.047 A 
ATOM      9  C9  IND d   1      -5.484   1.494  -4.098  0.00  0.00    -0.096 A 
ATOM     10  HN1 IND d   1      -3.238   1.218  -6.171  0.00  0.00     0.298 HD
ENDROOT
TORSDOF 0
ENDMDL
