MODEL 1
REMARK minimizedAffinity 7.56650591
REMARK minimizedRMSD -1
REMARK  0 active torsions:
REMARK  status: ('A' for Active; 'I' for Inactive)
ROOT
ATOM      1  N1  IND d   1       1.743   0.352  -0.086  0.00  0.00    -0.196 N 
ATOM      2  C2  IND d   1       1.524  -0.054  -1.373  0.00  0.00     0.054 A 
ATOM      3  C3  IND d   1       0.627   0.759  -1.976  0.00  0.00    -0.031 A 
ATOM      4  C4  IND d   1      -0.530   2.874  -1.073  0.00  0.00     0.051 A 
ATOM      5  C5  IND d   1      -0.674   3.621   0.062  0.00  0.00    -0.031 A 
ATOM      6  C6  IND d   1      -0.004   3.313   1.228  0.00  0.00     0.015 A 
ATOM      7  C7  IND d   1       0.847   2.247   1.300  0.00  0.00    -0.016 A 
ATOM      8  C8  IND d   1       0.991   1.481   0.152  0.00  0.00    -0.047 A 
ATOM      9  C9  IND d   1       0.281   1.765  -1.022  0.00  0.00    -0.096 A 
ATOM     10  HN1 IND d   1       2.263  -0.033   0.480  0.00  0.00     0.298 HD
ENDROOT
TORSDOF 0
ENDMDL
