MODEL 1
REMARK minimizedAffinity -4.54000235
REMARK minimizedRMSD -1
REMARK  0 active torsions:
REMARK  status: ('A' for Active; 'I' for Inactive)
ROOT
ATOM      1  N1  IND d   1      -6.000   2.723  -2.942  0.00  0.00    -0.196 N 
ATOM      2  C2  IND d   1      -5.162   3.792  -2.784  0.00  0.00     0.054 A 
ATOM      3  C3  IND d   1      -4.131   3.714  -3.655  0.00  0.00    -0.031 A 
ATOM      4  C4  IND d   1      -3.672   1.973  -5.495  0.00  0.00     0.051 A 
ATOM      5  C5  IND d   1      -4.137   0.791  -6.000  0.00  0.00    -0.031 A 
ATOM      6  C6  IND d   1      -5.270   0.182  -5.503  0.00  0.00     0.015 A 
ATOM      7  C7  IND d   1      -5.991   0.740  -4.485  0.00  0.00    -0.016 A 
ATOM      8  C8  IND d   1      -5.519   1.937  -3.966  0.00  0.00    -0.047 A 
ATOM      9  C9  IND d   1      -4.345   2.538  -4.438  0.00  0.00    -0.096 A 
ATOM     10  HN1 IND d   1      -6.708   2.568  -2.479  0.00  0.00     0.298 HD
ENDROOT
TORSDOF 0
ENDMDL
