MODEL 1
REMARK minimizedAffinity 7.97030544
REMARK minimizedRMSD -1
REMARK  0 active torsions:
REMARK  status: ('A' for Active; 'I' for Inactive)
ROOT
ATOM      1  N1  IND d   1       2.764   4.122   1.128  0.00  0.00    -0.196 N 
ATOM      2  C2  IND d   1       2.737   3.465   2.326  0.00  0.00     0.054 A 
ATOM      3  C3  IND d   1       1.538   2.868   2.508  0.00  0.00    -0.031 A 
ATOM      4  C4  IND d   1      -0.489   2.753   0.926  0.00  0.00     0.051 A 
ATOM      5  C5  IND d   1      -0.953   3.231  -0.268  0.00  0.00    -0.031 A 
ATOM      6  C6  IND d   1      -0.184   4.044  -1.075  0.00  0.00     0.015 A 
ATOM      7  C7  IND d   1       1.086   4.403  -0.722  0.00  0.00    -0.016 A 
ATOM      8  C8  IND d   1       1.557   3.925   0.493  0.00  0.00    -0.047 A 
ATOM      9  C9  IND d   1       0.766   3.134   1.336  0.00  0.00    -0.096 A 
ATOM     10  HN1 IND d   1       3.423   4.581   0.822  0.00  0.00     0.298 HD
ENDROOT
TORSDOF 0
ENDMDL
