MODEL 1
REMARK minimizedAffinity 1.82593274
REMARK minimizedRMSD -1
REMARK  0 active torsions:
REMARK  status: ('A' for Active; 'I' for Inactive)
ROOT
ATOM      1  N1  IND d   1       0.764   0.775   1.901  0.00  0.00    -0.196 N 
ATOM      2  C2  IND d   1       0.647   1.347   3.137  0.00  0.00     0.054 A 
ATOM      3  C3  IND d   1       0.271   2.640   3.022  0.00  0.00    -0.031 A 
ATOM      4  C4  IND d   1      -0.307   3.995   0.911  0.00  0.00     0.051 A 
ATOM      5  C5  IND d   1      -0.314   3.913  -0.453  0.00  0.00    -0.031 A 
ATOM      6  C6  IND d   1       0.044   2.757  -1.116  0.00  0.00     0.015 A 
ATOM      7  C7  IND d   1       0.411   1.630  -0.435  0.00  0.00    -0.016 A 
ATOM      8  C8  IND d   1       0.425   1.712   0.950  0.00  0.00    -0.047 A 
ATOM      9  C9  IND d   1       0.105   2.896   1.627  0.00  0.00    -0.096 A 
ATOM     10  HN1 IND d   1       1.008  -0.035   1.744  0.00  0.00     0.298 HD
ENDROOT
TORSDOF 0
ENDMDL
