MODEL 1
REMARK minimizedAffinity 15.7134714
REMARK minimizedRMSD -1
REMARK  0 active torsions:
REMARK  status: ('A' for Active; 'I' for Inactive)
ROOT
ATOM      1  N1  IND d   1       1.884   4.098   0.095  0.00  0.00    -0.196 N 
ATOM      2  C2  IND d   1       0.926   4.618  -0.730  0.00  0.00     0.054 A 
ATOM      3  C3  IND d   1      -0.306   4.260  -0.305  0.00  0.00    -0.031 A 
ATOM      4  C4  IND d   1      -0.988   2.910   1.778  0.00  0.00     0.051 A 
ATOM      5  C5  IND d   1      -0.464   2.193   2.817  0.00  0.00    -0.031 A 
ATOM      6  C6  IND d   1       0.898   2.074   3.006  0.00  0.00     0.015 A 
ATOM      7  C7  IND d   1       1.789   2.680   2.167  0.00  0.00    -0.016 A 
ATOM      8  C8  IND d   1       1.260   3.403   1.108  0.00  0.00    -0.047 A 
ATOM      9  C9  IND d   1      -0.120   3.492   0.885  0.00  0.00    -0.096 A 
ATOM     10  HN1 IND d   1       2.734   4.189  -0.003  0.00  0.00     0.298 HD
ENDROOT
TORSDOF 0
ENDMDL
