MODEL 1
REMARK minimizedAffinity 6.73022413
REMARK minimizedRMSD -1
REMARK  0 active torsions:
REMARK  status: ('A' for Active; 'I' for Inactive)
ROOT
ATOM      1  N1  IND d   1      -2.824   5.028  -0.742  0.00  0.00    -0.196 N 
ATOM      2  C2  IND d   1      -3.443   4.312  -1.728  0.00  0.00     0.054 A 
ATOM      3  C3  IND d   1      -2.710   3.221  -2.047  0.00  0.00    -0.031 A 
ATOM      4  C4  IND d   1      -0.519   2.361  -1.005  0.00  0.00     0.051 A 
ATOM      5  C5  IND d   1       0.446   2.696  -0.097  0.00  0.00    -0.031 A 
ATOM      6  C6  IND d   1       0.367   3.847   0.660  0.00  0.00     0.015 A 
ATOM      7  C7  IND d   1      -0.690   4.705   0.544  0.00  0.00    -0.016 A 
ATOM      8  C8  IND d   1      -1.668   4.372  -0.382  0.00  0.00    -0.047 A 
ATOM      9  C9  IND d   1      -1.572   3.227  -1.183  0.00  0.00    -0.096 A 
ATOM     10  HN1 IND d   1      -3.110   5.765  -0.403  0.00  0.00     0.298 HD
ENDROOT
TORSDOF 0
ENDMDL
