MODEL 1
REMARK minimizedAffinity 2.07025599
REMARK minimizedRMSD -1
REMARK  0 active torsions:
REMARK  status: ('A' for Active; 'I' for Inactive)
ROOT
ATOM      1  N1  IND d   1       0.891   1.248  -1.599  0.00  0.00    -0.196 N 
ATOM      2  C2  IND d   1       0.576   2.445  -1.018  0.00  0.00     0.054 A 
ATOM      3  C3  IND d   1      -0.667   2.399  -0.490  0.00  0.00    -0.031 A 
ATOM      4  C4  IND d   1      -2.323   0.431  -0.373  0.00  0.00     0.051 A 
ATOM      5  C5  IND d   1      -2.497  -0.856  -0.798  0.00  0.00    -0.031 A 
ATOM      6  C6  IND d   1      -1.531  -1.522  -1.524  0.00  0.00     0.015 A 
ATOM      7  C7  IND d   1      -0.344  -0.927  -1.843  0.00  0.00    -0.016 A 
ATOM      8  C8  IND d   1      -0.166   0.383  -1.420  0.00  0.00    -0.047 A 
ATOM      9  C9  IND d   1      -1.160   1.078  -0.720  0.00  0.00    -0.096 A 
ATOM     10  HN1 IND d   1       1.626   1.067  -2.007  0.00  0.00     0.298 HD
ENDROOT
TORSDOF 0
ENDMDL
