MODEL 1
REMARK minimizedAffinity 6.39223528
REMARK minimizedRMSD -1
REMARK  0 active torsions:
REMARK  status: ('A' for Active; 'I' for Inactive)
ROOT
ATOM      1  N1  IND d   1      -5.995   3.685  -2.459  0.00  0.00    -0.196 N 
ATOM      2  C2  IND d   1      -5.102   2.992  -1.689  0.00  0.00     0.054 A 
ATOM      3  C3  IND d   1      -4.023   2.638  -2.423  0.00  0.00    -0.031 A 
ATOM      4  C4  IND d   1      -3.466   3.179  -4.877  0.00  0.00     0.051 A 
ATOM      5  C5  IND d   1      -3.992   3.756  -5.999  0.00  0.00    -0.031 A 
ATOM      6  C6  IND d   1      -5.236   4.353  -5.998  0.00  0.00     0.015 A 
ATOM      7  C7  IND d   1      -5.999   4.406  -4.866  0.00  0.00    -0.016 A 
ATOM      8  C8  IND d   1      -5.472   3.815  -3.727  0.00  0.00    -0.047 A 
ATOM      9  C9  IND d   1      -4.228   3.170  -3.733  0.00  0.00    -0.096 A 
ATOM     10  HN1 IND d   1      -6.755   3.988  -2.195  0.00  0.00     0.298 HD
ENDROOT
TORSDOF 0
ENDMDL
