MODEL 1
REMARK minimizedAffinity 7.53483629
REMARK minimizedRMSD -1
REMARK  0 active torsions:
REMARK  status: ('A' for Active; 'I' for Inactive)
ROOT
ATOM      1  C   UNL d   1       1.860  -5.882   1.219  0.00  0.00    -0.002 A 
ATOM      2  C1  UNL d   1       3.197  -5.673   1.525  0.00  0.00     0.010 A 
ATOM      3  C2  UNL d   1       4.152  -5.582   0.511  0.00  0.00     0.041 A 
ATOM      4  C3  UNL d   1       3.736  -5.701  -0.830  0.00  0.00    -0.075 A 
ATOM      5  S   UNL d   1       4.729  -5.621  -2.237  0.00  0.00     0.015 SA
ATOM      6  C4  UNL d   1       3.401  -5.860  -3.279  0.00  0.00     0.022 A 
ATOM      7  C5  UNL d   1       2.221  -6.000  -2.586  0.00  0.00     0.026 A 
ATOM      8  C6  UNL d   1       2.395  -5.910  -1.164  0.00  0.00    -0.082 A 
ATOM      9  C7  UNL d   1       1.451  -6.000  -0.112  0.00  0.00     0.045 A 
ENDROOT
TORSDOF 0
ENDMDL
