MODEL 1
REMARK minimizedAffinity 11.384738
REMARK minimizedRMSD -1
REMARK  0 active torsions:
REMARK  status: ('A' for Active; 'I' for Inactive)
ROOT
ATOM      1  C   UNL d   1      -5.996   1.859  -4.727  0.00  0.00    -0.002 A 
ATOM      2  C1  UNL d   1      -5.401   1.832  -3.473  0.00  0.00     0.010 A 
ATOM      3  C2  UNL d   1      -4.801   0.665  -2.997  0.00  0.00     0.041 A 
ATOM      4  C3  UNL d   1      -4.807  -0.485  -3.810  0.00  0.00    -0.075 A 
ATOM      5  S   UNL d   1      -4.132  -2.027  -3.435  0.00  0.00     0.015 SA
ATOM      6  C4  UNL d   1      -4.617  -2.686  -4.930  0.00  0.00     0.022 A 
ATOM      7  C5  UNL d   1      -5.279  -1.766  -5.708  0.00  0.00     0.026 A 
ATOM      8  C6  UNL d   1      -5.399  -0.483  -5.076  0.00  0.00    -0.082 A 
ATOM      9  C7  UNL d   1      -6.000   0.716  -5.530  0.00  0.00     0.045 A 
ENDROOT
TORSDOF 0
ENDMDL
