MODEL 1
REMARK minimizedAffinity -0.128101468
REMARK minimizedRMSD -1
REMARK  0 active torsions:
REMARK  status: ('A' for Active; 'I' for Inactive)
ROOT
ATOM      1  C   UNL d   1       3.783  -5.996  -1.065  0.00  0.00    -0.002 A 
ATOM      2  C1  UNL d   1       5.134  -5.995  -1.382  0.00  0.00     0.010 A 
ATOM      3  C2  UNL d   1       5.550  -5.997  -2.715  0.00  0.00     0.041 A 
ATOM      4  C3  UNL d   1       4.576  -5.998  -3.733  0.00  0.00    -0.075 A 
ATOM      5  S   UNL d   1       4.852  -5.999  -5.435  0.00  0.00     0.015 SA
ATOM      6  C4  UNL d   1       3.183  -6.000  -5.781  0.00  0.00     0.022 A 
ATOM      7  C5  UNL d   1       2.420  -5.999  -4.637  0.00  0.00     0.026 A 
ATOM      8  C6  UNL d   1       3.210  -5.998  -3.438  0.00  0.00    -0.082 A 
ATOM      9  C7  UNL d   1       2.820  -5.997  -2.078  0.00  0.00     0.045 A 
ENDROOT
TORSDOF 0
ENDMDL
