MODEL 1
REMARK minimizedAffinity 6.87951088
REMARK minimizedRMSD -1
REMARK  0 active torsions:
REMARK  status: ('A' for Active; 'I' for Inactive)
ROOT
ATOM      1  C   UNL d   1       4.381  -5.670   0.878  0.00  0.00    -0.002 A 
ATOM      2  C1  UNL d   1       3.018  -5.887   1.022  0.00  0.00     0.010 A 
ATOM      3  C2  UNL d   1       2.195  -6.000  -0.100  0.00  0.00     0.041 A 
ATOM      4  C3  UNL d   1       2.770  -5.893  -1.382  0.00  0.00    -0.075 A 
ATOM      5  S   UNL d   1       1.957  -6.000  -2.898  0.00  0.00     0.015 SA
ATOM      6  C4  UNL d   1       3.400  -5.762  -3.773  0.00  0.00     0.022 A 
ATOM      7  C5  UNL d   1       4.485  -5.602  -2.944  0.00  0.00     0.026 A 
ATOM      8  C6  UNL d   1       4.140  -5.676  -1.552  0.00  0.00    -0.082 A 
ATOM      9  C7  UNL d   1       4.948  -5.564  -0.395  0.00  0.00     0.045 A 
ENDROOT
TORSDOF 0
ENDMDL
