MODEL 1
REMARK minimizedAffinity 6.16950655
REMARK minimizedRMSD -1
REMARK  0 active torsions:
REMARK  status: ('A' for Active; 'I' for Inactive)
ROOT
ATOM      1  C   UNL d   1       4.390  -5.990  -5.857  0.00  0.00    -0.002 A 
ATOM      2  C1  UNL d   1       3.004  -5.996  -5.772  0.00  0.00     0.010 A 
ATOM      3  C2  UNL d   1       2.369  -5.999  -4.529  0.00  0.00     0.041 A 
ATOM      4  C3  UNL d   1       3.156  -5.994  -3.361  0.00  0.00    -0.075 A 
ATOM      5  S   UNL d   1       2.597  -5.996  -1.730  0.00  0.00     0.015 SA
ATOM      6  C4  UNL d   1       4.183  -5.989  -1.107  0.00  0.00     0.022 A 
ATOM      7  C5  UNL d   1       5.129  -5.985  -2.105  0.00  0.00     0.026 A 
ATOM      8  C6  UNL d   1       4.553  -5.988  -3.420  0.00  0.00    -0.082 A 
ATOM      9  C7  UNL d   1       5.167  -5.986  -4.696  0.00  0.00     0.045 A 
ENDROOT
TORSDOF 0
ENDMDL
