MODEL 1
REMARK minimizedAffinity 10.0547543
REMARK minimizedRMSD -1
REMARK  0 active torsions:
REMARK  status: ('A' for Active; 'I' for Inactive)
ROOT
ATOM      1  C   UNL d   1       4.018  -5.987  -4.885  0.00  0.00    -0.002 A 
ATOM      2  C1  UNL d   1       2.631  -5.994  -4.865  0.00  0.00     0.010 A 
ATOM      3  C2  UNL d   1       1.938  -5.999  -3.652  0.00  0.00     0.041 A 
ATOM      4  C3  UNL d   1       2.671  -5.995  -2.449  0.00  0.00    -0.075 A 
ATOM      5  S   UNL d   1       2.037  -5.999  -0.846  0.00  0.00     0.015 SA
ATOM      6  C4  UNL d   1       3.593  -5.991  -0.150  0.00  0.00     0.022 A 
ATOM      7  C5  UNL d   1       4.583  -5.985  -1.103  0.00  0.00     0.026 A 
ATOM      8  C6  UNL d   1       4.069  -5.987  -2.444  0.00  0.00    -0.082 A 
ATOM      9  C7  UNL d   1       4.742  -5.983  -3.690  0.00  0.00     0.045 A 
ENDROOT
TORSDOF 0
ENDMDL
