MODEL 1
REMARK minimizedAffinity 11.4351501
REMARK minimizedRMSD -1
REMARK  0 active torsions:
REMARK  status: ('A' for Active; 'I' for Inactive)
ROOT
ATOM      1  C   UNL d   1       3.385  -5.995  -6.000  0.00  0.00    -0.002 A 
ATOM      2  C1  UNL d   1       2.000  -5.995  -5.914  0.00  0.00     0.010 A 
ATOM      3  C2  UNL d   1       1.366  -5.998  -4.670  0.00  0.00     0.041 A 
ATOM      4  C3  UNL d   1       2.154  -5.998  -3.503  0.00  0.00    -0.075 A 
ATOM      5  S   UNL d   1       1.596  -6.000  -1.871  0.00  0.00     0.015 SA
ATOM      6  C4  UNL d   1       3.183  -5.999  -1.250  0.00  0.00     0.022 A 
ATOM      7  C5  UNL d   1       4.128  -5.998  -2.249  0.00  0.00     0.026 A 
ATOM      8  C6  UNL d   1       3.551  -5.997  -3.564  0.00  0.00    -0.082 A 
ATOM      9  C7  UNL d   1       4.164  -5.996  -4.839  0.00  0.00     0.045 A 
ENDROOT
TORSDOF 0
ENDMDL
