MODEL 1
REMARK minimizedAffinity 4.5256319
REMARK minimizedRMSD -1
REMARK  0 active torsions:
REMARK  status: ('A' for Active; 'I' for Inactive)
ROOT
ATOM      1  C   UNL d   1       2.117  -5.988  -5.769  0.00  0.00    -0.002 A 
ATOM      2  C1  UNL d   1       3.500  -5.968  -5.880  0.00  0.00     0.010 A 
ATOM      3  C2  UNL d   1       4.304  -5.956  -4.739  0.00  0.00     0.041 A 
ATOM      4  C3  UNL d   1       3.689  -5.967  -3.471  0.00  0.00    -0.075 A 
ATOM      5  S   UNL d   1       4.473  -5.956  -1.936  0.00  0.00     0.015 SA
ATOM      6  C4  UNL d   1       2.990  -5.980  -1.096  0.00  0.00     0.022 A 
ATOM      7  C5  UNL d   1       1.913  -5.995  -1.950  0.00  0.00     0.026 A 
ATOM      8  C6  UNL d   1       2.298  -5.989  -3.334  0.00  0.00    -0.082 A 
ATOM      9  C7  UNL d   1       1.510  -5.999  -4.510  0.00  0.00     0.045 A 
ENDROOT
TORSDOF 0
ENDMDL
