MODEL 1
REMARK minimizedAffinity -3.20598841
REMARK minimizedRMSD -1
REMARK  1 active torsions:
REMARK  status: ('A' for Active; 'I' for Inactive)
REMARK    1  A    between atoms: C1_2  and  C2_3 
ROOT
ATOM      1  C2  UNL d   1      -0.176  -1.753   0.301  0.00  0.00    -0.073 A 
ATOM      2  C3  UNL d   1      -0.721  -1.020   1.361  0.00  0.00    -0.002 A 
ATOM      3  C4  UNL d   1      -0.790   0.372   1.292  0.00  0.00     0.004 A 
ATOM      4  C5  UNL d   1      -0.323   1.044   0.162  0.00  0.00    -0.004 A 
ATOM      5  C6  UNL d   1       0.214   0.327  -0.912  0.00  0.00    -0.075 A 
ATOM      6  C7  UNL d   1       0.723   1.034  -2.134  0.00  0.00     0.076 C 
ATOM      7  C8  UNL d   1       0.283  -1.070  -0.834  0.00  0.00     0.001 A 
ENDROOT
BRANCH   1   8
ATOM      8  C1  UNL d   1      -0.104  -3.257   0.368  0.00  0.00     0.053 C 
ATOM      9  C   UNL d   1      -1.459  -3.903   0.125  0.00  0.00     0.018 C 
ENDBRANCH   1   8
TORSDOF 1
ENDMDL
