MODEL 1
REMARK minimizedAffinity -5.32050037
REMARK minimizedRMSD -1
REMARK  1 active torsions:
REMARK  status: ('A' for Active; 'I' for Inactive)
REMARK    1  A    between atoms: C1_2  and  C2_3 
ROOT
ATOM      1  C2  UNL d   1      -0.114  -0.230   0.170  0.00  0.00    -0.073 A 
ATOM      2  C3  UNL d   1      -0.386  -1.014   1.297  0.00  0.00    -0.002 A 
ATOM      3  C4  UNL d   1      -0.306  -2.405   1.223  0.00  0.00     0.004 A 
ATOM      4  C5  UNL d   1       0.052  -3.026   0.026  0.00  0.00    -0.004 A 
ATOM      5  C6  UNL d   1       0.339  -2.259  -1.107  0.00  0.00    -0.075 A 
ATOM      6  C7  UNL d   1       0.723  -2.911  -2.403  0.00  0.00     0.076 C 
ATOM      7  C8  UNL d   1       0.254  -0.862  -1.026  0.00  0.00     0.001 A 
ENDROOT
BRANCH   1   8
ATOM      8  C1  UNL d   1      -0.192   1.273   0.246  0.00  0.00     0.053 C 
ATOM      9  C   UNL d   1       1.163   1.926   0.025  0.00  0.00     0.018 C 
ENDBRANCH   1   8
TORSDOF 1
ENDMDL
