MODEL 1
REMARK minimizedAffinity -6.09097624
REMARK minimizedRMSD -1
REMARK  1 active torsions:
REMARK  status: ('A' for Active; 'I' for Inactive)
REMARK    1  A    between atoms: C1_2  and  C2_3 
ROOT
ATOM      1  C2  UNL d   1      -0.116  -0.973   0.257  0.00  0.00    -0.073 A 
ATOM      2  C3  UNL d   1      -0.374  -2.098   1.049  0.00  0.00    -0.002 A 
ATOM      3  C4  UNL d   1      -0.447  -3.366   0.470  0.00  0.00     0.004 A 
ATOM      4  C5  UNL d   1      -0.255  -3.523  -0.902  0.00  0.00    -0.004 A 
ATOM      5  C6  UNL d   1       0.015  -2.413  -1.708  0.00  0.00    -0.075 A 
ATOM      6  C7  UNL d   1       0.222  -2.565  -3.187  0.00  0.00     0.076 C 
ATOM      7  C8  UNL d   1       0.084  -1.143  -1.120  0.00  0.00     0.001 A 
ENDROOT
BRANCH   1   8
ATOM      8  C1  UNL d   1      -0.031   0.397   0.878  0.00  0.00     0.053 C 
ATOM      9  C   UNL d   1       0.138   1.487  -0.168  0.00  0.00     0.018 C 
ENDBRANCH   1   8
TORSDOF 1
ENDMDL
