MODEL 1
REMARK minimizedAffinity -5.78277349
REMARK minimizedRMSD -1
REMARK  1 active torsions:
REMARK  status: ('A' for Active; 'I' for Inactive)
REMARK    1  A    between atoms: C1_2  and  C2_3 
ROOT
ATOM      1  C2  UNL d   1      -0.108   0.055  -0.067  0.00  0.00    -0.073 A 
ATOM      2  C3  UNL d   1      -0.558  -0.643   1.060  0.00  0.00    -0.002 A 
ATOM      3  C4  UNL d   1      -0.554  -2.038   1.071  0.00  0.00     0.004 A 
ATOM      4  C5  UNL d   1      -0.096  -2.749  -0.038  0.00  0.00    -0.004 A 
ATOM      5  C6  UNL d   1       0.368  -2.069  -1.169  0.00  0.00    -0.075 A 
ATOM      6  C7  UNL d   1       0.863  -2.818  -2.371  0.00  0.00     0.076 C 
ATOM      7  C8  UNL d   1       0.359  -0.667  -1.174  0.00  0.00     0.001 A 
ENDROOT
BRANCH   1   8
ATOM      8  C1  UNL d   1      -0.104   1.562  -0.082  0.00  0.00     0.053 C 
ATOM      9  C   UNL d   1       1.239   2.133   0.345  0.00  0.00     0.018 C 
ENDBRANCH   1   8
TORSDOF 1
ENDMDL
