MODEL 1
REMARK minimizedAffinity -4.77877378
REMARK minimizedRMSD -1
REMARK  1 active torsions:
REMARK  status: ('A' for Active; 'I' for Inactive)
REMARK    1  A    between atoms: C1_2  and  C2_3 
ROOT
ATOM      1  C2  UNL d   1       0.056   0.444   0.262  0.00  0.00    -0.073 A 
ATOM      2  C3  UNL d   1      -0.531   1.424  -0.545  0.00  0.00    -0.002 A 
ATOM      3  C4  UNL d   1       0.030   2.699  -0.627  0.00  0.00     0.004 A 
ATOM      4  C5  UNL d   1       1.186   3.005   0.091  0.00  0.00    -0.004 A 
ATOM      5  C6  UNL d   1       1.794   2.035   0.894  0.00  0.00    -0.075 A 
ATOM      6  C7  UNL d   1       3.037   2.349   1.674  0.00  0.00     0.076 C 
ATOM      7  C8  UNL d   1       1.224   0.758   0.973  0.00  0.00     0.001 A 
ENDROOT
BRANCH   1   8
ATOM      8  C1  UNL d   1      -0.542  -0.937   0.349  0.00  0.00     0.053 C 
ATOM      9  C   UNL d   1      -0.464  -1.505   1.757  0.00  0.00     0.018 C 
ENDBRANCH   1   8
TORSDOF 1
ENDMDL
