MODEL 1
REMARK minimizedAffinity -6.27436781
REMARK minimizedRMSD -1
REMARK  1 active torsions:
REMARK  status: ('A' for Active; 'I' for Inactive)
REMARK    1  A    between atoms: C1_2  and  C2_3 
ROOT
ATOM      1  C2  UNL d   1       0.424  -0.552   0.143  0.00  0.00    -0.073 A 
ATOM      2  C3  UNL d   1       0.159  -1.365   1.251  0.00  0.00    -0.002 A 
ATOM      3  C4  UNL d   1      -0.143  -2.716   1.076  0.00  0.00     0.004 A 
ATOM      4  C5  UNL d   1      -0.176  -3.269  -0.204  0.00  0.00    -0.004 A 
ATOM      5  C6  UNL d   1       0.099  -2.475  -1.322  0.00  0.00    -0.075 A 
ATOM      6  C7  UNL d   1       0.066  -3.053  -2.706  0.00  0.00     0.076 C 
ATOM      7  C8  UNL d   1       0.398  -1.118  -1.139  0.00  0.00     0.001 A 
ENDROOT
BRANCH   1   8
ATOM      8  C1  UNL d   1       0.757   0.907   0.327  0.00  0.00     0.053 C 
ATOM      9  C   UNL d   1      -0.052   1.797  -0.603  0.00  0.00     0.018 C 
ENDBRANCH   1   8
TORSDOF 1
ENDMDL
