MODEL 1
REMARK minimizedAffinity -5.51017666
REMARK minimizedRMSD -1
REMARK  1 active torsions:
REMARK  status: ('A' for Active; 'I' for Inactive)
REMARK    1  A    between atoms: C1_2  and  C2_3 
ROOT
ATOM      1  C2  UNL d   1      -0.227  -0.036   0.059  0.00  0.00    -0.073 A 
ATOM      2  C3  UNL d   1      -0.427  -0.625   1.313  0.00  0.00    -0.002 A 
ATOM      3  C4  UNL d   1      -0.409  -2.014   1.450  0.00  0.00     0.004 A 
ATOM      4  C5  UNL d   1      -0.185  -2.826   0.338  0.00  0.00    -0.004 A 
ATOM      5  C6  UNL d   1       0.029  -2.256  -0.921  0.00  0.00    -0.075 A 
ATOM      6  C7  UNL d   1       0.270  -3.115  -2.127  0.00  0.00     0.076 C 
ATOM      7  C8  UNL d   1       0.007  -0.860  -1.051  0.00  0.00     0.001 A 
ENDROOT
BRANCH   1   8
ATOM      8  C1  UNL d   1      -0.239   1.463  -0.092  0.00  0.00     0.053 C 
ATOM      9  C   UNL d   1       1.122   2.076   0.200  0.00  0.00     0.018 C 
ENDBRANCH   1   8
TORSDOF 1
ENDMDL
