MODEL 1
REMARK minimizedAffinity -6.65857458
REMARK minimizedRMSD -1
REMARK  1 active torsions:
REMARK  status: ('A' for Active; 'I' for Inactive)
REMARK    1  A    between atoms: C1_2  and  C2_3 
ROOT
ATOM      1  C2  UNL d   1      -0.157  -0.743  -0.143  0.00  0.00    -0.073 A 
ATOM      2  C3  UNL d   1      -0.382  -1.952   0.526  0.00  0.00    -0.002 A 
ATOM      3  C4  UNL d   1      -0.179  -3.167  -0.129  0.00  0.00     0.004 A 
ATOM      4  C5  UNL d   1       0.255  -3.188  -1.454  0.00  0.00    -0.004 A 
ATOM      5  C6  UNL d   1       0.496  -1.990  -2.135  0.00  0.00    -0.075 A 
ATOM      6  C7  UNL d   1       0.962  -1.995  -3.562  0.00  0.00     0.076 C 
ATOM      7  C8  UNL d   1       0.288  -0.773  -1.472  0.00  0.00     0.001 A 
ENDROOT
BRANCH   1   8
ATOM      8  C1  UNL d   1      -0.368   0.572   0.561  0.00  0.00     0.053 C 
ATOM      9  C   UNL d   1       0.554   1.658   0.030  0.00  0.00     0.018 C 
ENDBRANCH   1   8
TORSDOF 1
ENDMDL
