MODEL 1
REMARK minimizedAffinity -6.65228367
REMARK minimizedRMSD -1
REMARK  1 active torsions:
REMARK  status: ('A' for Active; 'I' for Inactive)
REMARK    1  A    between atoms: C1_2  and  C2_3 
ROOT
ATOM      1  C2  UNL d   1      -0.298  -2.002  -0.414  0.00  0.00    -0.073 A 
ATOM      2  C3  UNL d   1      -0.571  -2.315   0.922  0.00  0.00    -0.002 A 
ATOM      3  C4  UNL d   1      -0.553  -1.317   1.898  0.00  0.00     0.004 A 
ATOM      4  C5  UNL d   1      -0.270   0.003   1.547  0.00  0.00    -0.004 A 
ATOM      5  C6  UNL d   1      -0.007   0.337   0.214  0.00  0.00    -0.075 A 
ATOM      6  C7  UNL d   1       0.301   1.752  -0.179  0.00  0.00     0.076 C 
ATOM      7  C8  UNL d   1      -0.024  -0.671  -0.759  0.00  0.00     0.001 A 
ENDROOT
BRANCH   1   8
ATOM      8  C1  UNL d   1      -0.323  -3.075  -1.472  0.00  0.00     0.053 C 
ATOM      9  C   UNL d   1      -0.063  -2.512  -2.861  0.00  0.00     0.018 C 
ENDBRANCH   1   8
TORSDOF 1
ENDMDL
