MODEL 1
REMARK minimizedAffinity -2.64442825
REMARK minimizedRMSD -1
REMARK  3 active torsions:
REMARK  status: ('A' for Active; 'I' for Inactive)
REMARK    1  A    between atoms: C3'_2  and  C2'_3 
REMARK    2  A    between atoms: C2'_3  and  C1'_4 
REMARK    3  A    between atoms: C1'_4  and  C1_5 
ROOT
ATOM      1  C1  N4B d   1      -1.509  -2.171  -0.268  0.00  0.00    -0.075 A 
ATOM      2  C2  N4B d   1      -0.562  -1.470  -1.046  0.00  0.00     0.002 A 
ATOM      3  C3  N4B d   1      -0.158  -0.213  -0.667  0.00  0.00     0.002 A 
ATOM      4  C4  N4B d   1      -0.698   0.367   0.471  0.00  0.00    -0.004 A 
ATOM      5  C5  N4B d   1      -1.594  -0.327   1.231  0.00  0.00     0.002 A 
ATOM      6  C6  N4B d   1      -2.006  -1.593   0.864  0.00  0.00     0.002 A 
ENDROOT
BRANCH   1   7
ATOM      7  C1' N4B d   1      -2.046  -3.512  -0.689  0.00  0.00     0.057 C 
BRANCH   7   8
ATOM      8  C2' N4B d   1      -2.977  -3.326  -1.883  0.00  0.00     0.009 C 
BRANCH   8   9
ATOM      9  C3' N4B d   1      -2.354  -2.453  -2.959  0.00  0.00     0.004 C 
ATOM     10  C4' N4B d   1      -2.382  -3.093  -4.315  0.00  0.00     0.003 C 
ENDBRANCH   8   9
ENDBRANCH   7   8
ENDBRANCH   1   7
TORSDOF 3
ENDMDL
