MODEL 1
REMARK minimizedAffinity 0.424951345
REMARK minimizedRMSD -1
REMARK  3 active torsions:
REMARK  status: ('A' for Active; 'I' for Inactive)
REMARK    1  A    between atoms: C3'_2  and  C2'_3 
REMARK    2  A    between atoms: C2'_3  and  C1'_4 
REMARK    3  A    between atoms: C1'_4  and  C1_5 
ROOT
ATOM      1  C1  N4B d   1      -2.204  -1.714  -0.782  0.00  0.00    -0.075 A 
ATOM      2  C2  N4B d   1      -0.846  -1.537  -1.127  0.00  0.00     0.002 A 
ATOM      3  C3  N4B d   1      -0.046  -0.719  -0.367  0.00  0.00     0.002 A 
ATOM      4  C4  N4B d   1      -0.584  -0.057   0.726  0.00  0.00    -0.004 A 
ATOM      5  C5  N4B d   1      -1.890  -0.254   1.068  0.00  0.00     0.002 A 
ATOM      6  C6  N4B d   1      -2.705  -1.076   0.315  0.00  0.00     0.002 A 
ENDROOT
BRANCH   1   7
ATOM      7  C1' N4B d   1      -3.139  -2.531  -1.632  0.00  0.00     0.057 C 
BRANCH   7   8
ATOM      8  C2' N4B d   1      -2.605  -3.956  -1.737  0.00  0.00     0.009 C 
BRANCH   8   9
ATOM      9  C3' N4B d   1      -2.265  -4.332  -3.169  0.00  0.00     0.004 C 
ATOM     10  C4' N4B d   1      -2.307  -3.159  -4.103  0.00  0.00     0.003 C 
ENDBRANCH   8   9
ENDBRANCH   7   8
ENDBRANCH   1   7
TORSDOF 3
ENDMDL
