MODEL 1
REMARK minimizedAffinity 6.09482431
REMARK minimizedRMSD -1
REMARK  3 active torsions:
REMARK  status: ('A' for Active; 'I' for Inactive)
REMARK    1  A    between atoms: C3'_2  and  C2'_3 
REMARK    2  A    between atoms: C2'_3  and  C1'_4 
REMARK    3  A    between atoms: C1'_4  and  C1_5 
ROOT
ATOM      1  C1  N4B d   1      -0.425   1.484  -0.538  0.00  0.00    -0.075 A 
ATOM      2  C2  N4B d   1       0.101   0.191  -0.751  0.00  0.00     0.002 A 
ATOM      3  C3  N4B d   1      -0.571  -0.910  -0.281  0.00  0.00     0.002 A 
ATOM      4  C4  N4B d   1      -1.757  -0.743   0.418  0.00  0.00    -0.004 A 
ATOM      5  C5  N4B d   1      -2.272   0.507   0.598  0.00  0.00     0.002 A 
ATOM      6  C6  N4B d   1      -1.609   1.623   0.128  0.00  0.00     0.002 A 
ENDROOT
BRANCH   1   7
ATOM      7  C1' N4B d   1       0.317   2.723  -0.957  0.00  0.00     0.057 C 
BRANCH   7   8
ATOM      8  C2' N4B d   1       1.802   2.543  -0.657  0.00  0.00     0.009 C 
BRANCH   8   9
ATOM      9  C3' N4B d   1       2.532   3.874  -0.582  0.00  0.00     0.004 C 
ATOM     10  C4' N4B d   1       3.739   3.925  -1.470  0.00  0.00     0.003 C 
ENDBRANCH   8   9
ENDBRANCH   7   8
ENDBRANCH   1   7
TORSDOF 3
ENDMDL
