MODEL 1
REMARK minimizedAffinity -4.62448406
REMARK minimizedRMSD -1
REMARK  3 active torsions:
REMARK  status: ('A' for Active; 'I' for Inactive)
REMARK    1  A    between atoms: C3'_2  and  C2'_3 
REMARK    2  A    between atoms: C2'_3  and  C1'_4 
REMARK    3  A    between atoms: C1'_4  and  C1_5 
ROOT
ATOM      1  C1  N4B d   1      -4.839   3.168   5.203  0.00  0.00    -0.075 A 
ATOM      2  C2  N4B d   1      -4.983   3.304   3.805  0.00  0.00     0.002 A 
ATOM      3  C3  N4B d   1      -5.263   4.533   3.260  0.00  0.00     0.002 A 
ATOM      4  C4  N4B d   1      -5.423   5.632   4.092  0.00  0.00    -0.004 A 
ATOM      5  C5  N4B d   1      -5.257   5.496   5.439  0.00  0.00     0.002 A 
ATOM      6  C6  N4B d   1      -4.971   4.268   6.000  0.00  0.00     0.002 A 
ENDROOT
BRANCH   1   7
ATOM      7  C1' N4B d   1      -4.617   1.829   5.852  0.00  0.00     0.057 C 
BRANCH   7   8
ATOM      8  C2' N4B d   1      -5.010   0.727   4.872  0.00  0.00     0.009 C 
BRANCH   8   9
ATOM      9  C3' N4B d   1      -4.488  -0.632   5.306  0.00  0.00     0.004 C 
ATOM     10  C4' N4B d   1      -2.997  -0.745   5.194  0.00  0.00     0.003 C 
ENDBRANCH   8   9
ENDBRANCH   7   8
ENDBRANCH   1   7
TORSDOF 3
ENDMDL
