MODEL 1
REMARK minimizedAffinity 1.14580691
REMARK minimizedRMSD -1
REMARK  3 active torsions:
REMARK  status: ('A' for Active; 'I' for Inactive)
REMARK    1  A    between atoms: C3'_2  and  C2'_3 
REMARK    2  A    between atoms: C2'_3  and  C1'_4 
REMARK    3  A    between atoms: C1'_4  and  C1_5 
ROOT
ATOM      1  C1  N4B d   1      -4.527   3.303   3.339  0.00  0.00    -0.075 A 
ATOM      2  C2  N4B d   1      -4.200   4.056   4.488  0.00  0.00     0.002 A 
ATOM      3  C3  N4B d   1      -4.509   5.392   4.545  0.00  0.00     0.002 A 
ATOM      4  C4  N4B d   1      -5.126   6.000   3.461  0.00  0.00    -0.004 A 
ATOM      5  C5  N4B d   1      -5.462   5.260   2.365  0.00  0.00     0.002 A 
ATOM      6  C6  N4B d   1      -5.161   3.915   2.297  0.00  0.00     0.002 A 
ENDROOT
BRANCH   1   7
ATOM      7  C1' N4B d   1      -4.132   1.859   3.196  0.00  0.00     0.057 C 
BRANCH   7   8
ATOM      8  C2' N4B d   1      -4.456   1.121   4.492  0.00  0.00     0.009 C 
BRANCH   8   9
ATOM      9  C3' N4B d   1      -4.104  -0.355   4.409  0.00  0.00     0.004 C 
ATOM     10  C4' N4B d   1      -4.830  -1.183   5.426  0.00  0.00     0.003 C 
ENDBRANCH   8   9
ENDBRANCH   7   8
ENDBRANCH   1   7
TORSDOF 3
ENDMDL
