MODEL 1
REMARK minimizedAffinity -0.026158968
REMARK minimizedRMSD -1
REMARK  3 active torsions:
REMARK  status: ('A' for Active; 'I' for Inactive)
REMARK    1  A    between atoms: C3'_2  and  C2'_3 
REMARK    2  A    between atoms: C2'_3  and  C1'_4 
REMARK    3  A    between atoms: C1'_4  and  C1_5 
ROOT
ATOM      1  C1  N4B d   1      -4.815   5.635   4.083  0.00  0.00    -0.075 A 
ATOM      2  C2  N4B d   1      -3.607   5.835   3.379  0.00  0.00     0.002 A 
ATOM      3  C3  N4B d   1      -3.626   5.998   2.015  0.00  0.00     0.002 A 
ATOM      4  C4  N4B d   1      -4.833   5.948   1.335  0.00  0.00    -0.004 A 
ATOM      5  C5  N4B d   1      -5.998   5.780   2.025  0.00  0.00     0.002 A 
ATOM      6  C6  N4B d   1      -5.995   5.618   3.396  0.00  0.00     0.002 A 
ENDROOT
BRANCH   1   7
ATOM      7  C1' N4B d   1      -4.837   5.366   5.562  0.00  0.00     0.057 C 
BRANCH   7   8
ATOM      8  C2' N4B d   1      -4.249   3.983   5.828  0.00  0.00     0.009 C 
BRANCH   8   9
ATOM      9  C3' N4B d   1      -5.152   2.874   5.315  0.00  0.00     0.004 C 
ATOM     10  C4' N4B d   1      -4.409   1.842   4.520  0.00  0.00     0.003 C 
ENDBRANCH   8   9
ENDBRANCH   7   8
ENDBRANCH   1   7
TORSDOF 3
ENDMDL
