MODEL 1
REMARK minimizedAffinity 3.57366538
REMARK minimizedRMSD -1
REMARK  3 active torsions:
REMARK  status: ('A' for Active; 'I' for Inactive)
REMARK    1  A    between atoms: C3'_2  and  C2'_3 
REMARK    2  A    between atoms: C2'_3  and  C1'_4 
REMARK    3  A    between atoms: C1'_4  and  C1_5 
ROOT
ATOM      1  C1  N4B d   1      -1.564  -0.463  -1.220  0.00  0.00    -0.075 A 
ATOM      2  C2  N4B d   1      -1.302  -1.193  -0.039  0.00  0.00     0.002 A 
ATOM      3  C3  N4B d   1      -0.185  -0.911   0.708  0.00  0.00     0.002 A 
ATOM      4  C4  N4B d   1       0.691   0.079   0.287  0.00  0.00    -0.004 A 
ATOM      5  C5  N4B d   1       0.417   0.796  -0.841  0.00  0.00     0.002 A 
ATOM      6  C6  N4B d   1      -0.704   0.526  -1.600  0.00  0.00     0.002 A 
ENDROOT
BRANCH   1   7
ATOM      7  C1' N4B d   1      -2.727  -0.793  -2.115  0.00  0.00     0.057 C 
BRANCH   7   8
ATOM      8  C2' N4B d   1      -3.070  -2.272  -1.966  0.00  0.00     0.009 C 
BRANCH   8   9
ATOM      9  C3' N4B d   1      -2.562  -3.095  -3.137  0.00  0.00     0.004 C 
ATOM     10  C4' N4B d   1      -2.812  -2.438  -4.461  0.00  0.00     0.003 C 
ENDBRANCH   8   9
ENDBRANCH   7   8
ENDBRANCH   1   7
TORSDOF 3
ENDMDL
