MODEL 1
REMARK minimizedAffinity -1.46899164
REMARK minimizedRMSD -1
REMARK  1 active torsions:
REMARK  status: ('A' for Active; 'I' for Inactive)
REMARK    1  A    between atoms: C1_2  and  C2_3 
ROOT
ATOM      1  C2  UNL d   1       2.136  -0.190   0.387  0.00  0.00    -0.081 A 
ATOM      2  C3  UNL d   1       1.284  -0.309  -0.718  0.00  0.00     0.006 A 
ATOM      3  C4  UNL d   1       0.757  -1.552  -1.075  0.00  0.00     0.002 A 
ATOM      4  C5  UNL d   1       1.065  -2.695  -0.329  0.00  0.00    -0.080 A 
ATOM      5  C6  UNL d   1       0.481  -4.030  -0.684  0.00  0.00     0.076 C 
ATOM      6  C7  UNL d   1       1.930  -2.580   0.764  0.00  0.00     0.002 A 
ATOM      7  C8  UNL d   1       2.458  -1.337   1.122  0.00  0.00     0.006 A 
ENDROOT
BRANCH   1   8
ATOM      8  C1  UNL d   1       2.655   1.159   0.814  0.00  0.00     0.054 C 
ATOM      9  C   UNL d   1       1.869   2.286   0.158  0.00  0.00     0.018 C 
ENDBRANCH   1   8
TORSDOF 1
ENDMDL
