MODEL 1
REMARK minimizedAffinity 7.63235474
REMARK minimizedRMSD -1
REMARK  1 active torsions:
REMARK  status: ('A' for Active; 'I' for Inactive)
REMARK    1  A    between atoms: C1_2  and  C2_3 
ROOT
ATOM      1  C2  UNL d   1      -4.945   1.108  -2.390  0.00  0.00    -0.081 A 
ATOM      2  C3  UNL d   1      -4.896   1.540  -3.721  0.00  0.00     0.006 A 
ATOM      3  C4  UNL d   1      -5.248   2.850  -4.053  0.00  0.00     0.002 A 
ATOM      4  C5  UNL d   1      -5.648   3.751  -3.061  0.00  0.00    -0.080 A 
ATOM      5  C6  UNL d   1      -6.000   5.169  -3.401  0.00  0.00     0.076 C 
ATOM      6  C7  UNL d   1      -5.714   3.314  -1.733  0.00  0.00     0.002 A 
ATOM      7  C8  UNL d   1      -5.362   2.005  -1.400  0.00  0.00     0.006 A 
ENDROOT
BRANCH   1   8
ATOM      8  C1  UNL d   1      -4.503  -0.285  -2.020  0.00  0.00     0.054 C 
ATOM      9  C   UNL d   1      -3.801  -0.302  -0.669  0.00  0.00     0.018 C 
ENDBRANCH   1   8
TORSDOF 1
ENDMDL
