MODEL 1
REMARK minimizedAffinity 6.10383844
REMARK minimizedRMSD -1
REMARK  1 active torsions:
REMARK  status: ('A' for Active; 'I' for Inactive)
REMARK    1  A    between atoms: C1_2  and  C2_3 
ROOT
ATOM      1  C2  UNL d   1       2.740  -0.889   0.286  0.00  0.00    -0.081 A 
ATOM      2  C3  UNL d   1       1.802  -0.882  -0.753  0.00  0.00     0.006 A 
ATOM      3  C4  UNL d   1       0.894  -1.934  -0.895  0.00  0.00     0.002 A 
ATOM      4  C5  UNL d   1       0.905  -3.006   0.004  0.00  0.00    -0.080 A 
ATOM      5  C6  UNL d   1      -0.083  -4.128  -0.119  0.00  0.00     0.076 C 
ATOM      6  C7  UNL d   1       1.854  -3.022   1.032  0.00  0.00     0.002 A 
ATOM      7  C8  UNL d   1       2.762  -1.970   1.174  0.00  0.00     0.006 A 
ENDROOT
BRANCH   1   8
ATOM      8  C1  UNL d   1       3.677   0.276   0.480  0.00  0.00     0.054 C 
ATOM      9  C   UNL d   1       2.934   1.602   0.407  0.00  0.00     0.018 C 
ENDBRANCH   1   8
TORSDOF 1
ENDMDL
