MODEL 1
REMARK minimizedAffinity 4.37785435
REMARK minimizedRMSD -1
REMARK  1 active torsions:
REMARK  status: ('A' for Active; 'I' for Inactive)
REMARK    1  A    between atoms: C1_2  and  C2_3 
ROOT
ATOM      1  C2  UNL d   1       0.802  -1.143  -2.611  0.00  0.00    -0.081 A 
ATOM      2  C3  UNL d   1       2.053  -1.402  -3.182  0.00  0.00     0.006 A 
ATOM      3  C4  UNL d   1       3.207  -1.395  -2.394  0.00  0.00     0.002 A 
ATOM      4  C5  UNL d   1       3.127  -1.138  -1.021  0.00  0.00    -0.080 A 
ATOM      5  C6  UNL d   1       4.354  -1.158  -0.159  0.00  0.00     0.076 C 
ATOM      6  C7  UNL d   1       1.879  -0.862  -0.453  0.00  0.00     0.002 A 
ATOM      7  C8  UNL d   1       0.725  -0.868  -1.241  0.00  0.00     0.006 A 
ENDROOT
BRANCH   1   8
ATOM      8  C1  UNL d   1      -0.451  -1.213  -3.445  0.00  0.00     0.054 C 
ATOM      9  C   UNL d   1      -0.671  -2.614  -3.997  0.00  0.00     0.018 C 
ENDBRANCH   1   8
TORSDOF 1
ENDMDL
