MODEL 1
REMARK minimizedAffinity -0.214360312
REMARK minimizedRMSD -1
REMARK  1 active torsions:
REMARK  status: ('A' for Active; 'I' for Inactive)
REMARK    1  A    between atoms: C1_2  and  C2_3 
ROOT
ATOM      1  C2  UNL d   1       1.862  -0.422  -1.094  0.00  0.00    -0.081 A 
ATOM      2  C3  UNL d   1       2.206   0.891  -0.747  0.00  0.00     0.006 A 
ATOM      3  C4  UNL d   1       3.418   1.441  -1.171  0.00  0.00     0.002 A 
ATOM      4  C5  UNL d   1       4.301   0.692  -1.955  0.00  0.00    -0.080 A 
ATOM      5  C6  UNL d   1       5.592   1.281  -2.442  0.00  0.00     0.076 C 
ATOM      6  C7  UNL d   1       3.966  -0.625  -2.287  0.00  0.00     0.002 A 
ATOM      7  C8  UNL d   1       2.755  -1.176  -1.863  0.00  0.00     0.006 A 
ENDROOT
BRANCH   1   8
ATOM      8  C1  UNL d   1       0.527  -0.996  -0.693  0.00  0.00     0.054 C 
ATOM      9  C   UNL d   1      -0.553  -0.647  -1.707  0.00  0.00     0.018 C 
ENDBRANCH   1   8
TORSDOF 1
ENDMDL
