MODEL 1
REMARK minimizedAffinity -4.4688282
REMARK minimizedRMSD -1
REMARK  1 active torsions:
REMARK  status: ('A' for Active; 'I' for Inactive)
REMARK    1  A    between atoms: C1_2  and  C2_3 
ROOT
ATOM      1  C2  UNL d   1       0.445  -0.518  -0.749  0.00  0.00    -0.073 A 
ATOM      2  C3  UNL d   1       0.587  -1.877  -0.445  0.00  0.00    -0.002 A 
ATOM      3  C4  UNL d   1       0.048  -2.396   0.733  0.00  0.00     0.004 A 
ATOM      4  C5  UNL d   1      -0.644  -1.566   1.614  0.00  0.00    -0.004 A 
ATOM      5  C6  UNL d   1      -0.807  -0.208   1.323  0.00  0.00    -0.075 A 
ATOM      6  C7  UNL d   1      -1.546   0.700   2.261  0.00  0.00     0.076 C 
ATOM      7  C8  UNL d   1      -0.260   0.307   0.139  0.00  0.00     0.001 A 
ENDROOT
BRANCH   1   8
ATOM      8  C1  UNL d   1       1.019   0.046  -2.022  0.00  0.00     0.053 C 
ATOM      9  C   UNL d   1       2.416   0.611  -1.816  0.00  0.00     0.018 C 
ENDBRANCH   1   8
TORSDOF 1
ENDMDL
