MODEL 1
REMARK minimizedAffinity -3.30561352
REMARK minimizedRMSD -1
REMARK  1 active torsions:
REMARK  status: ('A' for Active; 'I' for Inactive)
REMARK    1  A    between atoms: C1_2  and  C2_3 
ROOT
ATOM      1  C2  UNL d   1      -2.248   0.508   0.376  0.00  0.00    -0.073 A 
ATOM      2  C3  UNL d   1      -1.943  -0.176   1.558  0.00  0.00    -0.002 A 
ATOM      3  C4  UNL d   1      -0.739  -0.870   1.681  0.00  0.00     0.004 A 
ATOM      4  C5  UNL d   1       0.176  -0.881   0.627  0.00  0.00    -0.004 A 
ATOM      5  C6  UNL d   1      -0.105  -0.193  -0.558  0.00  0.00    -0.075 A 
ATOM      6  C7  UNL d   1       0.866  -0.197  -1.701  0.00  0.00     0.076 C 
ATOM      7  C8  UNL d   1      -1.318   0.499  -0.674  0.00  0.00     0.001 A 
ENDROOT
BRANCH   1   8
ATOM      8  C1  UNL d   1      -3.544   1.264   0.241  0.00  0.00     0.053 C 
ATOM      9  C   UNL d   1      -4.716   0.497   0.834  0.00  0.00     0.018 C 
ENDBRANCH   1   8
TORSDOF 1
ENDMDL
