MODEL 1
REMARK minimizedAffinity -3.9965837
REMARK minimizedRMSD -1
REMARK  1 active torsions:
REMARK  status: ('A' for Active; 'I' for Inactive)
REMARK    1  A    between atoms: C1_2  and  C2_3 
ROOT
ATOM      1  C2  UNL d   1      -0.624  -0.031   0.661  0.00  0.00    -0.073 A 
ATOM      2  C3  UNL d   1      -0.807  -1.398   0.898  0.00  0.00    -0.002 A 
ATOM      3  C4  UNL d   1      -0.297  -2.343   0.007  0.00  0.00     0.004 A 
ATOM      4  C5  UNL d   1       0.406  -1.933  -1.125  0.00  0.00    -0.004 A 
ATOM      5  C6  UNL d   1       0.609  -0.572  -1.374  0.00  0.00    -0.075 A 
ATOM      6  C7  UNL d   1       1.362  -0.113  -2.589  0.00  0.00     0.076 C 
ATOM      7  C8  UNL d   1       0.092   0.371  -0.476  0.00  0.00     0.001 A 
ENDROOT
BRANCH   1   8
ATOM      8  C1  UNL d   1      -1.167   0.992   1.623  0.00  0.00     0.053 C 
ATOM      9  C   UNL d   1      -2.687   1.028   1.620  0.00  0.00     0.018 C 
ENDBRANCH   1   8
TORSDOF 1
ENDMDL
