MODEL 1
REMARK minimizedAffinity -4.30551291
REMARK minimizedRMSD -1
REMARK  1 active torsions:
REMARK  status: ('A' for Active; 'I' for Inactive)
REMARK    1  A    between atoms: C1_2  and  C2_3 
ROOT
ATOM      1  C2  UNL d   1      -3.001   2.332   2.227  0.00  0.00    -0.073 A 
ATOM      2  C3  UNL d   1      -4.208   1.663   1.993  0.00  0.00    -0.002 A 
ATOM      3  C4  UNL d   1      -4.207   0.377   1.454  0.00  0.00     0.004 A 
ATOM      4  C5  UNL d   1      -3.002  -0.257   1.149  0.00  0.00    -0.004 A 
ATOM      5  C6  UNL d   1      -1.786   0.390   1.387  0.00  0.00    -0.075 A 
ATOM      6  C7  UNL d   1      -0.481  -0.276   1.063  0.00  0.00     0.076 C 
ATOM      7  C8  UNL d   1      -1.794   1.684   1.927  0.00  0.00     0.001 A 
ENDROOT
BRANCH   1   8
ATOM      8  C1  UNL d   1      -2.996   3.719   2.816  0.00  0.00     0.053 C 
ATOM      9  C   UNL d   1      -2.640   3.710   4.294  0.00  0.00     0.018 C 
ENDBRANCH   1   8
TORSDOF 1
ENDMDL
