MODEL 1
REMARK minimizedAffinity -5.10985374
REMARK minimizedRMSD -1
REMARK  1 active torsions:
REMARK  status: ('A' for Active; 'I' for Inactive)
REMARK    1  A    between atoms: C1_2  and  C2_3 
ROOT
ATOM      1  C2  UNL d   1      -3.218   2.210   2.568  0.00  0.00    -0.073 A 
ATOM      2  C3  UNL d   1      -4.351   1.422   2.339  0.00  0.00    -0.002 A 
ATOM      3  C4  UNL d   1      -4.227   0.166   1.743  0.00  0.00     0.004 A 
ATOM      4  C5  UNL d   1      -2.970  -0.317   1.378  0.00  0.00    -0.004 A 
ATOM      5  C6  UNL d   1      -1.825   0.451   1.610  0.00  0.00    -0.075 A 
ATOM      6  C7  UNL d   1      -0.466  -0.053   1.221  0.00  0.00     0.076 C 
ATOM      7  C8  UNL d   1      -1.958   1.713   2.206  0.00  0.00     0.001 A 
ENDROOT
BRANCH   1   8
ATOM      8  C1  UNL d   1      -3.346   3.564   3.216  0.00  0.00     0.053 C 
ATOM      9  C   UNL d   1      -2.635   3.623   4.559  0.00  0.00     0.018 C 
ENDBRANCH   1   8
TORSDOF 1
ENDMDL
