MODEL 1
REMARK minimizedAffinity -3.81364846
REMARK minimizedRMSD -1
REMARK  1 active torsions:
REMARK  status: ('A' for Active; 'I' for Inactive)
REMARK    1  A    between atoms: C1_2  and  C2_3 
ROOT
ATOM      1  C2  UNL d   1      -3.298   2.451   3.000  0.00  0.00    -0.073 A 
ATOM      2  C3  UNL d   1      -4.488   1.945   2.465  0.00  0.00    -0.002 A 
ATOM      3  C4  UNL d   1      -4.491   0.731   1.776  0.00  0.00     0.004 A 
ATOM      4  C5  UNL d   1      -3.308   0.009   1.621  0.00  0.00    -0.004 A 
ATOM      5  C6  UNL d   1      -2.111   0.492   2.159  0.00  0.00    -0.075 A 
ATOM      6  C7  UNL d   1      -0.830  -0.272   1.998  0.00  0.00     0.076 C 
ATOM      7  C8  UNL d   1      -2.115   1.713   2.847  0.00  0.00     0.001 A 
ENDROOT
BRANCH   1   8
ATOM      8  C1  UNL d   1      -3.291   3.758   3.750  0.00  0.00     0.053 C 
ATOM      9  C   UNL d   1      -2.603   3.636   5.101  0.00  0.00     0.018 C 
ENDBRANCH   1   8
TORSDOF 1
ENDMDL
