MODEL 1
REMARK minimizedAffinity -1.2927742
REMARK minimizedRMSD -1
REMARK  1 active torsions:
REMARK  status: ('A' for Active; 'I' for Inactive)
REMARK    1  A    between atoms: C1_2  and  C2_3 
ROOT
ATOM      1  C2  UNL d   1      -1.574   0.582   1.489  0.00  0.00    -0.073 A 
ATOM      2  C3  UNL d   1      -2.741  -0.141   1.217  0.00  0.00    -0.002 A 
ATOM      3  C4  UNL d   1      -3.988   0.372   1.577  0.00  0.00     0.004 A 
ATOM      4  C5  UNL d   1      -4.082   1.614   2.204  0.00  0.00    -0.004 A 
ATOM      5  C6  UNL d   1      -2.928   2.357   2.473  0.00  0.00    -0.075 A 
ATOM      6  C7  UNL d   1      -3.011   3.694   3.150  0.00  0.00     0.076 C 
ATOM      7  C8  UNL d   1      -1.679   1.834   2.112  0.00  0.00     0.001 A 
ENDROOT
BRANCH   1   8
ATOM      8  C1  UNL d   1      -0.226   0.035   1.096  0.00  0.00     0.053 C 
ATOM      9  C   UNL d   1       0.302   0.679  -0.176  0.00  0.00     0.018 C 
ENDBRANCH   1   8
TORSDOF 1
ENDMDL
