MODEL 1
REMARK minimizedAffinity -1.01821434
REMARK minimizedRMSD -1
REMARK  1 active torsions:
REMARK  status: ('A' for Active; 'I' for Inactive)
REMARK    1  A    between atoms: C1_2  and  C2_3 
ROOT
ATOM      1  C2  UNL d   1      -1.098   0.142   0.351  0.00  0.00    -0.073 A 
ATOM      2  C3  UNL d   1      -0.824  -1.213   0.569  0.00  0.00    -0.002 A 
ATOM      3  C4  UNL d   1       0.413  -1.748   0.211  0.00  0.00     0.004 A 
ATOM      4  C5  UNL d   1       1.391  -0.935  -0.361  0.00  0.00    -0.004 A 
ATOM      5  C6  UNL d   1       1.141   0.425  -0.575  0.00  0.00    -0.075 A 
ATOM      6  C7  UNL d   1       2.182   1.313  -1.191  0.00  0.00     0.076 C 
ATOM      7  C8  UNL d   1      -0.105   0.954  -0.216  0.00  0.00     0.001 A 
ENDROOT
BRANCH   1   8
ATOM      8  C1  UNL d   1      -2.431   0.726   0.742  0.00  0.00     0.053 C 
ATOM      9  C   UNL d   1      -2.340   1.553   2.015  0.00  0.00     0.018 C 
ENDBRANCH   1   8
TORSDOF 1
ENDMDL
