MODEL 1
REMARK minimizedAffinity -4.94397163
REMARK minimizedRMSD -1
REMARK  1 active torsions:
REMARK  status: ('A' for Active; 'I' for Inactive)
REMARK    1  A    between atoms: C1_2  and  C2_3 
ROOT
ATOM      1  C2  UNL d   1       0.835  -0.271  -1.343  0.00  0.00    -0.073 A 
ATOM      2  C3  UNL d   1      -0.018  -1.234  -0.793  0.00  0.00    -0.002 A 
ATOM      3  C4  UNL d   1      -0.252  -1.265   0.582  0.00  0.00     0.004 A 
ATOM      4  C5  UNL d   1       0.359  -0.332   1.420  0.00  0.00    -0.004 A 
ATOM      5  C6  UNL d   1       1.206   0.645   0.887  0.00  0.00    -0.075 A 
ATOM      6  C7  UNL d   1       1.873   1.655   1.775  0.00  0.00     0.076 C 
ATOM      7  C8  UNL d   1       1.438   0.668  -0.495  0.00  0.00     0.001 A 
ENDROOT
BRANCH   1   8
ATOM      8  C1  UNL d   1       1.085  -0.229  -2.829  0.00  0.00     0.053 C 
ATOM      9  C   UNL d   1       2.490   0.251  -3.157  0.00  0.00     0.018 C 
ENDBRANCH   1   8
TORSDOF 1
ENDMDL
