MODEL 1
REMARK minimizedAffinity -1.69650972
REMARK minimizedRMSD -1
REMARK  0 active torsions:
REMARK  status: ('A' for Active; 'I' for Inactive)
ROOT
ATOM      1  C   UNL d   1       1.923  -0.354  -3.894  0.00  0.00     0.172 C 
ATOM      2  N   UNL d   1       0.665   0.253  -3.526  0.00  0.00    -0.070 N 
ATOM      3  C1  UNL d   1       0.506   1.515  -3.017  0.00  0.00    -0.004 A 
ATOM      4  C2  UNL d   1      -0.839   1.716  -2.800  0.00  0.00    -0.047 A 
ATOM      5  C3  UNL d   1      -1.513   0.533  -3.190  0.00  0.00    -0.047 A 
ATOM      6  C4  UNL d   1      -0.557  -0.355  -3.635  0.00  0.00    -0.004 A 
ENDROOT
TORSDOF 0
ENDMDL
