MODEL 1
REMARK minimizedAffinity 1.30827498
REMARK minimizedRMSD -1
REMARK  0 active torsions:
REMARK  status: ('A' for Active; 'I' for Inactive)
ROOT
ATOM      1  C   UNL d   1      -5.426   2.049   5.749  0.00  0.00     0.172 C 
ATOM      2  N   UNL d   1      -5.104   0.642   5.800  0.00  0.00    -0.070 N 
ATOM      3  C1  UNL d   1      -6.000  -0.375   5.998  0.00  0.00    -0.004 A 
ATOM      4  C2  UNL d   1      -5.301  -1.562   5.979  0.00  0.00    -0.047 A 
ATOM      5  C3  UNL d   1      -3.938  -1.248   5.763  0.00  0.00    -0.047 A 
ATOM      6  C4  UNL d   1      -3.845   0.123   5.656  0.00  0.00    -0.004 A 
ENDROOT
TORSDOF 0
ENDMDL
