MODEL 1
REMARK minimizedAffinity 5.0711894
REMARK minimizedRMSD -1
REMARK  0 active torsions:
REMARK  status: ('A' for Active; 'I' for Inactive)
ROOT
ATOM      1  C   UNL d   1       2.554   3.755  -5.375  0.00  0.00     0.172 C 
ATOM      2  N   UNL d   1       2.876   2.743  -4.396  0.00  0.00    -0.070 N 
ATOM      3  C1  UNL d   1       2.230   2.552  -3.204  0.00  0.00    -0.004 A 
ATOM      4  C2  UNL d   1       2.835   1.493  -2.561  0.00  0.00    -0.047 A 
ATOM      5  C3  UNL d   1       3.881   1.033  -3.396  0.00  0.00    -0.047 A 
ATOM      6  C4  UNL d   1       3.884   1.825  -4.525  0.00  0.00    -0.004 A 
ENDROOT
TORSDOF 0
ENDMDL
