MODEL 1
REMARK minimizedAffinity -2.0901885
REMARK minimizedRMSD -1
REMARK  0 active torsions:
REMARK  status: ('A' for Active; 'I' for Inactive)
ROOT
ATOM      1  C   UNL d   1       1.154  -1.381   1.774  0.00  0.00     0.172 C 
ATOM      2  N   UNL d   1       2.303  -0.522   1.612  0.00  0.00    -0.070 N 
ATOM      3  C1  UNL d   1       2.406   0.515   0.725  0.00  0.00    -0.004 A 
ATOM      4  C2  UNL d   1       3.652   1.082   0.880  0.00  0.00    -0.047 A 
ATOM      5  C3  UNL d   1       4.323   0.360   1.896  0.00  0.00    -0.047 A 
ATOM      6  C4  UNL d   1       3.465  -0.628   2.331  0.00  0.00    -0.004 A 
ENDROOT
TORSDOF 0
ENDMDL
