MODEL 1
REMARK minimizedAffinity 1.82731116
REMARK minimizedRMSD -1
REMARK  0 active torsions:
REMARK  status: ('A' for Active; 'I' for Inactive)
ROOT
ATOM      1  C   UNL d   1       2.673   2.651  -4.957  0.00  0.00     0.172 C 
ATOM      2  N   UNL d   1       1.873   3.853  -4.958  0.00  0.00    -0.070 N 
ATOM      3  C1  UNL d   1       0.905   4.169  -4.043  0.00  0.00    -0.004 A 
ATOM      4  C2  UNL d   1       0.377   5.393  -4.391  0.00  0.00    -0.047 A 
ATOM      5  C3  UNL d   1       1.051   5.828  -5.557  0.00  0.00    -0.047 A 
ATOM      6  C4  UNL d   1       1.972   4.856  -5.886  0.00  0.00    -0.004 A 
ENDROOT
TORSDOF 0
ENDMDL
