MODEL 1
REMARK minimizedAffinity 3.40957642
REMARK minimizedRMSD -1
REMARK  0 active torsions:
REMARK  status: ('A' for Active; 'I' for Inactive)
ROOT
ATOM      1  C   UNL d   1      -4.953   2.305   5.324  0.00  0.00     0.172 C 
ATOM      2  N   UNL d   1      -4.880   3.723   5.589  0.00  0.00    -0.070 N 
ATOM      3  C1  UNL d   1      -3.728   4.454   5.709  0.00  0.00    -0.004 A 
ATOM      4  C2  UNL d   1      -4.082   5.762   5.960  0.00  0.00    -0.047 A 
ATOM      5  C3  UNL d   1      -5.496   5.819   5.993  0.00  0.00    -0.047 A 
ATOM      6  C4  UNL d   1      -5.964   4.542   5.760  0.00  0.00    -0.004 A 
ENDROOT
TORSDOF 0
ENDMDL
