MODEL 1
REMARK minimizedAffinity -0.863214254
REMARK minimizedRMSD -1
REMARK  0 active torsions:
REMARK  status: ('A' for Active; 'I' for Inactive)
ROOT
ATOM      1  C   UNL d   1      -4.739   2.785   5.576  0.00  0.00     0.172 C 
ATOM      2  N   UNL d   1      -4.828   1.354   5.744  0.00  0.00    -0.070 N 
ATOM      3  C1  UNL d   1      -3.766   0.494   5.839  0.00  0.00    -0.004 A 
ATOM      4  C2  UNL d   1      -4.268  -0.781   5.991  0.00  0.00    -0.047 A 
ATOM      5  C3  UNL d   1      -5.680  -0.684   5.985  0.00  0.00    -0.047 A 
ATOM      6  C4  UNL d   1      -5.999   0.649   5.831  0.00  0.00    -0.004 A 
ENDROOT
TORSDOF 0
ENDMDL
