MODEL 1
REMARK minimizedAffinity 1.10411203
REMARK minimizedRMSD -1
REMARK  0 active torsions:
REMARK  status: ('A' for Active; 'I' for Inactive)
ROOT
ATOM      1  C   UNL d   1      -1.883  -5.019   1.113  0.00  0.00     0.172 C 
ATOM      2  N   UNL d   1      -0.507  -5.417   1.298  0.00  0.00    -0.070 N 
ATOM      3  C1  UNL d   1       0.106  -5.635   2.503  0.00  0.00    -0.004 A 
ATOM      4  C2  UNL d   1       1.412  -5.998   2.253  0.00  0.00    -0.047 A 
ATOM      5  C3  UNL d   1       1.590  -5.997   0.849  0.00  0.00    -0.047 A 
ATOM      6  C4  UNL d   1       0.386  -5.634   0.282  0.00  0.00    -0.004 A 
ENDROOT
TORSDOF 0
ENDMDL
