MODEL 1
REMARK minimizedAffinity 6.96117926
REMARK minimizedRMSD -1
REMARK  0 active torsions:
REMARK  status: ('A' for Active; 'I' for Inactive)
ROOT
ATOM      1  C   UNL d   1      -1.514  -5.890   1.135  0.00  0.00     0.172 C 
ATOM      2  N   UNL d   1      -0.196  -5.407   1.473  0.00  0.00    -0.070 N 
ATOM      3  C1  UNL d   1       0.987  -6.000   1.119  0.00  0.00    -0.004 A 
ATOM      4  C2  UNL d   1       2.012  -5.235   1.631  0.00  0.00    -0.047 A 
ATOM      5  C3  UNL d   1       1.426  -4.145   2.318  0.00  0.00    -0.047 A 
ATOM      6  C4  UNL d   1       0.058  -4.277   2.204  0.00  0.00    -0.004 A 
ENDROOT
TORSDOF 0
ENDMDL
