MODEL 1
REMARK minimizedAffinity 4.03369331
REMARK minimizedRMSD -1
REMARK  0 active torsions:
REMARK  status: ('A' for Active; 'I' for Inactive)
ROOT
ATOM      1  C   UNL d   1       2.356   0.966  -0.827  0.00  0.00     0.172 C 
ATOM      2  N   UNL d   1       2.670   0.170  -1.990  0.00  0.00    -0.070 N 
ATOM      3  C1  UNL d   1       3.654   0.443  -2.902  0.00  0.00    -0.004 A 
ATOM      4  C2  UNL d   1       3.633  -0.551  -3.856  0.00  0.00    -0.047 A 
ATOM      5  C3  UNL d   1       2.599  -1.452  -3.506  0.00  0.00    -0.047 A 
ATOM      6  C4  UNL d   1       2.019  -0.981  -2.347  0.00  0.00    -0.004 A 
ENDROOT
TORSDOF 0
ENDMDL
