MODEL 1
REMARK minimizedAffinity -1.06367743
REMARK minimizedRMSD -1
REMARK  0 active torsions:
REMARK  status: ('A' for Active; 'I' for Inactive)
ROOT
ATOM      1  C   UNL d   1      -5.606   1.864   5.439  0.00  0.00     0.172 C 
ATOM      2  N   UNL d   1      -5.174   0.504   5.662  0.00  0.00    -0.070 N 
ATOM      3  C1  UNL d   1      -5.995  -0.587   5.771  0.00  0.00    -0.004 A 
ATOM      4  C2  UNL d   1      -5.200  -1.694   5.978  0.00  0.00    -0.047 A 
ATOM      5  C3  UNL d   1      -3.856  -1.253   5.993  0.00  0.00    -0.047 A 
ATOM      6  C4  UNL d   1      -3.868   0.112   5.795  0.00  0.00    -0.004 A 
ENDROOT
TORSDOF 0
ENDMDL
