MODEL 1
REMARK minimizedAffinity 4.3961544
REMARK minimizedRMSD -1
REMARK  0 active torsions:
REMARK  status: ('A' for Active; 'I' for Inactive)
ROOT
ATOM      1  C   UNL d   1      -4.894   2.939   5.917  0.00  0.00     0.172 C 
ATOM      2  N   UNL d   1      -5.331   1.699   5.318  0.00  0.00    -0.070 N 
ATOM      3  C1  UNL d   1      -5.621   0.544   5.995  0.00  0.00    -0.004 A 
ATOM      4  C2  UNL d   1      -5.999  -0.404   5.069  0.00  0.00    -0.047 A 
ATOM      5  C3  UNL d   1      -5.934   0.202   3.791  0.00  0.00    -0.047 A 
ATOM      6  C4  UNL d   1      -5.517   1.504   3.975  0.00  0.00    -0.004 A 
ENDROOT
TORSDOF 0
ENDMDL
