MODEL 1
REMARK minimizedAffinity 2.71408367
REMARK minimizedRMSD -1
REMARK  0 active torsions:
REMARK  status: ('A' for Active; 'I' for Inactive)
ROOT
ATOM      1  C   UNL d   1       6.000  -1.871   4.926  0.00  0.00     0.077 C 
ATOM      2  C1  UNL d   1       4.517  -2.094   4.938  0.00  0.00    -0.074 A 
ATOM      3  C2  UNL d   1       3.898  -2.763   5.999  0.00  0.00    -0.005 A 
ATOM      4  C3  UNL d   1       2.517  -2.955   6.000  0.00  0.00     0.006 A 
ATOM      5  C4  UNL d   1       1.741  -2.480   4.942  0.00  0.00    -0.005 A 
ATOM      6  C5  UNL d   1       2.341  -1.808   3.872  0.00  0.00    -0.074 A 
ATOM      7  C6  UNL d   1       1.521  -1.283   2.732  0.00  0.00     0.077 C 
ATOM      8  C7  UNL d   1       3.729  -1.614   3.882  0.00  0.00    -0.001 A 
ENDROOT
TORSDOF 0
ENDMDL
