MODEL 1
REMARK minimizedAffinity -2.00491452
REMARK minimizedRMSD -1
REMARK  0 active torsions:
REMARK  status: ('A' for Active; 'I' for Inactive)
ROOT
ATOM      1  C   UNL d   1       5.999  -2.420   5.998  0.00  0.00     0.077 C 
ATOM      2  C1  UNL d   1       4.712  -2.170   5.269  0.00  0.00    -0.074 A 
ATOM      3  C2  UNL d   1       3.498  -2.648   5.771  0.00  0.00    -0.005 A 
ATOM      4  C3  UNL d   1       2.308  -2.400   5.088  0.00  0.00     0.006 A 
ATOM      5  C4  UNL d   1       2.320  -1.672   3.897  0.00  0.00    -0.005 A 
ATOM      6  C5  UNL d   1       3.525  -1.185   3.380  0.00  0.00    -0.074 A 
ATOM      7  C6  UNL d   1       3.555  -0.393   2.107  0.00  0.00     0.077 C 
ATOM      8  C7  UNL d   1       4.716  -1.433   4.077  0.00  0.00    -0.001 A 
ENDROOT
TORSDOF 0
ENDMDL
