MODEL 1
REMARK minimizedAffinity 13.0770359
REMARK minimizedRMSD -1
REMARK  0 active torsions:
REMARK  status: ('A' for Active; 'I' for Inactive)
ROOT
ATOM      1  C   UNL d   1      -6.000   5.205  -0.700  0.00  0.00     0.077 C 
ATOM      2  C1  UNL d   1      -5.172   4.276   0.137  0.00  0.00    -0.074 A 
ATOM      3  C2  UNL d   1      -3.816   4.073  -0.142  0.00  0.00    -0.005 A 
ATOM      4  C3  UNL d   1      -3.056   3.214   0.652  0.00  0.00     0.006 A 
ATOM      5  C4  UNL d   1      -3.643   2.549   1.729  0.00  0.00    -0.005 A 
ATOM      6  C5  UNL d   1      -4.997   2.740   2.023  0.00  0.00    -0.074 A 
ATOM      7  C6  UNL d   1      -5.641   2.042   3.184  0.00  0.00     0.077 C 
ATOM      8  C7  UNL d   1      -5.752   3.611   1.226  0.00  0.00    -0.001 A 
ENDROOT
TORSDOF 0
ENDMDL
