MODEL 1
REMARK minimizedAffinity 2.22095037
REMARK minimizedRMSD -1
REMARK  0 active torsions:
REMARK  status: ('A' for Active; 'I' for Inactive)
ROOT
ATOM      1  C   UNL d   1       5.982  -1.954   5.240  0.00  0.00     0.077 C 
ATOM      2  C1  UNL d   1       4.592  -2.128   4.704  0.00  0.00    -0.074 A 
ATOM      3  C2  UNL d   1       3.806  -3.220   5.087  0.00  0.00    -0.005 A 
ATOM      4  C3  UNL d   1       2.512  -3.364   4.587  0.00  0.00     0.006 A 
ATOM      5  C4  UNL d   1       1.991  -2.420   3.702  0.00  0.00    -0.005 A 
ATOM      6  C5  UNL d   1       2.762  -1.321   3.309  0.00  0.00    -0.074 A 
ATOM      7  C6  UNL d   1       2.214  -0.291   2.366  0.00  0.00     0.077 C 
ATOM      8  C7  UNL d   1       4.059  -1.179   3.821  0.00  0.00    -0.001 A 
ENDROOT
TORSDOF 0
ENDMDL
