MODEL 1
REMARK minimizedAffinity 4.85946608
REMARK minimizedRMSD -1
REMARK  0 active torsions:
REMARK  status: ('A' for Active; 'I' for Inactive)
ROOT
ATOM      1  C   UNL d   1       5.812  -2.123   4.780  0.00  0.00     0.077 C 
ATOM      2  C1  UNL d   1       4.345  -2.423   4.681  0.00  0.00    -0.074 A 
ATOM      3  C2  UNL d   1       3.415  -1.399   4.473  0.00  0.00    -0.005 A 
ATOM      4  C3  UNL d   1       2.056  -1.693   4.374  0.00  0.00     0.006 A 
ATOM      5  C4  UNL d   1       1.613  -3.012   4.482  0.00  0.00    -0.005 A 
ATOM      6  C5  UNL d   1       2.528  -4.049   4.690  0.00  0.00    -0.074 A 
ATOM      7  C6  UNL d   1       2.070  -5.473   4.799  0.00  0.00     0.077 C 
ATOM      8  C7  UNL d   1       3.893  -3.746   4.781  0.00  0.00    -0.001 A 
ENDROOT
TORSDOF 0
ENDMDL
