MODEL 1
REMARK minimizedAffinity 5.76493454
REMARK minimizedRMSD -1
REMARK  0 active torsions:
REMARK  status: ('A' for Active; 'I' for Inactive)
ROOT
ATOM      1  C   UNL d   1       1.525  -0.315   1.904  0.00  0.00     0.077 C 
ATOM      2  C1  UNL d   1       2.339  -1.133   2.861  0.00  0.00    -0.074 A 
ATOM      3  C2  UNL d   1       1.728  -1.842   3.901  0.00  0.00    -0.005 A 
ATOM      4  C3  UNL d   1       2.497  -2.607   4.778  0.00  0.00     0.006 A 
ATOM      5  C4  UNL d   1       3.882  -2.671   4.624  0.00  0.00    -0.005 A 
ATOM      6  C5  UNL d   1       4.511  -1.970   3.590  0.00  0.00    -0.074 A 
ATOM      7  C6  UNL d   1       5.998  -2.036   3.405  0.00  0.00     0.077 C 
ATOM      8  C7  UNL d   1       3.730  -1.209   2.709  0.00  0.00    -0.001 A 
ENDROOT
TORSDOF 0
ENDMDL
