MODEL 1
REMARK minimizedAffinity -0.0795249194
REMARK minimizedRMSD -1
REMARK  0 active torsions:
REMARK  status: ('A' for Active; 'I' for Inactive)
ROOT
ATOM      1  C   UNL d   1       1.865  -0.989   3.090  0.00  0.00     0.077 C 
ATOM      2  C1  UNL d   1       3.307  -1.359   3.271  0.00  0.00    -0.074 A 
ATOM      3  C2  UNL d   1       4.234  -1.163   2.242  0.00  0.00    -0.005 A 
ATOM      4  C3  UNL d   1       5.574  -1.503   2.428  0.00  0.00     0.006 A 
ATOM      5  C4  UNL d   1       6.000  -2.041   3.643  0.00  0.00    -0.005 A 
ATOM      6  C5  UNL d   1       5.088  -2.243   4.684  0.00  0.00    -0.074 A 
ATOM      7  C6  UNL d   1       5.531  -2.811   6.000  0.00  0.00     0.077 C 
ATOM      8  C7  UNL d   1       3.744  -1.892   4.491  0.00  0.00    -0.001 A 
ENDROOT
TORSDOF 0
ENDMDL
