MODEL 1
REMARK minimizedAffinity 2.2082231
REMARK minimizedRMSD -1
REMARK  0 active torsions:
REMARK  status: ('A' for Active; 'I' for Inactive)
ROOT
ATOM      1  C   UNL d   1       1.730  -1.767   3.870  0.00  0.00     0.077 C 
ATOM      2  C1  UNL d   1       3.215  -1.967   3.798  0.00  0.00    -0.074 A 
ATOM      3  C2  UNL d   1       3.941  -1.561   2.673  0.00  0.00    -0.005 A 
ATOM      4  C3  UNL d   1       5.323  -1.745   2.624  0.00  0.00     0.006 A 
ATOM      5  C4  UNL d   1       5.992  -2.334   3.697  0.00  0.00    -0.005 A 
ATOM      6  C5  UNL d   1       5.283  -2.745   4.831  0.00  0.00    -0.074 A 
ATOM      7  C6  UNL d   1       5.988  -3.372   5.997  0.00  0.00     0.077 C 
ATOM      8  C7  UNL d   1       3.896  -2.551   4.875  0.00  0.00    -0.001 A 
ENDROOT
TORSDOF 0
ENDMDL
