MODEL 1
REMARK minimizedAffinity 8.58711815
REMARK minimizedRMSD -1
REMARK  0 active torsions:
REMARK  status: ('A' for Active; 'I' for Inactive)
ROOT
ATOM      1  C   UNL d   1      -0.767   4.931   1.534  0.00  0.00     0.077 C 
ATOM      2  C1  UNL d   1       0.307   3.897   1.364  0.00  0.00    -0.074 A 
ATOM      3  C2  UNL d   1       0.704   3.477   0.090  0.00  0.00    -0.005 A 
ATOM      4  C3  UNL d   1       1.711   2.522  -0.053  0.00  0.00     0.006 A 
ATOM      5  C4  UNL d   1       2.329   1.979   1.074  0.00  0.00    -0.005 A 
ATOM      6  C5  UNL d   1       1.946   2.387   2.355  0.00  0.00    -0.074 A 
ATOM      7  C6  UNL d   1       2.607   1.821   3.576  0.00  0.00     0.077 C 
ATOM      8  C7  UNL d   1       0.938   3.352   2.491  0.00  0.00    -0.001 A 
ENDROOT
TORSDOF 0
ENDMDL
