MODEL 1
REMARK minimizedAffinity 4.39280653
REMARK minimizedRMSD -1
REMARK  0 active torsions:
REMARK  status: ('A' for Active; 'I' for Inactive)
ROOT
ATOM      1  C   UNL d   1       1.868  -1.142   2.539  0.00  0.00     0.077 C 
ATOM      2  C1  UNL d   1       2.504  -1.762   3.747  0.00  0.00    -0.074 A 
ATOM      3  C2  UNL d   1       1.732  -2.431   4.703  0.00  0.00    -0.005 A 
ATOM      4  C3  UNL d   1       2.339  -3.011   5.817  0.00  0.00     0.006 A 
ATOM      5  C4  UNL d   1       3.722  -2.928   5.986  0.00  0.00    -0.005 A 
ATOM      6  C5  UNL d   1       4.510  -2.264   5.041  0.00  0.00    -0.074 A 
ATOM      7  C6  UNL d   1       5.998  -2.174   5.204  0.00  0.00     0.077 C 
ATOM      8  C7  UNL d   1       3.894  -1.689   3.921  0.00  0.00    -0.001 A 
ENDROOT
TORSDOF 0
ENDMDL
