MODEL 1
REMARK minimizedAffinity -3.13205791
REMARK minimizedRMSD -1
REMARK  0 active torsions:
REMARK  status: ('A' for Active; 'I' for Inactive)
ROOT
ATOM      1  C1  BNZ d   1       1.279  -1.160  -0.839  0.00  0.00     0.000 A 
ATOM      2  C2  BNZ d   1       2.071  -0.087  -0.528  0.00  0.00     0.000 A 
ATOM      3  C3  BNZ d   1       1.548   1.175  -0.468  0.00  0.00     0.000 A 
ATOM      4  C4  BNZ d   1       0.245   1.367  -0.757  0.00  0.00     0.000 A 
ATOM      5  C5  BNZ d   1      -0.564   0.296  -1.082  0.00  0.00     0.000 A 
ATOM      6  C6  BNZ d   1      -0.043  -0.977  -1.104  0.00  0.00     0.000 A 
ENDROOT
TORSDOF 0
ENDMDL
