MODEL 1
REMARK minimizedAffinity 0.246103331
REMARK minimizedRMSD -1
REMARK  0 active torsions:
REMARK  status: ('A' for Active; 'I' for Inactive)
ROOT
ATOM      1  C1  BNZ d   1      -3.126   5.995  -4.228  0.00  0.00     0.000 A 
ATOM      2  C2  BNZ d   1      -4.402   5.989  -3.732  0.00  0.00     0.000 A 
ATOM      3  C3  BNZ d   1      -4.629   5.999  -2.384  0.00  0.00     0.000 A 
ATOM      4  C4  BNZ d   1      -3.582   5.974  -1.535  0.00  0.00     0.000 A 
ATOM      5  C5  BNZ d   1      -2.289   5.970  -2.020  0.00  0.00     0.000 A 
ATOM      6  C6  BNZ d   1      -2.064   6.000  -3.377  0.00  0.00     0.000 A 
ENDROOT
TORSDOF 0
ENDMDL
