MODEL 1
REMARK minimizedAffinity 0.817158043
REMARK minimizedRMSD -1
REMARK  0 active torsions:
REMARK  status: ('A' for Active; 'I' for Inactive)
ROOT
ATOM      1  C1  BNZ d   1       1.202   2.139  -0.287  0.00  0.00     0.000 A 
ATOM      2  C2  BNZ d   1       1.213   1.928   1.066  0.00  0.00     0.000 A 
ATOM      3  C3  BNZ d   1       0.785   0.742   1.593  0.00  0.00     0.000 A 
ATOM      4  C4  BNZ d   1       0.310  -0.216   0.771  0.00  0.00     0.000 A 
ATOM      5  C5  BNZ d   1       0.283  -0.015  -0.594  0.00  0.00     0.000 A 
ATOM      6  C6  BNZ d   1       0.751   1.165  -1.124  0.00  0.00     0.000 A 
ENDROOT
TORSDOF 0
ENDMDL
