MODEL 1
REMARK minimizedAffinity 2.36393976
REMARK minimizedRMSD -1
REMARK  0 active torsions:
REMARK  status: ('A' for Active; 'I' for Inactive)
ROOT
ATOM      1  C1  BNZ d   1       1.936   1.427   0.756  0.00  0.00     0.000 A 
ATOM      2  C2  BNZ d   1       1.651   1.644  -0.565  0.00  0.00     0.000 A 
ATOM      3  C3  BNZ d   1       0.867   0.769  -1.265  0.00  0.00     0.000 A 
ATOM      4  C4  BNZ d   1       0.405  -0.341  -0.655  0.00  0.00     0.000 A 
ATOM      5  C5  BNZ d   1       0.692  -0.579   0.675  0.00  0.00     0.000 A 
ATOM      6  C6  BNZ d   1       1.448   0.324   1.386  0.00  0.00     0.000 A 
ENDROOT
TORSDOF 0
ENDMDL
