MODEL 1
REMARK minimizedAffinity -0.103944384
REMARK minimizedRMSD -1
REMARK  0 active torsions:
REMARK  status: ('A' for Active; 'I' for Inactive)
ROOT
ATOM      1  C1  BNZ d   1       0.602   1.012  -0.846  0.00  0.00     0.000 A 
ATOM      2  C2  BNZ d   1       1.429   1.927  -0.250  0.00  0.00     0.000 A 
ATOM      3  C3  BNZ d   1       1.767   1.809   1.069  0.00  0.00     0.000 A 
ATOM      4  C4  BNZ d   1       1.247   0.802   1.799  0.00  0.00     0.000 A 
ATOM      5  C5  BNZ d   1       0.404  -0.123   1.215  0.00  0.00     0.000 A 
ATOM      6  C6  BNZ d   1       0.097  -0.024  -0.122  0.00  0.00     0.000 A 
ENDROOT
TORSDOF 0
ENDMDL
