MODEL 1
REMARK minimizedAffinity -1.52541113
REMARK minimizedRMSD -1
REMARK  0 active torsions:
REMARK  status: ('A' for Active; 'I' for Inactive)
ROOT
ATOM      1  C1  BNZ d   1       0.673   5.993  -3.514  0.00  0.00     0.000 A 
ATOM      2  C2  BNZ d   1       2.034   5.984  -3.666  0.00  0.00     0.000 A 
ATOM      3  C3  BNZ d   1       2.599   5.986  -4.911  0.00  0.00     0.000 A 
ATOM      4  C4  BNZ d   1       1.805   5.956  -6.000  0.00  0.00     0.000 A 
ATOM      5  C5  BNZ d   1       0.431   5.955  -5.863  0.00  0.00     0.000 A 
ATOM      6  C6  BNZ d   1      -0.135   5.993  -4.609  0.00  0.00     0.000 A 
ENDROOT
TORSDOF 0
ENDMDL
