MODEL 1
REMARK minimizedAffinity -3.39877939
REMARK minimizedRMSD -1
REMARK  0 active torsions:
REMARK  status: ('A' for Active; 'I' for Inactive)
ROOT
ATOM      1  C1  BNZ d   1       1.502   2.580   0.954  0.00  0.00     0.000 A 
ATOM      2  C2  BNZ d   1       2.853   2.428   0.795  0.00  0.00     0.000 A 
ATOM      3  C3  BNZ d   1       3.565   1.593   1.611  0.00  0.00     0.000 A 
ATOM      4  C4  BNZ d   1       2.931   0.944   2.609  0.00  0.00     0.000 A 
ATOM      5  C5  BNZ d   1       1.571   1.093   2.788  0.00  0.00     0.000 A 
ATOM      6  C6  BNZ d   1       0.851   1.904   1.940  0.00  0.00     0.000 A 
ENDROOT
TORSDOF 0
ENDMDL
