MODEL 1
REMARK minimizedAffinity -3.11294866
REMARK minimizedRMSD -1
REMARK  0 active torsions:
REMARK  status: ('A' for Active; 'I' for Inactive)
ROOT
ATOM      1  C1  BNZ d   1      -2.289   5.996  -3.844  0.00  0.00     0.000 A 
ATOM      2  C2  BNZ d   1      -1.348   5.996  -4.839  0.00  0.00     0.000 A 
ATOM      3  C3  BNZ d   1      -0.014   5.957  -4.541  0.00  0.00     0.000 A 
ATOM      4  C4  BNZ d   1       0.377   5.957  -3.250  0.00  0.00     0.000 A 
ATOM      5  C5  BNZ d   1      -0.560   5.967  -2.236  0.00  0.00     0.000 A 
ATOM      6  C6  BNZ d   1      -1.902   5.967  -2.540  0.00  0.00     0.000 A 
ENDROOT
TORSDOF 0
ENDMDL
