MODEL 1
REMARK minimizedAffinity -3.04021502
REMARK minimizedRMSD -1
REMARK  0 active torsions:
REMARK  status: ('A' for Active; 'I' for Inactive)
ROOT
ATOM      1  C1  BNZ d   1       1.402   5.974  -5.845  0.00  0.00     0.000 A 
ATOM      2  C2  BNZ d   1       0.041   5.935  -5.994  0.00  0.00     0.000 A 
ATOM      3  C3  BNZ d   1      -0.783   5.933  -4.904  0.00  0.00     0.000 A 
ATOM      4  C4  BNZ d   1      -0.245   5.928  -3.667  0.00  0.00     0.000 A 
ATOM      5  C5  BNZ d   1       1.125   5.957  -3.500  0.00  0.00     0.000 A 
ATOM      6  C6  BNZ d   1       1.950   5.999  -4.600  0.00  0.00     0.000 A 
ENDROOT
TORSDOF 0
ENDMDL
