MODEL 1
REMARK minimizedAffinity -2.02674603
REMARK minimizedRMSD -1
REMARK  0 active torsions:
REMARK  status: ('A' for Active; 'I' for Inactive)
ROOT
ATOM      1  C1  BNZ d   1       3.650   5.652  -4.877  0.00  0.00     0.000 A 
ATOM      2  C2  BNZ d   1       2.973   5.280  -3.747  0.00  0.00     0.000 A 
ATOM      3  C3  BNZ d   1       1.607   5.241  -3.730  0.00  0.00     0.000 A 
ATOM      4  C4  BNZ d   1       0.920   5.612  -4.829  0.00  0.00     0.000 A 
ATOM      5  C5  BNZ d   1       1.587   5.998  -5.974  0.00  0.00     0.000 A 
ATOM      6  C6  BNZ d   1       2.963   5.999  -6.000  0.00  0.00     0.000 A 
ENDROOT
TORSDOF 0
ENDMDL
