MODEL 1
REMARK minimizedAffinity -0.432461113
REMARK minimizedRMSD -1
REMARK  0 active torsions:
REMARK  status: ('A' for Active; 'I' for Inactive)
ROOT
ATOM      1  C1  BNZ d   1       1.640   1.678   1.533  0.00  0.00     0.000 A 
ATOM      2  C2  BNZ d   1       1.850   2.328   0.346  0.00  0.00     0.000 A 
ATOM      3  C3  BNZ d   1       1.392   1.803  -0.830  0.00  0.00     0.000 A 
ATOM      4  C4  BNZ d   1       0.762   0.611  -0.823  0.00  0.00     0.000 A 
ATOM      5  C5  BNZ d   1       0.551  -0.062   0.365  0.00  0.00     0.000 A 
ATOM      6  C6  BNZ d   1       0.979   0.489   1.551  0.00  0.00     0.000 A 
ENDROOT
TORSDOF 0
ENDMDL
