MODEL 1
REMARK minimizedAffinity -0.530864418
REMARK minimizedRMSD -1
REMARK  0 active torsions:
REMARK  status: ('A' for Active; 'I' for Inactive)
ROOT
ATOM      1  C1  BNZ d   1      -5.431   5.995  -2.816  0.00  0.00     0.000 A 
ATOM      2  C2  BNZ d   1      -4.603   5.995  -3.906  0.00  0.00     0.000 A 
ATOM      3  C3  BNZ d   1      -3.244   5.972  -3.753  0.00  0.00     0.000 A 
ATOM      4  C4  BNZ d   1      -2.717   5.990  -2.512  0.00  0.00     0.000 A 
ATOM      5  C5  BNZ d   1      -3.539   6.000  -1.403  0.00  0.00     0.000 A 
ATOM      6  C6  BNZ d   1      -4.905   5.984  -1.561  0.00  0.00     0.000 A 
ENDROOT
TORSDOF 0
ENDMDL
