MODEL 1
REMARK minimizedAffinity -0.711498499
REMARK minimizedRMSD -1
REMARK  0 active torsions:
REMARK  status: ('A' for Active; 'I' for Inactive)
ROOT
ATOM      1  C1  BNZ d   1      -1.784   5.992  -3.291  0.00  0.00     0.000 A 
ATOM      2  C2  BNZ d   1      -0.886   5.997  -4.325  0.00  0.00     0.000 A 
ATOM      3  C3  BNZ d   1       0.459   5.979  -4.085  0.00  0.00     0.000 A 
ATOM      4  C4  BNZ d   1       0.905   5.995  -2.812  0.00  0.00     0.000 A 
ATOM      5  C5  BNZ d   1       0.012   6.000  -1.758  0.00  0.00     0.000 A 
ATOM      6  C6  BNZ d   1      -1.341   5.979  -2.005  0.00  0.00     0.000 A 
ENDROOT
TORSDOF 0
ENDMDL
