MODEL 1
REMARK minimizedAffinity 9.44037724
REMARK minimizedRMSD -1
REMARK  1 active torsions:
REMARK  status: ('A' for Active; 'I' for Inactive)
REMARK    1  A    between atoms: C1_2  and  C2_3 
ROOT
ATOM      1  C2  UNL d   1      -4.377   0.448   3.816  0.00  0.00    -0.076 A 
ATOM      2  C3  UNL d   1      -4.870  -0.550   2.957  0.00  0.00     0.004 A 
ATOM      3  C4  UNL d   1      -4.724  -1.900   3.267  0.00  0.00    -0.003 A 
ATOM      4  C5  UNL d   1      -4.082  -2.276   4.443  0.00  0.00     0.000 A 
ATOM      5  C6  UNL d   1      -3.603  -1.300   5.315  0.00  0.00     0.000 A 
ATOM      6  C7  UNL d   1      -3.756   0.067   5.025  0.00  0.00    -0.073 A 
ATOM      7  C8  UNL d   1      -3.214   1.077   5.999  0.00  0.00     0.078 C 
ENDROOT
BRANCH   1   8
ATOM      8  C1  UNL d   1      -4.540   1.896   3.414  0.00  0.00     0.053 C 
ATOM      9  C   UNL d   1      -5.684   2.579   4.148  0.00  0.00     0.018 C 
ENDBRANCH   1   8
TORSDOF 1
ENDMDL
