MODEL 1
REMARK minimizedAffinity 11.6351461
REMARK minimizedRMSD -1
REMARK  1 active torsions:
REMARK  status: ('A' for Active; 'I' for Inactive)
REMARK    1  A    between atoms: C1_2  and  C2_3 
ROOT
ATOM      1  C2  UNL d   1      -1.655   1.156   2.883  0.00  0.00    -0.076 A 
ATOM      2  C3  UNL d   1      -2.927   1.553   3.332  0.00  0.00     0.004 A 
ATOM      3  C4  UNL d   1      -4.001   0.664   3.322  0.00  0.00    -0.003 A 
ATOM      4  C5  UNL d   1      -3.820  -0.637   2.864  0.00  0.00     0.000 A 
ATOM      5  C6  UNL d   1      -2.561  -1.053   2.432  0.00  0.00     0.000 A 
ATOM      6  C7  UNL d   1      -1.464  -0.174   2.451  0.00  0.00    -0.073 A 
ATOM      7  C8  UNL d   1      -0.130  -0.673   1.968  0.00  0.00     0.078 C 
ENDROOT
BRANCH   1   8
ATOM      8  C1  UNL d   1      -0.535   2.172   2.892  0.00  0.00     0.053 C 
ATOM      9  C   UNL d   1       0.693   1.678   3.640  0.00  0.00     0.018 C 
ENDBRANCH   1   8
TORSDOF 1
ENDMDL
