MODEL 1
REMARK minimizedAffinity 11.9289608
REMARK minimizedRMSD -1
REMARK  1 active torsions:
REMARK  status: ('A' for Active; 'I' for Inactive)
REMARK    1  A    between atoms: C1_2  and  C2_3 
ROOT
ATOM      1  C2  UNL d   1       2.961   0.267  -1.122  0.00  0.00    -0.076 A 
ATOM      2  C3  UNL d   1       1.970  -0.714  -1.294  0.00  0.00     0.004 A 
ATOM      3  C4  UNL d   1       2.124  -1.992  -0.758  0.00  0.00    -0.003 A 
ATOM      4  C5  UNL d   1       3.272  -2.308  -0.041  0.00  0.00     0.000 A 
ATOM      5  C6  UNL d   1       4.258  -1.341   0.155  0.00  0.00     0.000 A 
ATOM      6  C7  UNL d   1       4.111  -0.044  -0.365  0.00  0.00    -0.073 A 
ATOM      7  C8  UNL d   1       5.208   0.957  -0.129  0.00  0.00     0.078 C 
ENDROOT
BRANCH   1   8
ATOM      8  C1  UNL d   1       2.751   1.627  -1.750  0.00  0.00     0.053 C 
ATOM      9  C   UNL d   1       1.937   1.557  -3.032  0.00  0.00     0.018 C 
ENDBRANCH   1   8
TORSDOF 1
ENDMDL
