MODEL 1
REMARK minimizedAffinity 5.14580345
REMARK minimizedRMSD -1
REMARK  1 active torsions:
REMARK  status: ('A' for Active; 'I' for Inactive)
REMARK    1  A    between atoms: C1_2  and  C2_3 
ROOT
ATOM      1  C2  UNL d   1       1.854  -2.234  -1.988  0.00  0.00    -0.076 A 
ATOM      2  C3  UNL d   1       1.805  -0.958  -2.576  0.00  0.00     0.004 A 
ATOM      3  C4  UNL d   1       2.396   0.141  -1.955  0.00  0.00    -0.003 A 
ATOM      4  C5  UNL d   1       3.046  -0.018  -0.736  0.00  0.00     0.000 A 
ATOM      5  C6  UNL d   1       3.119  -1.279  -0.147  0.00  0.00     0.000 A 
ATOM      6  C7  UNL d   1       2.543  -2.401  -0.767  0.00  0.00    -0.073 A 
ATOM      7  C8  UNL d   1       2.647  -3.737  -0.084  0.00  0.00     0.078 C 
ENDROOT
BRANCH   1   8
ATOM      8  C1  UNL d   1       1.172  -3.384  -2.694  0.00  0.00     0.053 C 
ATOM      9  C   UNL d   1      -0.345  -3.279  -2.647  0.00  0.00     0.018 C 
ENDBRANCH   1   8
TORSDOF 1
ENDMDL
