MODEL 1
REMARK minimizedAffinity 5.08656788
REMARK minimizedRMSD -1
REMARK  1 active torsions:
REMARK  status: ('A' for Active; 'I' for Inactive)
REMARK    1  A    between atoms: C1_2  and  C2_3 
ROOT
ATOM      1  C2  UNL d   1       2.234  -2.290  -2.587  0.00  0.00    -0.076 A 
ATOM      2  C3  UNL d   1       2.419  -0.923  -2.858  0.00  0.00     0.004 A 
ATOM      3  C4  UNL d   1       2.351   0.026  -1.839  0.00  0.00    -0.003 A 
ATOM      4  C5  UNL d   1       2.097  -0.377  -0.532  0.00  0.00     0.000 A 
ATOM      5  C6  UNL d   1       1.929  -1.731  -0.243  0.00  0.00     0.000 A 
ATOM      6  C7  UNL d   1       2.010  -2.702  -1.256  0.00  0.00    -0.073 A 
ATOM      7  C8  UNL d   1       1.814  -4.147  -0.888  0.00  0.00     0.078 C 
ENDROOT
BRANCH   1   8
ATOM      8  C1  UNL d   1       2.292  -3.270  -3.737  0.00  0.00     0.053 C 
ATOM      9  C   UNL d   1       3.683  -3.375  -4.344  0.00  0.00     0.018 C 
ENDBRANCH   1   8
TORSDOF 1
ENDMDL
