MODEL 1
REMARK minimizedAffinity 3.58517718
REMARK minimizedRMSD -1
REMARK  1 active torsions:
REMARK  status: ('A' for Active; 'I' for Inactive)
REMARK    1  A    between atoms: C1_2  and  C2_3 
ROOT
ATOM      1  C2  UNL d   1       2.667  -3.211  -1.952  0.00  0.00    -0.076 A 
ATOM      2  C3  UNL d   1       2.334  -3.765  -0.703  0.00  0.00     0.004 A 
ATOM      3  C4  UNL d   1       2.667  -5.082  -0.391  0.00  0.00    -0.003 A 
ATOM      4  C5  UNL d   1       3.337  -5.867  -1.323  0.00  0.00     0.000 A 
ATOM      5  C6  UNL d   1       3.691  -5.328  -2.559  0.00  0.00     0.000 A 
ATOM      6  C7  UNL d   1       3.378  -3.997  -2.884  0.00  0.00    -0.073 A 
ATOM      7  C8  UNL d   1       3.777  -3.470  -4.235  0.00  0.00     0.078 C 
ENDROOT
BRANCH   1   8
ATOM      8  C1  UNL d   1       2.256  -1.785  -2.244  0.00  0.00     0.053 C 
ATOM      9  C   UNL d   1       2.596  -0.836  -1.106  0.00  0.00     0.018 C 
ENDBRANCH   1   8
TORSDOF 1
ENDMDL
