MODEL 1
REMARK minimizedAffinity 7.3472476
REMARK minimizedRMSD -1
REMARK  1 active torsions:
REMARK  status: ('A' for Active; 'I' for Inactive)
REMARK    1  A    between atoms: C1_2  and  C2_3 
ROOT
ATOM      1  C2  UNL d   1       2.877  -0.254  -1.051  0.00  0.00    -0.076 A 
ATOM      2  C3  UNL d   1       3.215  -1.320  -0.199  0.00  0.00     0.004 A 
ATOM      3  C4  UNL d   1       2.738  -2.608  -0.438  0.00  0.00    -0.003 A 
ATOM      4  C5  UNL d   1       1.916  -2.851  -1.533  0.00  0.00     0.000 A 
ATOM      5  C6  UNL d   1       1.584  -1.808  -2.398  0.00  0.00     0.000 A 
ATOM      6  C7  UNL d   1       2.070  -0.507  -2.180  0.00  0.00    -0.073 A 
ATOM      7  C8  UNL d   1       1.675   0.580  -3.142  0.00  0.00     0.078 C 
ENDROOT
BRANCH   1   8
ATOM      8  C1  UNL d   1       3.401   1.127  -0.726  0.00  0.00     0.053 C 
ATOM      9  C   UNL d   1       4.457   1.106   0.368  0.00  0.00     0.018 C 
ENDBRANCH   1   8
TORSDOF 1
ENDMDL
