MODEL 1
REMARK minimizedAffinity 8.88032246
REMARK minimizedRMSD -1
REMARK  1 active torsions:
REMARK  status: ('A' for Active; 'I' for Inactive)
REMARK    1  A    between atoms: C1_2  and  C2_3 
ROOT
ATOM      1  C2  UNL d   1       2.003  -2.398  -2.479  0.00  0.00    -0.076 A 
ATOM      2  C3  UNL d   1       1.836  -1.146  -3.097  0.00  0.00     0.004 A 
ATOM      3  C4  UNL d   1       2.100   0.036  -2.406  0.00  0.00    -0.003 A 
ATOM      4  C5  UNL d   1       2.537  -0.015  -1.087  0.00  0.00     0.000 A 
ATOM      5  C6  UNL d   1       2.725  -1.249  -0.465  0.00  0.00     0.000 A 
ATOM      6  C7  UNL d   1       2.479  -2.450  -1.152  0.00  0.00    -0.073 A 
ATOM      7  C8  UNL d   1       2.693  -3.752  -0.429  0.00  0.00     0.078 C 
ENDROOT
BRANCH   1   8
ATOM      8  C1  UNL d   1       1.675  -3.645  -3.269  0.00  0.00     0.053 C 
ATOM      9  C   UNL d   1       0.238  -3.658  -3.766  0.00  0.00     0.018 C 
ENDBRANCH   1   8
TORSDOF 1
ENDMDL
