MODEL 1
REMARK minimizedAffinity 6.47268581
REMARK minimizedRMSD -1
REMARK  1 active torsions:
REMARK  status: ('A' for Active; 'I' for Inactive)
REMARK    1  A    between atoms: C1_2  and  C2_3 
ROOT
ATOM      1  C2  UNL d   1       1.875  -2.207  -2.269  0.00  0.00    -0.076 A 
ATOM      2  C3  UNL d   1       1.550  -0.945  -2.797  0.00  0.00     0.004 A 
ATOM      3  C4  UNL d   1       1.663   0.208  -2.022  0.00  0.00    -0.003 A 
ATOM      4  C5  UNL d   1       2.103   0.117  -0.706  0.00  0.00     0.000 A 
ATOM      5  C6  UNL d   1       2.447  -1.124  -0.172  0.00  0.00     0.000 A 
ATOM      6  C7  UNL d   1       2.355  -2.294  -0.945  0.00  0.00    -0.073 A 
ATOM      7  C8  UNL d   1       2.733  -3.607  -0.316  0.00  0.00     0.078 C 
ENDROOT
BRANCH   1   8
ATOM      8  C1  UNL d   1       1.707  -3.425  -3.149  0.00  0.00     0.053 C 
ATOM      9  C   UNL d   1       2.804  -3.544  -4.196  0.00  0.00     0.018 C 
ENDBRANCH   1   8
TORSDOF 1
ENDMDL
