MODEL 1
REMARK minimizedAffinity 2.45137358
REMARK minimizedRMSD -1
REMARK  2 active torsions:
REMARK  status: ('A' for Active; 'I' for Inactive)
REMARK    1  A    between atoms: C1_2  and  C2_3 
REMARK    2  A    between atoms: C2_3  and  C3_4 
ROOT
ATOM      1  C3  UNL d   1       4.685   3.747   2.107  0.00  0.00    -0.075 A 
ATOM      2  C4  UNL d   1       3.842   3.532   1.007  0.00  0.00     0.002 A 
ATOM      3  C5  UNL d   1       3.694   4.513   0.026  0.00  0.00     0.002 A 
ATOM      4  C6  UNL d   1       4.376   5.722   0.137  0.00  0.00    -0.004 A 
ATOM      5  C7  UNL d   1       5.203   5.953   1.234  0.00  0.00     0.002 A 
ATOM      6  C8  UNL d   1       5.357   4.972   2.215  0.00  0.00     0.002 A 
ENDROOT
BRANCH   1   7
ATOM      7  C2  UNL d   1       4.873   2.678   3.157  0.00  0.00     0.056 C 
BRANCH   7   8
ATOM      8  C1  UNL d   1       5.998   2.975   4.155  0.00  0.00     0.007 C 
ATOM      9  C   UNL d   1       5.975   4.405   4.678  0.00  0.00     0.009 C 
ENDBRANCH   7   8
ENDBRANCH   1   7
TORSDOF 2
ENDMDL
