MODEL 1
REMARK minimizedAffinity 14.1477661
REMARK minimizedRMSD -1
REMARK  2 active torsions:
REMARK  status: ('A' for Active; 'I' for Inactive)
REMARK    1  A    between atoms: C1_2  and  C2_3 
REMARK    2  A    between atoms: C2_3  and  C3_4 
ROOT
ATOM      1  C3  UNL d   1      -1.151  -3.244  -3.837  0.00  0.00    -0.075 A 
ATOM      2  C4  UNL d   1      -1.083  -3.719  -5.155  0.00  0.00     0.002 A 
ATOM      3  C5  UNL d   1      -1.028  -5.089  -5.412  0.00  0.00     0.002 A 
ATOM      4  C6  UNL d   1      -1.029  -6.000  -4.358  0.00  0.00    -0.004 A 
ATOM      5  C7  UNL d   1      -1.080  -5.539  -3.045  0.00  0.00     0.002 A 
ATOM      6  C8  UNL d   1      -1.140  -4.169  -2.784  0.00  0.00     0.002 A 
ENDROOT
BRANCH   1   7
ATOM      7  C2  UNL d   1      -1.242  -1.764  -3.552  0.00  0.00     0.056 C 
BRANCH   7   8
ATOM      8  C1  UNL d   1      -0.012  -0.967  -3.999  0.00  0.00     0.007 C 
ATOM      9  C   UNL d   1       0.023  -0.708  -5.500  0.00  0.00     0.009 C 
ENDBRANCH   7   8
ENDBRANCH   1   7
TORSDOF 2
ENDMDL
