MODEL 1
REMARK minimizedAffinity -4.89035606
REMARK minimizedRMSD -1
REMARK  2 active torsions:
REMARK  status: ('A' for Active; 'I' for Inactive)
REMARK    1  A    between atoms: C1_2  and  C2_3 
REMARK    2  A    between atoms: C2_3  and  C3_4 
ROOT
ATOM      1  C3  UNL d   1       1.127   1.079  -0.843  0.00  0.00    -0.075 A 
ATOM      2  C4  UNL d   1       1.851  -0.119  -0.755  0.00  0.00     0.002 A 
ATOM      3  C5  UNL d   1       1.374  -1.180   0.015  0.00  0.00     0.002 A 
ATOM      4  C6  UNL d   1       0.175  -1.054   0.714  0.00  0.00    -0.004 A 
ATOM      5  C7  UNL d   1      -0.544   0.138   0.647  0.00  0.00     0.002 A 
ATOM      6  C8  UNL d   1      -0.071   1.199  -0.126  0.00  0.00     0.002 A 
ENDROOT
BRANCH   1   7
ATOM      7  C2  UNL d   1       1.623   2.221  -1.698  0.00  0.00     0.056 C 
BRANCH   7   8
ATOM      8  C1  UNL d   1       0.765   2.488  -2.940  0.00  0.00     0.007 C 
ATOM      9  C   UNL d   1       1.329   1.857  -4.206  0.00  0.00     0.009 C 
ENDBRANCH   7   8
ENDBRANCH   1   7
TORSDOF 2
ENDMDL
