MODEL 1
REMARK minimizedAffinity -5.26248646
REMARK minimizedRMSD -1
REMARK  2 active torsions:
REMARK  status: ('A' for Active; 'I' for Inactive)
REMARK    1  A    between atoms: C1_2  and  C2_3 
REMARK    2  A    between atoms: C2_3  and  C3_4 
ROOT
ATOM      1  C3  UNL d   1       0.157  -0.365   0.435  0.00  0.00    -0.075 A 
ATOM      2  C4  UNL d   1       1.153   0.590   0.185  0.00  0.00     0.002 A 
ATOM      3  C5  UNL d   1       0.891   1.949   0.359  0.00  0.00     0.002 A 
ATOM      4  C6  UNL d   1      -0.370   2.371   0.775  0.00  0.00    -0.004 A 
ATOM      5  C7  UNL d   1      -1.372   1.432   1.011  0.00  0.00     0.002 A 
ATOM      6  C8  UNL d   1      -1.112   0.071   0.841  0.00  0.00     0.002 A 
ENDROOT
BRANCH   1   7
ATOM      7  C2  UNL d   1       0.442  -1.839   0.277  0.00  0.00     0.056 C 
BRANCH   7   8
ATOM      8  C1  UNL d   1       1.404  -2.404   1.327  0.00  0.00     0.007 C 
ATOM      9  C   UNL d   1       2.616  -3.098   0.720  0.00  0.00     0.009 C 
ENDBRANCH   7   8
ENDBRANCH   1   7
TORSDOF 2
ENDMDL
