MODEL 1
REMARK minimizedAffinity -2.66786337
REMARK minimizedRMSD -1
REMARK  2 active torsions:
REMARK  status: ('A' for Active; 'I' for Inactive)
REMARK    1  A    between atoms: C1_2  and  C2_3 
REMARK    2  A    between atoms: C2_3  and  C3_4 
ROOT
ATOM      1  C3  UNL d   1       0.130  -0.523   0.056  0.00  0.00    -0.075 A 
ATOM      2  C4  UNL d   1      -1.070  -1.060   0.544  0.00  0.00     0.002 A 
ATOM      3  C5  UNL d   1      -1.056  -2.031   1.546  0.00  0.00     0.002 A 
ATOM      4  C6  UNL d   1       0.155  -2.483   2.065  0.00  0.00    -0.004 A 
ATOM      5  C7  UNL d   1       1.354  -1.968   1.576  0.00  0.00     0.002 A 
ATOM      6  C8  UNL d   1       1.343  -0.994   0.577  0.00  0.00     0.002 A 
ENDROOT
BRANCH   1   7
ATOM      7  C2  UNL d   1       0.120   0.550  -1.007  0.00  0.00     0.056 C 
BRANCH   7   8
ATOM      8  C1  UNL d   1       1.503   1.133  -1.317  0.00  0.00     0.007 C 
ATOM      9  C   UNL d   1       1.580   1.801  -2.683  0.00  0.00     0.009 C 
ENDBRANCH   7   8
ENDBRANCH   1   7
TORSDOF 2
ENDMDL
