MODEL 1
REMARK minimizedAffinity -2.69409275
REMARK minimizedRMSD -1
REMARK  2 active torsions:
REMARK  status: ('A' for Active; 'I' for Inactive)
REMARK    1  A    between atoms: C1_2  and  C2_3 
REMARK    2  A    between atoms: C2_3  and  C3_4 
ROOT
ATOM      1  C3  UNL d   1      -1.715  -0.820   0.184  0.00  0.00    -0.075 A 
ATOM      2  C4  UNL d   1      -0.563  -0.465  -0.532  0.00  0.00     0.002 A 
ATOM      3  C5  UNL d   1      -0.201   0.875  -0.672  0.00  0.00     0.002 A 
ATOM      4  C6  UNL d   1      -0.989   1.875  -0.107  0.00  0.00    -0.004 A 
ATOM      5  C7  UNL d   1      -2.145   1.535   0.593  0.00  0.00     0.002 A 
ATOM      6  C8  UNL d   1      -2.507   0.194   0.738  0.00  0.00     0.002 A 
ENDROOT
BRANCH   1   7
ATOM      7  C2  UNL d   1      -2.097  -2.270   0.363  0.00  0.00     0.056 C 
BRANCH   7   8
ATOM      8  C1  UNL d   1      -1.946  -2.782   1.800  0.00  0.00     0.007 C 
ATOM      9  C   UNL d   1      -0.596  -2.444   2.418  0.00  0.00     0.009 C 
ENDBRANCH   7   8
ENDBRANCH   1   7
TORSDOF 2
ENDMDL
