MODEL 1
REMARK minimizedAffinity 0.882514417
REMARK minimizedRMSD -1
REMARK  2 active torsions:
REMARK  status: ('A' for Active; 'I' for Inactive)
REMARK    1  A    between atoms: C1_2  and  C2_3 
REMARK    2  A    between atoms: C2_3  and  C3_4 
ROOT
ATOM      1  C3  UNL d   1       0.147   0.950  -1.198  0.00  0.00    -0.075 A 
ATOM      2  C4  UNL d   1       0.447   2.148  -1.861  0.00  0.00     0.002 A 
ATOM      3  C5  UNL d   1       0.411   2.215  -3.254  0.00  0.00     0.002 A 
ATOM      4  C6  UNL d   1       0.086   1.084  -4.001  0.00  0.00    -0.004 A 
ATOM      5  C7  UNL d   1      -0.198  -0.116  -3.353  0.00  0.00     0.002 A 
ATOM      6  C8  UNL d   1      -0.167  -0.184  -1.959  0.00  0.00     0.002 A 
ENDROOT
BRANCH   1   7
ATOM      7  C2  UNL d   1       0.155   0.878   0.310  0.00  0.00     0.056 C 
BRANCH   7   8
ATOM      8  C1  UNL d   1      -1.149   0.350   0.917  0.00  0.00     0.007 C 
ATOM      9  C   UNL d   1      -1.112  -1.144   1.210  0.00  0.00     0.009 C 
ENDBRANCH   7   8
ENDBRANCH   1   7
TORSDOF 2
ENDMDL
