MODEL 1
REMARK minimizedAffinity -1.99878716
REMARK minimizedRMSD -1
REMARK  2 active torsions:
REMARK  status: ('A' for Active; 'I' for Inactive)
REMARK    1  A    between atoms: C1_2  and  C2_3 
REMARK    2  A    between atoms: C2_3  and  C3_4 
ROOT
ATOM      1  C3  UNL d   1       0.079  -1.692   1.475  0.00  0.00    -0.075 A 
ATOM      2  C4  UNL d   1      -1.009  -1.782   2.355  0.00  0.00     0.002 A 
ATOM      3  C5  UNL d   1      -1.849  -0.686   2.556  0.00  0.00     0.002 A 
ATOM      4  C6  UNL d   1      -1.607   0.513   1.889  0.00  0.00    -0.004 A 
ATOM      5  C7  UNL d   1      -0.519   0.618   1.025  0.00  0.00     0.002 A 
ATOM      6  C8  UNL d   1       0.321  -0.478   0.819  0.00  0.00     0.002 A 
ENDROOT
BRANCH   1   7
ATOM      7  C2  UNL d   1       0.975  -2.883   1.230  0.00  0.00     0.056 C 
BRANCH   7   8
ATOM      8  C1  UNL d   1       2.251  -2.554   0.449  0.00  0.00     0.007 C 
ATOM      9  C   UNL d   1       3.095  -3.781   0.133  0.00  0.00     0.009 C 
ENDBRANCH   7   8
ENDBRANCH   1   7
TORSDOF 2
ENDMDL
