MODEL 1
REMARK minimizedAffinity -4.34450769
REMARK minimizedRMSD -1
REMARK  2 active torsions:
REMARK  status: ('A' for Active; 'I' for Inactive)
REMARK    1  A    between atoms: C1_2  and  C2_3 
REMARK    2  A    between atoms: C2_3  and  C3_4 
ROOT
ATOM      1  C3  UNL d   1      -0.315  -0.737   0.384  0.00  0.00    -0.075 A 
ATOM      2  C4  UNL d   1      -1.480  -0.166   0.917  0.00  0.00     0.002 A 
ATOM      3  C5  UNL d   1      -2.246  -0.863   1.851  0.00  0.00     0.002 A 
ATOM      4  C6  UNL d   1      -1.865  -2.140   2.256  0.00  0.00    -0.004 A 
ATOM      5  C7  UNL d   1      -0.719  -2.724   1.721  0.00  0.00     0.002 A 
ATOM      6  C8  UNL d   1       0.053  -2.027   0.789  0.00  0.00     0.002 A 
ENDROOT
BRANCH   1   7
ATOM      7  C2  UNL d   1       0.535   0.024  -0.605  0.00  0.00     0.056 C 
BRANCH   7   8
ATOM      8  C1  UNL d   1       0.378   1.546  -0.522  0.00  0.00     0.007 C 
ATOM      9  C   UNL d   1       1.125   2.288  -1.622  0.00  0.00     0.009 C 
ENDBRANCH   7   8
ENDBRANCH   1   7
TORSDOF 2
ENDMDL
