MODEL 1
REMARK minimizedAffinity -4.63612938
REMARK minimizedRMSD -1
REMARK  2 active torsions:
REMARK  status: ('A' for Active; 'I' for Inactive)
REMARK    1  A    between atoms: C1_2  and  C2_3 
REMARK    2  A    between atoms: C2_3  and  C3_4 
ROOT
ATOM      1  C3  UNL d   1       0.148   0.905  -0.786  0.00  0.00    -0.075 A 
ATOM      2  C4  UNL d   1       1.423   1.425  -0.519  0.00  0.00     0.002 A 
ATOM      3  C5  UNL d   1       2.116   2.137  -1.498  0.00  0.00     0.002 A 
ATOM      4  C6  UNL d   1       1.550   2.330  -2.756  0.00  0.00    -0.004 A 
ATOM      5  C7  UNL d   1       0.291   1.804  -3.037  0.00  0.00     0.002 A 
ATOM      6  C8  UNL d   1      -0.407   1.094  -2.058  0.00  0.00     0.002 A 
ENDROOT
BRANCH   1   7
ATOM      7  C2  UNL d   1      -0.619   0.158   0.279  0.00  0.00     0.056 C 
BRANCH   7   8
ATOM      8  C1  UNL d   1      -0.008  -1.196   0.655  0.00  0.00     0.007 C 
ATOM      9  C   UNL d   1      -0.965  -2.093   1.427  0.00  0.00     0.009 C 
ENDBRANCH   7   8
ENDBRANCH   1   7
TORSDOF 2
ENDMDL
