MODEL 1
REMARK minimizedAffinity -4.63669538
REMARK minimizedRMSD -1
REMARK  2 active torsions:
REMARK  status: ('A' for Active; 'I' for Inactive)
REMARK    1  A    between atoms: C1_2  and  C2_3 
REMARK    2  A    between atoms: C2_3  and  C3_4 
ROOT
ATOM      1  C3  UNL d   1      -0.130  -0.947   0.080  0.00  0.00    -0.075 A 
ATOM      2  C4  UNL d   1       0.448  -1.998   0.807  0.00  0.00     0.002 A 
ATOM      3  C5  UNL d   1      -0.354  -2.896   1.513  0.00  0.00     0.002 A 
ATOM      4  C6  UNL d   1      -1.739  -2.749   1.508  0.00  0.00    -0.004 A 
ATOM      5  C7  UNL d   1      -2.323  -1.700   0.802  0.00  0.00     0.002 A 
ATOM      6  C8  UNL d   1      -1.524  -0.802   0.092  0.00  0.00     0.002 A 
ENDROOT
BRANCH   1   7
ATOM      7  C2  UNL d   1       0.730   0.010  -0.710  0.00  0.00     0.056 C 
BRANCH   7   8
ATOM      8  C1  UNL d   1       0.303   1.477  -0.590  0.00  0.00     0.007 C 
ATOM      9  C   UNL d   1       0.681   2.313  -1.805  0.00  0.00     0.009 C 
ENDBRANCH   7   8
ENDBRANCH   1   7
TORSDOF 2
ENDMDL
