MODEL 1
REMARK minimizedAffinity -4.96957922
REMARK minimizedRMSD -1
REMARK  2 active torsions:
REMARK  status: ('A' for Active; 'I' for Inactive)
REMARK    1  A    between atoms: C1_2  and  C2_3 
REMARK    2  A    between atoms: C2_3  and  C3_4 
ROOT
ATOM      1  C3  UNL d   1      -0.067   0.050   0.266  0.00  0.00    -0.075 A 
ATOM      2  C4  UNL d   1       0.761  -1.061   0.053  0.00  0.00     0.002 A 
ATOM      3  C5  UNL d   1       0.471  -2.286   0.654  0.00  0.00     0.002 A 
ATOM      4  C6  UNL d   1      -0.642  -2.414   1.481  0.00  0.00    -0.004 A 
ATOM      5  C7  UNL d   1      -1.463  -1.312   1.713  0.00  0.00     0.002 A 
ATOM      6  C8  UNL d   1      -1.178  -0.086   1.110  0.00  0.00     0.002 A 
ENDROOT
BRANCH   1   7
ATOM      7  C2  UNL d   1       0.225   1.371  -0.405  0.00  0.00     0.056 C 
BRANCH   7   8
ATOM      8  C1  UNL d   1       1.011   1.246  -1.714  0.00  0.00     0.007 C 
ATOM      9  C   UNL d   1       0.786   2.414  -2.664  0.00  0.00     0.009 C 
ENDBRANCH   7   8
ENDBRANCH   1   7
TORSDOF 2
ENDMDL
