MODEL 1
REMARK minimizedAffinity -4.82865667
REMARK minimizedRMSD -1
REMARK  2 active torsions:
REMARK  status: ('A' for Active; 'I' for Inactive)
REMARK    1  A    between atoms: C1_2  and  C2_3 
REMARK    2  A    between atoms: C2_3  and  C3_4 
ROOT
ATOM      1  C3  UNL d   1       0.024   0.094   0.403  0.00  0.00    -0.075 A 
ATOM      2  C4  UNL d   1      -1.347  -0.198   0.441  0.00  0.00     0.002 A 
ATOM      3  C5  UNL d   1      -1.789  -1.493   0.714  0.00  0.00     0.002 A 
ATOM      4  C6  UNL d   1      -0.867  -2.513   0.942  0.00  0.00    -0.004 A 
ATOM      5  C7  UNL d   1       0.497  -2.238   0.890  0.00  0.00     0.002 A 
ATOM      6  C8  UNL d   1       0.942  -0.942   0.622  0.00  0.00     0.002 A 
ENDROOT
BRANCH   1   7
ATOM      7  C2  UNL d   1       0.507   1.500   0.138  0.00  0.00     0.056 C 
BRANCH   7   8
ATOM      8  C1  UNL d   1       0.812   1.786  -1.336  0.00  0.00     0.007 C 
ATOM      9  C   UNL d   1       2.202   2.367  -1.560  0.00  0.00     0.009 C 
ENDBRANCH   7   8
ENDBRANCH   1   7
TORSDOF 2
ENDMDL
