MODEL 1
REMARK minimizedAffinity -4.16049242
REMARK minimizedRMSD -1
REMARK  2 active torsions:
REMARK  status: ('A' for Active; 'I' for Inactive)
REMARK    1  A    between atoms: C1_2  and  C2_3 
REMARK    2  A    between atoms: C2_3  and  C3_4 
ROOT
ATOM      1  C3  UNL d   1      -0.249  -1.004   0.843  0.00  0.00    -0.075 A 
ATOM      2  C4  UNL d   1      -1.318  -0.098   0.796  0.00  0.00     0.002 A 
ATOM      3  C5  UNL d   1      -1.144   1.177   0.255  0.00  0.00     0.002 A 
ATOM      4  C6  UNL d   1       0.101   1.564  -0.236  0.00  0.00    -0.004 A 
ATOM      5  C7  UNL d   1       1.174   0.678  -0.179  0.00  0.00     0.002 A 
ATOM      6  C8  UNL d   1       1.002  -0.599   0.358  0.00  0.00     0.002 A 
ENDROOT
BRANCH   1   7
ATOM      7  C2  UNL d   1      -0.438  -2.394   1.401  0.00  0.00     0.056 C 
BRANCH   7   8
ATOM      8  C1  UNL d   1      -1.571  -3.184   0.736  0.00  0.00     0.007 C 
ATOM      9  C   UNL d   1      -1.553  -3.094  -0.784  0.00  0.00     0.009 C 
ENDBRANCH   7   8
ENDBRANCH   1   7
TORSDOF 2
ENDMDL
