MODEL 1
REMARK minimizedAffinity -5.8592782
REMARK minimizedRMSD -1
REMARK  2 active torsions:
REMARK  status: ('A' for Active; 'I' for Inactive)
REMARK    1  A    between atoms: C1_2  and  C2_3 
REMARK    2  A    between atoms: C2_3  and  C3_4 
ROOT
ATOM      1  C3  UNL d   1      -0.496   0.015   0.386  0.00  0.00    -0.075 A 
ATOM      2  C4  UNL d   1      -1.658   0.671   0.818  0.00  0.00     0.002 A 
ATOM      3  C5  UNL d   1      -2.763  -0.059   1.256  0.00  0.00     0.002 A 
ATOM      4  C6  UNL d   1      -2.725  -1.452   1.256  0.00  0.00    -0.004 A 
ATOM      5  C7  UNL d   1      -1.582  -2.114   0.813  0.00  0.00     0.002 A 
ATOM      6  C8  UNL d   1      -0.474  -1.386   0.379  0.00  0.00     0.002 A 
ENDROOT
BRANCH   1   7
ATOM      7  C2  UNL d   1       0.714   0.801  -0.061  0.00  0.00     0.056 C 
BRANCH   7   8
ATOM      8  C1  UNL d   1       0.400   2.236  -0.495  0.00  0.00     0.007 C 
ATOM      9  C   UNL d   1       0.751   2.514  -1.951  0.00  0.00     0.009 C 
ENDBRANCH   7   8
ENDBRANCH   1   7
TORSDOF 2
ENDMDL
