MODEL 1
REMARK minimizedAffinity 5.93188
REMARK minimizedRMSD -1
REMARK  0 active torsions:
REMARK  status: ('A' for Active; 'I' for Inactive)
ROOT
ATOM      1  C2' OXE d   1      -5.999   5.901  -4.481  0.00  0.00     0.078 C 
ATOM      2  C1' OXE d   1      -3.638   5.956  -5.998  0.00  0.00     0.078 C 
ATOM      3  C1  OXE d   1      -3.630   5.167  -4.712  0.00  0.00    -0.078 A 
ATOM      4  C2  OXE d   1      -4.775   5.184  -3.953  0.00  0.00    -0.078 A 
ATOM      5  C3  OXE d   1      -4.840   4.429  -2.785  0.00  0.00     0.003 A 
ATOM      6  C4  OXE d   1      -3.700   3.777  -2.299  0.00  0.00    -0.002 A 
ATOM      7  C5  OXE d   1      -2.511   3.780  -3.037  0.00  0.00    -0.002 A 
ATOM      8  C6  OXE d   1      -2.472   4.433  -4.264  0.00  0.00     0.003 A 
ENDROOT
TORSDOF 0
ENDMDL
