MODEL 1
REMARK minimizedAffinity 2.68136263
REMARK minimizedRMSD -1
REMARK  0 active torsions:
REMARK  status: ('A' for Active; 'I' for Inactive)
ROOT
ATOM      1  C2' OXE d   1       0.066   3.230   1.228  0.00  0.00     0.078 C 
ATOM      2  C1' OXE d   1       0.673   0.794  -0.028  0.00  0.00     0.078 C 
ATOM      3  C1  OXE d   1       0.280   0.756   1.427  0.00  0.00    -0.078 A 
ATOM      4  C2  OXE d   1       0.030   1.957   2.046  0.00  0.00    -0.078 A 
ATOM      5  C3  OXE d   1      -0.389   1.975   3.373  0.00  0.00     0.003 A 
ATOM      6  C4  OXE d   1      -0.410   0.794   4.126  0.00  0.00    -0.002 A 
ATOM      7  C5  OXE d   1      -0.120  -0.436   3.525  0.00  0.00    -0.002 A 
ATOM      8  C6  OXE d   1       0.184  -0.477   2.169  0.00  0.00     0.003 A 
ENDROOT
TORSDOF 0
ENDMDL
