MODEL 1
REMARK minimizedAffinity 5.70050621
REMARK minimizedRMSD -1
REMARK  0 active torsions:
REMARK  status: ('A' for Active; 'I' for Inactive)
ROOT
ATOM      1  C2' OXE d   1      -1.126  -0.702  -3.185  0.00  0.00     0.078 C 
ATOM      2  C1' OXE d   1      -3.197  -0.326  -1.327  0.00  0.00     0.078 C 
ATOM      3  C1  OXE d   1      -2.145   0.750  -1.436  0.00  0.00    -0.078 A 
ATOM      4  C2  OXE d   1      -1.110   0.536  -2.314  0.00  0.00    -0.078 A 
ATOM      5  C3  OXE d   1      -0.143   1.520  -2.494  0.00  0.00     0.003 A 
ATOM      6  C4  OXE d   1      -0.130   2.658  -1.677  0.00  0.00    -0.002 A 
ATOM      7  C5  OXE d   1      -1.153   2.877  -0.748  0.00  0.00    -0.002 A 
ATOM      8  C6  OXE d   1      -2.189   1.955  -0.645  0.00  0.00     0.003 A 
ENDROOT
TORSDOF 0
ENDMDL
