MODEL 1
REMARK minimizedAffinity 8.06597042
REMARK minimizedRMSD -1
REMARK  0 active torsions:
REMARK  status: ('A' for Active; 'I' for Inactive)
ROOT
ATOM      1  C2' OXE d   1       1.608   1.511   1.896  0.00  0.00     0.078 C 
ATOM      2  C1' OXE d   1       0.056   0.259   3.872  0.00  0.00     0.078 C 
ATOM      3  C1  OXE d   1      -0.627   1.251   2.965  0.00  0.00    -0.078 A 
ATOM      4  C2  OXE d   1       0.150   1.894   2.032  0.00  0.00    -0.078 A 
ATOM      5  C3  OXE d   1      -0.441   2.778   1.134  0.00  0.00     0.003 A 
ATOM      6  C4  OXE d   1      -1.788   3.134   1.272  0.00  0.00    -0.002 A 
ATOM      7  C5  OXE d   1      -2.589   2.521   2.242  0.00  0.00    -0.002 A 
ATOM      8  C6  OXE d   1      -2.035   1.548   3.067  0.00  0.00     0.003 A 
ENDROOT
TORSDOF 0
ENDMDL
