MODEL 1
REMARK minimizedAffinity -1.11582398
REMARK minimizedRMSD -1
REMARK  0 active torsions:
REMARK  status: ('A' for Active; 'I' for Inactive)
ROOT
ATOM      1  C2' OXE d   1      -3.578  -0.373  -1.787  0.00  0.00     0.078 C 
ATOM      2  C1' OXE d   1      -1.469   1.440  -2.166  0.00  0.00     0.078 C 
ATOM      3  C1  OXE d   1      -2.865   1.906  -2.496  0.00  0.00    -0.078 A 
ATOM      4  C2  OXE d   1      -3.886   0.997  -2.352  0.00  0.00    -0.078 A 
ATOM      5  C3  OXE d   1      -5.199   1.391  -2.591  0.00  0.00     0.003 A 
ATOM      6  C4  OXE d   1      -5.473   2.657  -3.123  0.00  0.00    -0.002 A 
ATOM      7  C5  OXE d   1      -4.444   3.585  -3.315  0.00  0.00    -0.002 A 
ATOM      8  C6  OXE d   1      -3.143   3.240  -2.968  0.00  0.00     0.003 A 
ENDROOT
TORSDOF 0
ENDMDL
