MODEL 1
REMARK minimizedAffinity 4.83787727
REMARK minimizedRMSD -1
REMARK  0 active torsions:
REMARK  status: ('A' for Active; 'I' for Inactive)
ROOT
ATOM      1  C2' OXE d   1      -4.060   4.514  -1.936  0.00  0.00     0.078 C 
ATOM      2  C1' OXE d   1      -2.210   5.945  -3.488  0.00  0.00     0.078 C 
ATOM      3  C1  OXE d   1      -3.537   5.600  -4.116  0.00  0.00    -0.078 A 
ATOM      4  C2  OXE d   1      -4.418   4.858  -3.366  0.00  0.00    -0.078 A 
ATOM      5  C3  OXE d   1      -5.677   4.559  -3.877  0.00  0.00     0.003 A 
ATOM      6  C4  OXE d   1      -5.996   4.873  -5.204  0.00  0.00    -0.002 A 
ATOM      7  C5  OXE d   1      -5.098   5.593  -5.999  0.00  0.00    -0.002 A 
ATOM      8  C6  OXE d   1      -3.884   6.000  -5.457  0.00  0.00     0.003 A 
ENDROOT
TORSDOF 0
ENDMDL
