MODEL 1
REMARK minimizedAffinity 8.80333424
REMARK minimizedRMSD -1
REMARK  0 active torsions:
REMARK  status: ('A' for Active; 'I' for Inactive)
ROOT
ATOM      1  C2' OXE d   1       1.323   3.408   2.603  0.00  0.00     0.078 C 
ATOM      2  C1' OXE d   1      -0.864   1.652   2.483  0.00  0.00     0.078 C 
ATOM      3  C1  OXE d   1      -0.617   2.551   1.297  0.00  0.00    -0.078 A 
ATOM      4  C2  OXE d   1       0.427   3.440   1.384  0.00  0.00    -0.078 A 
ATOM      5  C3  OXE d   1       0.732   4.253   0.297  0.00  0.00     0.003 A 
ATOM      6  C4  OXE d   1      -0.107   4.284  -0.824  0.00  0.00    -0.002 A 
ATOM      7  C5  OXE d   1      -1.200   3.415  -0.916  0.00  0.00    -0.002 A 
ATOM      8  C6  OXE d   1      -1.443   2.514   0.115  0.00  0.00     0.003 A 
ENDROOT
TORSDOF 0
ENDMDL
