MODEL 1
REMARK minimizedAffinity 19.1489487
REMARK minimizedRMSD -1
REMARK  0 active torsions:
REMARK  status: ('A' for Active; 'I' for Inactive)
ROOT
ATOM      1  C   UNL d   1       6.000   1.355  -1.426  0.00  0.00    -0.002 A 
ATOM      2  C1  UNL d   1       5.258   2.258  -0.678  0.00  0.00     0.010 A 
ATOM      3  C2  UNL d   1       4.074   1.861  -0.055  0.00  0.00     0.041 A 
ATOM      4  C3  UNL d   1       3.644   0.527  -0.196  0.00  0.00    -0.075 A 
ATOM      5  S   UNL d   1       2.226  -0.185   0.479  0.00  0.00     0.015 SA
ATOM      6  C4  UNL d   1       2.571  -1.705  -0.209  0.00  0.00     0.022 A 
ATOM      7  C5  UNL d   1       3.736  -1.688  -0.939  0.00  0.00     0.026 A 
ATOM      8  C6  UNL d   1       4.374  -0.402  -0.943  0.00  0.00    -0.082 A 
ATOM      9  C7  UNL d   1       5.570   0.032  -1.563  0.00  0.00     0.045 A 
ENDROOT
TORSDOF 0
ENDMDL
