MODEL 1
REMARK minimizedAffinity 4.46539736
REMARK minimizedRMSD -1
REMARK  0 active torsions:
REMARK  status: ('A' for Active; 'I' for Inactive)
ROOT
ATOM      1  C   UNL d   1      -1.794  -2.616  -5.135  0.00  0.00    -0.002 A 
ATOM      2  C1  UNL d   1      -2.149  -3.925  -4.843  0.00  0.00     0.010 A 
ATOM      3  C2  UNL d   1      -1.859  -4.477  -3.594  0.00  0.00     0.041 A 
ATOM      4  C3  UNL d   1      -1.202  -3.684  -2.634  0.00  0.00    -0.075 A 
ATOM      5  S   UNL d   1      -0.746  -4.148  -1.037  0.00  0.00     0.015 SA
ATOM      6  C4  UNL d   1      -0.070  -2.619  -0.705  0.00  0.00     0.022 A 
ATOM      7  C5  UNL d   1      -0.180  -1.763  -1.775  0.00  0.00     0.026 A 
ATOM      8  C6  UNL d   1      -0.835  -2.362  -2.904  0.00  0.00    -0.082 A 
ATOM      9  C7  UNL d   1      -1.142  -1.831  -4.180  0.00  0.00     0.045 A 
ENDROOT
TORSDOF 0
ENDMDL
