MODEL 1
REMARK minimizedAffinity 0.882527888
REMARK minimizedRMSD -1
REMARK  0 active torsions:
REMARK  status: ('A' for Active; 'I' for Inactive)
ROOT
ATOM      1  C   UNL d   1       5.810   5.150   0.319  0.00  0.00    -0.002 A 
ATOM      2  C1  UNL d   1       5.751   3.770   0.447  0.00  0.00     0.010 A 
ATOM      3  C2  UNL d   1       5.774   3.172   1.708  0.00  0.00     0.041 A 
ATOM      4  C3  UNL d   1       5.855   3.992   2.850  0.00  0.00    -0.075 A 
ATOM      5  S   UNL d   1       5.896   3.482   4.496  0.00  0.00     0.015 SA
ATOM      6  C4  UNL d   1       5.991   5.084   5.069  0.00  0.00     0.022 A 
ATOM      7  C5  UNL d   1       5.993   5.999   4.043  0.00  0.00     0.026 A 
ATOM      8  C6  UNL d   1       5.914   5.385   2.747  0.00  0.00    -0.082 A 
ATOM      9  C7  UNL d   1       5.890   5.961   1.454  0.00  0.00     0.045 A 
ENDROOT
TORSDOF 0
ENDMDL
