MODEL 1
REMARK minimizedAffinity 8.49605179
REMARK minimizedRMSD -1
REMARK  0 active torsions:
REMARK  status: ('A' for Active; 'I' for Inactive)
ROOT
ATOM      1  C   UNL d   1       1.693   1.266  -1.481  0.00  0.00    -0.002 A 
ATOM      2  C1  UNL d   1       0.395   1.222  -1.971  0.00  0.00     0.010 A 
ATOM      3  C2  UNL d   1      -0.682   1.598  -1.165  0.00  0.00     0.041 A 
ATOM      4  C3  UNL d   1      -0.429   2.023   0.154  0.00  0.00    -0.075 A 
ATOM      5  S   UNL d   1      -1.591   2.531   1.323  0.00  0.00     0.015 SA
ATOM      6  C4  UNL d   1      -0.392   2.818   2.500  0.00  0.00     0.022 A 
ATOM      7  C5  UNL d   1       0.869   2.539   2.030  0.00  0.00     0.026 A 
ATOM      8  C6  UNL d   1       0.869   2.076   0.670  0.00  0.00    -0.082 A 
ATOM      9  C7  UNL d   1       1.939   1.689  -0.172  0.00  0.00     0.045 A 
ENDROOT
TORSDOF 0
ENDMDL
