MODEL 1
REMARK minimizedAffinity 16.2164516
REMARK minimizedRMSD -1
REMARK  0 active torsions:
REMARK  status: ('A' for Active; 'I' for Inactive)
ROOT
ATOM      1  C   UNL d   1       0.596  -0.181  -3.144  0.00  0.00    -0.002 A 
ATOM      2  C1  UNL d   1       0.814  -0.140  -1.774  0.00  0.00     0.010 A 
ATOM      3  C2  UNL d   1       1.204   1.048  -1.153  0.00  0.00     0.041 A 
ATOM      4  C3  UNL d   1       1.371   2.205  -1.939  0.00  0.00    -0.075 A 
ATOM      5  S   UNL d   1       1.842   3.772  -1.395  0.00  0.00     0.015 SA
ATOM      6  C4  UNL d   1       1.765   4.423  -2.968  0.00  0.00     0.022 A 
ATOM      7  C5  UNL d   1       1.390   3.482  -3.898  0.00  0.00     0.026 A 
ATOM      8  C6  UNL d   1       1.157   2.189  -3.320  0.00  0.00    -0.082 A 
ATOM      9  C7  UNL d   1       0.763   0.968  -3.921  0.00  0.00     0.045 A 
ENDROOT
TORSDOF 0
ENDMDL
