MODEL 1
REMARK minimizedAffinity 12.9329376
REMARK minimizedRMSD -1
REMARK  0 active torsions:
REMARK  status: ('A' for Active; 'I' for Inactive)
ROOT
ATOM      1  C   UNL d   1       2.320   4.284   1.201  0.00  0.00    -0.002 A 
ATOM      2  C1  UNL d   1       2.700   3.110   1.836  0.00  0.00     0.010 A 
ATOM      3  C2  UNL d   1       2.533   1.876   1.205  0.00  0.00     0.041 A 
ATOM      4  C3  UNL d   1       1.975   1.840  -0.088  0.00  0.00    -0.075 A 
ATOM      5  S   UNL d   1       1.679   0.444  -1.054  0.00  0.00     0.015 SA
ATOM      6  C4  UNL d   1       1.042   1.373  -2.334  0.00  0.00     0.022 A 
ATOM      7  C5  UNL d   1       1.047   2.717  -2.047  0.00  0.00     0.026 A 
ATOM      8  C6  UNL d   1       1.586   3.009  -0.748  0.00  0.00    -0.082 A 
ATOM      9  C7  UNL d   1       1.767   4.245  -0.082  0.00  0.00     0.045 A 
ENDROOT
TORSDOF 0
ENDMDL
