MODEL 1
REMARK minimizedAffinity 3.84022522
REMARK minimizedRMSD -1
REMARK  0 active torsions:
REMARK  status: ('A' for Active; 'I' for Inactive)
ROOT
ATOM      1  C   UNL d   1       2.039  -2.765  -0.137  0.00  0.00    -0.002 A 
ATOM      2  C1  UNL d   1       0.694  -2.617  -0.442  0.00  0.00     0.010 A 
ATOM      3  C2  UNL d   1       0.234  -1.467  -1.087  0.00  0.00     0.041 A 
ATOM      4  C3  UNL d   1       1.159  -0.459  -1.425  0.00  0.00    -0.075 A 
ATOM      5  S   UNL d   1       0.825   1.034  -2.219  0.00  0.00     0.015 SA
ATOM      6  C4  UNL d   1       2.461   1.511  -2.172  0.00  0.00     0.022 A 
ATOM      7  C5  UNL d   1       3.256   0.565  -1.569  0.00  0.00     0.026 A 
ATOM      8  C6  UNL d   1       2.519  -0.586  -1.129  0.00  0.00    -0.082 A 
ATOM      9  C7  UNL d   1       2.954  -1.763  -0.474  0.00  0.00     0.045 A 
ENDROOT
TORSDOF 0
ENDMDL
