MODEL 1
REMARK minimizedAffinity 4.79228449
REMARK minimizedRMSD -1
REMARK  0 active torsions:
REMARK  status: ('A' for Active; 'I' for Inactive)
ROOT
ATOM      1  C   UNL d   1       2.044  -2.718  -0.226  0.00  0.00    -0.002 A 
ATOM      2  C1  UNL d   1       0.735  -2.598  -0.671  0.00  0.00     0.010 A 
ATOM      3  C2  UNL d   1       0.365  -1.548  -1.514  0.00  0.00     0.041 A 
ATOM      4  C3  UNL d   1       1.342  -0.613  -1.907  0.00  0.00    -0.075 A 
ATOM      5  S   UNL d   1       1.118   0.754  -2.934  0.00  0.00     0.015 SA
ATOM      6  C4  UNL d   1       2.756   1.210  -2.808  0.00  0.00     0.022 A 
ATOM      7  C5  UNL d   1       3.469   0.352  -2.005  0.00  0.00     0.026 A 
ATOM      8  C6  UNL d   1       2.667  -0.713  -1.473  0.00  0.00    -0.082 A 
ATOM      9  C7  UNL d   1       3.011  -1.788  -0.618  0.00  0.00     0.045 A 
ENDROOT
TORSDOF 0
ENDMDL
