MODEL 1
REMARK minimizedAffinity 2.112005
REMARK minimizedRMSD -1
REMARK  0 active torsions:
REMARK  status: ('A' for Active; 'I' for Inactive)
ROOT
ATOM      1  C   UNL d   1       6.000  -5.485   3.880  0.00  0.00    -0.002 A 
ATOM      2  C1  UNL d   1       5.958  -5.514   5.266  0.00  0.00     0.010 A 
ATOM      3  C2  UNL d   1       5.898  -4.328   6.000  0.00  0.00     0.041 A 
ATOM      4  C3  UNL d   1       5.879  -3.100   5.310  0.00  0.00    -0.075 A 
ATOM      5  S   UNL d   1       5.807  -1.521   5.999  0.00  0.00     0.015 SA
ATOM      6  C4  UNL d   1       5.830  -0.771   4.468  0.00  0.00     0.022 A 
ATOM      7  C5  UNL d   1       5.891  -1.688   3.446  0.00  0.00     0.026 A 
ATOM      8  C6  UNL d   1       5.920  -3.045   3.914  0.00  0.00    -0.082 A 
ATOM      9  C7  UNL d   1       5.981  -4.265   3.198  0.00  0.00     0.045 A 
ENDROOT
TORSDOF 0
ENDMDL
