MODEL 1
REMARK minimizedAffinity 13.9066782
REMARK minimizedRMSD -1
REMARK  0 active torsions:
REMARK  status: ('A' for Active; 'I' for Inactive)
ROOT
ATOM      1  C   UNL d   1       3.877  -0.203  -1.336  0.00  0.00    -0.002 A 
ATOM      2  C1  UNL d   1       2.909   0.435  -2.099  0.00  0.00     0.010 A 
ATOM      3  C2  UNL d   1       1.637  -0.122  -2.242  0.00  0.00     0.041 A 
ATOM      4  C3  UNL d   1       1.350  -1.341  -1.597  0.00  0.00    -0.075 A 
ATOM      5  S   UNL d   1      -0.140  -2.209  -1.629  0.00  0.00     0.015 SA
ATOM      6  C4  UNL d   1       0.473  -3.446  -0.630  0.00  0.00     0.022 A 
ATOM      7  C5  UNL d   1       1.781  -3.219  -0.271  0.00  0.00     0.026 A 
ATOM      8  C6  UNL d   1       2.307  -2.002  -0.822  0.00  0.00    -0.082 A 
ATOM      9  C7  UNL d   1       3.589  -1.412  -0.697  0.00  0.00     0.045 A 
ENDROOT
TORSDOF 0
ENDMDL
