MODEL 1
REMARK minimizedAffinity 6.42863226
REMARK minimizedRMSD -1
REMARK  0 active torsions:
REMARK  status: ('A' for Active; 'I' for Inactive)
ROOT
ATOM      1  C   UNL d   1       1.074   1.465   1.068  0.00  0.00    -0.002 A 
ATOM      2  C1  UNL d   1       1.159   1.242  -0.299  0.00  0.00     0.010 A 
ATOM      3  C2  UNL d   1       0.545   2.112  -1.201  0.00  0.00     0.041 A 
ATOM      4  C3  UNL d   1      -0.162   3.224  -0.701  0.00  0.00    -0.075 A 
ATOM      5  S   UNL d   1      -0.993   4.425  -1.617  0.00  0.00     0.015 SA
ATOM      6  C4  UNL d   1      -1.479   5.264  -0.216  0.00  0.00     0.022 A 
ATOM      7  C5  UNL d   1      -1.028   4.657   0.932  0.00  0.00     0.026 A 
ATOM      8  C6  UNL d   1      -0.261   3.471   0.671  0.00  0.00    -0.082 A 
ATOM      9  C7  UNL d   1       0.372   2.569   1.560  0.00  0.00     0.045 A 
ENDROOT
TORSDOF 0
ENDMDL
