MODEL 1
REMARK minimizedAffinity 16.4588966
REMARK minimizedRMSD -1
REMARK  0 active torsions:
REMARK  status: ('A' for Active; 'I' for Inactive)
ROOT
ATOM      1  C   UNL d   1      -4.858  -0.501   5.997  0.00  0.00    -0.002 A 
ATOM      2  C1  UNL d   1      -5.608   0.667   6.000  0.00  0.00     0.010 A 
ATOM      3  C2  UNL d   1      -5.999   1.263   4.799  0.00  0.00     0.041 A 
ATOM      4  C3  UNL d   1      -5.622   0.659   3.584  0.00  0.00    -0.075 A 
ATOM      5  S   UNL d   1      -5.989   1.209   1.992  0.00  0.00     0.015 SA
ATOM      6  C4  UNL d   1      -5.159  -0.093   1.270  0.00  0.00     0.022 A 
ATOM      7  C5  UNL d   1      -4.609  -0.937   2.206  0.00  0.00     0.026 A 
ATOM      8  C6  UNL d   1      -4.868  -0.518   3.555  0.00  0.00    -0.082 A 
ATOM      9  C7  UNL d   1      -4.486  -1.097   4.789  0.00  0.00     0.045 A 
ENDROOT
TORSDOF 0
ENDMDL
