MODEL 1
REMARK minimizedAffinity 14.3083324
REMARK minimizedRMSD -1
REMARK  0 active torsions:
REMARK  status: ('A' for Active; 'I' for Inactive)
ROOT
ATOM      1  C   UNL d   1      -0.024   3.086   2.305  0.00  0.00    -0.002 A 
ATOM      2  C1  UNL d   1       1.342   2.883   2.439  0.00  0.00     0.010 A 
ATOM      3  C2  UNL d   1       2.076   2.285   1.413  0.00  0.00     0.041 A 
ATOM      4  C3  UNL d   1       1.407   1.892   0.237  0.00  0.00    -0.075 A 
ATOM      5  S   UNL d   1       2.101   1.142  -1.152  0.00  0.00     0.015 SA
ATOM      6  C4  UNL d   1       0.600   1.075  -1.957  0.00  0.00     0.022 A 
ATOM      7  C5  UNL d   1      -0.416   1.607  -1.200  0.00  0.00     0.026 A 
ATOM      8  C6  UNL d   1       0.032   2.087   0.077  0.00  0.00    -0.082 A 
ATOM      9  C7  UNL d   1      -0.684   2.696   1.136  0.00  0.00     0.045 A 
ENDROOT
TORSDOF 0
ENDMDL
