MODEL 1
REMARK minimizedAffinity -3.47497702
REMARK minimizedRMSD -1
REMARK  0 active torsions:
REMARK  status: ('A' for Active; 'I' for Inactive)
ROOT
ATOM      1  C   UNL d   1       0.354   2.019   0.210  0.00  0.00     0.078 C 
ATOM      2  C1  UNL d   1       0.039   0.577   0.474  0.00  0.00    -0.077 A 
ATOM      3  C2  UNL d   1       0.058  -0.367  -0.560  0.00  0.00    -0.001 A 
ATOM      4  C3  UNL d   1      -0.247  -1.704  -0.302  0.00  0.00     0.003 A 
ATOM      5  C4  UNL d   1      -0.575  -2.110   0.990  0.00  0.00    -0.005 A 
ATOM      6  C5  UNL d   1      -0.599  -1.177   2.025  0.00  0.00     0.003 A 
ATOM      7  C6  UNL d   1      -0.295   0.160   1.769  0.00  0.00    -0.001 A 
ENDROOT
TORSDOF 0
ENDMDL
