MODEL 1
REMARK minimizedAffinity -5.22740269
REMARK minimizedRMSD -1
REMARK  0 active torsions:
REMARK  status: ('A' for Active; 'I' for Inactive)
ROOT
ATOM      1  C   UNL d   1       0.095  -3.978  -0.547  0.00  0.00     0.078 C 
ATOM      2  C1  UNL d   1      -0.182  -2.514  -0.376  0.00  0.00    -0.077 A 
ATOM      3  C2  UNL d   1      -1.001  -2.051   0.661  0.00  0.00    -0.001 A 
ATOM      4  C3  UNL d   1      -1.257  -0.687   0.803  0.00  0.00     0.003 A 
ATOM      5  C4  UNL d   1      -0.699   0.226  -0.090  0.00  0.00    -0.005 A 
ATOM      6  C5  UNL d   1       0.115  -0.225  -1.127  0.00  0.00     0.003 A 
ATOM      7  C6  UNL d   1       0.373  -1.590  -1.269  0.00  0.00    -0.001 A 
ENDROOT
TORSDOF 0
ENDMDL
