MODEL 1
REMARK minimizedAffinity -2.29340744
REMARK minimizedRMSD -1
REMARK  0 active torsions:
REMARK  status: ('A' for Active; 'I' for Inactive)
ROOT
ATOM      1  C   UNL d   1       0.369   1.813   0.006  0.00  0.00     0.078 C 
ATOM      2  C1  UNL d   1      -0.079   0.427   0.365  0.00  0.00    -0.077 A 
ATOM      3  C2  UNL d   1      -0.304  -0.537  -0.626  0.00  0.00    -0.001 A 
ATOM      4  C3  UNL d   1      -0.730  -1.820  -0.278  0.00  0.00     0.003 A 
ATOM      5  C4  UNL d   1      -0.936  -2.150   1.060  0.00  0.00    -0.005 A 
ATOM      6  C5  UNL d   1      -0.717  -1.197   2.052  0.00  0.00     0.003 A 
ATOM      7  C6  UNL d   1      -0.291   0.087   1.707  0.00  0.00    -0.001 A 
ENDROOT
TORSDOF 0
ENDMDL
