MODEL 1
REMARK minimizedAffinity 0.235033587
REMARK minimizedRMSD -1
REMARK  0 active torsions:
REMARK  status: ('A' for Active; 'I' for Inactive)
ROOT
ATOM      1  C   UNL d   1       0.162  -0.017  -1.784  0.00  0.00     0.078 C 
ATOM      2  C1  UNL d   1      -0.559  -0.255  -0.490  0.00  0.00    -0.077 A 
ATOM      3  C2  UNL d   1      -1.111  -1.507  -0.192  0.00  0.00    -0.001 A 
ATOM      4  C3  UNL d   1      -1.787  -1.711   1.012  0.00  0.00     0.003 A 
ATOM      5  C4  UNL d   1      -1.919  -0.668   1.926  0.00  0.00    -0.005 A 
ATOM      6  C5  UNL d   1      -1.375   0.582   1.637  0.00  0.00     0.003 A 
ATOM      7  C6  UNL d   1      -0.698   0.788   0.434  0.00  0.00    -0.001 A 
ENDROOT
TORSDOF 0
ENDMDL
