MODEL 1
REMARK minimizedAffinity -3.46019006
REMARK minimizedRMSD -1
REMARK  0 active torsions:
REMARK  status: ('A' for Active; 'I' for Inactive)
ROOT
ATOM      1  C   UNL d   1       0.767   2.353   0.080  0.00  0.00     0.078 C 
ATOM      2  C1  UNL d   1       0.354   0.970   0.488  0.00  0.00    -0.077 A 
ATOM      3  C2  UNL d   1      -0.959   0.699   0.890  0.00  0.00    -0.001 A 
ATOM      4  C3  UNL d   1      -1.327  -0.591   1.276  0.00  0.00     0.003 A 
ATOM      5  C4  UNL d   1      -0.387  -1.620   1.265  0.00  0.00    -0.005 A 
ATOM      6  C5  UNL d   1       0.923  -1.359   0.869  0.00  0.00     0.003 A 
ATOM      7  C6  UNL d   1       1.293  -0.069   0.482  0.00  0.00    -0.001 A 
ENDROOT
TORSDOF 0
ENDMDL
