MODEL 1
REMARK minimizedAffinity -2.583529
REMARK minimizedRMSD -1
REMARK  0 active torsions:
REMARK  status: ('A' for Active; 'I' for Inactive)
ROOT
ATOM      1  C   UNL d   1       1.960   3.129   0.057  0.00  0.00     0.078 C 
ATOM      2  C1  UNL d   1       0.987   1.988   0.046  0.00  0.00    -0.077 A 
ATOM      3  C2  UNL d   1      -0.073   1.953  -0.869  0.00  0.00    -0.001 A 
ATOM      4  C3  UNL d   1      -0.977   0.890  -0.861  0.00  0.00     0.003 A 
ATOM      5  C4  UNL d   1      -0.831  -0.146   0.059  0.00  0.00    -0.005 A 
ATOM      6  C5  UNL d   1       0.219  -0.119   0.975  0.00  0.00     0.003 A 
ATOM      7  C6  UNL d   1       1.124   0.944   0.969  0.00  0.00    -0.001 A 
ENDROOT
TORSDOF 0
ENDMDL
