MODEL 1
REMARK minimizedAffinity -0.383891225
REMARK minimizedRMSD -1
REMARK  0 active torsions:
REMARK  status: ('A' for Active; 'I' for Inactive)
ROOT
ATOM      1  C   UNL d   1       0.257  -0.595  -2.459  0.00  0.00     0.078 C 
ATOM      2  C1  UNL d   1      -0.268  -0.720  -1.061  0.00  0.00    -0.077 A 
ATOM      3  C2  UNL d   1      -1.011  -1.840  -0.667  0.00  0.00    -0.001 A 
ATOM      4  C3  UNL d   1      -1.503  -1.939   0.636  0.00  0.00     0.003 A 
ATOM      5  C4  UNL d   1      -1.258  -0.921   1.555  0.00  0.00    -0.005 A 
ATOM      6  C5  UNL d   1      -0.522   0.198   1.172  0.00  0.00     0.003 A 
ATOM      7  C6  UNL d   1      -0.029   0.299  -0.130  0.00  0.00    -0.001 A 
ENDROOT
TORSDOF 0
ENDMDL
