MODEL 1
REMARK minimizedAffinity -2.26347136
REMARK minimizedRMSD -1
REMARK  0 active torsions:
REMARK  status: ('A' for Active; 'I' for Inactive)
ROOT
ATOM      1  C   UNL d   1       1.210   3.080   0.493  0.00  0.00     0.078 C 
ATOM      2  C1  UNL d   1       0.611   1.711   0.610  0.00  0.00    -0.077 A 
ATOM      3  C2  UNL d   1      -0.128   1.154  -0.441  0.00  0.00    -0.001 A 
ATOM      4  C3  UNL d   1      -0.689  -0.118  -0.314  0.00  0.00     0.003 A 
ATOM      5  C4  UNL d   1      -0.517  -0.844   0.863  0.00  0.00    -0.005 A 
ATOM      6  C5  UNL d   1       0.215  -0.297   1.915  0.00  0.00     0.003 A 
ATOM      7  C6  UNL d   1       0.776   0.975   1.790  0.00  0.00    -0.001 A 
ENDROOT
TORSDOF 0
ENDMDL
