MODEL 1
REMARK minimizedAffinity -4.05663681
REMARK minimizedRMSD -1
REMARK  0 active torsions:
REMARK  status: ('A' for Active; 'I' for Inactive)
ROOT
ATOM      1  C   UNL d   1       0.500   1.750  -0.336  0.00  0.00     0.078 C 
ATOM      2  C1  UNL d   1       0.085   0.310  -0.395  0.00  0.00    -0.077 A 
ATOM      3  C2  UNL d   1       0.185  -0.420  -1.585  0.00  0.00    -0.001 A 
ATOM      4  C3  UNL d   1      -0.214  -1.757  -1.628  0.00  0.00     0.003 A 
ATOM      5  C4  UNL d   1      -0.717  -2.375  -0.484  0.00  0.00    -0.005 A 
ATOM      6  C5  UNL d   1      -0.822  -1.655   0.704  0.00  0.00     0.003 A 
ATOM      7  C6  UNL d   1      -0.423  -0.318   0.749  0.00  0.00    -0.001 A 
ENDROOT
TORSDOF 0
ENDMDL
