MODEL 1
REMARK minimizedAffinity -2.95652485
REMARK minimizedRMSD -1
REMARK  0 active torsions:
REMARK  status: ('A' for Active; 'I' for Inactive)
ROOT
ATOM      1  C   UNL d   1      -0.367  -2.301  -2.562  0.00  0.00     0.078 C 
ATOM      2  C1  UNL d   1      -0.494  -1.591  -1.247  0.00  0.00    -0.077 A 
ATOM      3  C2  UNL d   1      -0.350  -0.201  -1.161  0.00  0.00    -0.001 A 
ATOM      4  C3  UNL d   1      -0.461   0.446   0.071  0.00  0.00     0.003 A 
ATOM      5  C4  UNL d   1      -0.716  -0.290   1.227  0.00  0.00    -0.005 A 
ATOM      6  C5  UNL d   1      -0.859  -1.674   1.151  0.00  0.00     0.003 A 
ATOM      7  C6  UNL d   1      -0.748  -2.322  -0.080  0.00  0.00    -0.001 A 
ENDROOT
TORSDOF 0
ENDMDL
