MODEL 1
REMARK minimizedAffinity -2.67305422
REMARK minimizedRMSD -1
REMARK  0 active torsions:
REMARK  status: ('A' for Active; 'I' for Inactive)
ROOT
ATOM      1  C   UNL d   1      -1.061  -2.547   1.066  0.00  0.00     0.078 C 
ATOM      2  C1  UNL d   1      -0.672  -1.184   0.578  0.00  0.00    -0.077 A 
ATOM      3  C2  UNL d   1      -1.003  -0.035   1.308  0.00  0.00    -0.001 A 
ATOM      4  C3  UNL d   1      -0.643   1.228   0.836  0.00  0.00     0.003 A 
ATOM      5  C4  UNL d   1       0.049   1.356  -0.367  0.00  0.00    -0.005 A 
ATOM      6  C5  UNL d   1       0.380   0.219  -1.101  0.00  0.00     0.003 A 
ATOM      7  C6  UNL d   1       0.021  -1.046  -0.631  0.00  0.00    -0.001 A 
ENDROOT
TORSDOF 0
ENDMDL
