MODEL 1
REMARK minimizedAffinity -3.04195786
REMARK minimizedRMSD -1
REMARK  0 active torsions:
REMARK  status: ('A' for Active; 'I' for Inactive)
ROOT
ATOM      1  C   UNL d   1       0.814   1.464   0.112  0.00  0.00     0.078 C 
ATOM      2  C1  UNL d   1       0.040   0.198   0.328  0.00  0.00    -0.077 A 
ATOM      3  C2  UNL d   1      -0.307  -0.224   1.618  0.00  0.00    -0.001 A 
ATOM      4  C3  UNL d   1      -1.019  -1.409   1.805  0.00  0.00     0.003 A 
ATOM      5  C4  UNL d   1      -1.389  -2.184   0.708  0.00  0.00    -0.005 A 
ATOM      6  C5  UNL d   1      -1.047  -1.774  -0.579  0.00  0.00     0.003 A 
ATOM      7  C6  UNL d   1      -0.334  -0.589  -0.768  0.00  0.00    -0.001 A 
ENDROOT
TORSDOF 0
ENDMDL
