MODEL 1
REMARK minimizedAffinity -3.43760633
REMARK minimizedRMSD -1
REMARK  0 active torsions:
REMARK  status: ('A' for Active; 'I' for Inactive)
ROOT
ATOM      1  C   UNL d   1       0.222   1.614  -0.224  0.00  0.00     0.078 C 
ATOM      2  C1  UNL d   1      -0.131   0.163  -0.086  0.00  0.00    -0.077 A 
ATOM      3  C2  UNL d   1       0.091  -0.736  -1.136  0.00  0.00    -0.001 A 
ATOM      4  C3  UNL d   1      -0.251  -2.082  -0.997  0.00  0.00     0.003 A 
ATOM      5  C4  UNL d   1      -0.819  -2.540   0.190  0.00  0.00    -0.005 A 
ATOM      6  C5  UNL d   1      -1.046  -1.653   1.239  0.00  0.00     0.003 A 
ATOM      7  C6  UNL d   1      -0.704  -0.306   1.102  0.00  0.00    -0.001 A 
ENDROOT
TORSDOF 0
ENDMDL
