MODEL 1
REMARK minimizedAffinity 0.62750715
REMARK minimizedRMSD -1
REMARK  0 active torsions:
REMARK  status: ('A' for Active; 'I' for Inactive)
ROOT
ATOM      1  C   UNL d   1       2.390  -0.660   2.207  0.00  0.00     0.172 C 
ATOM      2  N   UNL d   1       2.131  -1.876   2.941  0.00  0.00    -0.070 N 
ATOM      3  C1  UNL d   1       2.885  -3.017   2.887  0.00  0.00    -0.004 A 
ATOM      4  C2  UNL d   1       2.310  -3.944   3.729  0.00  0.00    -0.047 A 
ATOM      5  C3  UNL d   1       1.170  -3.339   4.309  0.00  0.00    -0.047 A 
ATOM      6  C4  UNL d   1       1.083  -2.058   3.804  0.00  0.00    -0.004 A 
ENDROOT
TORSDOF 0
ENDMDL
