MODEL 1
REMARK minimizedAffinity 0.228669003
REMARK minimizedRMSD -1
REMARK  0 active torsions:
REMARK  status: ('A' for Active; 'I' for Inactive)
ROOT
ATOM      1  C   UNL d   1       2.988  -4.034   2.580  0.00  0.00     0.172 C 
ATOM      2  N   UNL d   1       2.318  -2.765   2.740  0.00  0.00    -0.070 N 
ATOM      3  C1  UNL d   1       2.586  -1.625   2.030  0.00  0.00    -0.004 A 
ATOM      4  C2  UNL d   1       1.734  -0.639   2.478  0.00  0.00    -0.047 A 
ATOM      5  C3  UNL d   1       0.927  -1.205   3.492  0.00  0.00    -0.047 A 
ATOM      6  C4  UNL d   1       1.309  -2.522   3.634  0.00  0.00    -0.004 A 
ENDROOT
TORSDOF 0
ENDMDL
