MODEL 1
REMARK minimizedAffinity 3.29863524
REMARK minimizedRMSD -1
REMARK  0 active torsions:
REMARK  status: ('A' for Active; 'I' for Inactive)
ROOT
ATOM      1  C   UNL d   1      -5.652   3.741   0.029  0.00  0.00     0.172 C 
ATOM      2  N   UNL d   1      -4.527   3.656   0.930  0.00  0.00    -0.070 N 
ATOM      3  C1  UNL d   1      -3.373   2.954   0.703  0.00  0.00    -0.004 A 
ATOM      4  C2  UNL d   1      -2.552   3.127   1.797  0.00  0.00    -0.047 A 
ATOM      5  C3  UNL d   1      -3.237   3.960   2.713  0.00  0.00    -0.047 A 
ATOM      6  C4  UNL d   1      -4.457   4.273   2.151  0.00  0.00    -0.004 A 
ENDROOT
TORSDOF 0
ENDMDL
