MODEL 1
REMARK minimizedAffinity -0.398837298
REMARK minimizedRMSD -1
REMARK  0 active torsions:
REMARK  status: ('A' for Active; 'I' for Inactive)
ROOT
ATOM      1  C   UNL d   1       2.465  -4.259   2.779  0.00  0.00     0.172 C 
ATOM      2  N   UNL d   1       2.246  -2.871   3.113  0.00  0.00    -0.070 N 
ATOM      3  C1  UNL d   1       2.310  -1.820   2.238  0.00  0.00    -0.004 A 
ATOM      4  C2  UNL d   1       2.040  -0.667   2.943  0.00  0.00    -0.047 A 
ATOM      5  C3  UNL d   1       1.807  -1.038   4.288  0.00  0.00    -0.047 A 
ATOM      6  C4  UNL d   1       1.941  -2.408   4.366  0.00  0.00    -0.004 A 
ENDROOT
TORSDOF 0
ENDMDL
