MODEL 1
REMARK minimizedAffinity 1.36759067
REMARK minimizedRMSD -1
REMARK  0 active torsions:
REMARK  status: ('A' for Active; 'I' for Inactive)
ROOT
ATOM      1  C   UNL d   1       2.673  -4.215   2.176  0.00  0.00     0.172 C 
ATOM      2  N   UNL d   1       2.163  -2.884   2.409  0.00  0.00    -0.070 N 
ATOM      3  C1  UNL d   1       2.611  -1.740   1.802  0.00  0.00    -0.004 A 
ATOM      4  C2  UNL d   1       1.871  -0.686   2.292  0.00  0.00    -0.047 A 
ATOM      5  C3  UNL d   1       0.947  -1.214   3.225  0.00  0.00    -0.047 A 
ATOM      6  C4  UNL d   1       1.150  -2.577   3.278  0.00  0.00    -0.004 A 
ENDROOT
TORSDOF 0
ENDMDL
