MODEL 1
REMARK minimizedAffinity 0.948347032
REMARK minimizedRMSD -1
REMARK  0 active torsions:
REMARK  status: ('A' for Active; 'I' for Inactive)
ROOT
ATOM      1  C   UNL d   1       4.995  -0.768   2.571  0.00  0.00     0.078 C 
ATOM      2  C1  UNL d   1       3.579  -0.758   2.078  0.00  0.00    -0.077 A 
ATOM      3  C2  UNL d   1       3.230  -0.088   0.899  0.00  0.00    -0.001 A 
ATOM      4  C3  UNL d   1       1.906  -0.079   0.457  0.00  0.00     0.003 A 
ATOM      5  C4  UNL d   1       0.920  -0.737   1.189  0.00  0.00    -0.005 A 
ATOM      6  C5  UNL d   1       1.257  -1.404   2.365  0.00  0.00     0.003 A 
ATOM      7  C6  UNL d   1       2.580  -1.414   2.808  0.00  0.00    -0.001 A 
ENDROOT
TORSDOF 0
ENDMDL
