MODEL 1
REMARK minimizedAffinity 0.133632869
REMARK minimizedRMSD -1
REMARK  0 active torsions:
REMARK  status: ('A' for Active; 'I' for Inactive)
ROOT
ATOM      1  C   UNL d   1      -4.058   0.611  -2.905  0.00  0.00     0.078 C 
ATOM      2  C1  UNL d   1      -2.794   1.306  -3.314  0.00  0.00    -0.077 A 
ATOM      3  C2  UNL d   1      -1.545   0.851  -2.874  0.00  0.00    -0.001 A 
ATOM      4  C3  UNL d   1      -0.377   1.514  -3.255  0.00  0.00     0.003 A 
ATOM      5  C4  UNL d   1      -0.447   2.637  -4.076  0.00  0.00    -0.005 A 
ATOM      6  C5  UNL d   1      -1.685   3.099  -4.517  0.00  0.00     0.003 A 
ATOM      7  C6  UNL d   1      -2.854   2.438  -4.137  0.00  0.00    -0.001 A 
ENDROOT
TORSDOF 0
ENDMDL
