MODEL 1
REMARK minimizedAffinity -4.29363871
REMARK minimizedRMSD -1
REMARK  0 active torsions:
REMARK  status: ('A' for Active; 'I' for Inactive)
ROOT
ATOM      1  C   UNL d   1       1.387  -1.821   3.824  0.00  0.00     0.078 C 
ATOM      2  C1  UNL d   1       1.582  -1.299   2.432  0.00  0.00    -0.077 A 
ATOM      3  C2  UNL d   1       0.616  -0.488   1.824  0.00  0.00    -0.001 A 
ATOM      4  C3  UNL d   1       0.806  -0.017   0.524  0.00  0.00     0.003 A 
ATOM      5  C4  UNL d   1       1.961  -0.352  -0.179  0.00  0.00    -0.005 A 
ATOM      6  C5  UNL d   1       2.928  -1.160   0.417  0.00  0.00     0.003 A 
ATOM      7  C6  UNL d   1       2.739  -1.632   1.717  0.00  0.00    -0.001 A 
ENDROOT
TORSDOF 0
ENDMDL
