MODEL 1
REMARK minimizedAffinity -3.79081535
REMARK minimizedRMSD -1
REMARK  0 active torsions:
REMARK  status: ('A' for Active; 'I' for Inactive)
ROOT
ATOM      1  C   UNL d   1      -2.086  -6.000  -2.685  0.00  0.00     0.078 C 
ATOM      2  C1  UNL d   1      -0.965  -5.890  -3.674  0.00  0.00    -0.077 A 
ATOM      3  C2  UNL d   1       0.362  -5.757  -3.248  0.00  0.00    -0.001 A 
ATOM      4  C3  UNL d   1       1.395  -5.646  -4.180  0.00  0.00     0.003 A 
ATOM      5  C4  UNL d   1       1.112  -5.667  -5.544  0.00  0.00    -0.005 A 
ATOM      6  C5  UNL d   1      -0.206  -5.797  -5.978  0.00  0.00     0.003 A 
ATOM      7  C6  UNL d   1      -1.240  -5.908  -5.047  0.00  0.00    -0.001 A 
ENDROOT
TORSDOF 0
ENDMDL
