MODEL 1
REMARK minimizedAffinity -2.29754567
REMARK minimizedRMSD -1
REMARK  0 active torsions:
REMARK  status: ('A' for Active; 'I' for Inactive)
ROOT
ATOM      1  C   UNL d   1       1.670  -0.060  -0.402  0.00  0.00     0.078 C 
ATOM      2  C1  UNL d   1       2.011  -0.450   1.005  0.00  0.00    -0.077 A 
ATOM      3  C2  UNL d   1       1.076  -0.311   2.039  0.00  0.00    -0.001 A 
ATOM      4  C3  UNL d   1       1.410  -0.669   3.346  0.00  0.00     0.003 A 
ATOM      5  C4  UNL d   1       2.679  -1.167   3.632  0.00  0.00    -0.005 A 
ATOM      6  C5  UNL d   1       3.617  -1.307   2.611  0.00  0.00     0.003 A 
ATOM      7  C6  UNL d   1       3.285  -0.950   1.303  0.00  0.00    -0.001 A 
ENDROOT
TORSDOF 0
ENDMDL
