MODEL 1
REMARK minimizedAffinity 4.55107021
REMARK minimizedRMSD -1
REMARK  0 active torsions:
REMARK  status: ('A' for Active; 'I' for Inactive)
ROOT
ATOM      1  C   UNL d   1      -2.211  -3.015   0.322  0.00  0.00     0.078 C 
ATOM      2  C1  UNL d   1      -1.082  -2.029   0.287  0.00  0.00    -0.077 A 
ATOM      3  C2  UNL d   1      -1.217  -0.758   0.857  0.00  0.00    -0.001 A 
ATOM      4  C3  UNL d   1      -0.160   0.154   0.808  0.00  0.00     0.003 A 
ATOM      5  C4  UNL d   1       1.038  -0.197   0.189  0.00  0.00    -0.005 A 
ATOM      6  C5  UNL d   1       1.181  -1.459  -0.383  0.00  0.00     0.003 A 
ATOM      7  C6  UNL d   1       0.126  -2.372  -0.335  0.00  0.00    -0.001 A 
ENDROOT
TORSDOF 0
ENDMDL
