MODEL 1
REMARK minimizedAffinity 0.646745682
REMARK minimizedRMSD -1
REMARK  0 active torsions:
REMARK  status: ('A' for Active; 'I' for Inactive)
ROOT
ATOM      1  C   UNL d   1      -0.740  -3.688   0.703  0.00  0.00     0.078 C 
ATOM      2  C1  UNL d   1      -1.887  -4.500   1.226  0.00  0.00    -0.077 A 
ATOM      3  C2  UNL d   1      -2.944  -4.878   0.389  0.00  0.00    -0.001 A 
ATOM      4  C3  UNL d   1      -4.010  -5.625   0.891  0.00  0.00     0.003 A 
ATOM      5  C4  UNL d   1      -4.031  -6.000   2.233  0.00  0.00    -0.005 A 
ATOM      6  C5  UNL d   1      -2.984  -5.627   3.074  0.00  0.00     0.003 A 
ATOM      7  C6  UNL d   1      -1.917  -4.880   2.574  0.00  0.00    -0.001 A 
ENDROOT
TORSDOF 0
ENDMDL
