MODEL 1
REMARK minimizedAffinity -3.34798217
REMARK minimizedRMSD -1
REMARK  0 active torsions:
REMARK  status: ('A' for Active; 'I' for Inactive)
ROOT
ATOM      1  C   UNL d   1       0.040  -4.880  -5.634  0.00  0.00     0.078 C 
ATOM      2  C1  UNL d   1      -0.890  -5.275  -4.526  0.00  0.00    -0.077 A 
ATOM      3  C2  UNL d   1      -2.214  -5.643  -4.792  0.00  0.00    -0.001 A 
ATOM      4  C3  UNL d   1      -3.071  -5.999  -3.750  0.00  0.00     0.003 A 
ATOM      5  C4  UNL d   1      -2.614  -5.991  -2.434  0.00  0.00    -0.005 A 
ATOM      6  C5  UNL d   1      -1.298  -5.625  -2.159  0.00  0.00     0.003 A 
ATOM      7  C6  UNL d   1      -0.439  -5.268  -3.200  0.00  0.00    -0.001 A 
ENDROOT
TORSDOF 0
ENDMDL
