MODEL 1
REMARK minimizedAffinity -1.39697766
REMARK minimizedRMSD -1
REMARK  0 active torsions:
REMARK  status: ('A' for Active; 'I' for Inactive)
ROOT
ATOM      1  C   UNL d   1      -1.752  -4.868  -1.845  0.00  0.00     0.078 C 
ATOM      2  C1  UNL d   1      -1.798  -5.251  -3.294  0.00  0.00    -0.077 A 
ATOM      3  C2  UNL d   1      -3.000  -5.636  -3.900  0.00  0.00    -0.001 A 
ATOM      4  C3  UNL d   1      -3.026  -6.000  -5.247  0.00  0.00     0.003 A 
ATOM      5  C4  UNL d   1      -1.854  -5.983  -5.999  0.00  0.00    -0.005 A 
ATOM      6  C5  UNL d   1      -0.652  -5.604  -5.404  0.00  0.00     0.003 A 
ATOM      7  C6  UNL d   1      -0.624  -5.240  -4.057  0.00  0.00    -0.001 A 
ENDROOT
TORSDOF 0
ENDMDL
