MODEL 1
REMARK minimizedAffinity -3.27923036
REMARK minimizedRMSD -1
REMARK  0 active torsions:
REMARK  status: ('A' for Active; 'I' for Inactive)
ROOT
ATOM      1  C   UNL d   1       0.115  -5.273  -5.598  0.00  0.00     0.078 C 
ATOM      2  C1  UNL d   1      -0.896  -5.531  -4.520  0.00  0.00    -0.077 A 
ATOM      3  C2  UNL d   1      -2.240  -5.766  -4.834  0.00  0.00    -0.001 A 
ATOM      4  C3  UNL d   1      -3.172  -5.995  -3.820  0.00  0.00     0.003 A 
ATOM      5  C4  UNL d   1      -2.770  -5.989  -2.486  0.00  0.00    -0.005 A 
ATOM      6  C5  UNL d   1      -1.435  -5.753  -2.164  0.00  0.00     0.003 A 
ATOM      7  C6  UNL d   1      -0.501  -5.524  -3.176  0.00  0.00    -0.001 A 
ENDROOT
TORSDOF 0
ENDMDL
