MODEL 1
REMARK minimizedAffinity -1.31232274
REMARK minimizedRMSD -1
REMARK  0 active torsions:
REMARK  status: ('A' for Active; 'I' for Inactive)
ROOT
ATOM      1  C   UNL d   1      -5.965  -5.832   3.278  0.00  0.00     0.078 C 
ATOM      2  C1  UNL d   1      -4.882  -5.630   2.261  0.00  0.00    -0.077 A 
ATOM      3  C2  UNL d   1      -5.071  -6.000   0.924  0.00  0.00    -0.001 A 
ATOM      4  C3  UNL d   1      -4.050  -5.815  -0.010  0.00  0.00     0.003 A 
ATOM      5  C4  UNL d   1      -2.833  -5.261   0.383  0.00  0.00    -0.005 A 
ATOM      6  C5  UNL d   1      -2.636  -4.892   1.712  0.00  0.00     0.003 A 
ATOM      7  C6  UNL d   1      -3.655  -5.076   2.648  0.00  0.00    -0.001 A 
ENDROOT
TORSDOF 0
ENDMDL
