MODEL 1
REMARK minimizedAffinity -4.08171844
REMARK minimizedRMSD -1
REMARK  0 active torsions:
REMARK  status: ('A' for Active; 'I' for Inactive)
ROOT
ATOM      1  C   UNL d   1      -4.591  -5.782   2.480  0.00  0.00     0.078 C 
ATOM      2  C1  UNL d   1      -4.533  -5.851   0.983  0.00  0.00    -0.077 A 
ATOM      3  C2  UNL d   1      -5.704  -5.911   0.218  0.00  0.00    -0.001 A 
ATOM      4  C3  UNL d   1      -5.635  -5.985  -1.174  0.00  0.00     0.003 A 
ATOM      5  C4  UNL d   1      -4.397  -6.000  -1.813  0.00  0.00    -0.005 A 
ATOM      6  C5  UNL d   1      -3.226  -5.943  -1.060  0.00  0.00     0.003 A 
ATOM      7  C6  UNL d   1      -3.293  -5.869   0.332  0.00  0.00    -0.001 A 
ENDROOT
TORSDOF 0
ENDMDL
