MODEL 1
REMARK minimizedAffinity -2.856215
REMARK minimizedRMSD -1
REMARK  0 active torsions:
REMARK  status: ('A' for Active; 'I' for Inactive)
ROOT
ATOM      1  C   UNL d   1       3.941  -1.330   2.966  0.00  0.00     0.078 C 
ATOM      2  C1  UNL d   1       2.863  -1.013   1.973  0.00  0.00    -0.077 A 
ATOM      3  C2  UNL d   1       3.162  -0.832   0.617  0.00  0.00    -0.001 A 
ATOM      4  C3  UNL d   1       2.150  -0.527  -0.295  0.00  0.00     0.003 A 
ATOM      5  C4  UNL d   1       0.832  -0.400   0.140  0.00  0.00    -0.005 A 
ATOM      6  C5  UNL d   1       0.525  -0.576   1.488  0.00  0.00     0.003 A 
ATOM      7  C6  UNL d   1       1.536  -0.880   2.401  0.00  0.00    -0.001 A 
ENDROOT
TORSDOF 0
ENDMDL
