MODEL 1
REMARK minimizedAffinity -1.23998272
REMARK minimizedRMSD -1
REMARK  0 active torsions:
REMARK  status: ('A' for Active; 'I' for Inactive)
ROOT
ATOM      1  C   UNL d   1       1.573  -1.452   3.906  0.00  0.00     0.078 C 
ATOM      2  C1  UNL d   1       1.725  -1.115   2.452  0.00  0.00    -0.077 A 
ATOM      3  C2  UNL d   1       2.913  -1.397   1.767  0.00  0.00    -0.001 A 
ATOM      4  C3  UNL d   1       3.044  -1.070   0.416  0.00  0.00     0.003 A 
ATOM      5  C4  UNL d   1       1.991  -0.457  -0.260  0.00  0.00    -0.005 A 
ATOM      6  C5  UNL d   1       0.805  -0.171   0.414  0.00  0.00     0.003 A 
ATOM      7  C6  UNL d   1       0.673  -0.498   1.765  0.00  0.00    -0.001 A 
ENDROOT
TORSDOF 0
ENDMDL
