MODEL 1
REMARK minimizedAffinity 1.8308903
REMARK minimizedRMSD -1
REMARK  0 active torsions:
REMARK  status: ('A' for Active; 'I' for Inactive)
ROOT
ATOM      1  C   UNL d   1       0.795  -0.389  -0.377  0.00  0.00     0.078 C 
ATOM      2  C1  UNL d   1       0.323   0.965  -0.815  0.00  0.00    -0.077 A 
ATOM      3  C2  UNL d   1      -0.341   1.137  -2.036  0.00  0.00    -0.001 A 
ATOM      4  C3  UNL d   1      -0.766   2.405  -2.436  0.00  0.00     0.003 A 
ATOM      5  C4  UNL d   1      -0.530   3.511  -1.622  0.00  0.00    -0.005 A 
ATOM      6  C5  UNL d   1       0.132   3.350  -0.407  0.00  0.00     0.003 A 
ATOM      7  C6  UNL d   1       0.558   2.083  -0.005  0.00  0.00    -0.001 A 
ENDROOT
TORSDOF 0
ENDMDL
