MODEL 1
REMARK minimizedAffinity -0.563778996
REMARK minimizedRMSD -1
REMARK  0 active torsions:
REMARK  status: ('A' for Active; 'I' for Inactive)
ROOT
ATOM      1  C   UNL d   1      -2.887  -5.999  -2.457  0.00  0.00     0.078 C 
ATOM      2  C1  UNL d   1      -1.938  -5.904  -3.614  0.00  0.00    -0.077 A 
ATOM      3  C2  UNL d   1      -2.397  -6.000  -4.933  0.00  0.00    -0.001 A 
ATOM      4  C3  UNL d   1      -1.500  -5.920  -6.000  0.00  0.00     0.003 A 
ATOM      5  C4  UNL d   1      -0.139  -5.745  -5.758  0.00  0.00    -0.005 A 
ATOM      6  C5  UNL d   1       0.327  -5.651  -4.448  0.00  0.00     0.003 A 
ATOM      7  C6  UNL d   1      -0.568  -5.731  -3.380  0.00  0.00    -0.001 A 
ENDROOT
TORSDOF 0
ENDMDL
