MODEL 1
REMARK minimizedAffinity 0.86822331
REMARK minimizedRMSD -1
REMARK  0 active torsions:
REMARK  status: ('A' for Active; 'I' for Inactive)
ROOT
ATOM      1  C   UNL d   1      -2.168  -5.994  -4.880  0.00  0.00     0.078 C 
ATOM      2  C1  UNL d   1      -0.670  -5.983  -4.826  0.00  0.00    -0.077 A 
ATOM      3  C2  UNL d   1       0.094  -5.997  -6.000  0.00  0.00    -0.001 A 
ATOM      4  C3  UNL d   1       1.488  -5.997  -5.934  0.00  0.00     0.003 A 
ATOM      5  C4  UNL d   1       2.131  -5.985  -4.698  0.00  0.00    -0.005 A 
ATOM      6  C5  UNL d   1       1.379  -5.974  -3.525  0.00  0.00     0.003 A 
ATOM      7  C6  UNL d   1      -0.015  -5.974  -3.588  0.00  0.00    -0.001 A 
ENDROOT
TORSDOF 0
ENDMDL
