MODEL 1
REMARK minimizedAffinity 8.86466789
REMARK minimizedRMSD -1
REMARK  0 active torsions:
REMARK  status: ('A' for Active; 'I' for Inactive)
ROOT
ATOM      1  C1  DEN d   1      -5.999  -2.813  -5.648  0.00  0.00     0.130 A 
ATOM      2  C2  DEN d   1      -5.316  -1.569  -5.301  0.00  0.00    -0.031 A 
ATOM      3  C3  DEN d   1      -3.874  -1.861  -5.172  0.00  0.00     0.027 A 
ATOM      4  C4  DEN d   1      -2.638  -4.104  -5.479  0.00  0.00     0.027 A 
ATOM      5  C5  DEN d   1      -2.795  -5.442  -5.765  0.00  0.00    -0.003 A 
ATOM      6  C6  DEN d   1      -4.025  -6.000  -5.997  0.00  0.00     0.001 A 
ATOM      7  C7  DEN d   1      -5.142  -5.207  -5.991  0.00  0.00     0.017 A 
ATOM      8  C8  DEN d   1      -4.992  -3.858  -5.696  0.00  0.00    -0.094 A 
ATOM      9  C9  DEN d   1      -3.739  -3.311  -5.477  0.00  0.00    -0.072 A 
ENDROOT
TORSDOF 0
ENDMDL
