MODEL 1
REMARK minimizedAffinity 4.48455667
REMARK minimizedRMSD -1
REMARK  0 active torsions:
REMARK  status: ('A' for Active; 'I' for Inactive)
ROOT
ATOM      1  C1  DEN d   1      -3.055   0.248   1.952  0.00  0.00     0.130 A 
ATOM      2  C2  DEN d   1      -3.124  -0.182   3.346  0.00  0.00    -0.031 A 
ATOM      3  C3  DEN d   1      -2.034  -1.150   3.580  0.00  0.00     0.027 A 
ATOM      4  C4  DEN d   1      -0.251  -2.016   1.930  0.00  0.00     0.027 A 
ATOM      5  C5  DEN d   1       0.205  -1.948   0.632  0.00  0.00    -0.003 A 
ATOM      6  C6  DEN d   1      -0.410  -1.175  -0.318  0.00  0.00     0.001 A 
ATOM      7  C7  DEN d   1      -1.488  -0.405   0.028  0.00  0.00     0.017 A 
ATOM      8  C8  DEN d   1      -1.958  -0.474   1.333  0.00  0.00    -0.094 A 
ATOM      9  C9  DEN d   1      -1.315  -1.251   2.281  0.00  0.00    -0.072 A 
ENDROOT
TORSDOF 0
ENDMDL
