MODEL 1
REMARK minimizedAffinity 0.560022175
REMARK minimizedRMSD -1
REMARK  0 active torsions:
REMARK  status: ('A' for Active; 'I' for Inactive)
ROOT
ATOM      1  C1  DEN d   1      -4.948  -3.679  -3.837  0.00  0.00     0.130 A 
ATOM      2  C2  DEN d   1      -5.887  -3.765  -4.953  0.00  0.00    -0.031 A 
ATOM      3  C3  DEN d   1      -5.276  -4.609  -5.999  0.00  0.00     0.027 A 
ATOM      4  C4  DEN d   1      -2.983  -5.789  -5.999  0.00  0.00     0.027 A 
ATOM      5  C5  DEN d   1      -1.829  -5.999  -5.277  0.00  0.00    -0.003 A 
ATOM      6  C6  DEN d   1      -1.621  -5.428  -4.049  0.00  0.00     0.001 A 
ATOM      7  C7  DEN d   1      -2.601  -4.654  -3.486  0.00  0.00     0.017 A 
ATOM      8  C8  DEN d   1      -3.764  -4.432  -4.211  0.00  0.00    -0.094 A 
ATOM      9  C9  DEN d   1      -3.960  -5.028  -5.445  0.00  0.00    -0.072 A 
ENDROOT
TORSDOF 0
ENDMDL
