MODEL 1
REMARK minimizedAffinity 0.555864871
REMARK minimizedRMSD -1
REMARK  0 active torsions:
REMARK  status: ('A' for Active; 'I' for Inactive)
ROOT
ATOM      1  C1  DEN d   1      -5.013  -3.761  -3.718  0.00  0.00     0.130 A 
ATOM      2  C2  DEN d   1      -5.871  -3.666  -4.895  0.00  0.00    -0.031 A 
ATOM      3  C3  DEN d   1      -5.213  -4.393  -6.000  0.00  0.00     0.027 A 
ATOM      4  C4  DEN d   1      -2.963  -5.653  -6.000  0.00  0.00     0.027 A 
ATOM      5  C5  DEN d   1      -1.871  -6.000  -5.235  0.00  0.00    -0.003 A 
ATOM      6  C6  DEN d   1      -1.734  -5.599  -3.933  0.00  0.00     0.001 A 
ATOM      7  C7  DEN d   1      -2.728  -4.866  -3.340  0.00  0.00     0.017 A 
ATOM      8  C8  DEN d   1      -3.829  -4.506  -4.107  0.00  0.00    -0.094 A 
ATOM      9  C9  DEN d   1      -3.954  -4.931  -5.418  0.00  0.00    -0.072 A 
ENDROOT
TORSDOF 0
ENDMDL
