MODEL 1
REMARK minimizedAffinity 3.85754228
REMARK minimizedRMSD -1
REMARK  0 active torsions:
REMARK  status: ('A' for Active; 'I' for Inactive)
ROOT
ATOM      1  C1  DEN d   1       0.218   0.698   1.004  0.00  0.00     0.130 A 
ATOM      2  C2  DEN d   1       1.139   0.050   0.075  0.00  0.00    -0.031 A 
ATOM      3  C3  DEN d   1       0.680  -1.339  -0.127  0.00  0.00     0.027 A 
ATOM      4  C4  DEN d   1      -1.358  -2.541   0.900  0.00  0.00     0.027 A 
ATOM      5  C5  DEN d   1      -2.428  -2.403   1.756  0.00  0.00    -0.003 A 
ATOM      6  C6  DEN d   1      -2.670  -1.242   2.441  0.00  0.00     0.001 A 
ATOM      7  C7  DEN d   1      -1.856  -0.158   2.249  0.00  0.00     0.017 A 
ATOM      8  C8  DEN d   1      -0.770  -0.291   1.393  0.00  0.00    -0.094 A 
ATOM      9  C9  DEN d   1      -0.550  -1.469   0.700  0.00  0.00    -0.072 A 
ENDROOT
TORSDOF 0
ENDMDL
