MODEL 1
REMARK minimizedAffinity 0.529069781
REMARK minimizedRMSD -1
REMARK  0 active torsions:
REMARK  status: ('A' for Active; 'I' for Inactive)
ROOT
ATOM      1  C1  DEN d   1      -5.091  -3.667  -3.562  0.00  0.00     0.130 A 
ATOM      2  C2  DEN d   1      -5.805  -3.252  -4.766  0.00  0.00    -0.031 A 
ATOM      3  C3  DEN d   1      -5.070  -3.775  -5.936  0.00  0.00     0.027 A 
ATOM      4  C4  DEN d   1      -2.910  -5.183  -5.998  0.00  0.00     0.027 A 
ATOM      5  C5  DEN d   1      -1.932  -5.773  -5.228  0.00  0.00    -0.003 A 
ATOM      6  C6  DEN d   1      -1.920  -5.675  -3.862  0.00  0.00     0.001 A 
ATOM      7  C7  DEN d   1      -2.930  -5.008  -3.220  0.00  0.00     0.017 A 
ATOM      8  C8  DEN d   1      -3.916  -4.404  -3.990  0.00  0.00    -0.094 A 
ATOM      9  C9  DEN d   1      -3.917  -4.525  -5.369  0.00  0.00    -0.072 A 
ENDROOT
TORSDOF 0
ENDMDL
