MODEL 1
REMARK minimizedAffinity -2.66435266
REMARK minimizedRMSD -1
REMARK  0 active torsions:
REMARK  status: ('A' for Active; 'I' for Inactive)
ROOT
ATOM      1  C1  DEN d   1      -2.334  -5.988  -4.884  0.00  0.00     0.130 A 
ATOM      2  C2  DEN d   1      -1.471  -4.981  -5.496  0.00  0.00    -0.031 A 
ATOM      3  C3  DEN d   1      -2.290  -3.782  -5.767  0.00  0.00     0.027 A 
ATOM      4  C4  DEN d   1      -4.795  -3.388  -5.296  0.00  0.00     0.027 A 
ATOM      5  C5  DEN d   1      -5.947  -3.956  -4.798  0.00  0.00    -0.003 A 
ATOM      6  C6  DEN d   1      -5.982  -5.243  -4.329  0.00  0.00     0.001 A 
ATOM      7  C7  DEN d   1      -4.834  -5.989  -4.306  0.00  0.00     0.017 A 
ATOM      8  C8  DEN d   1      -3.670  -5.425  -4.814  0.00  0.00    -0.094 A 
ATOM      9  C9  DEN d   1      -3.652  -4.119  -5.272  0.00  0.00    -0.072 A 
ENDROOT
TORSDOF 0
ENDMDL
