MODEL 1
REMARK minimizedAffinity 1.38018656
REMARK minimizedRMSD -1
REMARK  0 active torsions:
REMARK  status: ('A' for Active; 'I' for Inactive)
ROOT
ATOM      1  C1  DEN d   1      -5.337  -2.616  -3.628  0.00  0.00     0.130 A 
ATOM      2  C2  DEN d   1      -6.000  -2.176  -4.852  0.00  0.00    -0.031 A 
ATOM      3  C3  DEN d   1      -5.263  -2.742  -6.000  0.00  0.00     0.027 A 
ATOM      4  C4  DEN d   1      -3.174  -4.255  -6.000  0.00  0.00     0.027 A 
ATOM      5  C5  DEN d   1      -2.246  -4.887  -5.202  0.00  0.00    -0.003 A 
ATOM      6  C6  DEN d   1      -2.262  -4.779  -3.837  0.00  0.00     0.001 A 
ATOM      7  C7  DEN d   1      -3.254  -4.059  -3.225  0.00  0.00     0.017 A 
ATOM      8  C8  DEN d   1      -4.189  -3.413  -4.022  0.00  0.00    -0.094 A 
ATOM      9  C9  DEN d   1      -4.163  -3.544  -5.400  0.00  0.00    -0.072 A 
ENDROOT
TORSDOF 0
ENDMDL
