MODEL 1
REMARK minimizedAffinity 0.111351468
REMARK minimizedRMSD -1
REMARK  0 active torsions:
REMARK  status: ('A' for Active; 'I' for Inactive)
ROOT
ATOM      1  C1  DEN d   1      -5.077  -3.393  -3.636  0.00  0.00     0.130 A 
ATOM      2  C2  DEN d   1      -5.615  -2.817  -4.865  0.00  0.00    -0.031 A 
ATOM      3  C3  DEN d   1      -4.835  -3.352  -6.000  0.00  0.00     0.027 A 
ATOM      4  C4  DEN d   1      -2.861  -5.012  -5.972  0.00  0.00     0.027 A 
ATOM      5  C5  DEN d   1      -2.041  -5.767  -5.164  0.00  0.00    -0.003 A 
ATOM      6  C6  DEN d   1      -2.152  -5.758  -3.798  0.00  0.00     0.001 A 
ATOM      7  C7  DEN d   1      -3.134  -5.012  -3.202  0.00  0.00     0.017 A 
ATOM      8  C8  DEN d   1      -3.961  -4.242  -4.011  0.00  0.00    -0.094 A 
ATOM      9  C9  DEN d   1      -3.841  -4.275  -5.390  0.00  0.00    -0.072 A 
ENDROOT
TORSDOF 0
ENDMDL
