MODEL 1
REMARK minimizedAffinity -0.505324483
REMARK minimizedRMSD -1
REMARK  0 active torsions:
REMARK  status: ('A' for Active; 'I' for Inactive)
ROOT
ATOM      1  C1  DEN d   1      -3.941  -1.807  -1.128  0.00  0.00     0.130 A 
ATOM      2  C2  DEN d   1      -4.019  -0.783  -2.166  0.00  0.00    -0.031 A 
ATOM      3  C3  DEN d   1      -3.268   0.399  -1.699  0.00  0.00     0.027 A 
ATOM      4  C4  DEN d   1      -1.993   0.740   0.517  0.00  0.00     0.027 A 
ATOM      5  C5  DEN d   1      -1.654   0.156   1.718  0.00  0.00    -0.003 A 
ATOM      6  C6  DEN d   1      -2.078  -1.099   2.066  0.00  0.00     0.001 A 
ATOM      7  C7  DEN d   1      -2.829  -1.830   1.184  0.00  0.00     0.017 A 
ATOM      8  C8  DEN d   1      -3.181  -1.246  -0.026  0.00  0.00    -0.094 A 
ATOM      9  C9  DEN d   1      -2.732   0.019  -0.364  0.00  0.00    -0.072 A 
ENDROOT
TORSDOF 0
ENDMDL
