MODEL 1
REMARK minimizedAffinity 7.85356617
REMARK minimizedRMSD -1
REMARK  0 active torsions:
REMARK  status: ('A' for Active; 'I' for Inactive)
ROOT
ATOM      1  C1  DEN d   1      -3.369  -4.525  -3.591  0.00  0.00     0.130 A 
ATOM      2  C2  DEN d   1      -2.964  -5.252  -4.791  0.00  0.00    -0.031 A 
ATOM      3  C3  DEN d   1      -3.669  -4.657  -5.945  0.00  0.00     0.027 A 
ATOM      4  C4  DEN d   1      -5.334  -2.688  -5.990  0.00  0.00     0.027 A 
ATOM      5  C5  DEN d   1      -5.998  -1.761  -5.216  0.00  0.00    -0.003 A 
ATOM      6  C6  DEN d   1      -5.859  -1.713  -3.855  0.00  0.00     0.001 A 
ATOM      7  C7  DEN d   1      -5.002  -2.579  -3.228  0.00  0.00     0.017 A 
ATOM      8  C8  DEN d   1      -4.336  -3.521  -4.000  0.00  0.00    -0.094 A 
ATOM      9  C9  DEN d   1      -4.480  -3.546  -5.377  0.00  0.00    -0.072 A 
ENDROOT
TORSDOF 0
ENDMDL
