MODEL 1
REMARK minimizedAffinity -0.0205523446
REMARK minimizedRMSD -1
REMARK  0 active torsions:
REMARK  status: ('A' for Active; 'I' for Inactive)
ROOT
ATOM      1  C1  DEN d   1      -2.709  -5.999  -4.877  0.00  0.00     0.130 A 
ATOM      2  C2  DEN d   1      -1.929  -5.318  -3.847  0.00  0.00    -0.031 A 
ATOM      3  C3  DEN d   1      -2.678  -4.118  -3.425  0.00  0.00     0.027 A 
ATOM      4  C4  DEN d   1      -4.962  -3.255  -4.258  0.00  0.00     0.027 A 
ATOM      5  C5  DEN d   1      -6.000  -3.490  -5.132  0.00  0.00    -0.003 A 
ATOM      6  C6  DEN d   1      -5.998  -4.550  -6.000  0.00  0.00     0.001 A 
ATOM      7  C7  DEN d   1      -4.957  -5.441  -5.980  0.00  0.00     0.017 A 
ATOM      8  C8  DEN d   1      -3.904  -5.207  -5.106  0.00  0.00    -0.094 A 
ATOM      9  C9  DEN d   1      -3.930  -4.136  -4.229  0.00  0.00    -0.072 A 
ENDROOT
TORSDOF 0
ENDMDL
