MODEL 1
REMARK minimizedAffinity -3.61573672
REMARK minimizedRMSD -1
REMARK  0 active torsions:
REMARK  status: ('A' for Active; 'I' for Inactive)
ROOT
ATOM      1  C1  DEN d   1      -1.736  -4.557  -4.834  0.00  0.00     0.130 A 
ATOM      2  C2  DEN d   1      -1.862  -5.881  -5.437  0.00  0.00    -0.031 A 
ATOM      3  C3  DEN d   1      -3.222  -5.999  -6.000  0.00  0.00     0.027 A 
ATOM      4  C4  DEN d   1      -5.134  -4.268  -6.000  0.00  0.00     0.027 A 
ATOM      5  C5  DEN d   1      -5.504  -3.004  -5.596  0.00  0.00    -0.003 A 
ATOM      6  C6  DEN d   1      -4.662  -2.189  -4.887  0.00  0.00     0.001 A 
ATOM      7  C7  DEN d   1      -3.392  -2.611  -4.598  0.00  0.00     0.017 A 
ATOM      8  C8  DEN d   1      -3.014  -3.887  -4.995  0.00  0.00    -0.094 A 
ATOM      9  C9  DEN d   1      -3.875  -4.692  -5.722  0.00  0.00    -0.072 A 
ENDROOT
TORSDOF 0
ENDMDL
