MODEL 1
REMARK minimizedAffinity -0.705576897
REMARK minimizedRMSD -1
REMARK  0 active torsions:
REMARK  status: ('A' for Active; 'I' for Inactive)
ROOT
ATOM      1  C1  DEN d   1      -2.933  -6.000  -4.354  0.00  0.00     0.130 A 
ATOM      2  C2  DEN d   1      -1.892  -5.624  -5.307  0.00  0.00    -0.031 A 
ATOM      3  C3  DEN d   1      -2.300  -4.361  -5.954  0.00  0.00     0.027 A 
ATOM      4  C4  DEN d   1      -4.428  -2.955  -5.570  0.00  0.00     0.027 A 
ATOM      5  C5  DEN d   1      -5.610  -2.877  -4.867  0.00  0.00    -0.003 A 
ATOM      6  C6  DEN d   1      -5.996  -3.843  -3.977  0.00  0.00     0.001 A 
ATOM      7  C7  DEN d   1      -5.170  -4.908  -3.732  0.00  0.00     0.017 A 
ATOM      8  C8  DEN d   1      -3.980  -4.998  -4.441  0.00  0.00    -0.094 A 
ATOM      9  C9  DEN d   1      -3.602  -4.004  -5.329  0.00  0.00    -0.072 A 
ENDROOT
TORSDOF 0
ENDMDL
