MODEL 1
REMARK minimizedAffinity 5.17186403
REMARK minimizedRMSD -1
REMARK  0 active torsions:
REMARK  status: ('A' for Active; 'I' for Inactive)
ROOT
ATOM      1  C1  DEN d   1      -2.560   0.504  -5.353  0.00  0.00     0.130 A 
ATOM      2  C2  DEN d   1      -2.159   1.108  -4.085  0.00  0.00    -0.031 A 
ATOM      3  C3  DEN d   1      -3.146   0.714  -3.059  0.00  0.00     0.027 A 
ATOM      4  C4  DEN d   1      -5.241  -0.769  -3.309  0.00  0.00     0.027 A 
ATOM      5  C5  DEN d   1      -6.000  -1.500  -4.196  0.00  0.00    -0.003 A 
ATOM      6  C6  DEN d   1      -5.686  -1.586  -5.526  0.00  0.00     0.001 A 
ATOM      7  C7  DEN d   1      -4.560  -0.967  -6.000  0.00  0.00     0.017 A 
ATOM      8  C8  DEN d   1      -3.794  -0.221  -5.113  0.00  0.00    -0.094 A 
ATOM      9  C9  DEN d   1      -4.121  -0.157  -3.769  0.00  0.00    -0.072 A 
ENDROOT
TORSDOF 0
ENDMDL
