MODEL 1
REMARK minimizedAffinity 0.482155174
REMARK minimizedRMSD -1
REMARK  0 active torsions:
REMARK  status: ('A' for Active; 'I' for Inactive)
ROOT
ATOM      1  C   UNL d   1      -1.372   3.495  -0.374  0.00  0.00     0.078 C 
ATOM      2  C1  UNL d   1      -2.569   4.143   0.256  0.00  0.00    -0.077 A 
ATOM      3  C2  UNL d   1      -3.269   3.512   1.292  0.00  0.00    -0.001 A 
ATOM      4  C3  UNL d   1      -4.387   4.122   1.863  0.00  0.00     0.003 A 
ATOM      5  C4  UNL d   1      -4.816   5.366   1.403  0.00  0.00    -0.005 A 
ATOM      6  C5  UNL d   1      -4.128   6.000   0.371  0.00  0.00     0.003 A 
ATOM      7  C6  UNL d   1      -3.010   5.391  -0.201  0.00  0.00    -0.001 A 
ENDROOT
TORSDOF 0
ENDMDL
