MODEL 1
REMARK minimizedAffinity 1.56953537
REMARK minimizedRMSD -1
REMARK  0 active torsions:
REMARK  status: ('A' for Active; 'I' for Inactive)
ROOT
ATOM      1  C   UNL d   1      -1.412   2.708   0.285  0.00  0.00     0.078 C 
ATOM      2  C1  UNL d   1      -0.710   3.836  -0.410  0.00  0.00    -0.077 A 
ATOM      3  C2  UNL d   1       0.688   3.902  -0.446  0.00  0.00    -0.001 A 
ATOM      4  C3  UNL d   1       1.329   4.963  -1.088  0.00  0.00     0.003 A 
ATOM      5  C4  UNL d   1       0.579   5.966  -1.699  0.00  0.00    -0.005 A 
ATOM      6  C5  UNL d   1      -0.813   5.910  -1.667  0.00  0.00     0.003 A 
ATOM      7  C6  UNL d   1      -1.455   4.850  -1.025  0.00  0.00    -0.001 A 
ENDROOT
TORSDOF 0
ENDMDL
