MODEL 1
REMARK minimizedAffinity 6.90309381
REMARK minimizedRMSD -1
REMARK  0 active torsions:
REMARK  status: ('A' for Active; 'I' for Inactive)
ROOT
ATOM      1  C   UNL d   1      -1.178   0.380  -4.834  0.00  0.00     0.078 C 
ATOM      2  C1  UNL d   1      -2.281   0.927  -3.976  0.00  0.00    -0.077 A 
ATOM      3  C2  UNL d   1      -2.298   2.274  -3.595  0.00  0.00    -0.001 A 
ATOM      4  C3  UNL d   1      -3.325   2.766  -2.789  0.00  0.00     0.003 A 
ATOM      5  C4  UNL d   1      -4.342   1.918  -2.355  0.00  0.00    -0.005 A 
ATOM      6  C5  UNL d   1      -4.332   0.575  -2.727  0.00  0.00     0.003 A 
ATOM      7  C6  UNL d   1      -3.306   0.081  -3.534  0.00  0.00    -0.001 A 
ENDROOT
TORSDOF 0
ENDMDL
