MODEL 1
REMARK minimizedAffinity 4.84781313
REMARK minimizedRMSD -1
REMARK  0 active torsions:
REMARK  status: ('A' for Active; 'I' for Inactive)
ROOT
ATOM      1  C   UNL d   1       5.266  -1.980   1.421  0.00  0.00     0.078 C 
ATOM      2  C1  UNL d   1       3.834  -1.549   1.534  0.00  0.00    -0.077 A 
ATOM      3  C2  UNL d   1       3.317  -1.076   2.746  0.00  0.00    -0.001 A 
ATOM      4  C3  UNL d   1       1.980  -0.688   2.839  0.00  0.00     0.003 A 
ATOM      5  C4  UNL d   1       1.148  -0.768   1.724  0.00  0.00    -0.005 A 
ATOM      6  C5  UNL d   1       1.654  -1.239   0.514  0.00  0.00     0.003 A 
ATOM      7  C6  UNL d   1       2.991  -1.628   0.419  0.00  0.00    -0.001 A 
ENDROOT
TORSDOF 0
ENDMDL
