MODEL 1
REMARK minimizedAffinity 3.6312654
REMARK minimizedRMSD -1
REMARK  0 active torsions:
REMARK  status: ('A' for Active; 'I' for Inactive)
ROOT
ATOM      1  C   UNL d   1      -5.949  -1.135   5.999  0.00  0.00     0.078 C 
ATOM      2  C1  UNL d   1      -5.255  -0.741   4.730  0.00  0.00    -0.077 A 
ATOM      3  C2  UNL d   1      -3.991  -0.139   4.756  0.00  0.00    -0.001 A 
ATOM      4  C3  UNL d   1      -3.360   0.231   3.567  0.00  0.00     0.003 A 
ATOM      5  C4  UNL d   1      -3.987   0.005   2.343  0.00  0.00    -0.005 A 
ATOM      6  C5  UNL d   1      -5.246  -0.591   2.307  0.00  0.00     0.003 A 
ATOM      7  C6  UNL d   1      -5.878  -0.962   3.495  0.00  0.00    -0.001 A 
ENDROOT
TORSDOF 0
ENDMDL
