MODEL 1
REMARK minimizedAffinity 7.2860651
REMARK minimizedRMSD -1
REMARK  0 active torsions:
REMARK  status: ('A' for Active; 'I' for Inactive)
ROOT
ATOM      1  C   UNL d   1      -2.938   5.858  -2.475  0.00  0.00     0.078 C 
ATOM      2  C1  UNL d   1      -1.664   5.167  -2.087  0.00  0.00    -0.077 A 
ATOM      3  C2  UNL d   1      -1.677   3.859  -1.586  0.00  0.00    -0.001 A 
ATOM      4  C3  UNL d   1      -0.485   3.232  -1.220  0.00  0.00     0.003 A 
ATOM      5  C4  UNL d   1       0.728   3.905  -1.350  0.00  0.00    -0.005 A 
ATOM      6  C5  UNL d   1       0.751   5.207  -1.846  0.00  0.00     0.003 A 
ATOM      7  C6  UNL d   1      -0.440   5.836  -2.213  0.00  0.00    -0.001 A 
ENDROOT
TORSDOF 0
ENDMDL
