MODEL 1
REMARK minimizedAffinity 10.5908985
REMARK minimizedRMSD -1
REMARK  0 active torsions:
REMARK  status: ('A' for Active; 'I' for Inactive)
ROOT
ATOM      1  C   UNL d   1      -1.922   1.055  -4.305  0.00  0.00     0.078 C 
ATOM      2  C1  UNL d   1      -3.136   1.192  -3.435  0.00  0.00    -0.077 A 
ATOM      3  C2  UNL d   1      -3.257   2.250  -2.527  0.00  0.00    -0.001 A 
ATOM      4  C3  UNL d   1      -4.388   2.360  -1.717  0.00  0.00     0.003 A 
ATOM      5  C4  UNL d   1      -5.407   1.413  -1.807  0.00  0.00    -0.005 A 
ATOM      6  C5  UNL d   1      -5.295   0.355  -2.706  0.00  0.00     0.003 A 
ATOM      7  C6  UNL d   1      -4.164   0.244  -3.517  0.00  0.00    -0.001 A 
ENDROOT
TORSDOF 0
ENDMDL
