MODEL 1
REMARK minimizedAffinity 0.103406817
REMARK minimizedRMSD -1
REMARK  1 active torsions:
REMARK  status: ('A' for Active; 'I' for Inactive)
REMARK    1  A    between atoms: N_2  and  C1_3 
ROOT
ATOM      1  C1  UNL d   1       2.245   1.039   0.166  0.00  0.00     0.143 A 
ATOM      2  C2  UNL d   1       2.378  -0.304  -0.200  0.00  0.00    -0.057 A 
ATOM      3  C3  UNL d   1       3.569  -0.793  -0.749  0.00  0.00     0.033 A 
ATOM      4  C4  UNL d   1       4.643   0.063  -0.970  0.00  0.00    -0.042 A 
ATOM      5  C5  UNL d   1       4.525   1.408  -0.637  0.00  0.00     0.033 A 
ATOM      6  C6  UNL d   1       3.335   1.889  -0.082  0.00  0.00    -0.057 A 
ENDROOT
BRANCH   1   7
ATOM      7  N   UNL d   1       1.054   1.606   0.626  0.00  0.00    -0.732 N 
ATOM      8  C   UNL d   1       0.661   1.475   2.012  0.00  0.00     0.284 C 
ATOM      9  H3  UNL d   1       0.886   2.529   0.232  0.00  0.00     0.395 HD
ENDBRANCH   1   7
TORSDOF 1
ENDMDL
