MODEL 1
REMARK minimizedAffinity 3.59183669
REMARK minimizedRMSD -1
REMARK  1 active torsions:
REMARK  status: ('A' for Active; 'I' for Inactive)
REMARK    1  A    between atoms: N_2  and  C1_3 
ROOT
ATOM      1  C1  UNL d   1       2.047   1.074   0.262  0.00  0.00     0.143 A 
ATOM      2  C2  UNL d   1       2.938   2.150   0.187  0.00  0.00    -0.057 A 
ATOM      3  C3  UNL d   1       4.244   1.980  -0.287  0.00  0.00     0.033 A 
ATOM      4  C4  UNL d   1       4.694   0.720  -0.668  0.00  0.00    -0.042 A 
ATOM      5  C5  UNL d   1       3.834  -0.369  -0.578  0.00  0.00     0.033 A 
ATOM      6  C6  UNL d   1       2.528  -0.191  -0.111  0.00  0.00    -0.057 A 
ENDROOT
BRANCH   1   7
ATOM      7  N   UNL d   1       0.768   1.160   0.816  0.00  0.00    -0.732 N 
ATOM      8  C   UNL d   1      -0.365   1.543   0.000  0.00  0.00     0.284 C 
ATOM      9  H3  UNL d   1       0.574   0.402   1.466  0.00  0.00     0.395 HD
ENDBRANCH   1   7
TORSDOF 1
ENDMDL
