MODEL 1
REMARK minimizedAffinity 1.13294303
REMARK minimizedRMSD -1
REMARK  1 active torsions:
REMARK  status: ('A' for Active; 'I' for Inactive)
REMARK    1  A    between atoms: N_2  and  C1_3 
ROOT
ATOM      1  C1  UNL d   1       1.967  -0.474   1.638  0.00  0.00     0.143 A 
ATOM      2  C2  UNL d   1       2.194   0.804   1.116  0.00  0.00    -0.057 A 
ATOM      3  C3  UNL d   1       3.075   1.005   0.047  0.00  0.00     0.033 A 
ATOM      4  C4  UNL d   1       3.769  -0.068  -0.502  0.00  0.00    -0.042 A 
ATOM      5  C5  UNL d   1       3.578  -1.344   0.017  0.00  0.00     0.033 A 
ATOM      6  C6  UNL d   1       2.692  -1.539   1.081  0.00  0.00    -0.057 A 
ENDROOT
BRANCH   1   7
ATOM      7  N   UNL d   1       1.178  -0.726   2.763  0.00  0.00    -0.732 N 
ATOM      8  C   UNL d   1       0.551   0.362   3.482  0.00  0.00     0.284 C 
ATOM      9  H3  UNL d   1       0.584  -1.544   2.647  0.00  0.00     0.395 HD
ENDBRANCH   1   7
TORSDOF 1
ENDMDL
