MODEL 1
REMARK minimizedAffinity 0.715435684
REMARK minimizedRMSD -1
REMARK  1 active torsions:
REMARK  status: ('A' for Active; 'I' for Inactive)
REMARK    1  A    between atoms: N_2  and  C1_3 
ROOT
ATOM      1  C1  UNL d   1       1.176   1.291   0.699  0.00  0.00     0.143 A 
ATOM      2  C2  UNL d   1      -0.151   1.488   0.303  0.00  0.00    -0.057 A 
ATOM      3  C3  UNL d   1      -1.176   1.634   1.246  0.00  0.00     0.033 A 
ATOM      4  C4  UNL d   1      -0.894   1.555   2.606  0.00  0.00    -0.042 A 
ATOM      5  C5  UNL d   1       0.414   1.334   3.022  0.00  0.00     0.033 A 
ATOM      6  C6  UNL d   1       1.434   1.196   2.076  0.00  0.00    -0.057 A 
ENDROOT
BRANCH   1   7
ATOM      7  N   UNL d   1       2.224   1.041  -0.190  0.00  0.00    -0.732 N 
ATOM      8  C   UNL d   1       3.545   1.579   0.056  0.00  0.00     0.284 C 
ATOM      9  H3  UNL d   1       2.223   0.082  -0.532  0.00  0.00     0.395 HD
ENDBRANCH   1   7
TORSDOF 1
ENDMDL
