MODEL 1
REMARK minimizedAffinity 6.5924778
REMARK minimizedRMSD -1
REMARK  1 active torsions:
REMARK  status: ('A' for Active; 'I' for Inactive)
REMARK    1  A    between atoms: N_2  and  C1_3 
ROOT
ATOM      1  C1  UNL d   1      -0.270   0.878   2.229  0.00  0.00     0.143 A 
ATOM      2  C2  UNL d   1       0.792   0.627   1.354  0.00  0.00    -0.057 A 
ATOM      3  C3  UNL d   1       0.670   0.863  -0.021  0.00  0.00     0.033 A 
ATOM      4  C4  UNL d   1      -0.529   1.328  -0.550  0.00  0.00    -0.042 A 
ATOM      5  C5  UNL d   1      -1.605   1.561   0.299  0.00  0.00     0.033 A 
ATOM      6  C6  UNL d   1      -1.476   1.330   1.672  0.00  0.00    -0.057 A 
ENDROOT
BRANCH   1   7
ATOM      7  N   UNL d   1      -0.243   0.570   3.592  0.00  0.00    -0.732 N 
ATOM      8  C   UNL d   1       0.874  -0.150   4.163  0.00  0.00     0.284 C 
ATOM      9  H3  UNL d   1      -0.583   1.336   4.170  0.00  0.00     0.395 HD
ENDBRANCH   1   7
TORSDOF 1
ENDMDL
