MODEL 1
REMARK minimizedAffinity 2.97836924
REMARK minimizedRMSD -1
REMARK  1 active torsions:
REMARK  status: ('A' for Active; 'I' for Inactive)
REMARK    1  A    between atoms: N_2  and  C1_3 
ROOT
ATOM      1  C1  UNL d   1       2.403  -1.982  -0.429  0.00  0.00     0.143 A 
ATOM      2  C2  UNL d   1       2.945  -2.542  -1.590  0.00  0.00    -0.057 A 
ATOM      3  C3  UNL d   1       3.994  -1.918  -2.276  0.00  0.00     0.033 A 
ATOM      4  C4  UNL d   1       4.501  -0.703  -1.827  0.00  0.00    -0.042 A 
ATOM      5  C5  UNL d   1       3.960  -0.115  -0.689  0.00  0.00     0.033 A 
ATOM      6  C6  UNL d   1       2.917  -0.747  -0.005  0.00  0.00    -0.057 A 
ENDROOT
BRANCH   1   7
ATOM      7  N   UNL d   1       1.294  -2.504   0.242  0.00  0.00    -0.732 N 
ATOM      8  C   UNL d   1       0.213  -3.125  -0.493  0.00  0.00     0.284 C 
ATOM      9  H3  UNL d   1       1.552  -2.995   1.095  0.00  0.00     0.395 HD
ENDBRANCH   1   7
TORSDOF 1
ENDMDL
