MODEL 1
REMARK minimizedAffinity -2.13135409
REMARK minimizedRMSD -1
REMARK  0 active torsions:
REMARK  status: ('A' for Active; 'I' for Inactive)
ROOT
ATOM      1  C   UNL d   1       0.305  -0.605   0.293  0.00  0.00     0.020 A 
ATOM      2  C1  UNL d   1       0.010   0.758   0.261  0.00  0.00     0.020 A 
ATOM      3  C2  UNL d   1      -0.885   1.256  -0.687  0.00  0.00     0.034 A 
ATOM      4  C3  UNL d   1      -1.489   0.392  -1.608  0.00  0.00     0.017 A 
ATOM      5  C4  UNL d   1      -1.192  -0.975  -1.576  0.00  0.00     0.017 A 
ATOM      6  C5  UNL d   1      -0.294  -1.469  -0.624  0.00  0.00     0.034 A 
ATOM      7 Cl   UNL d   1      -1.896  -2.104  -2.679  0.00  0.00    -0.070 Cl
ATOM      8 Cl1  UNL d   1      -2.586   1.077  -2.753  0.00  0.00    -0.070 Cl
ENDROOT
TORSDOF 0
ENDMDL
