MODEL 1
REMARK minimizedAffinity -3.31290579
REMARK minimizedRMSD -1
REMARK  0 active torsions:
REMARK  status: ('A' for Active; 'I' for Inactive)
ROOT
ATOM      1  C   UNL d   1       2.469   0.245   0.988  0.00  0.00     0.020 A 
ATOM      2  C1  UNL d   1       2.052   1.262   0.131  0.00  0.00     0.020 A 
ATOM      3  C2  UNL d   1       0.765   1.236  -0.410  0.00  0.00     0.034 A 
ATOM      4  C3  UNL d   1      -0.110   0.190  -0.094  0.00  0.00     0.017 A 
ATOM      5  C4  UNL d   1       0.309  -0.831   0.766  0.00  0.00     0.017 A 
ATOM      6  C5  UNL d   1       1.599  -0.800   1.304  0.00  0.00     0.034 A 
ATOM      7 Cl   UNL d   1      -0.713  -2.154   1.202  0.00  0.00    -0.070 Cl
ATOM      8 Cl1  UNL d   1      -1.687   0.222  -0.799  0.00  0.00    -0.070 Cl
ENDROOT
TORSDOF 0
ENDMDL
