MODEL 1
REMARK minimizedAffinity -3.13368893
REMARK minimizedRMSD -1
REMARK  0 active torsions:
REMARK  status: ('A' for Active; 'I' for Inactive)
ROOT
ATOM      1  C   UNL d   1       1.688  -2.109   0.135  0.00  0.00     0.020 A 
ATOM      2  C1  UNL d   1       2.864  -1.361   0.095  0.00  0.00     0.020 A 
ATOM      3  C2  UNL d   1       2.807   0.033   0.146  0.00  0.00     0.034 A 
ATOM      4  C3  UNL d   1       1.572   0.684   0.237  0.00  0.00     0.017 A 
ATOM      5  C4  UNL d   1       0.392  -0.067   0.277  0.00  0.00     0.017 A 
ATOM      6  C5  UNL d   1       0.454  -1.463   0.226  0.00  0.00     0.034 A 
ATOM      7 Cl   UNL d   1      -1.170   0.666   0.388  0.00  0.00    -0.070 Cl
ATOM      8 Cl1  UNL d   1       1.576   2.411   0.296  0.00  0.00    -0.070 Cl
ENDROOT
TORSDOF 0
ENDMDL
