MODEL 1
REMARK minimizedAffinity -2.29892612
REMARK minimizedRMSD -1
REMARK  0 active torsions:
REMARK  status: ('A' for Active; 'I' for Inactive)
ROOT
ATOM      1  C   UNL d   1       3.049  -0.837   1.542  0.00  0.00     0.020 A 
ATOM      2  C1  UNL d   1       2.427  -2.019   1.943  0.00  0.00     0.020 A 
ATOM      3  C2  UNL d   1       1.040  -2.147   1.840  0.00  0.00     0.034 A 
ATOM      4  C3  UNL d   1       0.271  -1.093   1.335  0.00  0.00     0.017 A 
ATOM      5  C4  UNL d   1       0.896   0.093   0.932  0.00  0.00     0.017 A 
ATOM      6  C5  UNL d   1       2.285   0.216   1.037  0.00  0.00     0.034 A 
ATOM      7 Cl   UNL d   1       0.014   1.437   0.299  0.00  0.00    -0.070 Cl
ATOM      8 Cl1  UNL d   1      -1.439  -1.322   1.236  0.00  0.00    -0.070 Cl
ENDROOT
TORSDOF 0
ENDMDL
