MODEL 1
REMARK minimizedAffinity -4.89155149
REMARK minimizedRMSD -1
REMARK  0 active torsions:
REMARK  status: ('A' for Active; 'I' for Inactive)
ROOT
ATOM      1  C   UNL d   1       2.278  -1.593   1.717  0.00  0.00     0.020 A 
ATOM      2  C1  UNL d   1       3.198  -0.618   1.330  0.00  0.00     0.020 A 
ATOM      3  C2  UNL d   1       2.761   0.532   0.670  0.00  0.00     0.034 A 
ATOM      4  C3  UNL d   1       1.400   0.710   0.393  0.00  0.00     0.017 A 
ATOM      5  C4  UNL d   1       0.478  -0.268   0.782  0.00  0.00     0.017 A 
ATOM      6  C5  UNL d   1       0.921  -1.418   1.443  0.00  0.00     0.034 A 
ATOM      7 Cl   UNL d   1      -1.216  -0.118   0.476  0.00  0.00    -0.070 Cl
ATOM      8 Cl1  UNL d   1       0.930   2.157  -0.427  0.00  0.00    -0.070 Cl
ENDROOT
TORSDOF 0
ENDMDL
