MODEL 1
REMARK minimizedAffinity -5.1225009
REMARK minimizedRMSD -1
REMARK  0 active torsions:
REMARK  status: ('A' for Active; 'I' for Inactive)
ROOT
ATOM      1  C   UNL d   1       3.459  -0.128   0.800  0.00  0.00     0.020 A 
ATOM      2  C1  UNL d   1       2.640   0.747   0.087  0.00  0.00     0.020 A 
ATOM      3  C2  UNL d   1       1.251   0.630   0.174  0.00  0.00     0.034 A 
ATOM      4  C3  UNL d   1       0.677  -0.364   0.976  0.00  0.00     0.017 A 
ATOM      5  C4  UNL d   1       1.500  -1.242   1.691  0.00  0.00     0.017 A 
ATOM      6  C5  UNL d   1       2.890  -1.120   1.600  0.00  0.00     0.034 A 
ATOM      7 Cl   UNL d   1       0.865  -2.493   2.700  0.00  0.00    -0.070 Cl
ATOM      8 Cl1  UNL d   1      -1.048  -0.450   1.037  0.00  0.00    -0.070 Cl
ENDROOT
TORSDOF 0
ENDMDL
