MODEL 1
REMARK minimizedAffinity -1.24306035
REMARK minimizedRMSD -1
REMARK  0 active torsions:
REMARK  status: ('A' for Active; 'I' for Inactive)
ROOT
ATOM      1  C   UNL d   1      -0.251   1.488  -0.201  0.00  0.00     0.020 A 
ATOM      2  C1  UNL d   1      -0.861   0.283  -0.548  0.00  0.00     0.020 A 
ATOM      3  C2  UNL d   1      -0.318  -0.926  -0.108  0.00  0.00     0.034 A 
ATOM      4  C3  UNL d   1       0.837  -0.933   0.682  0.00  0.00     0.017 A 
ATOM      5  C4  UNL d   1       1.448   0.278   1.030  0.00  0.00     0.017 A 
ATOM      6  C5  UNL d   1       0.900   1.485   0.587  0.00  0.00     0.034 A 
ATOM      7 Cl   UNL d   1       2.875   0.349   2.002  0.00  0.00    -0.070 Cl
ATOM      8 Cl1  UNL d   1       1.453  -2.464   1.192  0.00  0.00    -0.070 Cl
ENDROOT
TORSDOF 0
ENDMDL
