MODEL 1
REMARK minimizedAffinity -2.19970822
REMARK minimizedRMSD -1
REMARK  0 active torsions:
REMARK  status: ('A' for Active; 'I' for Inactive)
ROOT
ATOM      1  C   UNL d   1      -1.276   0.418   0.116  0.00  0.00     0.020 A 
ATOM      2  C1  UNL d   1      -0.306   1.339  -0.277  0.00  0.00     0.020 A 
ATOM      3  C2  UNL d   1       1.048   1.051  -0.088  0.00  0.00     0.034 A 
ATOM      4  C3  UNL d   1       1.435  -0.162   0.495  0.00  0.00     0.017 A 
ATOM      5  C4  UNL d   1       0.460  -1.086   0.889  0.00  0.00     0.017 A 
ATOM      6  C5  UNL d   1      -0.894  -0.792   0.698  0.00  0.00     0.034 A 
ATOM      7 Cl   UNL d   1       0.860  -2.602   1.615  0.00  0.00    -0.070 Cl
ATOM      8 Cl1  UNL d   1       3.126  -0.452   0.698  0.00  0.00    -0.070 Cl
ENDROOT
TORSDOF 0
ENDMDL
