MODEL 1
REMARK minimizedAffinity -3.47402477
REMARK minimizedRMSD -1
REMARK  0 active torsions:
REMARK  status: ('A' for Active; 'I' for Inactive)
ROOT
ATOM      1  N1  IND d   1       1.803   2.053   0.268  0.00  0.00    -0.196 N 
ATOM      2  C2  IND d   1       2.590   1.382   1.163  0.00  0.00     0.054 A 
ATOM      3  C3  IND d   1       1.862   1.005   2.238  0.00  0.00    -0.031 A 
ATOM      4  C4  IND d   1      -0.655   1.293   2.692  0.00  0.00     0.051 A 
ATOM      5  C5  IND d   1      -1.782   1.874   2.182  0.00  0.00    -0.031 A 
ATOM      6  C6  IND d   1      -1.772   2.556   0.983  0.00  0.00     0.015 A 
ATOM      7  C7  IND d   1      -0.632   2.673   0.239  0.00  0.00    -0.016 A 
ATOM      8  C8  IND d   1       0.516   2.090   0.757  0.00  0.00    -0.047 A 
ATOM      9  C9  IND d   1       0.521   1.433   1.995  0.00  0.00    -0.096 A 
ATOM     10  HN1 IND d   1       2.068   2.394  -0.476  0.00  0.00     0.298 HD
ENDROOT
TORSDOF 0
ENDMDL
