MODEL 1
REMARK minimizedAffinity -3.08656216
REMARK minimizedRMSD -1
REMARK  0 active torsions:
REMARK  status: ('A' for Active; 'I' for Inactive)
ROOT
ATOM      1  N1  IND d   1      -3.755   1.842   1.520  0.00  0.00    -0.196 N 
ATOM      2  C2  IND d   1      -4.466   1.278   0.498  0.00  0.00     0.054 A 
ATOM      3  C3  IND d   1      -3.649   0.988  -0.539  0.00  0.00    -0.031 A 
ATOM      4  C4  IND d   1      -1.096   1.259  -0.736  0.00  0.00     0.051 A 
ATOM      5  C5  IND d   1      -0.013   1.764  -0.073  0.00  0.00    -0.031 A 
ATOM      6  C6  IND d   1      -0.123   2.328   1.181  0.00  0.00     0.015 A 
ATOM      7  C7  IND d   1      -1.324   2.400   1.827  0.00  0.00    -0.016 A 
ATOM      8  C8  IND d   1      -2.428   1.896   1.154  0.00  0.00    -0.047 A 
ATOM      9  C9  IND d   1      -2.330   1.360  -0.137  0.00  0.00    -0.096 A 
ATOM     10  HN1 IND d   1      -4.082   2.116   2.266  0.00  0.00     0.298 HD
ENDROOT
TORSDOF 0
ENDMDL
