MODEL 1
REMARK minimizedAffinity 6.63287449
REMARK minimizedRMSD -1
REMARK  0 active torsions:
REMARK  status: ('A' for Active; 'I' for Inactive)
ROOT
ATOM      1  N1  IND d   1      -2.230   1.866   2.816  0.00  0.00    -0.196 N 
ATOM      2  C2  IND d   1      -3.197   2.686   2.304  0.00  0.00     0.054 A 
ATOM      3  C3  IND d   1      -2.674   3.491   1.352  0.00  0.00    -0.031 A 
ATOM      4  C4  IND d   1      -0.282   3.565   0.404  0.00  0.00     0.051 A 
ATOM      5  C5  IND d   1       0.964   3.031   0.581  0.00  0.00    -0.031 A 
ATOM      6  C6  IND d   1       1.213   2.060   1.530  0.00  0.00     0.015 A 
ATOM      7  C7  IND d   1       0.218   1.576   2.332  0.00  0.00    -0.016 A 
ATOM      8  C8  IND d   1      -1.046   2.121   2.160  0.00  0.00    -0.047 A 
ATOM      9  C9  IND d   1      -1.296   3.137   1.228  0.00  0.00    -0.096 A 
ATOM     10  HN1 IND d   1      -2.343   1.288   3.442  0.00  0.00     0.298 HD
ENDROOT
TORSDOF 0
ENDMDL
