MODEL 1
REMARK minimizedAffinity 8.0543623
REMARK minimizedRMSD -1
REMARK  0 active torsions:
REMARK  status: ('A' for Active; 'I' for Inactive)
ROOT
ATOM      1  N1  IND d   1       0.159   2.874  -0.045  0.00  0.00    -0.196 N 
ATOM      2  C2  IND d   1       1.305   2.180   0.226  0.00  0.00     0.054 A 
ATOM      3  C3  IND d   1       1.276   1.697   1.488  0.00  0.00    -0.031 A 
ATOM      4  C4  IND d   1      -0.596   1.838   3.250  0.00  0.00     0.051 A 
ATOM      5  C5  IND d   1      -1.820   2.401   3.478  0.00  0.00    -0.031 A 
ATOM      6  C6  IND d   1      -2.461   3.164   2.523  0.00  0.00     0.015 A 
ATOM      7  C7  IND d   1      -1.905   3.383   1.295  0.00  0.00    -0.016 A 
ATOM      8  C8  IND d   1      -0.659   2.819   1.062  0.00  0.00    -0.047 A 
ATOM      9  C9  IND d   1       0.016   2.080   2.042  0.00  0.00    -0.096 A 
ATOM     10  HN1 IND d   1      -0.021   3.277  -0.783  0.00  0.00     0.298 HD
ENDROOT
TORSDOF 0
ENDMDL
