MODEL 1
REMARK minimizedAffinity 1.27721047
REMARK minimizedRMSD -1
REMARK  0 active torsions:
REMARK  status: ('A' for Active; 'I' for Inactive)
ROOT
ATOM      1  N1  IND d   1      -5.688   1.116  -0.944  0.00  0.00    -0.196 N 
ATOM      2  C2  IND d   1      -4.986   0.021  -0.525  0.00  0.00     0.054 A 
ATOM      3  C3  IND d   1      -4.207  -0.449  -1.525  0.00  0.00    -0.031 A 
ATOM      4  C4  IND d   1      -3.852   0.484  -3.898  0.00  0.00     0.051 A 
ATOM      5  C5  IND d   1      -4.303   1.449  -4.755  0.00  0.00    -0.031 A 
ATOM      6  C6  IND d   1      -5.256   2.372  -4.377  0.00  0.00     0.015 A 
ATOM      7  C7  IND d   1      -5.788   2.372  -3.118  0.00  0.00    -0.016 A 
ATOM      8  C8  IND d   1      -5.338   1.390  -2.248  0.00  0.00    -0.047 A 
ATOM      9  C9  IND d   1      -4.402   0.424  -2.639  0.00  0.00    -0.096 A 
ATOM     10  HN1 IND d   1      -6.254   1.560  -0.472  0.00  0.00     0.298 HD
ENDROOT
TORSDOF 0
ENDMDL
