MODEL 1
REMARK minimizedAffinity 2.8798182
REMARK minimizedRMSD -1
REMARK  0 active torsions:
REMARK  status: ('A' for Active; 'I' for Inactive)
ROOT
ATOM      1  N1  IND d   1       0.103   0.710  -1.011  0.00  0.00    -0.196 N 
ATOM      2  C2  IND d   1       0.866   1.691  -0.442  0.00  0.00     0.054 A 
ATOM      3  C3  IND d   1       1.918   1.150   0.212  0.00  0.00    -0.031 A 
ATOM      4  C4  IND d   1       2.639  -1.315   0.392  0.00  0.00     0.051 A 
ATOM      5  C5  IND d   1       2.238  -2.581   0.068  0.00  0.00    -0.031 A 
ATOM      6  C6  IND d   1       1.084  -2.819  -0.649  0.00  0.00     0.015 A 
ATOM      7  C7  IND d   1       0.289  -1.795  -1.080  0.00  0.00    -0.016 A 
ATOM      8  C8  IND d   1       0.689  -0.509  -0.747  0.00  0.00    -0.047 A 
ATOM      9  C9  IND d   1       1.837  -0.263   0.017  0.00  0.00    -0.096 A 
ATOM     10  HN1 IND d   1      -0.621   0.833  -1.458  0.00  0.00     0.298 HD
ENDROOT
TORSDOF 0
ENDMDL
