MODEL 1
REMARK minimizedAffinity 4.89212847
REMARK minimizedRMSD -1
REMARK  0 active torsions:
REMARK  status: ('A' for Active; 'I' for Inactive)
ROOT
ATOM      1  N1  IND d   1       0.252   3.209  -0.700  0.00  0.00    -0.196 N 
ATOM      2  C2  IND d   1      -0.801   3.802  -0.061  0.00  0.00     0.054 A 
ATOM      3  C3  IND d   1      -0.721   3.589   1.272  0.00  0.00    -0.031 A 
ATOM      4  C4  IND d   1       1.103   2.383   2.630  0.00  0.00     0.051 A 
ATOM      5  C5  IND d   1       2.245   1.647   2.484  0.00  0.00    -0.031 A 
ATOM      6  C6  IND d   1       2.793   1.390   1.244  0.00  0.00     0.015 A 
ATOM      7  C7  IND d   1       2.224   1.873   0.100  0.00  0.00    -0.016 A 
ATOM      8  C8  IND d   1       1.061   2.615   0.244  0.00  0.00    -0.047 A 
ATOM      9  C9  IND d   1       0.476   2.843   1.496  0.00  0.00    -0.096 A 
ATOM     10  HN1 IND d   1       0.386   3.207  -1.550  0.00  0.00     0.298 HD
ENDROOT
TORSDOF 0
ENDMDL
