MODEL 1
REMARK minimizedAffinity 8.39957237
REMARK minimizedRMSD -1
REMARK  0 active torsions:
REMARK  status: ('A' for Active; 'I' for Inactive)
ROOT
ATOM      1  N1  IND d   1       0.078   1.369  -0.542  0.00  0.00    -0.196 N 
ATOM      2  C2  IND d   1       1.061   2.197  -0.077  0.00  0.00     0.054 A 
ATOM      3  C3  IND d   1       2.188   1.494   0.173  0.00  0.00    -0.031 A 
ATOM      4  C4  IND d   1       2.675  -1.006  -0.203  0.00  0.00     0.051 A 
ATOM      5  C5  IND d   1       2.075  -2.176  -0.576  0.00  0.00    -0.031 A 
ATOM      6  C6  IND d   1       0.753  -2.224  -0.968  0.00  0.00     0.015 A 
ATOM      7  C7  IND d   1      -0.019  -1.098  -1.012  0.00  0.00    -0.016 A 
ATOM      8  C8  IND d   1       0.585   0.091  -0.627  0.00  0.00    -0.047 A 
ATOM      9  C9  IND d   1       1.914   0.139  -0.188  0.00  0.00    -0.096 A 
ATOM     10  HN1 IND d   1      -0.723   1.606  -0.747  0.00  0.00     0.298 HD
ENDROOT
TORSDOF 0
ENDMDL
