MODEL 1
REMARK minimizedAffinity 8.80994511
REMARK minimizedRMSD -1
REMARK  0 active torsions:
REMARK  status: ('A' for Active; 'I' for Inactive)
ROOT
ATOM      1  N1  IND d   1      -2.977   0.803   2.191  0.00  0.00    -0.196 N 
ATOM      2  C2  IND d   1      -3.591   1.303   1.077  0.00  0.00     0.054 A 
ATOM      3  C3  IND d   1      -2.783   2.190   0.453  0.00  0.00    -0.031 A 
ATOM      4  C4  IND d   1      -0.375   2.895   1.029  0.00  0.00     0.051 A 
ATOM      5  C5  IND d   1       0.596   2.736   1.977  0.00  0.00    -0.031 A 
ATOM      6  C6  IND d   1       0.424   1.905   3.065  0.00  0.00     0.015 A 
ATOM      7  C7  IND d   1      -0.727   1.191   3.241  0.00  0.00    -0.016 A 
ATOM      8  C8  IND d   1      -1.719   1.355   2.284  0.00  0.00    -0.047 A 
ATOM      9  C9  IND d   1      -1.566   2.230   1.200  0.00  0.00    -0.096 A 
ATOM     10  HN1 IND d   1      -3.319   0.237   2.741  0.00  0.00     0.298 HD
ENDROOT
TORSDOF 0
ENDMDL
