MODEL 1
REMARK minimizedAffinity 4.76727962
REMARK minimizedRMSD -1
REMARK  0 active torsions:
REMARK  status: ('A' for Active; 'I' for Inactive)
ROOT
ATOM      1  N1  IND d   1       3.089  -0.246  -1.942  0.00  0.00    -0.196 N 
ATOM      2  C2  IND d   1       2.676  -0.948  -0.844  0.00  0.00     0.054 A 
ATOM      3  C3  IND d   1       3.403  -0.596   0.240  0.00  0.00    -0.031 A 
ATOM      4  C4  IND d   1       5.250   1.183   0.463  0.00  0.00     0.051 A 
ATOM      5  C5  IND d   1       5.999   2.057  -0.275  0.00  0.00    -0.031 A 
ATOM      6  C6  IND d   1       5.810   2.213  -1.633  0.00  0.00     0.015 A 
ATOM      7  C7  IND d   1       4.853   1.506  -2.305  0.00  0.00    -0.016 A 
ATOM      8  C8  IND d   1       4.096   0.612  -1.560  0.00  0.00    -0.047 A 
ATOM      9  C9  IND d   1       4.312   0.419  -0.190  0.00  0.00    -0.096 A 
ATOM     10  HN1 IND d   1       2.773  -0.328  -2.738  0.00  0.00     0.298 HD
ENDROOT
TORSDOF 0
ENDMDL
