MODEL 1
REMARK minimizedAffinity 13.4207401
REMARK minimizedRMSD -1
REMARK  1 active torsions:
REMARK  status: ('A' for Active; 'I' for Inactive)
REMARK    1  A    between atoms: C1_2  and  C2_3 
ROOT
ATOM      1  C2  UNL d   1       5.950   3.166   0.911  0.00  0.00    -0.077 A 
ATOM      2  C3  UNL d   1       5.941   3.982  -0.229  0.00  0.00     0.002 A 
ATOM      3  C4  UNL d   1       5.944   5.373  -0.102  0.00  0.00     0.002 A 
ATOM      4  C5  UNL d   1       5.960   5.959   1.161  0.00  0.00    -0.004 A 
ATOM      5  C6  UNL d   1       5.968   5.155   2.301  0.00  0.00     0.002 A 
ATOM      6  C7  UNL d   1       5.964   3.766   2.176  0.00  0.00     0.002 A 
ENDROOT
BRANCH   1   7
ATOM      7  C1  UNL d   1       5.997   1.666   0.775  0.00  0.00     0.055 C 
ATOM      8  C   UNL d   1       5.562   1.222  -0.614  0.00  0.00     0.019 C 
ENDBRANCH   1   7
TORSDOF 1
ENDMDL
