MODEL 1
REMARK minimizedAffinity 8.59782696
REMARK minimizedRMSD -1
REMARK  1 active torsions:
REMARK  status: ('A' for Active; 'I' for Inactive)
REMARK    1  A    between atoms: C1_2  and  C2_3 
ROOT
ATOM      1  C2  UNL d   1       4.615  -3.107   5.759  0.00  0.00    -0.077 A 
ATOM      2  C3  UNL d   1       3.473  -3.917   5.823  0.00  0.00     0.002 A 
ATOM      3  C4  UNL d   1       3.595  -5.303   5.940  0.00  0.00     0.002 A 
ATOM      4  C5  UNL d   1       4.857  -5.890   5.998  0.00  0.00    -0.004 A 
ATOM      5  C6  UNL d   1       6.000  -5.094   5.933  0.00  0.00     0.002 A 
ATOM      6  C7  UNL d   1       5.879  -3.708   5.814  0.00  0.00     0.002 A 
ENDROOT
BRANCH   1   7
ATOM      7  C1  UNL d   1       4.485  -1.609   5.682  0.00  0.00     0.055 C 
ATOM      8  C   UNL d   1       5.844  -0.930   5.773  0.00  0.00     0.019 C 
ENDBRANCH   1   7
TORSDOF 1
ENDMDL
