MODEL 1
REMARK minimizedAffinity 12.8217297
REMARK minimizedRMSD -1
REMARK  1 active torsions:
REMARK  status: ('A' for Active; 'I' for Inactive)
REMARK    1  A    between atoms: C1_2  and  C2_3 
ROOT
ATOM      1  C2  UNL d   1       3.806  -2.214   4.274  0.00  0.00    -0.077 A 
ATOM      2  C3  UNL d   1       4.941  -1.392   4.306  0.00  0.00     0.002 A 
ATOM      3  C4  UNL d   1       6.000  -1.685   5.168  0.00  0.00     0.002 A 
ATOM      4  C5  UNL d   1       5.936  -2.801   6.000  0.00  0.00    -0.004 A 
ATOM      5  C6  UNL d   1       4.811  -3.623   5.976  0.00  0.00     0.002 A 
ATOM      6  C7  UNL d   1       3.751  -3.332   5.116  0.00  0.00     0.002 A 
ENDROOT
BRANCH   1   7
ATOM      7  C1  UNL d   1       2.684  -1.929   3.310  0.00  0.00     0.055 C 
ATOM      8  C   UNL d   1       3.093  -2.237   1.877  0.00  0.00     0.019 C 
ENDBRANCH   1   7
TORSDOF 1
ENDMDL
