MODEL 1
REMARK minimizedAffinity 5.45241404
REMARK minimizedRMSD -1
REMARK  0 active torsions:
REMARK  status: ('A' for Active; 'I' for Inactive)
ROOT
ATOM      1  C   UNL d   1       2.071  -1.891  -0.131  0.00  0.00     0.124 A 
ATOM      2  C1  UNL d   1       2.798  -1.094   0.743  0.00  0.00     0.062 A 
ATOM      3  C2  UNL d   1       2.449   0.240   0.927  0.00  0.00     0.162 A 
ATOM      4  C3  UNL d   1       1.367   0.787   0.237  0.00  0.00    -0.034 A 
ATOM      5  C4  UNL d   1       0.641  -0.021  -0.641  0.00  0.00     0.162 A 
ATOM      6  C5  UNL d   1       0.994  -1.354  -0.822  0.00  0.00     0.062 A 
ATOM      7  F   UNL d   1       0.291  -2.122  -1.667  0.00  0.00    -0.097 F 
ATOM      8  F1  UNL d   1      -0.405   0.473  -1.320  0.00  0.00    -0.096 F 
ATOM      9  I   UNL d   1       0.841   2.782   0.511  0.00  0.00    -0.060 I 
ATOM     10  F2  UNL d   1       3.168   0.987   1.778  0.00  0.00    -0.096 F 
ATOM     11  F3  UNL d   1       3.839  -1.611   1.410  0.00  0.00    -0.097 F 
ATOM     12  F4  UNL d   1       2.410  -3.175  -0.308  0.00  0.00    -0.092 F 
ENDROOT
TORSDOF 0
ENDMDL
