MODEL 1
REMARK minimizedAffinity 9.72337341
REMARK minimizedRMSD -1
REMARK  0 active torsions:
REMARK  status: ('A' for Active; 'I' for Inactive)
ROOT
ATOM      1  C   UNL d   1       2.877  -1.548   1.631  0.00  0.00     0.124 A 
ATOM      2  C1  UNL d   1       1.866  -2.196   2.328  0.00  0.00     0.062 A 
ATOM      3  C2  UNL d   1       0.879  -2.896   1.641  0.00  0.00     0.162 A 
ATOM      4  C3  UNL d   1       0.899  -2.954   0.247  0.00  0.00    -0.034 A 
ATOM      5  C4  UNL d   1       1.918  -2.300  -0.447  0.00  0.00     0.162 A 
ATOM      6  C5  UNL d   1       2.902  -1.601   0.245  0.00  0.00     0.062 A 
ATOM      7  F   UNL d   1       3.878  -0.976  -0.430  0.00  0.00    -0.097 F 
ATOM      8  F1  UNL d   1       1.967  -2.335  -1.787  0.00  0.00    -0.096 F 
ATOM      9  I   UNL d   1      -0.575  -4.000  -0.785  0.00  0.00    -0.060 I 
ATOM     10  F2  UNL d   1      -0.086  -3.512   2.340  0.00  0.00    -0.096 F 
ATOM     11  F3  UNL d   1       1.839  -2.146   3.668  0.00  0.00    -0.097 F 
ATOM     12  F4  UNL d   1       3.825  -0.874   2.296  0.00  0.00    -0.092 F 
ENDROOT
TORSDOF 0
ENDMDL
