MODEL 1
REMARK minimizedAffinity 18.6701279
REMARK minimizedRMSD -1
REMARK  0 active torsions:
REMARK  status: ('A' for Active; 'I' for Inactive)
ROOT
ATOM      1  C   UNL d   1       2.217   1.484   1.332  0.00  0.00     0.124 A 
ATOM      2  C1  UNL d   1       1.359   1.612   0.249  0.00  0.00     0.062 A 
ATOM      3  C2  UNL d   1       1.095   0.517  -0.569  0.00  0.00     0.162 A 
ATOM      4  C3  UNL d   1       1.688  -0.717  -0.305  0.00  0.00    -0.034 A 
ATOM      5  C4  UNL d   1       2.551  -0.839   0.785  0.00  0.00     0.162 A 
ATOM      6  C5  UNL d   1       2.813   0.259   1.599  0.00  0.00     0.062 A 
ATOM      7  F   UNL d   1       3.642   0.133   2.645  0.00  0.00    -0.097 F 
ATOM      8  F1  UNL d   1       3.139  -2.011   1.067  0.00  0.00    -0.096 F 
ATOM      9  I   UNL d   1       1.295  -2.357  -1.525  0.00  0.00    -0.060 I 
ATOM     10  F2  UNL d   1       0.261   0.670  -1.608  0.00  0.00    -0.096 F 
ATOM     11  F3  UNL d   1       0.784   2.795  -0.012  0.00  0.00    -0.097 F 
ATOM     12  F4  UNL d   1       2.471   2.539   2.116  0.00  0.00    -0.092 F 
ENDROOT
TORSDOF 0
ENDMDL
