MODEL 1
REMARK minimizedAffinity 11.5906487
REMARK minimizedRMSD -1
REMARK  0 active torsions:
REMARK  status: ('A' for Active; 'I' for Inactive)
ROOT
ATOM      1  C   UNL d   1      -0.819   3.252   2.063  0.00  0.00     0.124 A 
ATOM      2  C1  UNL d   1       0.133   3.747   1.182  0.00  0.00     0.062 A 
ATOM      3  C2  UNL d   1       0.993   2.876   0.519  0.00  0.00     0.162 A 
ATOM      4  C3  UNL d   1       0.905   1.501   0.734  0.00  0.00    -0.034 A 
ATOM      5  C4  UNL d   1      -0.054   1.011   1.623  0.00  0.00     0.162 A 
ATOM      6  C5  UNL d   1      -0.911   1.885   2.282  0.00  0.00     0.062 A 
ATOM      7  F   UNL d   1      -1.830   1.405   3.133  0.00  0.00    -0.097 F 
ATOM      8  F1  UNL d   1      -0.166  -0.306   1.853  0.00  0.00    -0.096 F 
ATOM      9  I   UNL d   1       2.189   0.195  -0.254  0.00  0.00    -0.060 I 
ATOM     10  F2  UNL d   1       1.903   3.382  -0.327  0.00  0.00    -0.096 F 
ATOM     11  F3  UNL d   1       0.224   5.067   0.968  0.00  0.00    -0.097 F 
ATOM     12  F4  UNL d   1      -1.645   4.092   2.699  0.00  0.00    -0.092 F 
ENDROOT
TORSDOF 0
ENDMDL
