MODEL 1
REMARK minimizedAffinity 10.6092024
REMARK minimizedRMSD -1
REMARK  0 active torsions:
REMARK  status: ('A' for Active; 'I' for Inactive)
ROOT
ATOM      1  C   UNL d   1      -3.641   0.939   0.522  0.00  0.00     0.124 A 
ATOM      2  C1  UNL d   1      -2.695   0.610  -0.438  0.00  0.00     0.062 A 
ATOM      3  C2  UNL d   1      -1.404   1.123  -0.352  0.00  0.00     0.162 A 
ATOM      4  C3  UNL d   1      -1.050   1.968   0.699  0.00  0.00    -0.034 A 
ATOM      5  C4  UNL d   1      -2.008   2.294   1.661  0.00  0.00     0.162 A 
ATOM      6  C5  UNL d   1      -3.297   1.780   1.571  0.00  0.00     0.062 A 
ATOM      7  F   UNL d   1      -4.210   2.098   2.500  0.00  0.00    -0.097 F 
ATOM      8  F1  UNL d   1      -1.702   3.104   2.686  0.00  0.00    -0.096 F 
ATOM      9  I   UNL d   1       0.879   2.736   0.831  0.00  0.00    -0.060 I 
ATOM     10  F2  UNL d   1      -0.509   0.789  -1.295  0.00  0.00    -0.096 F 
ATOM     11  F3  UNL d   1      -3.025  -0.202  -1.453  0.00  0.00    -0.097 F 
ATOM     12  F4  UNL d   1      -4.883   0.445   0.437  0.00  0.00    -0.092 F 
ENDROOT
TORSDOF 0
ENDMDL
