MODEL 1
REMARK minimizedAffinity 5.43089151
REMARK minimizedRMSD -1
REMARK  0 active torsions:
REMARK  status: ('A' for Active; 'I' for Inactive)
ROOT
ATOM      1  C   UNL d   1       1.572  -2.085  -1.016  0.00  0.00     0.124 A 
ATOM      2  C1  UNL d   1       2.535  -1.147  -0.672  0.00  0.00     0.062 A 
ATOM      3  C2  UNL d   1       2.155   0.119  -0.237  0.00  0.00     0.162 A 
ATOM      4  C3  UNL d   1       0.804   0.454  -0.141  0.00  0.00    -0.034 A 
ATOM      5  C4  UNL d   1      -0.159  -0.494  -0.489  0.00  0.00     0.162 A 
ATOM      6  C5  UNL d   1       0.226  -1.758  -0.924  0.00  0.00     0.062 A 
ATOM      7  F   UNL d   1      -0.706  -2.664  -1.256  0.00  0.00    -0.097 F 
ATOM      8  F1  UNL d   1      -1.466  -0.205  -0.409  0.00  0.00    -0.096 F 
ATOM      9  I   UNL d   1       0.231   2.347   0.510  0.00  0.00    -0.060 I 
ATOM     10  F2  UNL d   1       3.107   1.006   0.089  0.00  0.00    -0.096 F 
ATOM     11  F3  UNL d   1       3.836  -1.460  -0.761  0.00  0.00    -0.097 F 
ATOM     12  F4  UNL d   1       1.940  -3.303  -1.436  0.00  0.00    -0.092 F 
ENDROOT
TORSDOF 0
ENDMDL
