MODEL 1
REMARK minimizedAffinity -3.43523622
REMARK minimizedRMSD -1
REMARK  1 active torsions:
REMARK  status: ('A' for Active; 'I' for Inactive)
REMARK    1  A    between atoms: C3_4  and  O_7 
ROOT
ATOM      1  C   UNL d   1       2.452  -1.517   0.233  0.00  0.00    -0.033 A 
ATOM      2  C1  UNL d   1       1.555  -1.850  -0.783  0.00  0.00     0.039 A 
ATOM      3  C2  UNL d   1       0.297  -1.246  -0.831  0.00  0.00    -0.080 A 
ATOM      4  C3  UNL d   1      -0.051  -0.312   0.141  0.00  0.00     0.150 A 
ATOM      5  C4  UNL d   1       0.840   0.027   1.154  0.00  0.00    -0.007 A 
ATOM      6  C5  UNL d   1       2.096  -0.577   1.201  0.00  0.00     0.039 A 
ENDROOT
BRANCH   4   7
ATOM      7  O   UNL d   1      -1.269   0.300   0.138  0.00  0.00    -0.526 OA
ATOM      8  H5  UNL d   1      -1.789  -0.054  -0.603  0.00  0.00     0.418 HD
ENDBRANCH   4   7
TORSDOF 1
ENDMDL
