MODEL 1
REMARK minimizedAffinity -4.74636507
REMARK minimizedRMSD -1
REMARK  1 active torsions:
REMARK  status: ('A' for Active; 'I' for Inactive)
REMARK    1  A    between atoms: C3_4  and  O_7 
ROOT
ATOM      1  C   UNL d   1       2.242  -1.418   0.705  0.00  0.00    -0.033 A 
ATOM      2  C1  UNL d   1       1.513  -2.071  -0.290  0.00  0.00     0.039 A 
ATOM      3  C2  UNL d   1       0.338  -1.501  -0.785  0.00  0.00    -0.080 A 
ATOM      4  C3  UNL d   1      -0.095  -0.279  -0.277  0.00  0.00     0.150 A 
ATOM      5  C4  UNL d   1       0.629   0.379   0.712  0.00  0.00    -0.007 A 
ATOM      6  C5  UNL d   1       1.801  -0.192   1.205  0.00  0.00     0.039 A 
ENDROOT
BRANCH   4   7
ATOM      7  O   UNL d   1      -1.238   0.314  -0.725  0.00  0.00    -0.526 OA
ATOM      8  H5  UNL d   1      -1.648  -0.268  -1.386  0.00  0.00     0.418 HD
ENDBRANCH   4   7
TORSDOF 1
ENDMDL
