MODEL 1
REMARK minimizedAffinity -3.28424692
REMARK minimizedRMSD -1
REMARK  1 active torsions:
REMARK  status: ('A' for Active; 'I' for Inactive)
REMARK    1  A    between atoms: C3_4  and  O_7 
ROOT
ATOM      1  C   UNL d   1      -0.710   0.513  -0.587  0.00  0.00    -0.033 A 
ATOM      2  C1  UNL d   1       0.241   1.120   0.235  0.00  0.00     0.039 A 
ATOM      3  C2  UNL d   1       1.413   0.440   0.571  0.00  0.00    -0.080 A 
ATOM      4  C3  UNL d   1       1.622  -0.846   0.078  0.00  0.00     0.150 A 
ATOM      5  C4  UNL d   1       0.680  -1.455  -0.744  0.00  0.00    -0.007 A 
ATOM      6  C5  UNL d   1      -0.490  -0.775  -1.078  0.00  0.00     0.039 A 
ENDROOT
BRANCH   4   7
ATOM      7  O   UNL d   1       2.748  -1.551   0.382  0.00  0.00    -0.526 OA
ATOM      8  H5  UNL d   1       3.294  -1.016   0.982  0.00  0.00     0.418 HD
ENDBRANCH   4   7
TORSDOF 1
ENDMDL
