MODEL 1
REMARK minimizedAffinity -3.22297812
REMARK minimizedRMSD -1
REMARK  1 active torsions:
REMARK  status: ('A' for Active; 'I' for Inactive)
REMARK    1  A    between atoms: C3_4  and  O_7 
ROOT
ATOM      1  C   UNL d   1       4.056  -0.235   0.288  0.00  0.00    -0.033 A 
ATOM      2  C1  UNL d   1       3.524   1.001   0.659  0.00  0.00     0.039 A 
ATOM      3  C2  UNL d   1       2.215   1.334   0.303  0.00  0.00    -0.080 A 
ATOM      4  C3  UNL d   1       1.451   0.423  -0.421  0.00  0.00     0.150 A 
ATOM      5  C4  UNL d   1       1.974  -0.812  -0.789  0.00  0.00    -0.007 A 
ATOM      6  C5  UNL d   1       3.281  -1.142  -0.434  0.00  0.00     0.039 A 
ENDROOT
BRANCH   4   7
ATOM      7  O   UNL d   1       0.171   0.706  -0.794  0.00  0.00    -0.526 OA
ATOM      8  H5  UNL d   1      -0.046   1.605  -0.495  0.00  0.00     0.418 HD
ENDBRANCH   4   7
TORSDOF 1
ENDMDL
