MODEL 1
REMARK minimizedAffinity -5.50578165
REMARK minimizedRMSD -1
REMARK  1 active torsions:
REMARK  status: ('A' for Active; 'I' for Inactive)
REMARK    1  A    between atoms: C3_4  and  O_7 
ROOT
ATOM      1  C   UNL d   1       0.003   0.916  -0.088  0.00  0.00    -0.033 A 
ATOM      2  C1  UNL d   1      -0.189  -0.446  -0.325  0.00  0.00     0.039 A 
ATOM      3  C2  UNL d   1       0.785  -1.369   0.062  0.00  0.00    -0.080 A 
ATOM      4  C3  UNL d   1       1.945  -0.916   0.685  0.00  0.00     0.150 A 
ATOM      5  C4  UNL d   1       2.142   0.439   0.928  0.00  0.00    -0.007 A 
ATOM      6  C5  UNL d   1       1.168   1.359   0.540  0.00  0.00     0.039 A 
ENDROOT
BRANCH   4   7
ATOM      7  O   UNL d   1       2.927  -1.778   1.075  0.00  0.00    -0.526 OA
ATOM      8  H5  UNL d   1       2.666  -2.678   0.817  0.00  0.00     0.418 HD
ENDBRANCH   4   7
TORSDOF 1
ENDMDL
