MODEL 1
REMARK minimizedAffinity -3.89443517
REMARK minimizedRMSD -1
REMARK  2 active torsions:
REMARK  status: ('A' for Active; 'I' for Inactive)
REMARK    1  A    between atoms: C2'_3  and  C1'_4 
REMARK    2  A    between atoms: C1'_4  and  C1_5 
ROOT
ATOM      1  C1  I4B d   1      -0.669   0.385  -0.400  0.00  0.00    -0.075 A 
ATOM      2  C2  I4B d   1       0.278  -0.608  -0.412  0.00  0.00     0.003 A 
ATOM      3  C3  I4B d   1       1.548  -0.388   0.175  0.00  0.00     0.002 A 
ATOM      4  C4  I4B d   1       1.843   0.848   0.713  0.00  0.00    -0.004 A 
ATOM      5  C5  I4B d   1       0.874   1.846   0.744  0.00  0.00     0.002 A 
ATOM      6  C6  I4B d   1      -0.395   1.610   0.195  0.00  0.00     0.003 A 
ENDROOT
BRANCH   1   7
ATOM      7  C1' I4B d   1      -1.988   0.130  -1.058  0.00  0.00     0.060 C 
BRANCH   7   8
ATOM      8  C2' I4B d   1      -1.721  -0.346  -2.471  0.00  0.00    -0.013 C 
ATOM      9  C4' I4B d   1      -2.249  -1.740  -2.686  0.00  0.00     0.013 C 
ATOM     10  C3' I4B d   1      -2.361   0.627  -3.416  0.00  0.00     0.013 C 
ENDBRANCH   7   8
ENDBRANCH   1   7
TORSDOF 2
ENDMDL
