MODEL 1
REMARK minimizedAffinity -2.3023088
REMARK minimizedRMSD -1
REMARK  2 active torsions:
REMARK  status: ('A' for Active; 'I' for Inactive)
REMARK    1  A    between atoms: C2'_3  and  C1'_4 
REMARK    2  A    between atoms: C1'_4  and  C1_5 
ROOT
ATOM      1  C1  I4B d   1      -0.836  -0.086  -0.259  0.00  0.00    -0.075 A 
ATOM      2  C2  I4B d   1      -0.759   1.106   0.418  0.00  0.00     0.003 A 
ATOM      3  C3  I4B d   1       0.464   1.515   1.003  0.00  0.00     0.002 A 
ATOM      4  C4  I4B d   1       1.563   0.685   0.932  0.00  0.00    -0.004 A 
ATOM      5  C5  I4B d   1       1.489  -0.513   0.226  0.00  0.00     0.002 A 
ATOM      6  C6  I4B d   1       0.285  -0.895  -0.384  0.00  0.00     0.003 A 
ENDROOT
BRANCH   1   7
ATOM      7  C1' I4B d   1      -2.152  -0.502  -0.836  0.00  0.00     0.060 C 
BRANCH   7   8
ATOM      8  C2' I4B d   1      -2.103  -0.260  -2.331  0.00  0.00    -0.013 C 
ATOM      9  C4' I4B d   1      -2.200  -1.554  -3.096  0.00  0.00     0.013 C 
ATOM     10  C3' I4B d   1      -3.228   0.665  -2.687  0.00  0.00     0.013 C 
ENDBRANCH   7   8
ENDBRANCH   1   7
TORSDOF 2
ENDMDL
