MODEL 1
REMARK minimizedAffinity -3.75911331
REMARK minimizedRMSD -1
REMARK  2 active torsions:
REMARK  status: ('A' for Active; 'I' for Inactive)
REMARK    1  A    between atoms: C2'_3  and  C1'_4 
REMARK    2  A    between atoms: C1'_4  and  C1_5 
ROOT
ATOM      1  C1  I4B d   1       0.243  -0.140   0.273  0.00  0.00    -0.075 A 
ATOM      2  C2  I4B d   1       0.983   1.015   0.228  0.00  0.00     0.003 A 
ATOM      3  C3  I4B d   1       2.380   0.975   0.459  0.00  0.00     0.002 A 
ATOM      4  C4  I4B d   1       2.982  -0.224   0.779  0.00  0.00    -0.004 A 
ATOM      5  C5  I4B d   1       2.234  -1.397   0.801  0.00  0.00     0.002 A 
ATOM      6  C6  I4B d   1       0.857  -1.358   0.535  0.00  0.00     0.003 A 
ENDROOT
BRANCH   1   7
ATOM      7  C1' I4B d   1      -1.235  -0.058   0.056  0.00  0.00     0.060 C 
BRANCH   7   8
ATOM      8  C2' I4B d   1      -1.485   0.023  -1.436  0.00  0.00    -0.013 C 
ATOM      9  C4' I4B d   1      -1.745  -1.340  -2.020  0.00  0.00     0.013 C 
ATOM     10  C3' I4B d   1      -2.650   0.940  -1.661  0.00  0.00     0.013 C 
ENDBRANCH   7   8
ENDBRANCH   1   7
TORSDOF 2
ENDMDL
