MODEL 1
REMARK minimizedAffinity -3.64346647
REMARK minimizedRMSD -1
REMARK  2 active torsions:
REMARK  status: ('A' for Active; 'I' for Inactive)
REMARK    1  A    between atoms: C2'_3  and  C1'_4 
REMARK    2  A    between atoms: C1'_4  and  C1_5 
ROOT
ATOM      1  C1  I4B d   1      -0.440   0.709  -0.494  0.00  0.00    -0.075 A 
ATOM      2  C2  I4B d   1       0.708   1.427  -0.723  0.00  0.00     0.003 A 
ATOM      3  C3  I4B d   1       1.975   0.838  -0.493  0.00  0.00     0.002 A 
ATOM      4  C4  I4B d   1       2.047  -0.445   0.010  0.00  0.00    -0.004 A 
ATOM      5  C5  I4B d   1       0.883  -1.179   0.220  0.00  0.00     0.002 A 
ATOM      6  C6  I4B d   1      -0.368  -0.604  -0.045  0.00  0.00     0.003 A 
ENDROOT
BRANCH   1   7
ATOM      7  C1' I4B d   1      -1.762   1.373  -0.716  0.00  0.00     0.060 C 
BRANCH   7   8
ATOM      8  C2' I4B d   1      -1.882   1.692  -2.192  0.00  0.00    -0.013 C 
ATOM      9  C4' I4B d   1      -2.537   0.563  -2.943  0.00  0.00     0.013 C 
ATOM     10  C3' I4B d   1      -2.668   2.962  -2.328  0.00  0.00     0.013 C 
ENDBRANCH   7   8
ENDBRANCH   1   7
TORSDOF 2
ENDMDL
