MODEL 1
REMARK minimizedAffinity -5.60481882
REMARK minimizedRMSD -1
REMARK  2 active torsions:
REMARK  status: ('A' for Active; 'I' for Inactive)
REMARK    1  A    between atoms: C2'_3  and  C1'_4 
REMARK    2  A    between atoms: C1'_4  and  C1_5 
ROOT
ATOM      1  C1  I4B d   1      -0.294   0.053  -0.083  0.00  0.00    -0.075 A 
ATOM      2  C2  I4B d   1       0.023   1.388  -0.120  0.00  0.00     0.003 A 
ATOM      3  C3  I4B d   1       1.325   1.820   0.229  0.00  0.00     0.002 A 
ATOM      4  C4  I4B d   1       2.258   0.896   0.654  0.00  0.00    -0.004 A 
ATOM      5  C5  I4B d   1       1.941  -0.459   0.669  0.00  0.00     0.002 A 
ATOM      6  C6  I4B d   1       0.661  -0.885   0.286  0.00  0.00     0.003 A 
ENDROOT
BRANCH   1   7
ATOM      7  C1' I4B d   1      -1.689  -0.366  -0.426  0.00  0.00     0.060 C 
BRANCH   7   8
ATOM      8  C2' I4B d   1      -1.992   0.124  -1.827  0.00  0.00    -0.013 C 
ATOM      9  C4' I4B d   1      -1.985  -1.012  -2.815  0.00  0.00     0.013 C 
ATOM     10  C3' I4B d   1      -3.326   0.809  -1.799  0.00  0.00     0.013 C 
ENDBRANCH   7   8
ENDBRANCH   1   7
TORSDOF 2
ENDMDL
