MODEL 1
REMARK minimizedAffinity -4.14140511
REMARK minimizedRMSD -1
REMARK  1 active torsions:
REMARK  status: ('A' for Active; 'I' for Inactive)
REMARK    1  A    between atoms: C1_2  and  C2_3 
ROOT
ATOM      1  C2  UNL d   1      -0.122   0.282  -1.246  0.00  0.00    -0.077 A 
ATOM      2  C3  UNL d   1      -0.146   0.606   0.118  0.00  0.00     0.002 A 
ATOM      3  C4  UNL d   1       0.826   0.100   0.982  0.00  0.00     0.002 A 
ATOM      4  C5  UNL d   1       1.832  -0.730   0.492  0.00  0.00    -0.004 A 
ATOM      5  C6  UNL d   1       1.864  -1.061  -0.862  0.00  0.00     0.002 A 
ATOM      6  C7  UNL d   1       0.892  -0.557  -1.727  0.00  0.00     0.002 A 
ENDROOT
BRANCH   1   7
ATOM      7  C1  UNL d   1      -1.141   0.867  -2.188  0.00  0.00     0.055 C 
ATOM      8  C   UNL d   1      -0.607   2.115  -2.876  0.00  0.00     0.019 C 
ENDBRANCH   1   7
TORSDOF 1
ENDMDL
