MODEL 1
REMARK minimizedAffinity -1.12746799
REMARK minimizedRMSD -1
REMARK  1 active torsions:
REMARK  status: ('A' for Active; 'I' for Inactive)
REMARK    1  A    between atoms: C1_2  and  C2_3 
ROOT
ATOM      1  C2  UNL d   1       0.012  -0.220   0.143  0.00  0.00    -0.077 A 
ATOM      2  C3  UNL d   1       0.298  -0.073   1.508  0.00  0.00     0.002 A 
ATOM      3  C4  UNL d   1       1.616  -0.141   1.964  0.00  0.00     0.002 A 
ATOM      4  C5  UNL d   1       2.657  -0.351   1.063  0.00  0.00    -0.004 A 
ATOM      5  C6  UNL d   1       2.382  -0.500  -0.296  0.00  0.00     0.002 A 
ATOM      6  C7  UNL d   1       1.066  -0.434  -0.754  0.00  0.00     0.002 A 
ENDROOT
BRANCH   1   7
ATOM      7  C1  UNL d   1      -1.404  -0.097  -0.357  0.00  0.00     0.055 C 
ATOM      8  C   UNL d   1      -2.404  -0.550   0.697  0.00  0.00     0.019 C 
ENDBRANCH   1   7
TORSDOF 1
ENDMDL
