MODEL 1
REMARK minimizedAffinity -2.95781088
REMARK minimizedRMSD -1
REMARK  1 active torsions:
REMARK  status: ('A' for Active; 'I' for Inactive)
REMARK    1  A    between atoms: C1_2  and  C2_3 
ROOT
ATOM      1  C2  UNL d   1      -0.765   0.072   0.747  0.00  0.00    -0.077 A 
ATOM      2  C3  UNL d   1      -1.392  -0.860   1.586  0.00  0.00     0.002 A 
ATOM      3  C4  UNL d   1      -0.663  -1.521   2.577  0.00  0.00     0.002 A 
ATOM      4  C5  UNL d   1       0.694  -1.254   2.741  0.00  0.00    -0.004 A 
ATOM      5  C6  UNL d   1       1.328  -0.331   1.910  0.00  0.00     0.002 A 
ATOM      6  C7  UNL d   1       0.601   0.330   0.918  0.00  0.00     0.002 A 
ENDROOT
BRANCH   1   7
ATOM      7  C1  UNL d   1      -1.560   0.821  -0.290  0.00  0.00     0.055 C 
ATOM      8  C   UNL d   1      -0.691   1.217  -1.474  0.00  0.00     0.019 C 
ENDBRANCH   1   7
TORSDOF 1
ENDMDL
