MODEL 1
REMARK minimizedAffinity -3.20898628
REMARK minimizedRMSD -1
REMARK  1 active torsions:
REMARK  status: ('A' for Active; 'I' for Inactive)
REMARK    1  A    between atoms: C1_2  and  C2_3 
ROOT
ATOM      1  C2  UNL d   1      -0.446   0.226  -0.590  0.00  0.00    -0.077 A 
ATOM      2  C3  UNL d   1       0.742  -0.094   0.083  0.00  0.00     0.002 A 
ATOM      3  C4  UNL d   1       0.716  -0.437   1.436  0.00  0.00     0.002 A 
ATOM      4  C5  UNL d   1      -0.494  -0.469   2.126  0.00  0.00    -0.004 A 
ATOM      5  C6  UNL d   1      -1.680  -0.150   1.466  0.00  0.00     0.002 A 
ATOM      6  C7  UNL d   1      -1.656   0.195   0.114  0.00  0.00     0.002 A 
ENDROOT
BRANCH   1   7
ATOM      7  C1  UNL d   1      -0.426   0.549  -2.061  0.00  0.00     0.055 C 
ATOM      8  C   UNL d   1      -0.386   2.052  -2.297  0.00  0.00     0.019 C 
ENDBRANCH   1   7
TORSDOF 1
ENDMDL
