MODEL 1
REMARK minimizedAffinity 10.5761328
REMARK minimizedRMSD -1
REMARK  0 active torsions:
REMARK  status: ('A' for Active; 'I' for Inactive)
ROOT
ATOM      1  C1  DEN d   1      -1.330   3.815   0.558  0.00  0.00     0.130 A 
ATOM      2  C2  DEN d   1      -0.220   2.912   0.851  0.00  0.00    -0.031 A 
ATOM      3  C3  DEN d   1       0.767   3.033  -0.240  0.00  0.00     0.027 A 
ATOM      4  C4  DEN d   1       0.689   4.526  -2.342  0.00  0.00     0.027 A 
ATOM      5  C5  DEN d   1      -0.059   5.455  -3.031  0.00  0.00    -0.003 A 
ATOM      6  C6  DEN d   1      -1.287   5.874  -2.594  0.00  0.00     0.001 A 
ATOM      7  C7  DEN d   1      -1.786   5.396  -1.411  0.00  0.00     0.017 A 
ATOM      8  C8  DEN d   1      -1.042   4.453  -0.714  0.00  0.00    -0.094 A 
ATOM      9  C9  DEN d   1       0.204   4.052  -1.166  0.00  0.00    -0.072 A 
ENDROOT
TORSDOF 0
ENDMDL
