MODEL 1
REMARK minimizedAffinity 7.11121798
REMARK minimizedRMSD -1
REMARK  0 active torsions:
REMARK  status: ('A' for Active; 'I' for Inactive)
ROOT
ATOM      1  C1  DEN d   1      -0.743   2.660  -0.030  0.00  0.00     0.130 A 
ATOM      2  C2  DEN d   1       0.470   2.609   0.781  0.00  0.00    -0.031 A 
ATOM      3  C3  DEN d   1       1.336   3.735   0.379  0.00  0.00     0.027 A 
ATOM      4  C4  DEN d   1       0.916   5.546  -1.409  0.00  0.00     0.027 A 
ATOM      5  C5  DEN d   1       0.032   5.997  -2.364  0.00  0.00    -0.003 A 
ATOM      6  C6  DEN d   1      -1.147   5.352  -2.630  0.00  0.00     0.001 A 
ATOM      7  C7  DEN d   1      -1.495   4.246  -1.900  0.00  0.00     0.017 A 
ATOM      8  C8  DEN d   1      -0.606   3.782  -0.941  0.00  0.00    -0.094 A 
ATOM      9  C9  DEN d   1       0.576   4.454  -0.678  0.00  0.00    -0.072 A 
ENDROOT
TORSDOF 0
ENDMDL
