MODEL 1
REMARK minimizedAffinity 6.409554
REMARK minimizedRMSD -1
REMARK  0 active torsions:
REMARK  status: ('A' for Active; 'I' for Inactive)
ROOT
ATOM      1  C1  DEN d   1      -5.781   1.876  -2.072  0.00  0.00     0.130 A 
ATOM      2  C2  DEN d   1      -4.886   2.807  -1.391  0.00  0.00    -0.031 A 
ATOM      3  C3  DEN d   1      -4.002   3.415  -2.406  0.00  0.00     0.027 A 
ATOM      4  C4  DEN d   1      -3.937   3.011  -4.952  0.00  0.00     0.027 A 
ATOM      5  C5  DEN d   1      -4.498   2.301  -5.991  0.00  0.00    -0.003 A 
ATOM      6  C6  DEN d   1      -5.494   1.382  -5.793  0.00  0.00     0.001 A 
ATOM      7  C7  DEN d   1      -5.992   1.181  -4.533  0.00  0.00     0.017 A 
ATOM      8  C8  DEN d   1      -5.427   1.888  -3.479  0.00  0.00    -0.094 A 
ATOM      9  C9  DEN d   1      -4.429   2.822  -3.701  0.00  0.00    -0.072 A 
ENDROOT
TORSDOF 0
ENDMDL
