MODEL 1
REMARK minimizedAffinity 4.71731138
REMARK minimizedRMSD -1
REMARK  0 active torsions:
REMARK  status: ('A' for Active; 'I' for Inactive)
ROOT
ATOM      1  C1  DEN d   1       2.088  -1.261   3.937  0.00  0.00     0.130 A 
ATOM      2  C2  DEN d   1       1.088  -1.759   4.878  0.00  0.00    -0.031 A 
ATOM      3  C3  DEN d   1      -0.088  -0.869   4.807  0.00  0.00     0.027 A 
ATOM      4  C4  DEN d   1      -0.459   1.217   3.336  0.00  0.00     0.027 A 
ATOM      5  C5  DEN d   1       0.111   2.037   2.388  0.00  0.00    -0.003 A 
ATOM      6  C6  DEN d   1       1.382   1.838   1.918  0.00  0.00     0.001 A 
ATOM      7  C7  DEN d   1       2.109   0.765   2.363  0.00  0.00     0.017 A 
ATOM      8  C8  DEN d   1       1.545  -0.062   3.325  0.00  0.00    -0.094 A 
ATOM      9  C9  DEN d   1       0.254   0.150   3.778  0.00  0.00    -0.072 A 
ENDROOT
TORSDOF 0
ENDMDL
