MODEL 1
REMARK minimizedAffinity 14.1478958
REMARK minimizedRMSD -1
REMARK  0 active torsions:
REMARK  status: ('A' for Active; 'I' for Inactive)
ROOT
ATOM      1  C1  DEN d   1      -5.970  -0.567  -4.422  0.00  0.00     0.130 A 
ATOM      2  C2  DEN d   1      -5.979  -0.006  -5.770  0.00  0.00    -0.031 A 
ATOM      3  C3  DEN d   1      -5.978   1.466  -5.653  0.00  0.00     0.027 A 
ATOM      4  C4  DEN d   1      -5.959   2.923  -3.525  0.00  0.00     0.027 A 
ATOM      5  C5  DEN d   1      -5.961   2.899  -2.148  0.00  0.00    -0.003 A 
ATOM      6  C6  DEN d   1      -6.000   1.729  -1.438  0.00  0.00     0.001 A 
ATOM      7  C7  DEN d   1      -5.993   0.531  -2.103  0.00  0.00     0.017 A 
ATOM      8  C8  DEN d   1      -5.999   0.547  -3.492  0.00  0.00    -0.094 A 
ATOM      9  C9  DEN d   1      -5.947   1.741  -4.191  0.00  0.00    -0.072 A 
ENDROOT
TORSDOF 0
ENDMDL
