MODEL 1
REMARK minimizedAffinity 9.09395885
REMARK minimizedRMSD -1
REMARK  0 active torsions:
REMARK  status: ('A' for Active; 'I' for Inactive)
ROOT
ATOM      1  C1  DEN d   1       2.290   3.540   2.425  0.00  0.00     0.130 A 
ATOM      2  C2  DEN d   1       1.956   2.382   3.250  0.00  0.00    -0.031 A 
ATOM      3  C3  DEN d   1       0.781   1.718   2.650  0.00  0.00     0.027 A 
ATOM      4  C4  DEN d   1      -0.543   2.363   0.533  0.00  0.00     0.027 A 
ATOM      5  C5  DEN d   1      -0.642   3.275  -0.494  0.00  0.00    -0.003 A 
ATOM      6  C6  DEN d   1       0.201   4.350  -0.601  0.00  0.00     0.001 A 
ATOM      7  C7  DEN d   1       1.209   4.514   0.312  0.00  0.00     0.017 A 
ATOM      8  C8  DEN d   1       1.311   3.603   1.354  0.00  0.00    -0.094 A 
ATOM      9  C9  DEN d   1       0.458   2.516   1.437  0.00  0.00    -0.072 A 
ENDROOT
TORSDOF 0
ENDMDL
