MODEL 1
REMARK minimizedAffinity 16.9024029
REMARK minimizedRMSD -1
REMARK  0 active torsions:
REMARK  status: ('A' for Active; 'I' for Inactive)
ROOT
ATOM      1  C1  DEN d   1      -2.406   3.814  -1.793  0.00  0.00     0.130 A 
ATOM      2  C2  DEN d   1      -2.638   5.176  -2.268  0.00  0.00    -0.031 A 
ATOM      3  C3  DEN d   1      -1.477   6.000  -1.876  0.00  0.00     0.027 A 
ATOM      4  C4  DEN d   1       0.649   5.303  -0.593  0.00  0.00     0.027 A 
ATOM      5  C5  DEN d   1       1.292   4.255   0.028  0.00  0.00    -0.003 A 
ATOM      6  C6  DEN d   1       0.738   3.005   0.114  0.00  0.00     0.001 A 
ATOM      7  C7  DEN d   1      -0.477   2.760  -0.469  0.00  0.00     0.017 A 
ATOM      8  C8  DEN d   1      -1.136   3.814  -1.090  0.00  0.00    -0.094 A 
ATOM      9  C9  DEN d   1      -0.553   5.067  -1.177  0.00  0.00    -0.072 A 
ENDROOT
TORSDOF 0
ENDMDL
