MODEL 1
REMARK minimizedAffinity 1.22277784
REMARK minimizedRMSD -1
REMARK  1 active torsions:
REMARK  status: ('A' for Active; 'I' for Inactive)
REMARK    1  A    between atoms: C1_2  and  C2_3 
ROOT
ATOM      1  C2  UNL d   1      -1.862  -0.996   1.944  0.00  0.00    -0.077 A 
ATOM      2  C3  UNL d   1      -0.993  -1.995   2.403  0.00  0.00     0.002 A 
ATOM      3  C4  UNL d   1       0.315  -2.069   1.921  0.00  0.00     0.002 A 
ATOM      4  C5  UNL d   1       0.767  -1.145   0.981  0.00  0.00    -0.004 A 
ATOM      5  C6  UNL d   1      -0.091  -0.148   0.517  0.00  0.00     0.002 A 
ATOM      6  C7  UNL d   1      -1.399  -0.073   0.997  0.00  0.00     0.002 A 
ENDROOT
BRANCH   1   7
ATOM      7  C1  UNL d   1      -3.258  -0.884   2.499  0.00  0.00     0.055 C 
ATOM      8  C   UNL d   1      -3.267  -0.147   3.831  0.00  0.00     0.019 C 
ENDBRANCH   1   7
TORSDOF 1
ENDMDL
