MODEL 1
REMARK minimizedAffinity -1.58655679
REMARK minimizedRMSD -1
REMARK  1 active torsions:
REMARK  status: ('A' for Active; 'I' for Inactive)
REMARK    1  A    between atoms: C1_2  and  C2_3 
ROOT
ATOM      1  C2  UNL d   1      -4.151  -4.951  -5.316  0.00  0.00    -0.077 A 
ATOM      2  C3  UNL d   1      -3.864  -4.482  -4.027  0.00  0.00     0.002 A 
ATOM      3  C4  UNL d   1      -2.637  -4.771  -3.427  0.00  0.00     0.002 A 
ATOM      4  C5  UNL d   1      -1.686  -5.525  -4.111  0.00  0.00    -0.004 A 
ATOM      5  C6  UNL d   1      -1.963  -5.997  -5.394  0.00  0.00     0.002 A 
ATOM      6  C7  UNL d   1      -3.190  -5.711  -5.994  0.00  0.00     0.002 A 
ENDROOT
BRANCH   1   7
ATOM      7  C1  UNL d   1      -5.455  -4.598  -5.984  0.00  0.00     0.055 C 
ATOM      8  C   UNL d   1      -5.800  -3.129  -5.785  0.00  0.00     0.019 C 
ENDBRANCH   1   7
TORSDOF 1
ENDMDL
