MODEL 1
REMARK minimizedAffinity -2.46593595
REMARK minimizedRMSD -1
REMARK  1 active torsions:
REMARK  status: ('A' for Active; 'I' for Inactive)
REMARK    1  A    between atoms: C1_2  and  C2_3 
ROOT
ATOM      1  C2  UNL d   1      -4.436  -4.500  -4.704  0.00  0.00    -0.077 A 
ATOM      2  C3  UNL d   1      -4.211  -5.265  -5.857  0.00  0.00     0.002 A 
ATOM      3  C4  UNL d   1      -3.032  -5.998  -6.000  0.00  0.00     0.002 A 
ATOM      4  C5  UNL d   1      -2.071  -5.978  -4.992  0.00  0.00    -0.004 A 
ATOM      5  C6  UNL d   1      -2.284  -5.220  -3.842  0.00  0.00     0.002 A 
ATOM      6  C7  UNL d   1      -3.461  -4.484  -3.698  0.00  0.00     0.002 A 
ENDROOT
BRANCH   1   7
ATOM      7  C1  UNL d   1      -5.728  -3.747  -4.526  0.00  0.00     0.055 C 
ATOM      8  C   UNL d   1      -5.915  -2.704  -5.618  0.00  0.00     0.019 C 
ENDBRANCH   1   7
TORSDOF 1
ENDMDL
