MODEL 1
REMARK minimizedAffinity -1.57429814
REMARK minimizedRMSD -1
REMARK  1 active torsions:
REMARK  status: ('A' for Active; 'I' for Inactive)
REMARK    1  A    between atoms: C1_2  and  C2_3 
ROOT
ATOM      1  C2  UNL d   1      -3.623  -4.523  -4.721  0.00  0.00    -0.077 A 
ATOM      2  C3  UNL d   1      -3.001  -4.933  -3.533  0.00  0.00     0.002 A 
ATOM      3  C4  UNL d   1      -1.816  -5.671  -3.575  0.00  0.00     0.002 A 
ATOM      4  C5  UNL d   1      -1.241  -5.999  -4.801  0.00  0.00    -0.004 A 
ATOM      5  C6  UNL d   1      -1.853  -5.597  -5.987  0.00  0.00     0.002 A 
ATOM      6  C7  UNL d   1      -3.038  -4.862  -5.948  0.00  0.00     0.002 A 
ENDROOT
BRANCH   1   7
ATOM      7  C1  UNL d   1      -4.874  -3.685  -4.677  0.00  0.00     0.055 C 
ATOM      8  C   UNL d   1      -5.106  -2.967  -5.998  0.00  0.00     0.019 C 
ENDBRANCH   1   7
TORSDOF 1
ENDMDL
