MODEL 1
REMARK minimizedAffinity -2.89683652
REMARK minimizedRMSD -1
REMARK  1 active torsions:
REMARK  status: ('A' for Active; 'I' for Inactive)
REMARK    1  A    between atoms: C1_2  and  C2_3 
ROOT
ATOM      1  C2  UNL d   1      -2.463  -5.274  -5.263  0.00  0.00    -0.077 A 
ATOM      2  C3  UNL d   1      -3.528  -5.811  -5.999  0.00  0.00     0.002 A 
ATOM      3  C4  UNL d   1      -4.793  -5.937  -5.422  0.00  0.00     0.002 A 
ATOM      4  C5  UNL d   1      -5.006  -5.524  -4.108  0.00  0.00    -0.004 A 
ATOM      5  C6  UNL d   1      -3.952  -4.990  -3.367  0.00  0.00     0.002 A 
ATOM      6  C7  UNL d   1      -2.687  -4.865  -3.942  0.00  0.00     0.002 A 
ENDROOT
BRANCH   1   7
ATOM      7  C1  UNL d   1      -1.110  -5.092  -5.899  0.00  0.00     0.055 C 
ATOM      8  C   UNL d   1      -0.070  -6.000  -5.258  0.00  0.00     0.019 C 
ENDBRANCH   1   7
TORSDOF 1
ENDMDL
