MODEL 1
REMARK minimizedAffinity -2.58249784
REMARK minimizedRMSD -1
REMARK  1 active torsions:
REMARK  status: ('A' for Active; 'I' for Inactive)
REMARK    1  A    between atoms: C1_2  and  C2_3 
ROOT
ATOM      1  C2  UNL d   1      -5.186  -3.599  -5.246  0.00  0.00    -0.077 A 
ATOM      2  C3  UNL d   1      -5.625  -4.714  -5.974  0.00  0.00     0.002 A 
ATOM      3  C4  UNL d   1      -4.896  -5.905  -5.950  0.00  0.00     0.002 A 
ATOM      4  C5  UNL d   1      -3.727  -5.993  -5.197  0.00  0.00    -0.004 A 
ATOM      5  C6  UNL d   1      -3.281  -4.889  -4.471  0.00  0.00     0.002 A 
ATOM      6  C7  UNL d   1      -4.008  -3.698  -4.495  0.00  0.00     0.002 A 
ENDROOT
BRANCH   1   7
ATOM      7  C1  UNL d   1      -5.997  -2.330  -5.231  0.00  0.00     0.055 C 
ATOM      8  C   UNL d   1      -6.000  -1.691  -3.850  0.00  0.00     0.019 C 
ENDBRANCH   1   7
TORSDOF 1
ENDMDL
