MODEL 1
REMARK minimizedAffinity 0.449210107
REMARK minimizedRMSD -1
REMARK  1 active torsions:
REMARK  status: ('A' for Active; 'I' for Inactive)
REMARK    1  A    between atoms: C1_2  and  C2_3 
ROOT
ATOM      1  C2  UNL d   1      -3.960  -4.466  -4.840  0.00  0.00    -0.077 A 
ATOM      2  C3  UNL d   1      -4.103  -3.688  -5.998  0.00  0.00     0.002 A 
ATOM      3  C4  UNL d   1      -4.941  -2.571  -5.999  0.00  0.00     0.002 A 
ATOM      4  C5  UNL d   1      -5.639  -2.220  -4.846  0.00  0.00    -0.004 A 
ATOM      5  C6  UNL d   1      -5.505  -2.989  -3.690  0.00  0.00     0.002 A 
ATOM      6  C7  UNL d   1      -4.669  -4.106  -3.687  0.00  0.00     0.002 A 
ENDROOT
BRANCH   1   7
ATOM      7  C1  UNL d   1      -3.019  -5.642  -4.822  0.00  0.00     0.055 C 
ATOM      8  C   UNL d   1      -1.897  -5.468  -5.836  0.00  0.00     0.019 C 
ENDBRANCH   1   7
TORSDOF 1
ENDMDL
