MODEL 1
REMARK minimizedAffinity 1.32540405
REMARK minimizedRMSD -1
REMARK  1 active torsions:
REMARK  status: ('A' for Active; 'I' for Inactive)
REMARK    1  A    between atoms: C1_2  and  C2_3 
ROOT
ATOM      1  C2  UNL d   1      -4.832  -1.429  -5.305  0.00  0.00    -0.077 A 
ATOM      2  C3  UNL d   1      -3.795  -0.743  -5.953  0.00  0.00     0.002 A 
ATOM      3  C4  UNL d   1      -3.095   0.267  -5.292  0.00  0.00     0.002 A 
ATOM      4  C5  UNL d   1      -3.420   0.598  -3.978  0.00  0.00    -0.004 A 
ATOM      5  C6  UNL d   1      -4.451  -0.077  -3.325  0.00  0.00     0.002 A 
ATOM      6  C7  UNL d   1      -5.153  -1.086  -3.985  0.00  0.00     0.002 A 
ENDROOT
BRANCH   1   7
ATOM      7  C1  UNL d   1      -5.556  -2.553  -5.999  0.00  0.00     0.055 C 
ATOM      8  C   UNL d   1      -4.727  -3.829  -5.998  0.00  0.00     0.019 C 
ENDBRANCH   1   7
TORSDOF 1
ENDMDL
