MODEL 1
REMARK minimizedAffinity 19.9237213
REMARK minimizedRMSD -1
REMARK  0 active torsions:
REMARK  status: ('A' for Active; 'I' for Inactive)
ROOT
ATOM      1  C   UNL d   1      -0.828  -2.244   1.391  0.00  0.00     0.124 A 
ATOM      2  C1  UNL d   1      -1.024  -0.871   1.361  0.00  0.00     0.062 A 
ATOM      3  C2  UNL d   1       0.065  -0.011   1.259  0.00  0.00     0.162 A 
ATOM      4  C3  UNL d   1       1.361  -0.522   1.184  0.00  0.00    -0.034 A 
ATOM      5  C4  UNL d   1       1.550  -1.905   1.215  0.00  0.00     0.162 A 
ATOM      6  C5  UNL d   1       0.458  -2.760   1.318  0.00  0.00     0.062 A 
ATOM      7  F   UNL d   1       0.649  -4.087   1.347  0.00  0.00    -0.097 F 
ATOM      8  F1  UNL d   1       2.782  -2.430   1.145  0.00  0.00    -0.096 F 
ATOM      9  I   UNL d   1       2.993   0.761   1.030  0.00  0.00    -0.060 I 
ATOM     10  F2  UNL d   1      -0.153   1.313   1.232  0.00  0.00    -0.096 F 
ATOM     11  F3  UNL d   1      -2.266  -0.370   1.433  0.00  0.00    -0.097 F 
ATOM     12  F4  UNL d   1      -1.878  -3.070   1.491  0.00  0.00    -0.092 F 
ENDROOT
TORSDOF 0
ENDMDL
