MODEL 1
REMARK minimizedAffinity 20.9566307
REMARK minimizedRMSD -1
REMARK  0 active torsions:
REMARK  status: ('A' for Active; 'I' for Inactive)
ROOT
ATOM      1  C   UNL d   1      -2.125   1.037  -1.497  0.00  0.00     0.124 A 
ATOM      2  C1  UNL d   1      -3.006   1.255  -2.547  0.00  0.00     0.062 A 
ATOM      3  C2  UNL d   1      -4.013   2.209  -2.430  0.00  0.00     0.162 A 
ATOM      4  C3  UNL d   1      -4.144   2.953  -1.257  0.00  0.00    -0.034 A 
ATOM      5  C4  UNL d   1      -3.254   2.727  -0.205  0.00  0.00     0.162 A 
ATOM      6  C5  UNL d   1      -2.250   1.773  -0.328  0.00  0.00     0.062 A 
ATOM      7  F   UNL d   1      -1.399   1.563   0.688  0.00  0.00    -0.097 F 
ATOM      8  F1  UNL d   1      -3.351   3.425   0.936  0.00  0.00    -0.096 F 
ATOM      9  I   UNL d   1      -5.648   4.380  -1.077  0.00  0.00    -0.060 I 
ATOM     10  F2  UNL d   1      -4.850   2.399  -3.460  0.00  0.00    -0.096 F 
ATOM     11  F3  UNL d   1      -2.888   0.545  -3.678  0.00  0.00    -0.097 F 
ATOM     12  F4  UNL d   1      -1.158   0.118  -1.613  0.00  0.00    -0.092 F 
ENDROOT
TORSDOF 0
ENDMDL
