MODEL 1
REMARK minimizedAffinity 19.8028831
REMARK minimizedRMSD -1
REMARK  0 active torsions:
REMARK  status: ('A' for Active; 'I' for Inactive)
ROOT
ATOM      1  C   UNL d   1      -4.428   1.591  -3.495  0.00  0.00     0.124 A 
ATOM      2  C1  UNL d   1      -3.378   0.842  -2.982  0.00  0.00     0.062 A 
ATOM      3  C2  UNL d   1      -2.885   1.108  -1.708  0.00  0.00     0.162 A 
ATOM      4  C3  UNL d   1      -3.442   2.128  -0.937  0.00  0.00    -0.034 A 
ATOM      5  C4  UNL d   1      -4.497   2.879  -1.460  0.00  0.00     0.162 A 
ATOM      6  C5  UNL d   1      -4.986   2.609  -2.734  0.00  0.00     0.062 A 
ATOM      7  F   UNL d   1      -6.000   3.334  -3.228  0.00  0.00    -0.097 F 
ATOM      8  F1  UNL d   1      -5.055   3.867  -0.745  0.00  0.00    -0.096 F 
ATOM      9  I   UNL d   1      -2.707   2.530   0.969  0.00  0.00    -0.060 I 
ATOM     10  F2  UNL d   1      -1.870   0.368  -1.237  0.00  0.00    -0.096 F 
ATOM     11  F3  UNL d   1      -2.837  -0.141  -3.715  0.00  0.00    -0.097 F 
ATOM     12  F4  UNL d   1      -4.900   1.334  -4.721  0.00  0.00    -0.092 F 
ENDROOT
TORSDOF 0
ENDMDL
