MODEL 1
REMARK minimizedAffinity 6.63968039
REMARK minimizedRMSD -1
REMARK  0 active torsions:
REMARK  status: ('A' for Active; 'I' for Inactive)
ROOT
ATOM      1  C   UNL d   1       4.024  -0.731  -3.837  0.00  0.00     0.124 A 
ATOM      2  C1  UNL d   1       5.024  -0.296  -4.695  0.00  0.00     0.062 A 
ATOM      3  C2  UNL d   1       5.018   1.012  -5.171  0.00  0.00     0.162 A 
ATOM      4  C3  UNL d   1       4.009   1.896  -4.788  0.00  0.00    -0.034 A 
ATOM      5  C4  UNL d   1       3.006   1.451  -3.925  0.00  0.00     0.162 A 
ATOM      6  C5  UNL d   1       3.016   0.143  -3.453  0.00  0.00     0.062 A 
ATOM      7  F   UNL d   1       2.049  -0.276  -2.623  0.00  0.00    -0.097 F 
ATOM      8  F1  UNL d   1       2.021   2.274  -3.537  0.00  0.00    -0.096 F 
ATOM      9  I   UNL d   1       3.997   3.853  -5.497  0.00  0.00    -0.060 I 
ATOM     10  F2  UNL d   1       5.997   1.405  -5.999  0.00  0.00    -0.096 F 
ATOM     11  F3  UNL d   1       5.998  -1.138  -5.069  0.00  0.00    -0.097 F 
ATOM     12  F4  UNL d   1       4.031  -1.990  -3.382  0.00  0.00    -0.092 F 
ENDROOT
TORSDOF 0
ENDMDL
