MODEL 1
REMARK minimizedAffinity 29.7937641
REMARK minimizedRMSD -1
REMARK  0 active torsions:
REMARK  status: ('A' for Active; 'I' for Inactive)
ROOT
ATOM      1  C   UNL d   1       1.034  -2.189   4.206  0.00  0.00     0.124 A 
ATOM      2  C1  UNL d   1       1.204  -3.464   4.727  0.00  0.00     0.062 A 
ATOM      3  C2  UNL d   1       1.722  -4.482   3.931  0.00  0.00     0.162 A 
ATOM      4  C3  UNL d   1       2.075  -4.228   2.606  0.00  0.00    -0.034 A 
ATOM      5  C4  UNL d   1       1.901  -2.943   2.089  0.00  0.00     0.162 A 
ATOM      6  C5  UNL d   1       1.383  -1.929   2.888  0.00  0.00     0.062 A 
ATOM      7  F   UNL d   1       1.219  -0.698   2.383  0.00  0.00    -0.097 F 
ATOM      8  F1  UNL d   1       2.230  -2.665   0.819  0.00  0.00    -0.096 F 
ATOM      9  I   UNL d   1       2.850  -5.747   1.413  0.00  0.00    -0.060 I 
ATOM     10  F2  UNL d   1       1.875  -5.705   4.461  0.00  0.00    -0.096 F 
ATOM     11  F3  UNL d   1       0.867  -3.717   6.000  0.00  0.00    -0.097 F 
ATOM     12  F4  UNL d   1       0.534  -1.212   4.974  0.00  0.00    -0.092 F 
ENDROOT
TORSDOF 0
ENDMDL
