MODEL 1
REMARK minimizedAffinity 21.0730572
REMARK minimizedRMSD -1
REMARK  0 active torsions:
REMARK  status: ('A' for Active; 'I' for Inactive)
ROOT
ATOM      1  C   UNL d   1       1.564  -3.249   1.886  0.00  0.00     0.124 A 
ATOM      2  C1  UNL d   1       1.233  -2.616   3.076  0.00  0.00     0.062 A 
ATOM      3  C2  UNL d   1       1.120  -1.230   3.124  0.00  0.00     0.162 A 
ATOM      4  C3  UNL d   1       1.336  -0.466   1.977  0.00  0.00    -0.034 A 
ATOM      5  C4  UNL d   1       1.669  -1.109   0.783  0.00  0.00     0.162 A 
ATOM      6  C5  UNL d   1       1.781  -2.495   0.741  0.00  0.00     0.062 A 
ATOM      7  F   UNL d   1       2.101  -3.105  -0.410  0.00  0.00    -0.097 F 
ATOM      8  F1  UNL d   1       1.884  -0.406  -0.338  0.00  0.00    -0.096 F 
ATOM      9  I   UNL d   1       1.167   1.607   2.044  0.00  0.00    -0.060 I 
ATOM     10  F2  UNL d   1       0.799  -0.645   4.287  0.00  0.00    -0.096 F 
ATOM     11  F3  UNL d   1       1.024  -3.342   4.184  0.00  0.00    -0.097 F 
ATOM     12  F4  UNL d   1       1.673  -4.583   1.843  0.00  0.00    -0.092 F 
ENDROOT
TORSDOF 0
ENDMDL
