MODEL 1
REMARK minimizedAffinity 23.2635078
REMARK minimizedRMSD -1
REMARK  0 active torsions:
REMARK  status: ('A' for Active; 'I' for Inactive)
ROOT
ATOM      1  C   UNL d   1       1.014  -0.255   4.707  0.00  0.00     0.124 A 
ATOM      2  C1  UNL d   1       1.847   0.850   4.814  0.00  0.00     0.062 A 
ATOM      3  C2  UNL d   1       2.515   1.332   3.692  0.00  0.00     0.162 A 
ATOM      4  C3  UNL d   1       2.352   0.711   2.454  0.00  0.00    -0.034 A 
ATOM      5  C4  UNL d   1       1.513  -0.400   2.355  0.00  0.00     0.162 A 
ATOM      6  C5  UNL d   1       0.847  -0.879   3.479  0.00  0.00     0.062 A 
ATOM      7  F   UNL d   1       0.043  -1.946   3.374  0.00  0.00    -0.097 F 
ATOM      8  F1  UNL d   1       1.334  -1.021   1.180  0.00  0.00    -0.096 F 
ATOM      9  I   UNL d   1       3.350   1.430   0.775  0.00  0.00    -0.060 I 
ATOM     10  F2  UNL d   1       3.314   2.402   3.824  0.00  0.00    -0.096 F 
ATOM     11  F3  UNL d   1       2.010   1.453   6.000  0.00  0.00    -0.097 F 
ATOM     12  F4  UNL d   1       0.372  -0.718   5.788  0.00  0.00    -0.092 F 
ENDROOT
TORSDOF 0
ENDMDL
