MODEL 1
REMARK minimizedAffinity 16.0556755
REMARK minimizedRMSD -1
REMARK  0 active torsions:
REMARK  status: ('A' for Active; 'I' for Inactive)
ROOT
ATOM      1  C   UNL d   1      -1.283  -2.838  -0.876  0.00  0.00     0.124 A 
ATOM      2  C1  UNL d   1      -1.187  -2.648   0.495  0.00  0.00     0.062 A 
ATOM      3  C2  UNL d   1      -0.013  -2.149   1.052  0.00  0.00     0.162 A 
ATOM      4  C3  UNL d   1       1.075  -1.835   0.237  0.00  0.00    -0.034 A 
ATOM      5  C4  UNL d   1       0.971  -2.030  -1.141  0.00  0.00     0.162 A 
ATOM      6  C5  UNL d   1      -0.205  -2.529  -1.693  0.00  0.00     0.062 A 
ATOM      7  F   UNL d   1      -0.296  -2.711  -3.018  0.00  0.00    -0.097 F 
ATOM      8  F1  UNL d   1       1.997  -1.738  -1.954  0.00  0.00    -0.096 F 
ATOM      9  I   UNL d   1       2.832  -1.089   1.066  0.00  0.00    -0.060 I 
ATOM     10  F2  UNL d   1       0.052  -1.976   2.381  0.00  0.00    -0.096 F 
ATOM     11  F3  UNL d   1      -2.227  -2.947   1.287  0.00  0.00    -0.097 F 
ATOM     12  F4  UNL d   1      -2.414  -3.319  -1.409  0.00  0.00    -0.092 F 
ENDROOT
TORSDOF 0
ENDMDL
