MODEL 1
REMARK minimizedAffinity -5.08507347
REMARK minimizedRMSD -1
REMARK  1 active torsions:
REMARK  status: ('A' for Active; 'I' for Inactive)
REMARK    1  A    between atoms: C1_2  and  C2_3 
ROOT
ATOM      1  C2  UNL d   1      -0.412   0.203   0.393  0.00  0.00    -0.081 A 
ATOM      2  C3  UNL d   1      -1.056  -0.643   1.305  0.00  0.00     0.006 A 
ATOM      3  C4  UNL d   1      -0.424  -1.802   1.762  0.00  0.00     0.002 A 
ATOM      4  C5  UNL d   1       0.862  -2.130   1.322  0.00  0.00    -0.080 A 
ATOM      5  C6  UNL d   1       1.563  -3.356   1.828  0.00  0.00     0.076 C 
ATOM      6  C7  UNL d   1       1.498  -1.294   0.398  0.00  0.00     0.002 A 
ATOM      7  C8  UNL d   1       0.868  -0.135  -0.060  0.00  0.00     0.006 A 
ENDROOT
BRANCH   1   8
ATOM      8  C1  UNL d   1      -1.064   1.488  -0.052  0.00  0.00     0.054 C 
ATOM      9  C   UNL d   1      -1.062   1.612  -1.569  0.00  0.00     0.018 C 
ENDBRANCH   1   8
TORSDOF 1
ENDMDL
