MODEL 1
REMARK minimizedAffinity -5.43773317
REMARK minimizedRMSD -1
REMARK  1 active torsions:
REMARK  status: ('A' for Active; 'I' for Inactive)
REMARK    1  A    between atoms: C1_2  and  C2_3 
ROOT
ATOM      1  C2  UNL d   1       1.091  -1.538   1.224  0.00  0.00    -0.081 A 
ATOM      2  C3  UNL d   1       1.250  -0.585   0.210  0.00  0.00     0.006 A 
ATOM      3  C4  UNL d   1       0.257   0.368  -0.029  0.00  0.00     0.002 A 
ATOM      4  C5  UNL d   1      -0.908   0.388   0.747  0.00  0.00    -0.080 A 
ATOM      5  C6  UNL d   1      -1.969   1.424   0.521  0.00  0.00     0.076 C 
ATOM      6  C7  UNL d   1      -1.074  -0.575   1.748  0.00  0.00     0.002 A 
ATOM      7  C8  UNL d   1      -0.082  -1.527   1.987  0.00  0.00     0.006 A 
ENDROOT
BRANCH   1   8
ATOM      8  C1  UNL d   1       2.189  -2.525   1.526  0.00  0.00     0.054 C 
ATOM      9  C   UNL d   1       1.675  -3.684   2.368  0.00  0.00     0.018 C 
ENDBRANCH   1   8
TORSDOF 1
ENDMDL
