MODEL 1
REMARK minimizedAffinity -4.23400927
REMARK minimizedRMSD -1
REMARK  1 active torsions:
REMARK  status: ('A' for Active; 'I' for Inactive)
REMARK    1  A    between atoms: C1_2  and  C2_3 
ROOT
ATOM      1  C2  UNL d   1      -0.452  -0.352   0.425  0.00  0.00    -0.081 A 
ATOM      2  C3  UNL d   1      -1.157  -1.181   1.307  0.00  0.00     0.006 A 
ATOM      3  C4  UNL d   1      -0.524  -2.267   1.917  0.00  0.00     0.002 A 
ATOM      4  C5  UNL d   1       0.824  -2.538   1.662  0.00  0.00    -0.080 A 
ATOM      5  C6  UNL d   1       1.524  -3.682   2.333  0.00  0.00     0.076 C 
ATOM      6  C7  UNL d   1       1.524  -1.720   0.767  0.00  0.00     0.002 A 
ATOM      7  C8  UNL d   1       0.892  -0.635   0.157  0.00  0.00     0.006 A 
ENDROOT
BRANCH   1   8
ATOM      8  C1  UNL d   1      -1.113   0.857  -0.184  0.00  0.00     0.054 C 
ATOM      9  C   UNL d   1      -0.211   2.081  -0.104  0.00  0.00     0.018 C 
ENDBRANCH   1   8
TORSDOF 1
ENDMDL
