MODEL 1
REMARK minimizedAffinity -4.82119751
REMARK minimizedRMSD -1
REMARK  1 active torsions:
REMARK  status: ('A' for Active; 'I' for Inactive)
REMARK    1  A    between atoms: C1_2  and  C2_3 
ROOT
ATOM      1  C2  UNL d   1       0.165  -0.332   0.260  0.00  0.00    -0.081 A 
ATOM      2  C3  UNL d   1       1.300  -1.077  -0.084  0.00  0.00     0.006 A 
ATOM      3  C4  UNL d   1       1.629  -2.235   0.624  0.00  0.00     0.002 A 
ATOM      4  C5  UNL d   1       0.825  -2.672   1.682  0.00  0.00    -0.080 A 
ATOM      5  C6  UNL d   1       1.150  -3.930   2.431  0.00  0.00     0.076 C 
ATOM      6  C7  UNL d   1      -0.299  -1.919   2.038  0.00  0.00     0.002 A 
ATOM      7  C8  UNL d   1      -0.628  -0.760   1.330  0.00  0.00     0.006 A 
ENDROOT
BRANCH   1   8
ATOM      8  C1  UNL d   1      -0.229   0.881  -0.543  0.00  0.00     0.054 C 
ATOM      9  C   UNL d   1      -1.142   1.800   0.255  0.00  0.00     0.018 C 
ENDBRANCH   1   8
TORSDOF 1
ENDMDL
