MODEL 1
REMARK minimizedAffinity -4.99167824
REMARK minimizedRMSD -1
REMARK  1 active torsions:
REMARK  status: ('A' for Active; 'I' for Inactive)
REMARK    1  A    between atoms: C1_2  and  C2_3 
ROOT
ATOM      1  C2  UNL d   1      -0.406   0.496   0.070  0.00  0.00    -0.081 A 
ATOM      2  C3  UNL d   1      -1.246  -0.072   1.036  0.00  0.00     0.006 A 
ATOM      3  C4  UNL d   1      -0.870  -1.241   1.701  0.00  0.00     0.002 A 
ATOM      4  C5  UNL d   1       0.354  -1.856   1.419  0.00  0.00    -0.080 A 
ATOM      5  C6  UNL d   1       0.783  -3.095   2.148  0.00  0.00     0.076 C 
ATOM      6  C7  UNL d   1       1.186  -1.298   0.442  0.00  0.00     0.002 A 
ATOM      7  C8  UNL d   1       0.810  -0.130  -0.224  0.00  0.00     0.006 A 
ENDROOT
BRANCH   1   8
ATOM      8  C1  UNL d   1      -0.779   1.792  -0.603  0.00  0.00     0.054 C 
ATOM      9  C   UNL d   1      -1.543   1.544  -1.896  0.00  0.00     0.018 C 
ENDBRANCH   1   8
TORSDOF 1
ENDMDL
