MODEL 1
REMARK minimizedAffinity -5.7880311
REMARK minimizedRMSD -1
REMARK  1 active torsions:
REMARK  status: ('A' for Active; 'I' for Inactive)
REMARK    1  A    between atoms: C1_2  and  C2_3 
ROOT
ATOM      1  C2  UNL d   1       0.696  -1.152   1.198  0.00  0.00    -0.081 A 
ATOM      2  C3  UNL d   1      -0.551  -0.580   1.478  0.00  0.00     0.006 A 
ATOM      3  C4  UNL d   1      -1.045   0.461   0.689  0.00  0.00     0.002 A 
ATOM      4  C5  UNL d   1      -0.307   0.941  -0.397  0.00  0.00    -0.080 A 
ATOM      5  C6  UNL d   1      -0.840   2.038  -1.270  0.00  0.00     0.076 C 
ATOM      6  C7  UNL d   1       0.947   0.381  -0.667  0.00  0.00     0.002 A 
ATOM      7  C8  UNL d   1       1.442  -0.659   0.122  0.00  0.00     0.006 A 
ENDROOT
BRANCH   1   8
ATOM      8  C1  UNL d   1       1.204  -2.318   2.007  0.00  0.00     0.054 C 
ATOM      9  C   UNL d   1       0.409  -2.486   3.294  0.00  0.00     0.018 C 
ENDBRANCH   1   8
TORSDOF 1
ENDMDL
