MODEL 1
REMARK minimizedAffinity -3.4210403
REMARK minimizedRMSD -1
REMARK  1 active torsions:
REMARK  status: ('A' for Active; 'I' for Inactive)
REMARK    1  A    between atoms: C1_2  and  C2_3 
ROOT
ATOM      1  C2  UNL d   1      -0.856   1.472  -0.635  0.00  0.00    -0.081 A 
ATOM      2  C3  UNL d   1       0.268   0.643  -0.741  0.00  0.00     0.006 A 
ATOM      3  C4  UNL d   1       0.600  -0.237   0.291  0.00  0.00     0.002 A 
ATOM      4  C5  UNL d   1      -0.191  -0.309   1.443  0.00  0.00    -0.080 A 
ATOM      5  C6  UNL d   1       0.137  -1.272   2.546  0.00  0.00     0.076 C 
ATOM      6  C7  UNL d   1      -1.303   0.531   1.558  0.00  0.00     0.002 A 
ATOM      7  C8  UNL d   1      -1.635   1.412   0.526  0.00  0.00     0.006 A 
ENDROOT
BRANCH   1   8
ATOM      8  C1  UNL d   1      -1.252   2.375  -1.774  0.00  0.00     0.054 C 
ATOM      9  C   UNL d   1      -2.134   1.646  -2.778  0.00  0.00     0.018 C 
ENDBRANCH   1   8
TORSDOF 1
ENDMDL
