MODEL 1
REMARK minimizedAffinity -6.0378623
REMARK minimizedRMSD -1
REMARK  1 active torsions:
REMARK  status: ('A' for Active; 'I' for Inactive)
REMARK    1  A    between atoms: C1_2  and  C2_3 
ROOT
ATOM      1  C2  UNL d   1      -0.180   0.555   0.082  0.00  0.00    -0.081 A 
ATOM      2  C3  UNL d   1       0.953  -0.162  -0.322  0.00  0.00     0.006 A 
ATOM      3  C4  UNL d   1       1.378  -1.280   0.400  0.00  0.00     0.002 A 
ATOM      4  C5  UNL d   1       0.674  -1.704   1.532  0.00  0.00    -0.080 A 
ATOM      5  C6  UNL d   1       1.103  -2.920   2.298  0.00  0.00     0.076 C 
ATOM      6  C7  UNL d   1      -0.448  -0.978   1.946  0.00  0.00     0.002 A 
ATOM      7  C8  UNL d   1      -0.873   0.140   1.225  0.00  0.00     0.006 A 
ENDROOT
BRANCH   1   8
ATOM      8  C1  UNL d   1      -0.679   1.722  -0.731  0.00  0.00     0.054 C 
ATOM      9  C   UNL d   1      -1.523   1.256  -1.908  0.00  0.00     0.018 C 
ENDBRANCH   1   8
TORSDOF 1
ENDMDL
