MODEL 1
REMARK minimizedAffinity -6.41959143
REMARK minimizedRMSD -1
REMARK  1 active torsions:
REMARK  status: ('A' for Active; 'I' for Inactive)
REMARK    1  A    between atoms: C1_2  and  C2_3 
ROOT
ATOM      1  C2  UNL d   1      -0.253   0.228  -0.346  0.00  0.00    -0.081 A 
ATOM      2  C3  UNL d   1      -1.074  -0.594   0.436  0.00  0.00     0.006 A 
ATOM      3  C4  UNL d   1      -0.524  -1.638   1.184  0.00  0.00     0.002 A 
ATOM      4  C5  UNL d   1       0.855  -1.873   1.169  0.00  0.00    -0.080 A 
ATOM      5  C6  UNL d   1       1.461  -2.972   1.990  0.00  0.00     0.076 C 
ATOM      6  C7  UNL d   1       1.673  -1.063   0.374  0.00  0.00     0.002 A 
ATOM      7  C8  UNL d   1       1.124  -0.020  -0.375  0.00  0.00     0.006 A 
ENDROOT
BRANCH   1   8
ATOM      8  C1  UNL d   1      -0.834   1.395  -1.102  0.00  0.00     0.054 C 
ATOM      9  C   UNL d   1      -2.063   0.981  -1.899  0.00  0.00     0.018 C 
ENDBRANCH   1   8
TORSDOF 1
ENDMDL
