MODEL 1
REMARK minimizedAffinity -4.01526117
REMARK minimizedRMSD -1
REMARK  1 active torsions:
REMARK  status: ('A' for Active; 'I' for Inactive)
REMARK    1  A    between atoms: C1_2  and  C2_3 
ROOT
ATOM      1  C2  UNL d   1       0.148  -0.283  -0.268  0.00  0.00    -0.081 A 
ATOM      2  C3  UNL d   1      -0.107  -0.205   1.107  0.00  0.00     0.006 A 
ATOM      3  C4  UNL d   1       0.082  -1.321   1.926  0.00  0.00     0.002 A 
ATOM      4  C5  UNL d   1       0.535  -2.529   1.387  0.00  0.00    -0.080 A 
ATOM      5  C6  UNL d   1       0.770  -3.726   2.260  0.00  0.00     0.076 C 
ATOM      6  C7  UNL d   1       0.773  -2.612   0.010  0.00  0.00     0.002 A 
ATOM      7  C8  UNL d   1       0.584  -1.497  -0.809  0.00  0.00     0.006 A 
ENDROOT
BRANCH   1   8
ATOM      8  C1  UNL d   1       0.008   0.936  -1.144  0.00  0.00     0.054 C 
ATOM      9  C   UNL d   1      -1.186   0.811  -2.079  0.00  0.00     0.018 C 
ENDBRANCH   1   8
TORSDOF 1
ENDMDL
