MODEL 1
REMARK minimizedAffinity 1.90056527
REMARK minimizedRMSD -1
REMARK  0 active torsions:
REMARK  status: ('A' for Active; 'I' for Inactive)
ROOT
ATOM      1  C   UNL d   1      -2.769   0.385  -0.341  0.00  0.00     0.078 C 
ATOM      2  C1  UNL d   1      -2.770   0.032   1.116  0.00  0.00    -0.077 A 
ATOM      3  C2  UNL d   1      -2.621   1.019   2.098  0.00  0.00    -0.001 A 
ATOM      4  C3  UNL d   1      -2.613   0.675   3.451  0.00  0.00     0.003 A 
ATOM      5  C4  UNL d   1      -2.755  -0.657   3.834  0.00  0.00    -0.005 A 
ATOM      6  C5  UNL d   1      -2.902  -1.647   2.865  0.00  0.00     0.003 A 
ATOM      7  C6  UNL d   1      -2.909  -1.305   1.512  0.00  0.00    -0.001 A 
ENDROOT
TORSDOF 0
ENDMDL
