MODEL 1
REMARK minimizedAffinity -2.39270878
REMARK minimizedRMSD -1
REMARK  0 active torsions:
REMARK  status: ('A' for Active; 'I' for Inactive)
ROOT
ATOM      1  C   UNL d   1       2.226   1.127  -3.695  0.00  0.00     0.078 C 
ATOM      2  C1  UNL d   1       3.540   1.283  -4.401  0.00  0.00    -0.077 A 
ATOM      3  C2  UNL d   1       3.736   2.299  -5.343  0.00  0.00    -0.001 A 
ATOM      4  C3  UNL d   1       4.962   2.426  -6.000  0.00  0.00     0.003 A 
ATOM      5  C4  UNL d   1       5.999   1.538  -5.722  0.00  0.00    -0.005 A 
ATOM      6  C5  UNL d   1       5.812   0.522  -4.787  0.00  0.00     0.003 A 
ATOM      7  C6  UNL d   1       4.587   0.394  -4.130  0.00  0.00    -0.001 A 
ENDROOT
TORSDOF 0
ENDMDL
