MODEL 1
REMARK minimizedAffinity 0.63441062
REMARK minimizedRMSD -1
REMARK  0 active torsions:
REMARK  status: ('A' for Active; 'I' for Inactive)
ROOT
ATOM      1  C   UNL d   1       3.701   2.471   1.718  0.00  0.00     0.078 C 
ATOM      2  C1  UNL d   1       4.268   1.405   2.608  0.00  0.00    -0.077 A 
ATOM      3  C2  UNL d   1       3.701   0.126   2.653  0.00  0.00    -0.001 A 
ATOM      4  C3  UNL d   1       4.234  -0.853   3.493  0.00  0.00     0.003 A 
ATOM      5  C4  UNL d   1       5.335  -0.563   4.296  0.00  0.00    -0.005 A 
ATOM      6  C5  UNL d   1       5.905   0.708   4.259  0.00  0.00     0.003 A 
ATOM      7  C6  UNL d   1       5.374   1.688   3.420  0.00  0.00    -0.001 A 
ENDROOT
TORSDOF 0
ENDMDL
