MODEL 1
REMARK minimizedAffinity -1.50483227
REMARK minimizedRMSD -1
REMARK  0 active torsions:
REMARK  status: ('A' for Active; 'I' for Inactive)
ROOT
ATOM      1  C   UNL d   1      -1.850   0.416   3.927  0.00  0.00     0.078 C 
ATOM      2  C1  UNL d   1      -2.616  -0.339   2.882  0.00  0.00    -0.077 A 
ATOM      3  C2  UNL d   1      -2.094  -0.519   1.595  0.00  0.00    -0.001 A 
ATOM      4  C3  UNL d   1      -2.823  -1.216   0.630  0.00  0.00     0.003 A 
ATOM      5  C4  UNL d   1      -4.077  -1.737   0.941  0.00  0.00    -0.005 A 
ATOM      6  C5  UNL d   1      -4.605  -1.560   2.218  0.00  0.00     0.003 A 
ATOM      7  C6  UNL d   1      -3.878  -0.864   3.185  0.00  0.00    -0.001 A 
ENDROOT
TORSDOF 0
ENDMDL
