MODEL 1
REMARK minimizedAffinity -2.75773096
REMARK minimizedRMSD -1
REMARK  0 active torsions:
REMARK  status: ('A' for Active; 'I' for Inactive)
ROOT
ATOM      1  C   UNL d   1      -2.885   1.959   0.058  0.00  0.00     0.078 C 
ATOM      2  C1  UNL d   1      -2.846   0.872   1.091  0.00  0.00    -0.077 A 
ATOM      3  C2  UNL d   1      -2.343  -0.398   0.782  0.00  0.00    -0.001 A 
ATOM      4  C3  UNL d   1      -2.322  -1.403   1.750  0.00  0.00     0.003 A 
ATOM      5  C4  UNL d   1      -2.804  -1.149   3.033  0.00  0.00    -0.005 A 
ATOM      6  C5  UNL d   1      -3.308   0.110   3.349  0.00  0.00     0.003 A 
ATOM      7  C6  UNL d   1      -3.330   1.117   2.382  0.00  0.00    -0.001 A 
ENDROOT
TORSDOF 0
ENDMDL
