MODEL 1
REMARK minimizedAffinity -1.40794349
REMARK minimizedRMSD -1
REMARK  0 active torsions:
REMARK  status: ('A' for Active; 'I' for Inactive)
ROOT
ATOM      1  C   UNL d   1      -1.847  -0.203   3.486  0.00  0.00     0.078 C 
ATOM      2  C1  UNL d   1      -2.776  -0.708   2.423  0.00  0.00    -0.077 A 
ATOM      3  C2  UNL d   1      -4.152  -0.811   2.657  0.00  0.00    -0.001 A 
ATOM      4  C3  UNL d   1      -5.004  -1.292   1.661  0.00  0.00     0.003 A 
ATOM      5  C4  UNL d   1      -4.488  -1.676   0.424  0.00  0.00    -0.005 A 
ATOM      6  C5  UNL d   1      -3.119  -1.579   0.183  0.00  0.00     0.003 A 
ATOM      7  C6  UNL d   1      -2.266  -1.098   1.178  0.00  0.00    -0.001 A 
ENDROOT
TORSDOF 0
ENDMDL
