MODEL 1
REMARK minimizedAffinity 4.31322432
REMARK minimizedRMSD -1
REMARK  0 active torsions:
REMARK  status: ('A' for Active; 'I' for Inactive)
ROOT
ATOM      1  C   UNL d   1      -2.566   0.071  -0.551  0.00  0.00     0.078 C 
ATOM      2  C1  UNL d   1      -2.801   0.103   0.929  0.00  0.00    -0.077 A 
ATOM      3  C2  UNL d   1      -2.633   1.285   1.661  0.00  0.00    -0.001 A 
ATOM      4  C3  UNL d   1      -2.847   1.297   3.041  0.00  0.00     0.003 A 
ATOM      5  C4  UNL d   1      -3.227   0.130   3.700  0.00  0.00    -0.005 A 
ATOM      6  C5  UNL d   1      -3.394  -1.051   2.980  0.00  0.00     0.003 A 
ATOM      7  C6  UNL d   1      -3.182  -1.066   1.601  0.00  0.00    -0.001 A 
ENDROOT
TORSDOF 0
ENDMDL
