MODEL 1
REMARK minimizedAffinity -1.28021049
REMARK minimizedRMSD -1
REMARK  0 active torsions:
REMARK  status: ('A' for Active; 'I' for Inactive)
ROOT
ATOM      1  C   UNL d   1      -1.938   0.703   3.914  0.00  0.00     0.078 C 
ATOM      2  C1  UNL d   1      -2.759   0.365   2.705  0.00  0.00    -0.077 A 
ATOM      3  C2  UNL d   1      -2.369   0.785   1.428  0.00  0.00    -0.001 A 
ATOM      4  C3  UNL d   1      -3.148   0.471   0.313  0.00  0.00     0.003 A 
ATOM      5  C4  UNL d   1      -4.322  -0.264   0.464  0.00  0.00    -0.005 A 
ATOM      6  C5  UNL d   1      -4.719  -0.685   1.731  0.00  0.00     0.003 A 
ATOM      7  C6  UNL d   1      -3.942  -0.372   2.848  0.00  0.00    -0.001 A 
ENDROOT
TORSDOF 0
ENDMDL
