MODEL 1
REMARK minimizedAffinity 2.59988451
REMARK minimizedRMSD -1
REMARK  0 active torsions:
REMARK  status: ('A' for Active; 'I' for Inactive)
ROOT
ATOM      1  C   UNL d   1       3.807   2.771   2.244  0.00  0.00     0.078 C 
ATOM      2  C1  UNL d   1       4.548   1.852   3.167  0.00  0.00    -0.077 A 
ATOM      3  C2  UNL d   1       5.307   2.356   4.231  0.00  0.00    -0.001 A 
ATOM      4  C3  UNL d   1       6.000   1.489   5.077  0.00  0.00     0.003 A 
ATOM      5  C4  UNL d   1       5.943   0.112   4.867  0.00  0.00    -0.005 A 
ATOM      6  C5  UNL d   1       5.193  -0.398   3.810  0.00  0.00     0.003 A 
ATOM      7  C6  UNL d   1       4.499   0.467   2.963  0.00  0.00    -0.001 A 
ENDROOT
TORSDOF 0
ENDMDL
