MODEL 1
REMARK minimizedAffinity -4.24399042
REMARK minimizedRMSD -1
REMARK  0 active torsions:
REMARK  status: ('A' for Active; 'I' for Inactive)
ROOT
ATOM      1  C   UNL d   1      -1.829   0.803  -0.262  0.00  0.00     0.078 C 
ATOM      2  C1  UNL d   1      -2.412   0.420   1.066  0.00  0.00    -0.077 A 
ATOM      3  C2  UNL d   1      -3.156  -0.757   1.214  0.00  0.00    -0.001 A 
ATOM      4  C3  UNL d   1      -3.702  -1.096   2.453  0.00  0.00     0.003 A 
ATOM      5  C4  UNL d   1      -3.510  -0.262   3.553  0.00  0.00    -0.005 A 
ATOM      6  C5  UNL d   1      -2.773   0.912   3.415  0.00  0.00     0.003 A 
ATOM      7  C6  UNL d   1      -2.227   1.253   2.177  0.00  0.00    -0.001 A 
ENDROOT
TORSDOF 0
ENDMDL
