MODEL 1
REMARK minimizedAffinity -4.92629051
REMARK minimizedRMSD -1
REMARK  0 active torsions:
REMARK  status: ('A' for Active; 'I' for Inactive)
ROOT
ATOM      1  C   UNL d   1      -2.655   1.824  -0.234  0.00  0.00     0.078 C 
ATOM      2  C1  UNL d   1      -2.761   1.210   1.130  0.00  0.00    -0.077 A 
ATOM      3  C2  UNL d   1      -3.037  -0.154   1.287  0.00  0.00    -0.001 A 
ATOM      4  C3  UNL d   1      -3.143  -0.710   2.563  0.00  0.00     0.003 A 
ATOM      5  C4  UNL d   1      -2.976   0.091   3.691  0.00  0.00    -0.005 A 
ATOM      6  C5  UNL d   1      -2.703   1.449   3.545  0.00  0.00     0.003 A 
ATOM      7  C6  UNL d   1      -2.597   2.007   2.270  0.00  0.00    -0.001 A 
ENDROOT
TORSDOF 0
ENDMDL
