MODEL 1
REMARK minimizedAffinity 4.97678041
REMARK minimizedRMSD -1
REMARK  0 active torsions:
REMARK  status: ('A' for Active; 'I' for Inactive)
ROOT
ATOM      1  C   UNL d   1       3.147   3.035   2.183  0.00  0.00     0.078 C 
ATOM      2  C1  UNL d   1       4.140   2.100   2.806  0.00  0.00    -0.077 A 
ATOM      3  C2  UNL d   1       5.075   2.558   3.742  0.00  0.00    -0.001 A 
ATOM      4  C3  UNL d   1       6.000   1.678   4.306  0.00  0.00     0.003 A 
ATOM      5  C4  UNL d   1       6.000   0.334   3.939  0.00  0.00    -0.005 A 
ATOM      6  C5  UNL d   1       5.075  -0.132   3.007  0.00  0.00     0.003 A 
ATOM      7  C6  UNL d   1       4.149   0.747   2.442  0.00  0.00    -0.001 A 
ENDROOT
TORSDOF 0
ENDMDL
