MODEL 1
REMARK minimizedAffinity 1.96708071
REMARK minimizedRMSD -1
REMARK  0 active torsions:
REMARK  status: ('A' for Active; 'I' for Inactive)
ROOT
ATOM      1  C   UNL d   1      -3.400  -1.128   2.572  0.00  0.00     0.078 C 
ATOM      2  C1  UNL d   1      -4.039  -0.801   1.255  0.00  0.00    -0.077 A 
ATOM      3  C2  UNL d   1      -3.295  -0.819   0.069  0.00  0.00    -0.001 A 
ATOM      4  C3  UNL d   1      -3.901  -0.503  -1.148  0.00  0.00     0.003 A 
ATOM      5  C4  UNL d   1      -5.252  -0.166  -1.191  0.00  0.00    -0.005 A 
ATOM      6  C5  UNL d   1      -6.000  -0.143  -0.015  0.00  0.00     0.003 A 
ATOM      7  C6  UNL d   1      -5.396  -0.459   1.203  0.00  0.00    -0.001 A 
ENDROOT
TORSDOF 0
ENDMDL
