MODEL 1
REMARK minimizedAffinity -2.46593714
REMARK minimizedRMSD -1
REMARK  0 active torsions:
REMARK  status: ('A' for Active; 'I' for Inactive)
ROOT
ATOM      1  C   UNL d   1      -0.928   1.870  -0.908  0.00  0.00     0.078 C 
ATOM      2  C1  UNL d   1      -1.941   2.736  -0.221  0.00  0.00    -0.077 A 
ATOM      3  C2  UNL d   1      -2.439   3.891  -0.837  0.00  0.00    -0.001 A 
ATOM      4  C3  UNL d   1      -3.374   4.693  -0.181  0.00  0.00     0.003 A 
ATOM      5  C4  UNL d   1      -3.819   4.350   1.094  0.00  0.00    -0.005 A 
ATOM      6  C5  UNL d   1      -3.328   3.203   1.715  0.00  0.00     0.003 A 
ATOM      7  C6  UNL d   1      -2.393   2.400   1.061  0.00  0.00    -0.001 A 
ENDROOT
TORSDOF 0
ENDMDL
