MODEL 1
REMARK minimizedAffinity -4.03540659
REMARK minimizedRMSD -1
REMARK  0 active torsions:
REMARK  status: ('A' for Active; 'I' for Inactive)
ROOT
ATOM      1  C1  DEN d   1       0.420   1.152   2.525  0.00  0.00     0.130 A 
ATOM      2  C2  DEN d   1      -0.957   1.628   2.627  0.00  0.00    -0.031 A 
ATOM      3  C3  DEN d   1      -1.736   1.007   1.536  0.00  0.00     0.027 A 
ATOM      4  C4  DEN d   1      -0.949  -0.638  -0.288  0.00  0.00     0.027 A 
ATOM      5  C5  DEN d   1       0.136  -1.324  -0.788  0.00  0.00    -0.003 A 
ATOM      6  C6  DEN d   1       1.388  -1.207  -0.245  0.00  0.00     0.001 A 
ATOM      7  C7  DEN d   1       1.577  -0.420   0.860  0.00  0.00     0.017 A 
ATOM      8  C8  DEN d   1       0.490   0.280   1.366  0.00  0.00    -0.094 A 
ATOM      9  C9  DEN d   1      -0.770   0.139   0.811  0.00  0.00    -0.072 A 
ENDROOT
TORSDOF 0
ENDMDL
