MODEL 1
REMARK minimizedAffinity 9.22247124
REMARK minimizedRMSD -1
REMARK  0 active torsions:
REMARK  status: ('A' for Active; 'I' for Inactive)
ROOT
ATOM      1  C1  DEN d   1      -0.282  -0.375  -3.894  0.00  0.00     0.130 A 
ATOM      2  C2  DEN d   1      -0.481  -0.464  -5.338  0.00  0.00    -0.031 A 
ATOM      3  C3  DEN d   1       0.761  -0.017  -5.999  0.00  0.00     0.027 A 
ATOM      4  C4  DEN d   1       2.964   0.797  -4.932  0.00  0.00     0.027 A 
ATOM      5  C5  DEN d   1       3.606   1.057  -3.741  0.00  0.00    -0.003 A 
ATOM      6  C6  DEN d   1       2.990   0.892  -2.529  0.00  0.00     0.001 A 
ATOM      7  C7  DEN d   1       1.708   0.411  -2.478  0.00  0.00     0.017 A 
ATOM      8  C8  DEN d   1       1.052   0.154  -3.675  0.00  0.00    -0.094 A 
ATOM      9  C9  DEN d   1       1.696   0.315  -4.890  0.00  0.00    -0.072 A 
ENDROOT
TORSDOF 0
ENDMDL
