MODEL 1
REMARK minimizedAffinity 10.3687897
REMARK minimizedRMSD -1
REMARK  0 active torsions:
REMARK  status: ('A' for Active; 'I' for Inactive)
ROOT
ATOM      1  C1  DEN d   1      -0.133  -1.146  -2.792  0.00  0.00     0.130 A 
ATOM      2  C2  DEN d   1      -0.575  -1.513  -4.135  0.00  0.00    -0.031 A 
ATOM      3  C3  DEN d   1       0.213  -0.727  -5.106  0.00  0.00     0.027 A 
ATOM      4  C4  DEN d   1       2.068   1.009  -4.662  0.00  0.00     0.027 A 
ATOM      5  C5  DEN d   1       2.783   1.664  -3.683  0.00  0.00    -0.003 A 
ATOM      6  C6  DEN d   1       2.553   1.454  -2.349  0.00  0.00     0.001 A 
ATOM      7  C7  DEN d   1       1.617   0.535  -1.957  0.00  0.00     0.017 A 
ATOM      8  C8  DEN d   1       0.888  -0.124  -2.939  0.00  0.00    -0.094 A 
ATOM      9  C9  DEN d   1       1.143   0.093  -4.282  0.00  0.00    -0.072 A 
ENDROOT
TORSDOF 0
ENDMDL
