MODEL 1
REMARK minimizedAffinity 4.86636019
REMARK minimizedRMSD -1
REMARK  0 active torsions:
REMARK  status: ('A' for Active; 'I' for Inactive)
ROOT
ATOM      1  C1  DEN d   1      -0.445  -0.862  -3.690  0.00  0.00     0.130 A 
ATOM      2  C2  DEN d   1      -0.225   0.024  -4.829  0.00  0.00    -0.031 A 
ATOM      3  C3  DEN d   1       0.816   1.002  -4.452  0.00  0.00     0.027 A 
ATOM      4  C4  DEN d   1       2.103   1.225  -2.228  0.00  0.00     0.027 A 
ATOM      5  C5  DEN d   1       2.253   0.707  -0.961  0.00  0.00    -0.003 A 
ATOM      6  C6  DEN d   1       1.496  -0.340  -0.506  0.00  0.00     0.001 A 
ATOM      7  C7  DEN d   1       0.586  -0.933  -1.341  0.00  0.00     0.017 A 
ATOM      8  C8  DEN d   1       0.424  -0.411  -2.618  0.00  0.00    -0.094 A 
ATOM      9  C9  DEN d   1       1.208   0.640  -3.063  0.00  0.00    -0.072 A 
ENDROOT
TORSDOF 0
ENDMDL
