MODEL 1
REMARK minimizedAffinity 8.93098545
REMARK minimizedRMSD -1
REMARK  0 active torsions:
REMARK  status: ('A' for Active; 'I' for Inactive)
ROOT
ATOM      1  C1  DEN d   1      -1.241  -4.986  -4.875  0.00  0.00     0.130 A 
ATOM      2  C2  DEN d   1      -1.674  -3.625  -4.568  0.00  0.00    -0.031 A 
ATOM      3  C3  DEN d   1      -0.532  -2.719  -4.806  0.00  0.00     0.027 A 
ATOM      4  C4  DEN d   1       1.848  -3.287  -5.620  0.00  0.00     0.027 A 
ATOM      5  C5  DEN d   1       2.691  -4.308  -5.999  0.00  0.00    -0.003 A 
ATOM      6  C6  DEN d   1       2.296  -5.620  -5.998  0.00  0.00     0.001 A 
ATOM      7  C7  DEN d   1       1.010  -5.941  -5.653  0.00  0.00     0.017 A 
ATOM      8  C8  DEN d   1       0.156  -4.917  -5.262  0.00  0.00    -0.094 A 
ATOM      9  C9  DEN d   1       0.571  -3.596  -5.282  0.00  0.00    -0.072 A 
ENDROOT
TORSDOF 0
ENDMDL
