MODEL 1
REMARK minimizedAffinity 9.15382385
REMARK minimizedRMSD -1
REMARK  0 active torsions:
REMARK  status: ('A' for Active; 'I' for Inactive)
ROOT
ATOM      1  C1  DEN d   1       0.378  -0.078  -5.431  0.00  0.00     0.130 A 
ATOM      2  C2  DEN d   1      -0.728  -0.604  -4.636  0.00  0.00    -0.031 A 
ATOM      3  C3  DEN d   1      -0.305  -0.622  -3.222  0.00  0.00     0.027 A 
ATOM      4  C4  DEN d   1       1.941   0.113  -2.190  0.00  0.00     0.027 A 
ATOM      5  C5  DEN d   1       3.193   0.617  -2.467  0.00  0.00    -0.003 A 
ATOM      6  C6  DEN d   1       3.602   0.890  -3.745  0.00  0.00     0.001 A 
ATOM      7  C7  DEN d   1       2.737   0.704  -4.790  0.00  0.00     0.017 A 
ATOM      8  C8  DEN d   1       1.476   0.189  -4.519  0.00  0.00    -0.094 A 
ATOM      9  C9  DEN d   1       1.076  -0.069  -3.219  0.00  0.00    -0.072 A 
ENDROOT
TORSDOF 0
ENDMDL
