MODEL 1
REMARK minimizedAffinity 12.9528494
REMARK minimizedRMSD -1
REMARK  0 active torsions:
REMARK  status: ('A' for Active; 'I' for Inactive)
ROOT
ATOM      1  C1  DEN d   1       1.068  -0.874   1.351  0.00  0.00     0.130 A 
ATOM      2  C2  DEN d   1       2.361  -0.196   1.324  0.00  0.00    -0.031 A 
ATOM      3  C3  DEN d   1       2.164   1.182   1.817  0.00  0.00     0.027 A 
ATOM      4  C4  DEN d   1      -0.005   2.324   2.618  0.00  0.00     0.027 A 
ATOM      5  C5  DEN d   1      -1.358   2.153   2.812  0.00  0.00    -0.003 A 
ATOM      6  C6  DEN d   1      -1.998   0.982   2.503  0.00  0.00     0.001 A 
ATOM      7  C7  DEN d   1      -1.277  -0.080   2.026  0.00  0.00     0.017 A 
ATOM      8  C8  DEN d   1       0.087   0.087   1.821  0.00  0.00    -0.094 A 
ATOM      9  C9  DEN d   1       0.717   1.275   2.150  0.00  0.00    -0.072 A 
ENDROOT
TORSDOF 0
ENDMDL
