MODEL 1
REMARK minimizedAffinity 4.0164814
REMARK minimizedRMSD -1
REMARK  0 active torsions:
REMARK  status: ('A' for Active; 'I' for Inactive)
ROOT
ATOM      1  C1  DEN d   1       0.725  -1.159   0.211  0.00  0.00     0.130 A 
ATOM      2  C2  DEN d   1       2.117  -0.837   0.512  0.00  0.00    -0.031 A 
ATOM      3  C3  DEN d   1       2.131   0.121   1.636  0.00  0.00     0.027 A 
ATOM      4  C4  DEN d   1       0.143   1.128   2.934  0.00  0.00     0.027 A 
ATOM      5  C5  DEN d   1      -1.231   1.163   3.034  0.00  0.00    -0.003 A 
ATOM      6  C6  DEN d   1      -2.043   0.459   2.185  0.00  0.00     0.001 A 
ATOM      7  C7  DEN d   1      -1.487  -0.347   1.227  0.00  0.00     0.017 A 
ATOM      8  C8  DEN d   1      -0.103  -0.382   1.115  0.00  0.00    -0.094 A 
ATOM      9  C9  DEN d   1       0.701   0.328   1.991  0.00  0.00    -0.072 A 
ENDROOT
TORSDOF 0
ENDMDL
