MODEL 1
REMARK minimizedAffinity 6.94000673
REMARK minimizedRMSD -1
REMARK  0 active torsions:
REMARK  status: ('A' for Active; 'I' for Inactive)
ROOT
ATOM      1  C1  DEN d   1      -0.535  -1.071  -3.909  0.00  0.00     0.130 A 
ATOM      2  C2  DEN d   1      -0.835  -0.939  -5.332  0.00  0.00    -0.031 A 
ATOM      3  C3  DEN d   1       0.129   0.016  -5.915  0.00  0.00     0.027 A 
ATOM      4  C4  DEN d   1       2.051   1.291  -4.760  0.00  0.00     0.027 A 
ATOM      5  C5  DEN d   1       2.689   1.512  -3.559  0.00  0.00    -0.003 A 
ATOM      6  C6  DEN d   1       2.280   0.919  -2.395  0.00  0.00     0.001 A 
ATOM      7  C7  DEN d   1       1.229   0.040  -2.413  0.00  0.00     0.017 A 
ATOM      8  C8  DEN d   1       0.576  -0.183  -3.618  0.00  0.00    -0.094 A 
ATOM      9  C9  DEN d   1       1.013   0.417  -4.787  0.00  0.00    -0.072 A 
ENDROOT
TORSDOF 0
ENDMDL
