MODEL 1
REMARK minimizedAffinity 2.84010339
REMARK minimizedRMSD -1
REMARK  0 active torsions:
REMARK  status: ('A' for Active; 'I' for Inactive)
ROOT
ATOM      1  C1  DEN d   1       2.490  -0.532  -0.504  0.00  0.00     0.130 A 
ATOM      2  C2  DEN d   1       1.381  -1.334   0.005  0.00  0.00    -0.031 A 
ATOM      3  C3  DEN d   1       0.359  -1.427  -1.058  0.00  0.00     0.027 A 
ATOM      4  C4  DEN d   1       0.390  -0.415  -3.431  0.00  0.00     0.027 A 
ATOM      5  C5  DEN d   1       1.115   0.354  -4.314  0.00  0.00    -0.003 A 
ATOM      6  C6  DEN d   1       2.323   0.906  -3.980  0.00  0.00     0.001 A 
ATOM      7  C7  DEN d   1       2.865   0.659  -2.746  0.00  0.00     0.017 A 
ATOM      8  C8  DEN d   1       2.136  -0.110  -1.848  0.00  0.00    -0.094 A 
ATOM      9  C9  DEN d   1       0.922  -0.669  -2.208  0.00  0.00    -0.072 A 
ENDROOT
TORSDOF 0
ENDMDL
