MODEL 1
REMARK minimizedAffinity 7.42107821
REMARK minimizedRMSD -1
REMARK  0 active torsions:
REMARK  status: ('A' for Active; 'I' for Inactive)
ROOT
ATOM      1  C1  DEN d   1       1.057  -0.971   0.886  0.00  0.00     0.130 A 
ATOM      2  C2  DEN d   1       2.386  -0.368   0.930  0.00  0.00    -0.031 A 
ATOM      3  C3  DEN d   1       2.313   0.836   1.782  0.00  0.00     0.027 A 
ATOM      4  C4  DEN d   1       0.282   1.817   3.033  0.00  0.00     0.027 A 
ATOM      5  C5  DEN d   1      -1.063   1.661   3.287  0.00  0.00    -0.003 A 
ATOM      6  C6  DEN d   1      -1.797   0.644   2.736  0.00  0.00     0.001 A 
ATOM      7  C7  DEN d   1      -1.180  -0.283   1.938  0.00  0.00     0.017 A 
ATOM      8  C8  DEN d   1       0.174  -0.127   1.671  0.00  0.00    -0.094 A 
ATOM      9  C9  DEN d   1       0.901   0.900   2.248  0.00  0.00    -0.072 A 
ENDROOT
TORSDOF 0
ENDMDL
