MODEL 1
REMARK minimizedAffinity -3.34589005
REMARK minimizedRMSD -1
REMARK  3 active torsions:
REMARK  status: ('A' for Active; 'I' for Inactive)
REMARK    1  A    between atoms: C3'_2  and  C2'_3 
REMARK    2  A    between atoms: C2'_3  and  C1'_4 
REMARK    3  A    between atoms: C1'_4  and  C1_5 
ROOT
ATOM      1  C1  N4B d   1      -0.537  -1.440  -0.042  0.00  0.00    -0.075 A 
ATOM      2  C2  N4B d   1      -1.531  -2.359  -0.443  0.00  0.00     0.002 A 
ATOM      3  C3  N4B d   1      -1.231  -3.341  -1.355  0.00  0.00     0.002 A 
ATOM      4  C4  N4B d   1       0.045  -3.411  -1.892  0.00  0.00    -0.004 A 
ATOM      5  C5  N4B d   1       1.007  -2.535  -1.481  0.00  0.00     0.002 A 
ATOM      6  C6  N4B d   1       0.721  -1.546  -0.562  0.00  0.00     0.002 A 
ENDROOT
BRANCH   1   7
ATOM      7  C1' N4B d   1      -0.840  -0.297   0.887  0.00  0.00     0.057 C 
BRANCH   7   8
ATOM      8  C2' N4B d   1      -0.389   1.009   0.239  0.00  0.00     0.009 C 
BRANCH   8   9
ATOM      9  C3' N4B d   1      -0.378   2.160   1.230  0.00  0.00     0.004 C 
ATOM     10  C4' N4B d   1       0.049   3.457   0.608  0.00  0.00     0.003 C 
ENDBRANCH   8   9
ENDBRANCH   7   8
ENDBRANCH   1   7
TORSDOF 3
ENDMDL
