MODEL 1
REMARK minimizedAffinity -5.29918814
REMARK minimizedRMSD -1
REMARK  3 active torsions:
REMARK  status: ('A' for Active; 'I' for Inactive)
REMARK    1  A    between atoms: C3'_2  and  C2'_3 
REMARK    2  A    between atoms: C2'_3  and  C1'_4 
REMARK    3  A    between atoms: C1'_4  and  C1_5 
ROOT
ATOM      1  C1  N4B d   1       0.189   0.453   0.128  0.00  0.00    -0.075 A 
ATOM      2  C2  N4B d   1       1.356   1.234   0.274  0.00  0.00     0.002 A 
ATOM      3  C3  N4B d   1       1.270   2.604   0.268  0.00  0.00     0.002 A 
ATOM      4  C4  N4B d   1       0.036   3.214   0.101  0.00  0.00    -0.004 A 
ATOM      5  C5  N4B d   1      -1.090   2.452  -0.013  0.00  0.00     0.002 A 
ATOM      6  C6  N4B d   1      -1.019   1.074  -0.006  0.00  0.00     0.002 A 
ENDROOT
BRANCH   1   7
ATOM      7  C1' N4B d   1       0.243  -1.048   0.042  0.00  0.00     0.057 C 
BRANCH   7   8
ATOM      8  C2' N4B d   1       0.312  -1.463  -1.425  0.00  0.00     0.009 C 
BRANCH   8   9
ATOM      9  C3' N4B d   1      -0.461  -2.744  -1.690  0.00  0.00     0.004 C 
ATOM     10  C4' N4B d   1      -1.519  -2.577  -2.739  0.00  0.00     0.003 C 
ENDBRANCH   8   9
ENDBRANCH   7   8
ENDBRANCH   1   7
TORSDOF 3
ENDMDL
