MODEL 1
REMARK minimizedAffinity -6.23021317
REMARK minimizedRMSD -1
REMARK  3 active torsions:
REMARK  status: ('A' for Active; 'I' for Inactive)
REMARK    1  A    between atoms: C3'_2  and  C2'_3 
REMARK    2  A    between atoms: C2'_3  and  C1'_4 
REMARK    3  A    between atoms: C1'_4  and  C1_5 
ROOT
ATOM      1  C1  N4B d   1       0.047   0.050  -0.097  0.00  0.00    -0.075 A 
ATOM      2  C2  N4B d   1       1.177   0.666  -0.678  0.00  0.00     0.002 A 
ATOM      3  C3  N4B d   1       1.207   2.028  -0.845  0.00  0.00     0.002 A 
ATOM      4  C4  N4B d   1       0.115   2.791  -0.459  0.00  0.00    -0.004 A 
ATOM      5  C5  N4B d   1      -0.962   2.192   0.125  0.00  0.00     0.002 A 
ATOM      6  C6  N4B d   1      -1.004   0.824   0.303  0.00  0.00     0.002 A 
ENDROOT
BRANCH   1   7
ATOM      7  C1' N4B d   1      -0.067  -1.444   0.028  0.00  0.00     0.057 C 
BRANCH   7   8
ATOM      8  C2' N4B d   1       0.207  -2.083  -1.330  0.00  0.00     0.009 C 
BRANCH   8   9
ATOM      9  C3' N4B d   1      -0.714  -3.260  -1.601  0.00  0.00     0.004 C 
ATOM     10  C4' N4B d   1      -1.724  -2.973  -2.672  0.00  0.00     0.003 C 
ENDBRANCH   8   9
ENDBRANCH   7   8
ENDBRANCH   1   7
TORSDOF 3
ENDMDL
