MODEL 1
REMARK minimizedAffinity -6.11404467
REMARK minimizedRMSD -1
REMARK  3 active torsions:
REMARK  status: ('A' for Active; 'I' for Inactive)
REMARK    1  A    between atoms: C3'_2  and  C2'_3 
REMARK    2  A    between atoms: C2'_3  and  C1'_4 
REMARK    3  A    between atoms: C1'_4  and  C1_5 
ROOT
ATOM      1  C1  N4B d   1       0.319   0.438   0.035  0.00  0.00    -0.075 A 
ATOM      2  C2  N4B d   1      -0.829   1.159   0.431  0.00  0.00     0.002 A 
ATOM      3  C3  N4B d   1      -0.843   2.529   0.343  0.00  0.00     0.002 A 
ATOM      4  C4  N4B d   1       0.281   3.199  -0.117  0.00  0.00    -0.004 A 
ATOM      5  C5  N4B d   1       1.377   2.494  -0.520  0.00  0.00     0.002 A 
ATOM      6  C6  N4B d   1       1.404   1.116  -0.442  0.00  0.00     0.002 A 
ENDROOT
BRANCH   1   7
ATOM      7  C1' N4B d   1       0.413  -1.055   0.193  0.00  0.00     0.057 C 
BRANCH   7   8
ATOM      8  C2' N4B d   1      -0.760  -1.710  -0.528  0.00  0.00     0.009 C 
BRANCH   8   9
ATOM      9  C3' N4B d   1      -0.303  -2.562  -1.700  0.00  0.00     0.004 C 
ATOM     10  C4' N4B d   1      -1.432  -2.961  -2.603  0.00  0.00     0.003 C 
ENDBRANCH   8   9
ENDBRANCH   7   8
ENDBRANCH   1   7
TORSDOF 3
ENDMDL
