MODEL 1
REMARK minimizedAffinity -1.04426813
REMARK minimizedRMSD -1
REMARK  3 active torsions:
REMARK  status: ('A' for Active; 'I' for Inactive)
REMARK    1  A    between atoms: C3'_2  and  C2'_3 
REMARK    2  A    between atoms: C2'_3  and  C1'_4 
REMARK    3  A    between atoms: C1'_4  and  C1_5 
ROOT
ATOM      1  C1  N4B d   1      -0.621  -1.906  -0.859  0.00  0.00    -0.075 A 
ATOM      2  C2  N4B d   1      -0.277  -3.248  -0.585  0.00  0.00     0.002 A 
ATOM      3  C3  N4B d   1      -0.962  -4.270  -1.196  0.00  0.00     0.002 A 
ATOM      4  C4  N4B d   1      -2.002  -3.976  -2.064  0.00  0.00    -0.004 A 
ATOM      5  C5  N4B d   1      -2.311  -2.677  -2.343  0.00  0.00     0.002 A 
ATOM      6  C6  N4B d   1      -1.629  -1.639  -1.740  0.00  0.00     0.002 A 
ENDROOT
BRANCH   1   7
ATOM      7  C1' N4B d   1       0.042  -0.756  -0.151  0.00  0.00     0.057 C 
BRANCH   7   8
ATOM      8  C2' N4B d   1      -1.023   0.076   0.559  0.00  0.00     0.009 C 
BRANCH   8   9
ATOM      9  C3' N4B d   1      -1.089   1.494   0.020  0.00  0.00     0.004 C 
ATOM     10  C4' N4B d   1      -0.413   2.488   0.916  0.00  0.00     0.003 C 
ENDBRANCH   8   9
ENDBRANCH   7   8
ENDBRANCH   1   7
TORSDOF 3
ENDMDL
