MODEL 1
REMARK minimizedAffinity -5.41558695
REMARK minimizedRMSD -1
REMARK  3 active torsions:
REMARK  status: ('A' for Active; 'I' for Inactive)
REMARK    1  A    between atoms: C3'_2  and  C2'_3 
REMARK    2  A    between atoms: C2'_3  and  C1'_4 
REMARK    3  A    between atoms: C1'_4  and  C1_5 
ROOT
ATOM      1  C1  N4B d   1       0.444   0.002  -0.019  0.00  0.00    -0.075 A 
ATOM      2  C2  N4B d   1      -0.793   0.501   0.445  0.00  0.00     0.002 A 
ATOM      3  C3  N4B d   1      -1.006   1.856   0.507  0.00  0.00     0.002 A 
ATOM      4  C4  N4B d   1       0.004   2.728   0.131  0.00  0.00    -0.004 A 
ATOM      5  C5  N4B d   1       1.187   2.238  -0.340  0.00  0.00     0.002 A 
ATOM      6  C6  N4B d   1       1.414   0.879  -0.412  0.00  0.00     0.002 A 
ENDROOT
BRANCH   1   7
ATOM      7  C1' N4B d   1       0.755  -1.469  -0.025  0.00  0.00     0.057 C 
BRANCH   7   8
ATOM      8  C2' N4B d   1      -0.486  -2.242  -0.462  0.00  0.00     0.009 C 
BRANCH   8   9
ATOM      9  C3' N4B d   1      -0.266  -2.975  -1.775  0.00  0.00     0.004 C 
ATOM     10  C4' N4B d   1      -1.550  -3.354  -2.450  0.00  0.00     0.003 C 
ENDBRANCH   8   9
ENDBRANCH   7   8
ENDBRANCH   1   7
TORSDOF 3
ENDMDL
