MODEL 1
REMARK minimizedAffinity -4.12201214
REMARK minimizedRMSD -1
REMARK  3 active torsions:
REMARK  status: ('A' for Active; 'I' for Inactive)
REMARK    1  A    between atoms: C3'_2  and  C2'_3 
REMARK    2  A    between atoms: C2'_3  and  C1'_4 
REMARK    3  A    between atoms: C1'_4  and  C1_5 
ROOT
ATOM      1  C1  N4B d   1      -0.011  -1.239  -0.997  0.00  0.00    -0.075 A 
ATOM      2  C2  N4B d   1      -1.023  -2.169  -0.672  0.00  0.00     0.002 A 
ATOM      3  C3  N4B d   1      -1.349  -3.167  -1.557  0.00  0.00     0.002 A 
ATOM      4  C4  N4B d   1      -0.694  -3.242  -2.777  0.00  0.00    -0.004 A 
ATOM      5  C5  N4B d   1       0.299  -2.356  -3.074  0.00  0.00     0.002 A 
ATOM      6  C6  N4B d   1       0.641  -1.350  -2.191  0.00  0.00     0.002 A 
ENDROOT
BRANCH   1   7
ATOM      7  C1' N4B d   1       0.321  -0.080  -0.098  0.00  0.00     0.057 C 
BRANCH   7   8
ATOM      8  C2' N4B d   1      -0.970   0.615   0.321  0.00  0.00     0.009 C 
BRANCH   8   9
ATOM      9  C3' N4B d   1      -0.748   2.084   0.639  0.00  0.00     0.004 C 
ATOM     10  C4' N4B d   1      -0.159   2.845  -0.511  0.00  0.00     0.003 C 
ENDBRANCH   8   9
ENDBRANCH   7   8
ENDBRANCH   1   7
TORSDOF 3
ENDMDL
