MODEL 1
REMARK minimizedAffinity -0.381912619
REMARK minimizedRMSD -1
REMARK  3 active torsions:
REMARK  status: ('A' for Active; 'I' for Inactive)
REMARK    1  A    between atoms: C3'_2  and  C2'_3 
REMARK    2  A    between atoms: C2'_3  and  C1'_4 
REMARK    3  A    between atoms: C1'_4  and  C1_5 
ROOT
ATOM      1  C1  N4B d   1      -0.188   0.258  -0.224  0.00  0.00    -0.075 A 
ATOM      2  C2  N4B d   1       0.477   1.025  -1.205  0.00  0.00     0.002 A 
ATOM      3  C3  N4B d   1       0.721   2.359  -0.985  0.00  0.00     0.002 A 
ATOM      4  C4  N4B d   1       0.293   2.949   0.195  0.00  0.00    -0.004 A 
ATOM      5  C5  N4B d   1      -0.326   2.195   1.148  0.00  0.00     0.002 A 
ATOM      6  C6  N4B d   1      -0.574   0.852   0.943  0.00  0.00     0.002 A 
ENDROOT
BRANCH   1   7
ATOM      7  C1' N4B d   1      -0.553  -1.183  -0.455  0.00  0.00     0.057 C 
BRANCH   7   8
ATOM      8  C2' N4B d   1       0.156  -1.684  -1.709  0.00  0.00     0.009 C 
BRANCH   8   9
ATOM      9  C3' N4B d   1      -0.445  -2.982  -2.222  0.00  0.00     0.004 C 
ATOM     10  C4' N4B d   1       0.345  -3.584  -3.346  0.00  0.00     0.003 C 
ENDBRANCH   8   9
ENDBRANCH   7   8
ENDBRANCH   1   7
TORSDOF 3
ENDMDL
