MODEL 1
REMARK minimizedAffinity 16.6022778
REMARK minimizedRMSD -1
REMARK  3 active torsions:
REMARK  status: ('A' for Active; 'I' for Inactive)
REMARK    1  A    between atoms: C3'_2  and  C2'_3 
REMARK    2  A    between atoms: C2'_3  and  C1'_4 
REMARK    3  A    between atoms: C1'_4  and  C1_5 
ROOT
ATOM      1  C1  N4B d   1       1.953  -4.350  -2.640  0.00  0.00    -0.075 A 
ATOM      2  C2  N4B d   1       2.283  -4.577  -1.285  0.00  0.00     0.002 A 
ATOM      3  C3  N4B d   1       3.215  -3.782  -0.664  0.00  0.00     0.002 A 
ATOM      4  C4  N4B d   1       3.842  -2.773  -1.378  0.00  0.00    -0.004 A 
ATOM      5  C5  N4B d   1       3.499  -2.544  -2.679  0.00  0.00     0.002 A 
ATOM      6  C6  N4B d   1       2.561  -3.332  -3.315  0.00  0.00     0.002 A 
ENDROOT
BRANCH   1   7
ATOM      7  C1' N4B d   1       1.003  -5.247  -3.386  0.00  0.00     0.057 C 
BRANCH   7   8
ATOM      8  C2' N4B d   1      -0.376  -4.595  -3.423  0.00  0.00     0.009 C 
BRANCH   8   9
ATOM      9  C3' N4B d   1      -1.036  -4.584  -2.055  0.00  0.00     0.004 C 
ATOM     10  C4' N4B d   1      -2.308  -5.376  -2.018  0.00  0.00     0.003 C 
ENDBRANCH   8   9
ENDBRANCH   7   8
ENDBRANCH   1   7
TORSDOF 3
ENDMDL
