MODEL 1
REMARK minimizedAffinity 6.9403801
REMARK minimizedRMSD -1
REMARK  1 active torsions:
REMARK  status: ('A' for Active; 'I' for Inactive)
REMARK    1  A    between atoms: C1_2  and  C2_3 
ROOT
ATOM      1  C2  UNL d   1      -5.280   1.324   1.228  0.00  0.00    -0.077 A 
ATOM      2  C3  UNL d   1      -5.999   0.124   1.144  0.00  0.00     0.002 A 
ATOM      3  C4  UNL d   1      -5.345  -1.102   1.278  0.00  0.00     0.002 A 
ATOM      4  C5  UNL d   1      -3.970  -1.140   1.501  0.00  0.00    -0.004 A 
ATOM      5  C6  UNL d   1      -3.246   0.048   1.584  0.00  0.00     0.002 A 
ATOM      6  C7  UNL d   1      -3.898   1.275   1.449  0.00  0.00     0.002 A 
ENDROOT
BRANCH   1   7
ATOM      7  C1  UNL d   1      -5.991   2.649   1.133  0.00  0.00     0.055 C 
ATOM      8  C   UNL d   1      -6.000   3.370   2.473  0.00  0.00     0.019 C 
ENDBRANCH   1   7
TORSDOF 1
ENDMDL
