MODEL 1
REMARK minimizedAffinity 5.97956038
REMARK minimizedRMSD -1
REMARK  1 active torsions:
REMARK  status: ('A' for Active; 'I' for Inactive)
REMARK    1  A    between atoms: C1_2  and  C2_3 
ROOT
ATOM      1  C2  UNL d   1      -3.096   0.587   1.102  0.00  0.00    -0.077 A 
ATOM      2  C3  UNL d   1      -1.858  -0.070   1.133  0.00  0.00     0.002 A 
ATOM      3  C4  UNL d   1      -0.779   0.490   1.820  0.00  0.00     0.002 A 
ATOM      4  C5  UNL d   1      -0.929   1.705   2.484  0.00  0.00    -0.004 A 
ATOM      5  C6  UNL d   1      -2.155   2.367   2.457  0.00  0.00     0.002 A 
ATOM      6  C7  UNL d   1      -3.235   1.810   1.770  0.00  0.00     0.002 A 
ENDROOT
BRANCH   1   7
ATOM      7  C1  UNL d   1      -4.275  -0.039   0.402  0.00  0.00     0.055 C 
ATOM      8  C   UNL d   1      -4.013  -1.502   0.078  0.00  0.00     0.019 C 
ENDBRANCH   1   7
TORSDOF 1
ENDMDL
