MODEL 1
REMARK minimizedAffinity -0.840267718
REMARK minimizedRMSD -1
REMARK  1 active torsions:
REMARK  status: ('A' for Active; 'I' for Inactive)
REMARK    1  A    between atoms: C1_2  and  C2_3 
ROOT
ATOM      1  C2  UNL d   1       3.080  -5.301   2.361  0.00  0.00    -0.077 A 
ATOM      2  C3  UNL d   1       4.022  -4.611   1.585  0.00  0.00     0.002 A 
ATOM      3  C4  UNL d   1       5.372  -4.616   1.943  0.00  0.00     0.002 A 
ATOM      4  C5  UNL d   1       5.791  -5.312   3.075  0.00  0.00    -0.004 A 
ATOM      5  C6  UNL d   1       4.862  -5.999   3.854  0.00  0.00     0.002 A 
ATOM      6  C7  UNL d   1       3.513  -5.995   3.498  0.00  0.00     0.002 A 
ENDROOT
BRANCH   1   7
ATOM      7  C1  UNL d   1       1.632  -5.339   1.948  0.00  0.00     0.055 C 
ATOM      8  C   UNL d   1       0.767  -5.983   3.022  0.00  0.00     0.019 C 
ENDBRANCH   1   7
TORSDOF 1
ENDMDL
