MODEL 1
REMARK minimizedAffinity 6.7106452
REMARK minimizedRMSD -1
REMARK  1 active torsions:
REMARK  status: ('A' for Active; 'I' for Inactive)
REMARK    1  A    between atoms: C1_2  and  C2_3 
ROOT
ATOM      1  C2  UNL d   1      -3.836  -0.159   4.686  0.00  0.00    -0.077 A 
ATOM      2  C3  UNL d   1      -2.894  -0.347   3.664  0.00  0.00     0.002 A 
ATOM      3  C4  UNL d   1      -3.004   0.358   2.464  0.00  0.00     0.002 A 
ATOM      4  C5  UNL d   1      -4.051   1.258   2.276  0.00  0.00    -0.004 A 
ATOM      5  C6  UNL d   1      -4.994   1.450   3.285  0.00  0.00     0.002 A 
ATOM      6  C7  UNL d   1      -4.886   0.745   4.485  0.00  0.00     0.002 A 
ENDROOT
BRANCH   1   7
ATOM      7  C1  UNL d   1      -3.691  -0.882   5.999  0.00  0.00     0.055 C 
ATOM      8  C   UNL d   1      -4.468  -2.191   6.000  0.00  0.00     0.019 C 
ENDBRANCH   1   7
TORSDOF 1
ENDMDL
