MODEL 1
REMARK minimizedAffinity 11.9775095
REMARK minimizedRMSD -1
REMARK  1 active torsions:
REMARK  status: ('A' for Active; 'I' for Inactive)
REMARK    1  A    between atoms: C1_2  and  C2_3 
ROOT
ATOM      1  C2  UNL d   1      -2.512   0.077   1.204  0.00  0.00    -0.077 A 
ATOM      2  C3  UNL d   1      -3.067   1.313   1.564  0.00  0.00     0.002 A 
ATOM      3  C4  UNL d   1      -4.437   1.540   1.423  0.00  0.00     0.002 A 
ATOM      4  C5  UNL d   1      -5.264   0.535   0.926  0.00  0.00    -0.004 A 
ATOM      5  C6  UNL d   1      -4.722  -0.697   0.563  0.00  0.00     0.002 A 
ATOM      6  C7  UNL d   1      -3.352  -0.925   0.702  0.00  0.00     0.002 A 
ENDROOT
BRANCH   1   7
ATOM      7  C1  UNL d   1      -1.042  -0.186   1.401  0.00  0.00     0.055 C 
ATOM      8  C   UNL d   1      -0.247   1.111   1.440  0.00  0.00     0.019 C 
ENDBRANCH   1   7
TORSDOF 1
ENDMDL
