MODEL 1
REMARK minimizedAffinity -1.53187704
REMARK minimizedRMSD -1
REMARK  1 active torsions:
REMARK  status: ('A' for Active; 'I' for Inactive)
REMARK    1  A    between atoms: C1_2  and  C2_3 
ROOT
ATOM      1  C2  UNL d   1      -3.250  -2.559  -6.000  0.00  0.00    -0.077 A 
ATOM      2  C3  UNL d   1      -1.994  -3.183  -5.999  0.00  0.00     0.002 A 
ATOM      3  C4  UNL d   1      -0.826  -2.419  -6.000  0.00  0.00     0.002 A 
ATOM      4  C5  UNL d   1      -0.901  -1.028  -5.996  0.00  0.00    -0.004 A 
ATOM      5  C6  UNL d   1      -2.145  -0.398  -5.999  0.00  0.00     0.002 A 
ATOM      6  C7  UNL d   1      -3.314  -1.160  -6.000  0.00  0.00     0.002 A 
ENDROOT
BRANCH   1   7
ATOM      7  C1  UNL d   1      -4.511  -3.381  -5.950  0.00  0.00     0.055 C 
ATOM      8  C   UNL d   1      -5.749  -2.496  -5.959  0.00  0.00     0.019 C 
ENDBRANCH   1   7
TORSDOF 1
ENDMDL
