MODEL 1
REMARK minimizedAffinity 1.1664722
REMARK minimizedRMSD -1
REMARK  1 active torsions:
REMARK  status: ('A' for Active; 'I' for Inactive)
REMARK    1  A    between atoms: C1_2  and  C2_3 
ROOT
ATOM      1  C2  UNL d   1      -3.600  -1.349  -6.000  0.00  0.00    -0.077 A 
ATOM      2  C3  UNL d   1      -5.001  -1.389  -5.977  0.00  0.00     0.002 A 
ATOM      3  C4  UNL d   1      -5.672  -2.613  -5.955  0.00  0.00     0.002 A 
ATOM      4  C5  UNL d   1      -4.951  -3.805  -5.951  0.00  0.00    -0.004 A 
ATOM      5  C6  UNL d   1      -3.557  -3.775  -5.977  0.00  0.00     0.002 A 
ATOM      6  C7  UNL d   1      -2.885  -2.553  -6.000  0.00  0.00     0.002 A 
ENDROOT
BRANCH   1   7
ATOM      7  C1  UNL d   1      -2.873  -0.029  -5.974  0.00  0.00     0.055 C 
ATOM      8  C   UNL d   1      -1.364  -0.228  -5.985  0.00  0.00     0.019 C 
ENDBRANCH   1   7
TORSDOF 1
ENDMDL
