MODEL 1
REMARK minimizedAffinity 4.13020182
REMARK minimizedRMSD -1
REMARK  1 active torsions:
REMARK  status: ('A' for Active; 'I' for Inactive)
REMARK    1  A    between atoms: C1_2  and  C2_3 
ROOT
ATOM      1  C2  UNL d   1      -3.778   0.553   3.345  0.00  0.00    -0.077 A 
ATOM      2  C3  UNL d   1      -3.374  -0.629   3.982  0.00  0.00     0.002 A 
ATOM      3  C4  UNL d   1      -3.749  -0.883   5.302  0.00  0.00     0.002 A 
ATOM      4  C5  UNL d   1      -4.534   0.036   5.995  0.00  0.00    -0.004 A 
ATOM      5  C6  UNL d   1      -4.940   1.215   5.371  0.00  0.00     0.002 A 
ATOM      6  C7  UNL d   1      -4.565   1.472   4.052  0.00  0.00     0.002 A 
ENDROOT
BRANCH   1   7
ATOM      7  C1  UNL d   1      -3.416   0.807   1.905  0.00  0.00     0.055 C 
ATOM      8  C   UNL d   1      -1.946   1.174   1.761  0.00  0.00     0.019 C 
ENDBRANCH   1   7
TORSDOF 1
ENDMDL
