MODEL 1
REMARK minimizedAffinity 1.86810637
REMARK minimizedRMSD -1
REMARK  1 active torsions:
REMARK  status: ('A' for Active; 'I' for Inactive)
REMARK    1  A    between atoms: C1_2  and  C2_3 
ROOT
ATOM      1  C2  UNL d   1      -5.013  -0.573   0.818  0.00  0.00    -0.077 A 
ATOM      2  C3  UNL d   1      -3.673  -0.166   0.867  0.00  0.00     0.002 A 
ATOM      3  C4  UNL d   1      -3.310   0.987   1.566  0.00  0.00     0.002 A 
ATOM      4  C5  UNL d   1      -4.281   1.738   2.225  0.00  0.00    -0.004 A 
ATOM      5  C6  UNL d   1      -5.617   1.342   2.181  0.00  0.00     0.002 A 
ATOM      6  C7  UNL d   1      -5.981   0.191   1.482  0.00  0.00     0.002 A 
ENDROOT
BRANCH   1   7
ATOM      7  C1  UNL d   1      -5.400  -1.843   0.105  0.00  0.00     0.055 C 
ATOM      8  C   UNL d   1      -4.432  -2.974   0.425  0.00  0.00     0.019 C 
ENDBRANCH   1   7
TORSDOF 1
ENDMDL
