MODEL 1
REMARK minimizedAffinity 3.39360404
REMARK minimizedRMSD -1
REMARK  1 active torsions:
REMARK  status: ('A' for Active; 'I' for Inactive)
REMARK    1  A    between atoms: C1_2  and  C2_3 
ROOT
ATOM      1  C2  UNL d   1      -3.993  -2.409  -5.939  0.00  0.00    -0.077 A 
ATOM      2  C3  UNL d   1      -3.327  -3.642  -5.972  0.00  0.00     0.002 A 
ATOM      3  C4  UNL d   1      -1.932  -3.691  -5.999  0.00  0.00     0.002 A 
ATOM      4  C5  UNL d   1      -1.192  -2.511  -5.989  0.00  0.00    -0.004 A 
ATOM      5  C6  UNL d   1      -1.845  -1.280  -5.958  0.00  0.00     0.002 A 
ATOM      6  C7  UNL d   1      -3.239  -1.229  -5.932  0.00  0.00     0.002 A 
ENDROOT
BRANCH   1   7
ATOM      7  C1  UNL d   1      -5.497  -2.355  -5.860  0.00  0.00     0.055 C 
ATOM      8  C   UNL d   1      -5.983  -2.537  -4.430  0.00  0.00     0.019 C 
ENDBRANCH   1   7
TORSDOF 1
ENDMDL
