MODEL 1
REMARK minimizedAffinity 4.9204936
REMARK minimizedRMSD -1
REMARK  1 active torsions:
REMARK  status: ('A' for Active; 'I' for Inactive)
REMARK    1  A    between atoms: C1_2  and  C2_3 
ROOT
ATOM      1  C2  UNL d   1      -3.402  -2.457  -5.999  0.00  0.00    -0.077 A 
ATOM      2  C3  UNL d   1      -2.076  -2.914  -6.000  0.00  0.00     0.002 A 
ATOM      3  C4  UNL d   1      -1.016  -2.006  -5.957  0.00  0.00     0.002 A 
ATOM      4  C5  UNL d   1      -1.271  -0.638  -5.908  0.00  0.00    -0.004 A 
ATOM      5  C6  UNL d   1      -2.585  -0.173  -5.909  0.00  0.00     0.002 A 
ATOM      6  C7  UNL d   1      -3.646  -1.079  -5.953  0.00  0.00     0.002 A 
ENDROOT
BRANCH   1   7
ATOM      7  C1  UNL d   1      -4.547  -3.436  -5.995  0.00  0.00     0.055 C 
ATOM      8  C   UNL d   1      -5.845  -2.768  -5.566  0.00  0.00     0.019 C 
ENDBRANCH   1   7
TORSDOF 1
ENDMDL
