MODEL 1
REMARK minimizedAffinity -1.90656555
REMARK minimizedRMSD -1
REMARK  1 active torsions:
REMARK  status: ('A' for Active; 'I' for Inactive)
REMARK    1  A    between atoms: C1_2  and  C2_3 
ROOT
ATOM      1  C2  UNL d   1      -3.497  -2.408  -6.000  0.00  0.00    -0.077 A 
ATOM      2  C3  UNL d   1      -4.677  -1.652  -5.981  0.00  0.00     0.002 A 
ATOM      3  C4  UNL d   1      -5.921  -2.284  -5.962  0.00  0.00     0.002 A 
ATOM      4  C5  UNL d   1      -5.997  -3.676  -5.958  0.00  0.00    -0.004 A 
ATOM      5  C6  UNL d   1      -4.829  -4.437  -5.979  0.00  0.00     0.002 A 
ATOM      6  C7  UNL d   1      -3.585  -3.806  -5.999  0.00  0.00     0.002 A 
ENDROOT
BRANCH   1   7
ATOM      7  C1  UNL d   1      -2.153  -1.728  -5.970  0.00  0.00     0.055 C 
ATOM      8  C   UNL d   1      -2.228  -0.386  -5.256  0.00  0.00     0.019 C 
ENDBRANCH   1   7
TORSDOF 1
ENDMDL
