MODEL 1
REMARK minimizedAffinity -0.287484199
REMARK minimizedRMSD -1
REMARK  1 active torsions:
REMARK  status: ('A' for Active; 'I' for Inactive)
REMARK    1  A    between atoms: C1_2  and  C2_3 
ROOT
ATOM      1  C2  UNL d   1      -3.968  -2.840  -5.983  0.00  0.00    -0.077 A 
ATOM      2  C3  UNL d   1      -2.961  -3.816  -6.000  0.00  0.00     0.002 A 
ATOM      3  C4  UNL d   1      -1.616  -3.443  -5.981  0.00  0.00     0.002 A 
ATOM      4  C5  UNL d   1      -1.265  -2.096  -5.941  0.00  0.00    -0.004 A 
ATOM      5  C6  UNL d   1      -2.258  -1.117  -5.926  0.00  0.00     0.002 A 
ATOM      6  C7  UNL d   1      -3.603  -1.488  -5.946  0.00  0.00     0.002 A 
ENDROOT
BRANCH   1   7
ATOM      7  C1  UNL d   1      -5.419  -3.240  -5.953  0.00  0.00     0.055 C 
ATOM      8  C   UNL d   1      -5.999  -3.117  -4.551  0.00  0.00     0.019 C 
ENDBRANCH   1   7
TORSDOF 1
ENDMDL
