MODEL 1
REMARK minimizedAffinity -5.31556654
REMARK minimizedRMSD -1
REMARK  0 active torsions:
REMARK  status: ('A' for Active; 'I' for Inactive)
ROOT
ATOM      1  C1  DEN d   1      -1.137  -0.738  -0.029  0.00  0.00     0.130 A 
ATOM      2  C2  DEN d   1       0.292  -0.978   0.157  0.00  0.00    -0.031 A 
ATOM      3  C3  DEN d   1       0.689  -0.387   1.451  0.00  0.00     0.027 A 
ATOM      4  C4  DEN d   1      -0.763   0.863   3.178  0.00  0.00     0.027 A 
ATOM      5  C5  DEN d   1      -2.032   1.322   3.456  0.00  0.00    -0.003 A 
ATOM      6  C6  DEN d   1      -3.075   1.158   2.583  0.00  0.00     0.001 A 
ATOM      7  C7  DEN d   1      -2.878   0.478   1.410  0.00  0.00     0.017 A 
ATOM      8  C8  DEN d   1      -1.600   0.019   1.120  0.00  0.00    -0.094 A 
ATOM      9  C9  DEN d   1      -0.562   0.184   2.020  0.00  0.00    -0.072 A 
ENDROOT
TORSDOF 0
ENDMDL
