MODEL 1
REMARK minimizedAffinity -2.0624752
REMARK minimizedRMSD -1
REMARK  0 active torsions:
REMARK  status: ('A' for Active; 'I' for Inactive)
ROOT
ATOM      1  C1  DEN d   1      -0.844   1.032   0.303  0.00  0.00     0.130 A 
ATOM      2  C2  DEN d   1      -1.349   0.317   1.473  0.00  0.00    -0.031 A 
ATOM      3  C3  DEN d   1      -0.677  -0.997   1.530  0.00  0.00     0.027 A 
ATOM      4  C4  DEN d   1       1.091  -1.986  -0.066  0.00  0.00     0.027 A 
ATOM      5  C5  DEN d   1       1.825  -1.757  -1.209  0.00  0.00    -0.003 A 
ATOM      6  C6  DEN d   1       1.697  -0.606  -1.940  0.00  0.00     0.001 A 
ATOM      7  C7  DEN d   1       0.848   0.380  -1.512  0.00  0.00     0.017 A 
ATOM      8  C8  DEN d   1       0.099   0.153  -0.365  0.00  0.00    -0.094 A 
ATOM      9  C9  DEN d   1       0.251  -1.012   0.367  0.00  0.00    -0.072 A 
ENDROOT
TORSDOF 0
ENDMDL
