MODEL 1
REMARK minimizedAffinity -4.29310036
REMARK minimizedRMSD -1
REMARK  0 active torsions:
REMARK  status: ('A' for Active; 'I' for Inactive)
ROOT
ATOM      1  C1  DEN d   1       2.232   0.533  -2.503  0.00  0.00     0.130 A 
ATOM      2  C2  DEN d   1       1.513   1.785  -2.720  0.00  0.00    -0.031 A 
ATOM      3  C3  DEN d   1       0.350   1.807  -1.809  0.00  0.00     0.027 A 
ATOM      4  C4  DEN d   1      -0.398   0.036  -0.090  0.00  0.00     0.027 A 
ATOM      5  C5  DEN d   1      -0.111  -1.200   0.445  0.00  0.00    -0.003 A 
ATOM      6  C6  DEN d   1       0.949  -1.954   0.015  0.00  0.00     0.001 A 
ATOM      7  C7  DEN d   1       1.787  -1.459  -0.949  0.00  0.00     0.017 A 
ATOM      8  C8  DEN d   1       1.500  -0.216  -1.498  0.00  0.00    -0.094 A 
ATOM      9  C9  DEN d   1       0.431   0.536  -1.041  0.00  0.00    -0.072 A 
ENDROOT
TORSDOF 0
ENDMDL
