MODEL 1
REMARK minimizedAffinity -1.00876987
REMARK minimizedRMSD -1
REMARK  0 active torsions:
REMARK  status: ('A' for Active; 'I' for Inactive)
ROOT
ATOM      1  C1  DEN d   1       0.500   1.611  -2.138  0.00  0.00     0.130 A 
ATOM      2  C2  DEN d   1       1.267   1.296  -3.341  0.00  0.00    -0.031 A 
ATOM      3  C3  DEN d   1       1.820  -0.064  -3.186  0.00  0.00     0.027 A 
ATOM      4  C4  DEN d   1       1.563  -1.706  -1.214  0.00  0.00     0.027 A 
ATOM      5  C5  DEN d   1       1.013  -1.881   0.037  0.00  0.00    -0.003 A 
ATOM      6  C6  DEN d   1       0.288  -0.899   0.660  0.00  0.00     0.001 A 
ATOM      7  C7  DEN d   1       0.056   0.286   0.014  0.00  0.00     0.017 A 
ATOM      8  C8  DEN d   1       0.613   0.473  -1.245  0.00  0.00    -0.094 A 
ATOM      9  C9  DEN d   1       1.332  -0.536  -1.863  0.00  0.00    -0.072 A 
ENDROOT
TORSDOF 0
ENDMDL
