MODEL 1
REMARK minimizedAffinity 0.403049141
REMARK minimizedRMSD -1
REMARK  0 active torsions:
REMARK  status: ('A' for Active; 'I' for Inactive)
ROOT
ATOM      1  C1  DEN d   1      -0.520   0.617   3.577  0.00  0.00     0.130 A 
ATOM      2  C2  DEN d   1      -1.580   1.600   3.782  0.00  0.00    -0.031 A 
ATOM      3  C3  DEN d   1      -2.270   1.804   2.493  0.00  0.00     0.027 A 
ATOM      4  C4  DEN d   1      -1.803   0.697   0.210  0.00  0.00     0.027 A 
ATOM      5  C5  DEN d   1      -0.995  -0.193  -0.461  0.00  0.00    -0.003 A 
ATOM      6  C6  DEN d   1       0.041  -0.846   0.153  0.00  0.00     0.001 A 
ATOM      7  C7  DEN d   1       0.268  -0.651   1.490  0.00  0.00     0.017 A 
ATOM      8  C8  DEN d   1      -0.538   0.252   2.172  0.00  0.00    -0.094 A 
ATOM      9  C9  DEN d   1      -1.588   0.892   1.536  0.00  0.00    -0.072 A 
ENDROOT
TORSDOF 0
ENDMDL
