MODEL 1
REMARK minimizedAffinity 0.706528068
REMARK minimizedRMSD -1
REMARK  0 active torsions:
REMARK  status: ('A' for Active; 'I' for Inactive)
ROOT
ATOM      1  C1  DEN d   1       0.802   1.313  -2.811  0.00  0.00     0.130 A 
ATOM      2  C2  DEN d   1       1.707   1.069  -3.932  0.00  0.00    -0.031 A 
ATOM      3  C3  DEN d   1       2.420  -0.198  -3.675  0.00  0.00     0.027 A 
ATOM      4  C4  DEN d   1       2.210  -1.799  -1.664  0.00  0.00     0.027 A 
ATOM      5  C5  DEN d   1       1.580  -2.009  -0.457  0.00  0.00    -0.003 A 
ATOM      6  C6  DEN d   1       0.680  -1.117   0.062  0.00  0.00     0.001 A 
ATOM      7  C7  DEN d   1       0.350   0.006  -0.651  0.00  0.00     0.017 A 
ATOM      8  C8  DEN d   1       0.986   0.228  -1.865  0.00  0.00    -0.094 A 
ATOM      9  C9  DEN d   1       1.884  -0.692  -2.378  0.00  0.00    -0.072 A 
ENDROOT
TORSDOF 0
ENDMDL
