MODEL 1
REMARK minimizedAffinity -0.872704029
REMARK minimizedRMSD -1
REMARK  0 active torsions:
REMARK  status: ('A' for Active; 'I' for Inactive)
ROOT
ATOM      1  C1  DEN d   1       0.142   1.206   0.512  0.00  0.00     0.130 A 
ATOM      2  C2  DEN d   1      -0.523   0.653  -0.665  0.00  0.00    -0.031 A 
ATOM      3  C3  DEN d   1      -1.804   0.060  -0.229  0.00  0.00     0.027 A 
ATOM      4  C4  DEN d   1      -2.819  -0.049   2.139  0.00  0.00     0.027 A 
ATOM      5  C5  DEN d   1      -2.617   0.275   3.463  0.00  0.00    -0.003 A 
ATOM      6  C6  DEN d   1      -1.477   0.896   3.897  0.00  0.00     0.001 A 
ATOM      7  C7  DEN d   1      -0.512   1.254   2.992  0.00  0.00     0.017 A 
ATOM      8  C8  DEN d   1      -0.705   0.924   1.657  0.00  0.00    -0.094 A 
ATOM      9  C9  DEN d   1      -1.870   0.307   1.236  0.00  0.00    -0.072 A 
ENDROOT
TORSDOF 0
ENDMDL
