MODEL 1
REMARK minimizedAffinity -1.74632454
REMARK minimizedRMSD -1
REMARK  0 active torsions:
REMARK  status: ('A' for Active; 'I' for Inactive)
ROOT
ATOM      1  C1  DEN d   1       1.788   0.384  -2.893  0.00  0.00     0.130 A 
ATOM      2  C2  DEN d   1       1.215   1.725  -2.971  0.00  0.00    -0.031 A 
ATOM      3  C3  DEN d   1       0.309   1.901  -1.818  0.00  0.00     0.027 A 
ATOM      4  C4  DEN d   1      -0.255   0.239   0.072  0.00  0.00     0.027 A 
ATOM      5  C5  DEN d   1      -0.022  -1.029   0.559  0.00  0.00    -0.003 A 
ATOM      6  C6  DEN d   1       0.797  -1.919  -0.084  0.00  0.00     0.001 A 
ATOM      7  C7  DEN d   1       1.449  -1.537  -1.227  0.00  0.00     0.017 A 
ATOM      8  C8  DEN d   1       1.214  -0.264  -1.728  0.00  0.00    -0.094 A 
ATOM      9  C9  DEN d   1       0.392   0.626  -1.057  0.00  0.00    -0.072 A 
ENDROOT
TORSDOF 0
ENDMDL
