MODEL 1
REMARK minimizedAffinity -3.48550034
REMARK minimizedRMSD -1
REMARK  0 active torsions:
REMARK  status: ('A' for Active; 'I' for Inactive)
ROOT
ATOM      1  C1  DEN d   1      -1.064   2.052   1.914  0.00  0.00     0.130 A 
ATOM      2  C2  DEN d   1      -2.197   1.253   2.373  0.00  0.00    -0.031 A 
ATOM      3  C3  DEN d   1      -2.134  -0.059   1.698  0.00  0.00     0.027 A 
ATOM      4  C4  DEN d   1      -0.398  -0.928  -0.000  0.00  0.00     0.027 A 
ATOM      5  C5  DEN d   1       0.740  -0.606  -0.706  0.00  0.00    -0.003 A 
ATOM      6  C6  DEN d   1       1.333   0.625  -0.615  0.00  0.00     0.001 A 
ATOM      7  C7  DEN d   1       0.815   1.566   0.235  0.00  0.00     0.017 A 
ATOM      8  C8  DEN d   1      -0.337   1.252   0.945  0.00  0.00    -0.094 A 
ATOM      9  C9  DEN d   1      -0.914  -0.003   0.848  0.00  0.00    -0.072 A 
ENDROOT
TORSDOF 0
ENDMDL
