MODEL 1
REMARK minimizedAffinity -5.81924963
REMARK minimizedRMSD -1
REMARK  0 active torsions:
REMARK  status: ('A' for Active; 'I' for Inactive)
ROOT
ATOM      1  N1  IND d   1      -0.421   0.364  -0.500  0.00  0.00    -0.196 N 
ATOM      2  C2  IND d   1       0.890   0.207  -0.147  0.00  0.00     0.054 A 
ATOM      3  C3  IND d   1       0.994  -0.040   1.178  0.00  0.00    -0.031 A 
ATOM      4  C4  IND d   1      -0.862  -0.333   2.938  0.00  0.00     0.051 A 
ATOM      5  C5  IND d   1      -2.217  -0.244   3.100  0.00  0.00    -0.031 A 
ATOM      6  C6  IND d   1      -3.059   0.056   2.049  0.00  0.00     0.015 A 
ATOM      7  C7  IND d   1      -2.577   0.267   0.788  0.00  0.00    -0.016 A 
ATOM      8  C8  IND d   1      -1.202   0.185   0.621  0.00  0.00    -0.047 A 
ATOM      9  C9  IND d   1      -0.338  -0.077   1.693  0.00  0.00    -0.096 A 
ATOM     10  HN1 IND d   1      -0.710   0.545  -1.289  0.00  0.00     0.298 HD
ENDROOT
TORSDOF 0
ENDMDL
