MODEL 1
REMARK minimizedAffinity -2.28337336
REMARK minimizedRMSD -1
REMARK  0 active torsions:
REMARK  status: ('A' for Active; 'I' for Inactive)
ROOT
ATOM      1  N1  IND d   1       0.733   1.051  -0.953  0.00  0.00    -0.196 N 
ATOM      2  C2  IND d   1       0.504   0.096  -1.904  0.00  0.00     0.054 A 
ATOM      3  C3  IND d   1       0.248  -1.097  -1.320  0.00  0.00    -0.031 A 
ATOM      4  C4  IND d   1       0.054  -1.686   1.178  0.00  0.00     0.051 A 
ATOM      5  C5  IND d   1       0.217  -1.154   2.427  0.00  0.00    -0.031 A 
ATOM      6  C6  IND d   1       0.564   0.168   2.616  0.00  0.00     0.015 A 
ATOM      7  C7  IND d   1       0.751   1.014   1.559  0.00  0.00    -0.016 A 
ATOM      8  C8  IND d   1       0.594   0.475   0.290  0.00  0.00    -0.047 A 
ATOM      9  C9  IND d   1       0.284  -0.877   0.091  0.00  0.00    -0.096 A 
ATOM     10  HN1 IND d   1       0.931   1.874  -1.106  0.00  0.00     0.298 HD
ENDROOT
TORSDOF 0
ENDMDL
