MODEL 1
REMARK minimizedAffinity -4.21798182
REMARK minimizedRMSD -1
REMARK  0 active torsions:
REMARK  status: ('A' for Active; 'I' for Inactive)
ROOT
ATOM      1  N1  IND d   1       1.850  -1.707  -2.105  0.00  0.00    -0.196 N 
ATOM      2  C2  IND d   1       1.607  -1.325  -3.395  0.00  0.00     0.054 A 
ATOM      3  C3  IND d   1       0.642  -0.379  -3.431  0.00  0.00    -0.031 A 
ATOM      4  C4  IND d   1      -0.604   0.763  -1.489  0.00  0.00     0.051 A 
ATOM      5  C5  IND d   1      -0.750   0.723  -0.131  0.00  0.00    -0.031 A 
ATOM      6  C6  IND d   1      -0.020  -0.145   0.655  0.00  0.00     0.015 A 
ATOM      7  C7  IND d   1       0.896  -1.001   0.110  0.00  0.00    -0.016 A 
ATOM      8  C8  IND d   1       1.041  -0.968  -1.269  0.00  0.00    -0.047 A 
ATOM      9  C9  IND d   1       0.273  -0.119  -2.076  0.00  0.00    -0.096 A 
ATOM     10  HN1 IND d   1       2.413  -2.307  -1.857  0.00  0.00     0.298 HD
ENDROOT
TORSDOF 0
ENDMDL
