MODEL 1
REMARK minimizedAffinity -5.92004013
REMARK minimizedRMSD -1
REMARK  0 active torsions:
REMARK  status: ('A' for Active; 'I' for Inactive)
ROOT
ATOM      1  N1  IND d   1      -0.173   0.240  -0.756  0.00  0.00    -0.196 N 
ATOM      2  C2  IND d   1       1.187   0.141  -0.666  0.00  0.00     0.054 A 
ATOM      3  C3  IND d   1       1.562  -0.038   0.620  0.00  0.00    -0.031 A 
ATOM      4  C4  IND d   1       0.105  -0.301   2.726  0.00  0.00     0.051 A 
ATOM      5  C5  IND d   1      -1.192  -0.246   3.152  0.00  0.00    -0.031 A 
ATOM      6  C6  IND d   1      -2.238  -0.025   2.279  0.00  0.00     0.015 A 
ATOM      7  C7  IND d   1      -2.025   0.139   0.940  0.00  0.00    -0.016 A 
ATOM      8  C8  IND d   1      -0.708   0.091   0.505  0.00  0.00    -0.047 A 
ATOM      9  C9  IND d   1       0.361  -0.090   1.392  0.00  0.00    -0.096 A 
ATOM     10  HN1 IND d   1      -0.620   0.372  -1.479  0.00  0.00     0.298 HD
ENDROOT
TORSDOF 0
ENDMDL
