MODEL 1
REMARK minimizedAffinity -3.81535125
REMARK minimizedRMSD -1
REMARK  0 active torsions:
REMARK  status: ('A' for Active; 'I' for Inactive)
ROOT
ATOM      1  N1  IND d   1      -1.623  -0.520   1.492  0.00  0.00    -0.196 N 
ATOM      2  C2  IND d   1      -1.114  -0.389   2.754  0.00  0.00     0.054 A 
ATOM      3  C3  IND d   1       0.203  -0.087   2.702  0.00  0.00    -0.031 A 
ATOM      4  C4  IND d   1       1.702   0.342   0.653  0.00  0.00     0.051 A 
ATOM      5  C5  IND d   1       1.696   0.303  -0.713  0.00  0.00    -0.031 A 
ATOM      6  C6  IND d   1       0.559  -0.015  -1.429  0.00  0.00     0.015 A 
ATOM      7  C7  IND d   1      -0.621  -0.298  -0.802  0.00  0.00    -0.016 A 
ATOM      8  C8  IND d   1      -0.617  -0.266   0.586  0.00  0.00    -0.047 A 
ATOM      9  C9  IND d   1       0.544   0.015   1.318  0.00  0.00    -0.096 A 
ATOM     10  HN1 IND d   1      -2.435  -0.726   1.297  0.00  0.00     0.298 HD
ENDROOT
TORSDOF 0
ENDMDL
