MODEL 1
REMARK minimizedAffinity -4.15719795
REMARK minimizedRMSD -1
REMARK  0 active torsions:
REMARK  status: ('A' for Active; 'I' for Inactive)
ROOT
ATOM      1  N1  IND d   1      -0.385   0.390  -0.634  0.00  0.00    -0.196 N 
ATOM      2  C2  IND d   1       0.971   0.239  -0.549  0.00  0.00     0.054 A 
ATOM      3  C3  IND d   1       1.344   0.064   0.739  0.00  0.00    -0.031 A 
ATOM      4  C4  IND d   1      -0.112  -0.110   2.855  0.00  0.00     0.051 A 
ATOM      5  C5  IND d   1      -1.404   0.003   3.285  0.00  0.00    -0.031 A 
ATOM      6  C6  IND d   1      -2.444   0.253   2.413  0.00  0.00     0.015 A 
ATOM      7  C7  IND d   1      -2.231   0.389   1.071  0.00  0.00    -0.016 A 
ATOM      8  C8  IND d   1      -0.919   0.282   0.631  0.00  0.00    -0.047 A 
ATOM      9  C9  IND d   1       0.146   0.071   1.516  0.00  0.00    -0.096 A 
ATOM     10  HN1 IND d   1      -0.830   0.530  -1.357  0.00  0.00     0.298 HD
ENDROOT
TORSDOF 0
ENDMDL
