MODEL 1
REMARK minimizedAffinity -6.52944708
REMARK minimizedRMSD -1
REMARK  0 active torsions:
REMARK  status: ('A' for Active; 'I' for Inactive)
ROOT
ATOM      1  N1  IND d   1       0.036   1.102   0.378  0.00  0.00    -0.196 N 
ATOM      2  C2  IND d   1       1.219   0.864   1.020  0.00  0.00     0.054 A 
ATOM      3  C3  IND d   1       1.020   0.063   2.091  0.00  0.00    -0.031 A 
ATOM      4  C4  IND d   1      -1.146  -1.055   2.917  0.00  0.00     0.051 A 
ATOM      5  C5  IND d   1      -2.491  -1.107   2.678  0.00  0.00    -0.031 A 
ATOM      6  C6  IND d   1      -3.073  -0.413   1.637  0.00  0.00     0.015 A 
ATOM      7  C7  IND d   1      -2.328   0.353   0.786  0.00  0.00    -0.016 A 
ATOM      8  C8  IND d   1      -0.963   0.413   1.030  0.00  0.00    -0.047 A 
ATOM      9  C9  IND d   1      -0.372  -0.255   2.110  0.00  0.00    -0.096 A 
ATOM     10  HN1 IND d   1      -0.067   1.599  -0.316  0.00  0.00     0.298 HD
ENDROOT
TORSDOF 0
ENDMDL
