MODEL 1
REMARK minimizedAffinity -4.95631218
REMARK minimizedRMSD -1
REMARK  0 active torsions:
REMARK  status: ('A' for Active; 'I' for Inactive)
ROOT
ATOM      1  N1  IND d   1      -0.345  -0.177  -0.021  0.00  0.00    -0.196 N 
ATOM      2  C2  IND d   1       1.017  -0.076   0.013  0.00  0.00     0.054 A 
ATOM      3  C3  IND d   1       1.478  -0.341   1.256  0.00  0.00    -0.031 A 
ATOM      4  C4  IND d   1       0.182  -1.061   3.361  0.00  0.00     0.051 A 
ATOM      5  C5  IND d   1      -1.086  -1.254   3.832  0.00  0.00    -0.031 A 
ATOM      6  C6  IND d   1      -2.195  -1.097   3.025  0.00  0.00     0.015 A 
ATOM      7  C7  IND d   1      -2.075  -0.751   1.709  0.00  0.00    -0.016 A 
ATOM      8  C8  IND d   1      -0.789  -0.548   1.229  0.00  0.00    -0.047 A 
ATOM      9  C9  IND d   1       0.338  -0.664   2.054  0.00  0.00    -0.096 A 
ATOM     10  HN1 IND d   1      -0.842  -0.033  -0.708  0.00  0.00     0.298 HD
ENDROOT
TORSDOF 0
ENDMDL
