MODEL 1
REMARK minimizedAffinity 0.80393827
REMARK minimizedRMSD -1
REMARK  0 active torsions:
REMARK  status: ('A' for Active; 'I' for Inactive)
ROOT
ATOM      1  N1  IND d   1      -2.556   0.395   0.111  0.00  0.00    -0.196 N 
ATOM      2  C2  IND d   1      -3.379   0.822   1.115  0.00  0.00     0.054 A 
ATOM      3  C3  IND d   1      -2.691   0.927   2.274  0.00  0.00    -0.031 A 
ATOM      4  C4  IND d   1      -0.186   0.547   2.730  0.00  0.00     0.051 A 
ATOM      5  C5  IND d   1       0.964   0.113   2.132  0.00  0.00    -0.031 A 
ATOM      6  C6  IND d   1       1.001  -0.254   0.803  0.00  0.00     0.015 A 
ATOM      7  C7  IND d   1      -0.113  -0.190   0.015  0.00  0.00    -0.016 A 
ATOM      8  C8  IND d   1      -1.285   0.244   0.620  0.00  0.00    -0.047 A 
ATOM      9  C9  IND d   1      -1.338   0.577   1.980  0.00  0.00    -0.096 A 
ATOM     10  HN1 IND d   1      -2.792   0.245  -0.702  0.00  0.00     0.298 HD
ENDROOT
TORSDOF 0
ENDMDL
