MODEL 1
REMARK minimizedAffinity -5.99448013
REMARK minimizedRMSD -1
REMARK  0 active torsions:
REMARK  status: ('A' for Active; 'I' for Inactive)
ROOT
ATOM      1  N1  IND d   1      -0.843   0.611  -0.251  0.00  0.00    -0.196 N 
ATOM      2  C2  IND d   1       0.523   0.570  -0.286  0.00  0.00     0.054 A 
ATOM      3  C3  IND d   1       1.016   0.259   0.934  0.00  0.00    -0.031 A 
ATOM      4  C4  IND d   1      -0.240  -0.322   3.105  0.00  0.00     0.051 A 
ATOM      5  C5  IND d   1      -1.496  -0.383   3.640  0.00  0.00    -0.031 A 
ATOM      6  C6  IND d   1      -2.622  -0.113   2.889  0.00  0.00     0.015 A 
ATOM      7  C7  IND d   1      -2.533   0.219   1.566  0.00  0.00    -0.016 A 
ATOM      8  C8  IND d   1      -1.259   0.288   1.022  0.00  0.00    -0.047 A 
ATOM      9  C9  IND d   1      -0.110   0.056   1.790  0.00  0.00    -0.096 A 
ATOM     10  HN1 IND d   1      -1.356   0.805  -0.913  0.00  0.00     0.298 HD
ENDROOT
TORSDOF 0
ENDMDL
