MODEL 1
REMARK minimizedAffinity -2.95610762
REMARK minimizedRMSD -1
REMARK  0 active torsions:
REMARK  status: ('A' for Active; 'I' for Inactive)
ROOT
ATOM      1  N1  IND d   1      -1.730   1.036  -0.946  0.00  0.00    -0.196 N 
ATOM      2  C2  IND d   1      -0.683   1.051  -1.824  0.00  0.00     0.054 A 
ATOM      3  C3  IND d   1       0.471   0.752  -1.186  0.00  0.00    -0.031 A 
ATOM      4  C4  IND d   1       0.858   0.105   1.275  0.00  0.00     0.051 A 
ATOM      5  C5  IND d   1       0.211  -0.010   2.474  0.00  0.00    -0.031 A 
ATOM      6  C6  IND d   1      -1.144   0.220   2.595  0.00  0.00     0.015 A 
ATOM      7  C7  IND d   1      -1.908   0.564   1.516  0.00  0.00    -0.016 A 
ATOM      8  C8  IND d   1      -1.253   0.688   0.299  0.00  0.00    -0.047 A 
ATOM      9  C9  IND d   1       0.130   0.498   0.178  0.00  0.00    -0.096 A 
ATOM     10  HN1 IND d   1      -2.549   1.214  -1.138  0.00  0.00     0.298 HD
ENDROOT
TORSDOF 0
ENDMDL
