MODEL 1
REMARK minimizedAffinity -4.44052362
REMARK minimizedRMSD -1
REMARK  0 active torsions:
REMARK  status: ('A' for Active; 'I' for Inactive)
ROOT
ATOM      1  N1  IND d   1      -2.617   0.978   0.749  0.00  0.00    -0.196 N 
ATOM      2  C2  IND d   1      -3.125   1.208   1.997  0.00  0.00     0.054 A 
ATOM      3  C3  IND d   1      -2.233   0.840   2.944  0.00  0.00    -0.031 A 
ATOM      4  C4  IND d   1       0.161  -0.067   2.670  0.00  0.00     0.051 A 
ATOM      5  C5  IND d   1       1.054  -0.481   1.722  0.00  0.00    -0.031 A 
ATOM      6  C6  IND d   1       0.765  -0.425   0.374  0.00  0.00     0.015 A 
ATOM      7  C7  IND d   1      -0.430   0.058  -0.079  0.00  0.00    -0.016 A 
ATOM      8  C8  IND d   1      -1.342   0.472   0.881  0.00  0.00    -0.047 A 
ATOM      9  C9  IND d   1      -1.071   0.379   2.252  0.00  0.00    -0.096 A 
ATOM     10  HN1 IND d   1      -3.025   1.125   0.007  0.00  0.00     0.298 HD
ENDROOT
TORSDOF 0
ENDMDL
