MODEL 1
REMARK minimizedAffinity -1.55380785
REMARK minimizedRMSD -1
REMARK  0 active torsions:
REMARK  status: ('A' for Active; 'I' for Inactive)
ROOT
ATOM      1  N1  IND d   1      -0.277  -1.006  -0.090  0.00  0.00    -0.196 N 
ATOM      2  C2  IND d   1      -0.271   0.293   0.336  0.00  0.00     0.054 A 
ATOM      3  C3  IND d   1       0.347   1.082  -0.571  0.00  0.00    -0.031 A 
ATOM      4  C4  IND d   1       1.331   0.471  -2.870  0.00  0.00     0.051 A 
ATOM      5  C5  IND d   1       1.593  -0.598  -3.680  0.00  0.00    -0.031 A 
ATOM      6  C6  IND d   1       1.234  -1.884  -3.330  0.00  0.00     0.015 A 
ATOM      7  C7  IND d   1       0.588  -2.148  -2.155  0.00  0.00    -0.016 A 
ATOM      8  C8  IND d   1       0.328  -1.065  -1.327  0.00  0.00    -0.047 A 
ATOM      9  C9  IND d   1       0.727   0.236  -1.658  0.00  0.00    -0.096 A 
ATOM     10  HN1 IND d   1      -0.604  -1.674   0.341  0.00  0.00     0.298 HD
ENDROOT
TORSDOF 0
ENDMDL
