MODEL 1
REMARK minimizedAffinity -2.18399429
REMARK minimizedRMSD -1
REMARK  0 active torsions:
REMARK  status: ('A' for Active; 'I' for Inactive)
ROOT
ATOM      1  N1  IND d   1      -0.669  -0.854  -0.642  0.00  0.00    -0.196 N 
ATOM      2  C2  IND d   1      -0.124   0.151   0.107  0.00  0.00     0.054 A 
ATOM      3  C3  IND d   1       0.888   0.744  -0.566  0.00  0.00    -0.031 A 
ATOM      4  C4  IND d   1       1.751   0.294  -2.950  0.00  0.00     0.051 A 
ATOM      5  C5  IND d   1       1.592  -0.552  -4.011  0.00  0.00    -0.031 A 
ATOM      6  C6  IND d   1       0.650  -1.561  -4.005  0.00  0.00     0.015 A 
ATOM      7  C7  IND d   1      -0.179  -1.755  -2.937  0.00  0.00    -0.016 A 
ATOM      8  C8  IND d   1      -0.016  -0.902  -1.854  0.00  0.00    -0.047 A 
ATOM      9  C9  IND d   1       0.967   0.097  -1.838  0.00  0.00    -0.096 A 
ATOM     10  HN1 IND d   1      -1.312  -1.370  -0.398  0.00  0.00     0.298 HD
ENDROOT
TORSDOF 0
ENDMDL
