MODEL 1
REMARK minimizedAffinity -4.51715946
REMARK minimizedRMSD -1
REMARK  0 active torsions:
REMARK  status: ('A' for Active; 'I' for Inactive)
ROOT
ATOM      1  N1  IND d   1      -0.605   0.289  -0.611  0.00  0.00    -0.196 N 
ATOM      2  C2  IND d   1       0.746   0.183  -0.433  0.00  0.00     0.054 A 
ATOM      3  C3  IND d   1       1.049   0.196   0.885  0.00  0.00    -0.031 A 
ATOM      4  C4  IND d   1      -0.521   0.282   2.923  0.00  0.00     0.051 A 
ATOM      5  C5  IND d   1      -1.837   0.423   3.264  0.00  0.00    -0.031 A 
ATOM      6  C6  IND d   1      -2.830   0.525   2.311  0.00  0.00     0.015 A 
ATOM      7  C7  IND d   1      -2.544   0.479   0.976  0.00  0.00    -0.016 A 
ATOM      8  C8  IND d   1      -1.208   0.344   0.627  0.00  0.00    -0.047 A 
ATOM      9  C9  IND d   1      -0.191   0.282   1.589  0.00  0.00    -0.096 A 
ATOM     10  HN1 IND d   1      -1.010   0.317  -1.369  0.00  0.00     0.298 HD
ENDROOT
TORSDOF 0
ENDMDL
