MODEL 1
REMARK minimizedAffinity -6.45720339
REMARK minimizedRMSD -1
REMARK  0 active torsions:
REMARK  status: ('A' for Active; 'I' for Inactive)
ROOT
ATOM      1  N1  IND d   1      -0.564   0.126  -0.599  0.00  0.00    -0.196 N 
ATOM      2  C2  IND d   1       0.785   0.307  -0.729  0.00  0.00     0.054 A 
ATOM      3  C3  IND d   1       1.381   0.295   0.484  0.00  0.00    -0.031 A 
ATOM      4  C4  IND d   1       0.350  -0.110   2.808  0.00  0.00     0.051 A 
ATOM      5  C5  IND d   1      -0.850  -0.287   3.438  0.00  0.00    -0.031 A 
ATOM      6  C6  IND d   1      -2.040  -0.339   2.741  0.00  0.00     0.015 A 
ATOM      7  C7  IND d   1      -2.072  -0.227   1.379  0.00  0.00    -0.016 A 
ATOM      8  C8  IND d   1      -0.857  -0.040   0.737  0.00  0.00    -0.047 A 
ATOM      9  C9  IND d   1       0.349   0.056   1.443  0.00  0.00    -0.096 A 
ATOM     10  HN1 IND d   1      -1.133   0.117  -1.243  0.00  0.00     0.298 HD
ENDROOT
TORSDOF 0
ENDMDL
