MODEL 1
REMARK minimizedAffinity -6.57293653
REMARK minimizedRMSD -1
REMARK  0 active torsions:
REMARK  status: ('A' for Active; 'I' for Inactive)
ROOT
ATOM      1  N1  IND d   1      -0.895   0.750  -0.379  0.00  0.00    -0.196 N 
ATOM      2  C2  IND d   1       0.459   0.721  -0.192  0.00  0.00     0.054 A 
ATOM      3  C3  IND d   1       0.750   0.375   1.082  0.00  0.00    -0.031 A 
ATOM      4  C4  IND d   1      -0.835  -0.287   3.000  0.00  0.00     0.051 A 
ATOM      5  C5  IND d   1      -2.160  -0.375   3.320  0.00  0.00    -0.031 A 
ATOM      6  C6  IND d   1      -3.152  -0.089   2.404  0.00  0.00     0.015 A 
ATOM      7  C7  IND d   1      -2.854   0.286   1.125  0.00  0.00    -0.016 A 
ATOM      8  C8  IND d   1      -1.509   0.383   0.798  0.00  0.00    -0.047 A 
ATOM      9  C9  IND d   1      -0.498   0.135   1.736  0.00  0.00    -0.096 A 
ATOM     10  HN1 IND d   1      -1.296   0.962  -1.110  0.00  0.00     0.298 HD
ENDROOT
TORSDOF 0
ENDMDL
