MODEL 1
REMARK minimizedAffinity -6.65857029
REMARK minimizedRMSD -1
REMARK  0 active torsions:
REMARK  status: ('A' for Active; 'I' for Inactive)
ROOT
ATOM      1  N1  IND d   1      -2.305   0.807  -0.164  0.00  0.00    -0.196 N 
ATOM      2  C2  IND d   1      -1.096   0.525  -0.737  0.00  0.00     0.054 A 
ATOM      3  C3  IND d   1      -0.284  -0.086   0.155  0.00  0.00    -0.031 A 
ATOM      4  C4  IND d   1      -0.767  -0.813   2.576  0.00  0.00     0.051 A 
ATOM      5  C5  IND d   1      -1.720  -0.739   3.553  0.00  0.00    -0.031 A 
ATOM      6  C6  IND d   1      -2.942  -0.137   3.336  0.00  0.00     0.015 A 
ATOM      7  C7  IND d   1      -3.263   0.406   2.124  0.00  0.00    -0.016 A 
ATOM      8  C8  IND d   1      -2.295   0.340   1.132  0.00  0.00    -0.047 A 
ATOM      9  C9  IND d   1      -1.037  -0.232   1.360  0.00  0.00    -0.096 A 
ATOM     10  HN1 IND d   1      -2.961   1.208  -0.549  0.00  0.00     0.298 HD
ENDROOT
TORSDOF 0
ENDMDL
