MODEL 1
REMARK minimizedAffinity -5.63849449
REMARK minimizedRMSD -1
REMARK  0 active torsions:
REMARK  status: ('A' for Active; 'I' for Inactive)
ROOT
ATOM      1  N1  IND d   1      -1.003   0.642  -0.314  0.00  0.00    -0.196 N 
ATOM      2  C2  IND d   1       0.337   0.373  -0.363  0.00  0.00     0.054 A 
ATOM      3  C3  IND d   1       0.763  -0.114   0.824  0.00  0.00    -0.031 A 
ATOM      4  C4  IND d   1      -0.586  -0.649   2.951  0.00  0.00     0.051 A 
ATOM      5  C5  IND d   1      -1.837  -0.539   3.489  0.00  0.00    -0.031 A 
ATOM      6  C6  IND d   1      -2.897  -0.022   2.772  0.00  0.00     0.015 A 
ATOM      7  C7  IND d   1      -2.746   0.396   1.480  0.00  0.00    -0.016 A 
ATOM      8  C8  IND d   1      -1.475   0.292   0.932  0.00  0.00    -0.047 A 
ATOM      9  C9  IND d   1      -0.386  -0.192   1.670  0.00  0.00    -0.096 A 
ATOM     10  HN1 IND d   1      -1.472   0.973  -0.954  0.00  0.00     0.298 HD
ENDROOT
TORSDOF 0
ENDMDL
