MODEL 1
REMARK minimizedAffinity 3.1815567
REMARK minimizedRMSD -1
REMARK  0 active torsions:
REMARK  status: ('A' for Active; 'I' for Inactive)
ROOT
ATOM      1  C   UNL d   1      -4.882  -4.854  -5.934  0.00  0.00    -0.002 A 
ATOM      2  C1  UNL d   1      -4.095  -5.997  -5.919  0.00  0.00     0.010 A 
ATOM      3  C2  UNL d   1      -2.702  -5.900  -5.930  0.00  0.00     0.041 A 
ATOM      4  C3  UNL d   1      -2.108  -4.623  -5.955  0.00  0.00    -0.075 A 
ATOM      5  S   UNL d   1      -0.422  -4.261  -5.971  0.00  0.00     0.015 SA
ATOM      6  C4  UNL d   1      -0.707  -2.581  -5.998  0.00  0.00     0.022 A 
ATOM      7  C5  UNL d   1      -2.050  -2.286  -5.995  0.00  0.00     0.026 A 
ATOM      8  C6  UNL d   1      -2.879  -3.458  -5.970  0.00  0.00    -0.082 A 
ATOM      9  C7  UNL d   1      -4.289  -3.589  -5.959  0.00  0.00     0.045 A 
ENDROOT
TORSDOF 0
ENDMDL
