MODEL 1
REMARK minimizedAffinity 6.42359161
REMARK minimizedRMSD -1
REMARK  0 active torsions:
REMARK  status: ('A' for Active; 'I' for Inactive)
ROOT
ATOM      1  C   UNL d   1      -4.786   4.198  -5.283  0.00  0.00    -0.002 A 
ATOM      2  C1  UNL d   1      -4.868   4.528  -3.938  0.00  0.00     0.010 A 
ATOM      3  C2  UNL d   1      -3.774   5.091  -3.277  0.00  0.00     0.041 A 
ATOM      4  C3  UNL d   1      -2.586   5.320  -3.998  0.00  0.00    -0.075 A 
ATOM      5  S   UNL d   1      -1.120   6.000  -3.397  0.00  0.00     0.015 SA
ATOM      6  C4  UNL d   1      -0.350   5.868  -4.912  0.00  0.00     0.022 A 
ATOM      7  C5  UNL d   1      -1.177   5.321  -5.865  0.00  0.00     0.026 A 
ATOM      8  C6  UNL d   1      -2.479   4.996  -5.354  0.00  0.00    -0.082 A 
ATOM      9  C7  UNL d   1      -3.605   4.426  -5.995  0.00  0.00     0.045 A 
ENDROOT
TORSDOF 0
ENDMDL
