MODEL 1
REMARK minimizedAffinity 6.51695967
REMARK minimizedRMSD -1
REMARK  0 active torsions:
REMARK  status: ('A' for Active; 'I' for Inactive)
ROOT
ATOM      1  C   UNL d   1       1.289  -3.531   0.079  0.00  0.00    -0.002 A 
ATOM      2  C1  UNL d   1       0.837  -4.469  -0.838  0.00  0.00     0.010 A 
ATOM      3  C2  UNL d   1       1.742  -5.257  -1.552  0.00  0.00     0.041 A 
ATOM      4  C3  UNL d   1       3.122  -5.087  -1.325  0.00  0.00    -0.075 A 
ATOM      5  S   UNL d   1       4.413  -5.942  -2.083  0.00  0.00     0.015 SA
ATOM      6  C4  UNL d   1       5.595  -5.082  -1.206  0.00  0.00     0.022 A 
ATOM      7  C5  UNL d   1       5.036  -4.162  -0.352  0.00  0.00     0.026 A 
ATOM      8  C6  UNL d   1       3.601  -4.150  -0.406  0.00  0.00    -0.082 A 
ATOM      9  C7  UNL d   1       2.659  -3.365   0.301  0.00  0.00     0.045 A 
ENDROOT
TORSDOF 0
ENDMDL
