MODEL 1
REMARK minimizedAffinity 2.44257879
REMARK minimizedRMSD -1
REMARK  0 active torsions:
REMARK  status: ('A' for Active; 'I' for Inactive)
ROOT
ATOM      1  C2' OXE d   1      -5.991   3.836   2.332  0.00  0.00     0.078 C 
ATOM      2  C1' OXE d   1      -3.901   5.698   2.125  0.00  0.00     0.078 C 
ATOM      3  C1  OXE d   1      -4.437   5.392   3.501  0.00  0.00    -0.078 A 
ATOM      4  C2  OXE d   1      -5.491   4.515   3.588  0.00  0.00    -0.078 A 
ATOM      5  C3  OXE d   1      -5.989   4.157   4.838  0.00  0.00     0.003 A 
ATOM      6  C4  OXE d   1      -5.527   4.797   5.995  0.00  0.00    -0.002 A 
ATOM      7  C5  OXE d   1      -4.481   5.723   5.924  0.00  0.00    -0.002 A 
ATOM      8  C6  OXE d   1      -3.897   5.999   4.693  0.00  0.00     0.003 A 
ENDROOT
TORSDOF 0
ENDMDL
