MODEL 1
REMARK minimizedAffinity -0.460861325
REMARK minimizedRMSD -1
REMARK  0 active torsions:
REMARK  status: ('A' for Active; 'I' for Inactive)
ROOT
ATOM      1  C2' OXE d   1      -2.141   5.999   2.268  0.00  0.00     0.078 C 
ATOM      2  C1' OXE d   1      -4.477   5.957   0.712  0.00  0.00     0.078 C 
ATOM      3  C1  OXE d   1      -4.631   5.965   2.212  0.00  0.00    -0.078 A 
ATOM      4  C2  OXE d   1      -3.482   5.938   2.966  0.00  0.00    -0.078 A 
ATOM      5  C3  OXE d   1      -3.567   5.999   4.354  0.00  0.00     0.003 A 
ATOM      6  C4  OXE d   1      -4.812   5.933   4.992  0.00  0.00    -0.002 A 
ATOM      7  C5  OXE d   1      -5.993   5.919   4.243  0.00  0.00    -0.002 A 
ATOM      8  C6  OXE d   1      -5.921   5.978   2.856  0.00  0.00     0.003 A 
ENDROOT
TORSDOF 0
ENDMDL
