MODEL 1
REMARK minimizedAffinity 6.97231531
REMARK minimizedRMSD -1
REMARK  0 active torsions:
REMARK  status: ('A' for Active; 'I' for Inactive)
ROOT
ATOM      1  C2' OXE d   1       2.200  -3.193   5.947  0.00  0.00     0.078 C 
ATOM      2  C1' OXE d   1       0.766  -2.229   3.734  0.00  0.00     0.078 C 
ATOM      3  C1  OXE d   1       0.341  -3.549   4.327  0.00  0.00    -0.078 A 
ATOM      4  C2  OXE d   1       1.078  -4.035   5.381  0.00  0.00    -0.078 A 
ATOM      5  C3  OXE d   1       0.695  -5.222   6.000  0.00  0.00     0.003 A 
ATOM      6  C4  OXE d   1      -0.338  -6.000   5.463  0.00  0.00    -0.002 A 
ATOM      7  C5  OXE d   1      -1.076  -5.542   4.366  0.00  0.00    -0.002 A 
ATOM      8  C6  OXE d   1      -0.777  -4.301   3.814  0.00  0.00     0.003 A 
ENDROOT
TORSDOF 0
ENDMDL
