MODEL 1
REMARK minimizedAffinity 5.68232441
REMARK minimizedRMSD -1
REMARK  0 active torsions:
REMARK  status: ('A' for Active; 'I' for Inactive)
ROOT
ATOM      1  C2' OXE d   1       1.578  -3.059   5.779  0.00  0.00     0.078 C 
ATOM      2  C1' OXE d   1      -0.203  -2.144   3.811  0.00  0.00     0.078 C 
ATOM      3  C1  OXE d   1      -0.467  -3.496   4.426  0.00  0.00    -0.078 A 
ATOM      4  C2  OXE d   1       0.435  -3.956   5.355  0.00  0.00    -0.078 A 
ATOM      5  C3  OXE d   1       0.209  -5.172   5.992  0.00  0.00     0.003 A 
ATOM      6  C4  OXE d   1      -0.845  -6.000   5.587  0.00  0.00    -0.002 A 
ATOM      7  C5  OXE d   1      -1.753  -5.568   4.614  0.00  0.00    -0.002 A 
ATOM      8  C6  OXE d   1      -1.604  -4.303   4.056  0.00  0.00     0.003 A 
ENDROOT
TORSDOF 0
ENDMDL
