MODEL 1
REMARK minimizedAffinity 3.57870579
REMARK minimizedRMSD -1
REMARK  0 active torsions:
REMARK  status: ('A' for Active; 'I' for Inactive)
ROOT
ATOM      1  C2' OXE d   1      -3.186   5.702   1.356  0.00  0.00     0.078 C 
ATOM      2  C1' OXE d   1      -1.713   5.985   3.729  0.00  0.00     0.078 C 
ATOM      3  C1  OXE d   1      -3.216   5.929   3.837  0.00  0.00    -0.078 A 
ATOM      4  C2  OXE d   1      -3.931   5.837   2.667  0.00  0.00    -0.078 A 
ATOM      5  C3  OXE d   1      -5.318   5.726   2.713  0.00  0.00     0.003 A 
ATOM      6  C4  OXE d   1      -6.000   5.862   3.928  0.00  0.00    -0.002 A 
ATOM      7  C5  OXE d   1      -5.292   5.996   5.128  0.00  0.00    -0.002 A 
ATOM      8  C6  OXE d   1      -3.902   5.989   5.104  0.00  0.00     0.003 A 
ENDROOT
TORSDOF 0
ENDMDL
