MODEL 1
REMARK minimizedAffinity -1.91785181
REMARK minimizedRMSD -1
REMARK  0 active torsions:
REMARK  status: ('A' for Active; 'I' for Inactive)
ROOT
ATOM      1  C2' OXE d   1      -1.936   6.000   3.615  0.00  0.00     0.078 C 
ATOM      2  C1' OXE d   1      -4.072   5.995   1.793  0.00  0.00     0.078 C 
ATOM      3  C1  OXE d   1      -4.402   5.946   3.264  0.00  0.00    -0.078 A 
ATOM      4  C2  OXE d   1      -3.350   5.902   4.147  0.00  0.00    -0.078 A 
ATOM      5  C3  OXE d   1      -3.598   5.911   5.516  0.00  0.00     0.003 A 
ATOM      6  C4  OXE d   1      -4.908   5.810   6.000  0.00  0.00    -0.002 A 
ATOM      7  C5  OXE d   1      -5.993   5.814   5.117  0.00  0.00    -0.002 A 
ATOM      8  C6  OXE d   1      -5.759   5.924   3.750  0.00  0.00     0.003 A 
ENDROOT
TORSDOF 0
ENDMDL
