MODEL 1
REMARK minimizedAffinity -4.13448763
REMARK minimizedRMSD -1
REMARK  0 active torsions:
REMARK  status: ('A' for Active; 'I' for Inactive)
ROOT
ATOM      1  C   UNL d   1      -1.930   0.775   2.287  0.00  0.00     0.023 A 
ATOM      2  C1  UNL d   1      -2.485   0.145   1.173  0.00  0.00     0.003 A 
ATOM      3  C2  UNL d   1      -1.696  -0.117   0.052  0.00  0.00     0.048 A 
ATOM      4  C3  UNL d   1      -0.351   0.253   0.052  0.00  0.00     0.023 A 
ATOM      5  C4  UNL d   1       0.209   0.883   1.165  0.00  0.00     0.048 A 
ATOM      6  C5  UNL d   1      -0.585   1.143   2.283  0.00  0.00     0.003 A 
ATOM      7  I   UNL d   1       0.827  -0.136  -1.616  0.00  0.00    -0.146 I 
ENDROOT
TORSDOF 0
ENDMDL
