MODEL 1
REMARK minimizedAffinity -1.66287076
REMARK minimizedRMSD -1
REMARK  0 active torsions:
REMARK  status: ('A' for Active; 'I' for Inactive)
ROOT
ATOM      1  C   UNL d   1       0.839  -0.526  -1.461  0.00  0.00     0.023 A 
ATOM      2  C1  UNL d   1      -0.343   0.214  -1.417  0.00  0.00     0.003 A 
ATOM      3  C2  UNL d   1      -0.845   0.658  -0.193  0.00  0.00     0.048 A 
ATOM      4  C3  UNL d   1      -0.159   0.360   0.985  0.00  0.00     0.023 A 
ATOM      5  C4  UNL d   1       1.024  -0.379   0.946  0.00  0.00     0.048 A 
ATOM      6  C5  UNL d   1       1.522  -0.822  -0.281  0.00  0.00     0.003 A 
ATOM      7  I   UNL d   1      -0.905   1.021   2.809  0.00  0.00    -0.146 I 
ENDROOT
TORSDOF 0
ENDMDL
