MODEL 1
REMARK minimizedAffinity -2.85362267
REMARK minimizedRMSD -1
REMARK  0 active torsions:
REMARK  status: ('A' for Active; 'I' for Inactive)
ROOT
ATOM      1  C   UNL d   1       1.870   0.534  -1.824  0.00  0.00     0.023 A 
ATOM      2  C1  UNL d   1       0.948  -0.454  -1.479  0.00  0.00     0.003 A 
ATOM      3  C2  UNL d   1       0.084  -0.973  -2.445  0.00  0.00     0.048 A 
ATOM      4  C3  UNL d   1       0.147  -0.499  -3.755  0.00  0.00     0.023 A 
ATOM      5  C4  UNL d   1       1.069   0.489  -4.105  0.00  0.00     0.048 A 
ATOM      6  C5  UNL d   1       1.930   1.005  -3.136  0.00  0.00     0.003 A 
ATOM      7  I   UNL d   1      -1.138  -1.270  -5.195  0.00  0.00    -0.146 I 
ENDROOT
TORSDOF 0
ENDMDL
