MODEL 1
REMARK minimizedAffinity -3.45309067
REMARK minimizedRMSD -1
REMARK  0 active torsions:
REMARK  status: ('A' for Active; 'I' for Inactive)
ROOT
ATOM      1  C   UNL d   1      -1.462   1.317   2.841  0.00  0.00     0.023 A 
ATOM      2  C1  UNL d   1      -0.171   1.675   2.454  0.00  0.00     0.003 A 
ATOM      3  C2  UNL d   1       0.360   1.191   1.257  0.00  0.00     0.048 A 
ATOM      4  C3  UNL d   1      -0.406   0.350   0.451  0.00  0.00     0.023 A 
ATOM      5  C4  UNL d   1      -1.699  -0.010   0.833  0.00  0.00     0.048 A 
ATOM      6  C5  UNL d   1      -2.225   0.475   2.032  0.00  0.00     0.003 A 
ATOM      7  I   UNL d   1       0.382  -0.371  -1.332  0.00  0.00    -0.146 I 
ENDROOT
TORSDOF 0
ENDMDL
