MODEL 1
REMARK minimizedAffinity -2.58730388
REMARK minimizedRMSD -1
REMARK  0 active torsions:
REMARK  status: ('A' for Active; 'I' for Inactive)
ROOT
ATOM      1  C   UNL d   1       1.733   0.245  -5.330  0.00  0.00     0.023 A 
ATOM      2  C1  UNL d   1       0.655  -0.635  -5.232  0.00  0.00     0.003 A 
ATOM      3  C2  UNL d   1       0.091  -0.913  -3.985  0.00  0.00     0.048 A 
ATOM      4  C3  UNL d   1       0.608  -0.306  -2.841  0.00  0.00     0.023 A 
ATOM      5  C4  UNL d   1       1.685   0.576  -2.935  0.00  0.00     0.048 A 
ATOM      6  C5  UNL d   1       2.247   0.850  -4.183  0.00  0.00     0.003 A 
ATOM      7  I   UNL d   1      -0.231  -0.719  -0.985  0.00  0.00    -0.146 I 
ENDROOT
TORSDOF 0
ENDMDL
