MODEL 1
REMARK minimizedAffinity -3.72203588
REMARK minimizedRMSD -1
REMARK  0 active torsions:
REMARK  status: ('A' for Active; 'I' for Inactive)
ROOT
ATOM      1  C   UNL d   1       1.619  -0.475  -3.303  0.00  0.00     0.023 A 
ATOM      2  C1  UNL d   1       0.575   0.438  -3.455  0.00  0.00     0.003 A 
ATOM      3  C2  UNL d   1      -0.302   0.681  -2.396  0.00  0.00     0.048 A 
ATOM      4  C3  UNL d   1      -0.131   0.007  -1.188  0.00  0.00     0.023 A 
ATOM      5  C4  UNL d   1       0.912  -0.907  -1.030  0.00  0.00     0.048 A 
ATOM      6  C5  UNL d   1       1.787  -1.147  -2.092  0.00  0.00     0.003 A 
ATOM      7  I   UNL d   1      -1.435   0.367   0.389  0.00  0.00    -0.146 I 
ENDROOT
TORSDOF 0
ENDMDL
