MODEL 1
REMARK minimizedAffinity -2.5542419
REMARK minimizedRMSD -1
REMARK  0 active torsions:
REMARK  status: ('A' for Active; 'I' for Inactive)
ROOT
ATOM      1  C   UNL d   1      -1.314   1.384   2.476  0.00  0.00     0.023 A 
ATOM      2  C1  UNL d   1      -0.027   1.615   1.991  0.00  0.00     0.003 A 
ATOM      3  C2  UNL d   1       0.346   1.127   0.737  0.00  0.00     0.048 A 
ATOM      4  C3  UNL d   1      -0.573   0.408  -0.027  0.00  0.00     0.023 A 
ATOM      5  C4  UNL d   1      -1.862   0.175   0.454  0.00  0.00     0.048 A 
ATOM      6  C5  UNL d   1      -2.231   0.665   1.709  0.00  0.00     0.003 A 
ATOM      7  I   UNL d   1      -0.020  -0.320  -1.893  0.00  0.00    -0.146 I 
ENDROOT
TORSDOF 0
ENDMDL
