MODEL 1
REMARK minimizedAffinity -3.39495516
REMARK minimizedRMSD -1
REMARK  0 active torsions:
REMARK  status: ('A' for Active; 'I' for Inactive)
ROOT
ATOM      1  C   UNL d   1      -0.706   0.444  -0.993  0.00  0.00     0.077 C 
ATOM      2  C1  UNL d   1      -0.697  -0.178   0.371  0.00  0.00    -0.074 A 
ATOM      3  C2  UNL d   1      -1.892  -0.510   1.018  0.00  0.00    -0.005 A 
ATOM      4  C3  UNL d   1      -1.867  -1.097   2.283  0.00  0.00     0.006 A 
ATOM      5  C4  UNL d   1      -0.650  -1.358   2.913  0.00  0.00    -0.005 A 
ATOM      6  C5  UNL d   1       0.555  -1.034   2.281  0.00  0.00    -0.074 A 
ATOM      7  C6  UNL d   1       1.872  -1.316   2.941  0.00  0.00     0.077 C 
ATOM      8  C7  UNL d   1       0.522  -0.450   1.007  0.00  0.00    -0.001 A 
ENDROOT
TORSDOF 0
ENDMDL
