MODEL 1
REMARK minimizedAffinity -5.6569171
REMARK minimizedRMSD -1
REMARK  0 active torsions:
REMARK  status: ('A' for Active; 'I' for Inactive)
ROOT
ATOM      1  C   UNL d   1       2.186  -1.388   2.779  0.00  0.00     0.077 C 
ATOM      2  C1  UNL d   1       1.360  -0.985   1.594  0.00  0.00    -0.074 A 
ATOM      3  C2  UNL d   1       1.896  -1.007   0.303  0.00  0.00    -0.005 A 
ATOM      4  C3  UNL d   1       1.112  -0.639  -0.791  0.00  0.00     0.006 A 
ATOM      5  C4  UNL d   1      -0.214  -0.246  -0.604  0.00  0.00    -0.005 A 
ATOM      6  C5  UNL d   1      -0.768  -0.220   0.680  0.00  0.00    -0.074 A 
ATOM      7  C6  UNL d   1      -2.194   0.190   0.896  0.00  0.00     0.077 C 
ATOM      8  C7  UNL d   1       0.024  -0.597   1.773  0.00  0.00    -0.001 A 
ENDROOT
TORSDOF 0
ENDMDL
