MODEL 1
REMARK minimizedAffinity -3.87453318
REMARK minimizedRMSD -1
REMARK  0 active torsions:
REMARK  status: ('A' for Active; 'I' for Inactive)
ROOT
ATOM      1  C   UNL d   1      -0.708   0.560  -1.041  0.00  0.00     0.077 C 
ATOM      2  C1  UNL d   1      -0.161  -0.108   0.185  0.00  0.00    -0.074 A 
ATOM      3  C2  UNL d   1      -0.866  -0.081   1.393  0.00  0.00    -0.005 A 
ATOM      4  C3  UNL d   1      -0.349  -0.715   2.523  0.00  0.00     0.006 A 
ATOM      5  C4  UNL d   1       0.875  -1.380   2.457  0.00  0.00    -0.005 A 
ATOM      6  C5  UNL d   1       1.594  -1.419   1.258  0.00  0.00    -0.074 A 
ATOM      7  C6  UNL d   1       2.907  -2.138   1.167  0.00  0.00     0.077 C 
ATOM      8  C7  UNL d   1       1.065  -0.785   0.125  0.00  0.00    -0.001 A 
ENDROOT
TORSDOF 0
ENDMDL
