MODEL 1
REMARK minimizedAffinity -4.72658253
REMARK minimizedRMSD -1
REMARK  0 active torsions:
REMARK  status: ('A' for Active; 'I' for Inactive)
ROOT
ATOM      1  C   UNL d   1      -0.649   0.690  -1.062  0.00  0.00     0.077 C 
ATOM      2  C1  UNL d   1       0.068  -0.070   0.013  0.00  0.00    -0.074 A 
ATOM      3  C2  UNL d   1      -0.497  -0.223   1.284  0.00  0.00    -0.005 A 
ATOM      4  C3  UNL d   1       0.178  -0.941   2.272  0.00  0.00     0.006 A 
ATOM      5  C4  UNL d   1       1.421  -1.513   1.999  0.00  0.00    -0.005 A 
ATOM      6  C5  UNL d   1       2.000  -1.372   0.734  0.00  0.00    -0.074 A 
ATOM      7  C6  UNL d   1       3.331  -1.989   0.421  0.00  0.00     0.077 C 
ATOM      8  C7  UNL d   1       1.313  -0.655  -0.255  0.00  0.00    -0.001 A 
ENDROOT
TORSDOF 0
ENDMDL
