MODEL 1
REMARK minimizedAffinity -5.1344943
REMARK minimizedRMSD -1
REMARK  0 active torsions:
REMARK  status: ('A' for Active; 'I' for Inactive)
ROOT
ATOM      1  C   UNL d   1      -0.351   0.320  -1.156  0.00  0.00     0.077 C 
ATOM      2  C1  UNL d   1       0.304  -0.219   0.081  0.00  0.00    -0.074 A 
ATOM      3  C2  UNL d   1      -0.303  -0.084   1.334  0.00  0.00    -0.005 A 
ATOM      4  C3  UNL d   1       0.314  -0.598   2.474  0.00  0.00     0.006 A 
ATOM      5  C4  UNL d   1       1.542  -1.252   2.374  0.00  0.00    -0.005 A 
ATOM      6  C5  UNL d   1       2.164  -1.398   1.130  0.00  0.00    -0.074 A 
ATOM      7  C6  UNL d   1       3.480  -2.107   1.003  0.00  0.00     0.077 C 
ATOM      8  C7  UNL d   1       1.535  -0.885  -0.012  0.00  0.00    -0.001 A 
ENDROOT
TORSDOF 0
ENDMDL
