MODEL 1
REMARK minimizedAffinity -5.49513435
REMARK minimizedRMSD -1
REMARK  0 active torsions:
REMARK  status: ('A' for Active; 'I' for Inactive)
ROOT
ATOM      1  C   UNL d   1      -0.693   1.152  -0.943  0.00  0.00     0.077 C 
ATOM      2  C1  UNL d   1      -0.194   0.385   0.245  0.00  0.00    -0.074 A 
ATOM      3  C2  UNL d   1      -0.965   0.278   1.407  0.00  0.00    -0.005 A 
ATOM      4  C3  UNL d   1      -0.492  -0.447   2.500  0.00  0.00     0.006 A 
ATOM      5  C4  UNL d   1       0.754  -1.071   2.444  0.00  0.00    -0.005 A 
ATOM      6  C5  UNL d   1       1.539  -0.976   1.290  0.00  0.00    -0.074 A 
ATOM      7  C6  UNL d   1       2.877  -1.649   1.209  0.00  0.00     0.077 C 
ATOM      8  C7  UNL d   1       1.054  -0.252   0.193  0.00  0.00    -0.001 A 
ENDROOT
TORSDOF 0
ENDMDL
