MODEL 1
REMARK minimizedAffinity -5.47677374
REMARK minimizedRMSD -1
REMARK  0 active torsions:
REMARK  status: ('A' for Active; 'I' for Inactive)
ROOT
ATOM      1  C   UNL d   1      -0.064   0.274  -1.380  0.00  0.00     0.077 C 
ATOM      2  C1  UNL d   1       0.501  -0.266  -0.100  0.00  0.00    -0.074 A 
ATOM      3  C2  UNL d   1      -0.120  -0.006   1.126  0.00  0.00    -0.005 A 
ATOM      4  C3  UNL d   1       0.411  -0.523   2.307  0.00  0.00     0.006 A 
ATOM      5  C4  UNL d   1       1.567  -1.304   2.275  0.00  0.00    -0.005 A 
ATOM      6  C5  UNL d   1       2.201  -1.576   1.059  0.00  0.00    -0.074 A 
ATOM      7  C6  UNL d   1       3.439  -2.422   1.006  0.00  0.00     0.077 C 
ATOM      8  C7  UNL d   1       1.657  -1.058  -0.125  0.00  0.00    -0.001 A 
ENDROOT
TORSDOF 0
ENDMDL
