MODEL 1
REMARK minimizedAffinity -5.40919209
REMARK minimizedRMSD -1
REMARK  0 active torsions:
REMARK  status: ('A' for Active; 'I' for Inactive)
ROOT
ATOM      1  C   UNL d   1       3.007  -1.841   1.095  0.00  0.00     0.077 C 
ATOM      2  C1  UNL d   1       1.645  -1.224   1.213  0.00  0.00    -0.074 A 
ATOM      3  C2  UNL d   1       0.989  -1.162   2.446  0.00  0.00    -0.005 A 
ATOM      4  C3  UNL d   1      -0.274  -0.576   2.543  0.00  0.00     0.006 A 
ATOM      5  C4  UNL d   1      -0.892  -0.048   1.409  0.00  0.00    -0.005 A 
ATOM      6  C5  UNL d   1      -0.250  -0.100   0.167  0.00  0.00    -0.074 A 
ATOM      7  C6  UNL d   1      -0.896   0.472  -1.060  0.00  0.00     0.077 C 
ATOM      8  C7  UNL d   1       1.021  -0.684   0.080  0.00  0.00    -0.001 A 
ENDROOT
TORSDOF 0
ENDMDL
