MODEL 1
REMARK minimizedAffinity -5.517344
REMARK minimizedRMSD -1
REMARK  0 active torsions:
REMARK  status: ('A' for Active; 'I' for Inactive)
ROOT
ATOM      1  C   UNL d   1       2.543  -1.723   1.606  0.00  0.00     0.077 C 
ATOM      2  C1  UNL d   1       1.239  -0.988   1.515  0.00  0.00    -0.074 A 
ATOM      3  C2  UNL d   1       0.374  -0.918   2.611  0.00  0.00    -0.005 A 
ATOM      4  C3  UNL d   1      -0.831  -0.223   2.514  0.00  0.00     0.006 A 
ATOM      5  C4  UNL d   1      -1.183   0.409   1.321  0.00  0.00    -0.005 A 
ATOM      6  C5  UNL d   1      -0.330   0.351   0.214  0.00  0.00    -0.074 A 
ATOM      7  C6  UNL d   1      -0.689   1.033  -1.073  0.00  0.00     0.077 C 
ATOM      8  C7  UNL d   1       0.882  -0.344   0.322  0.00  0.00    -0.001 A 
ENDROOT
TORSDOF 0
ENDMDL
