MODEL 1
REMARK minimizedAffinity 4.56412745
REMARK minimizedRMSD -1
REMARK  2 active torsions:
REMARK  status: ('A' for Active; 'I' for Inactive)
REMARK    1  A    between atoms: C2'_3  and  C1'_4 
REMARK    2  A    between atoms: C1'_4  and  C1_5 
ROOT
ATOM      1  C1  I4B d   1      -3.047  -1.044   3.169  0.00  0.00    -0.075 A 
ATOM      2  C2  I4B d   1      -3.921  -2.075   3.409  0.00  0.00     0.003 A 
ATOM      3  C3  I4B d   1      -4.762  -2.046   4.548  0.00  0.00     0.002 A 
ATOM      4  C4  I4B d   1      -4.660  -0.999   5.441  0.00  0.00    -0.004 A 
ATOM      5  C5  I4B d   1      -3.790   0.056   5.184  0.00  0.00     0.002 A 
ATOM      6  C6  I4B d   1      -2.987   0.040   4.035  0.00  0.00     0.003 A 
ENDROOT
BRANCH   1   7
ATOM      7  C1' I4B d   1      -2.150  -1.123   1.974  0.00  0.00     0.060 C 
BRANCH   7   8
ATOM      8  C2' I4B d   1      -1.190  -2.275   2.186  0.00  0.00    -0.013 C 
ATOM      9  C4' I4B d   1      -0.742  -2.860   0.872  0.00  0.00     0.013 C 
ATOM     10  C3' I4B d   1      -0.023  -1.766   2.978  0.00  0.00     0.013 C 
ENDBRANCH   7   8
ENDBRANCH   1   7
TORSDOF 2
ENDMDL
