MODEL 1
REMARK minimizedAffinity 7.81008291
REMARK minimizedRMSD -1
REMARK  2 active torsions:
REMARK  status: ('A' for Active; 'I' for Inactive)
REMARK    1  A    between atoms: C2'_3  and  C1'_4 
REMARK    2  A    between atoms: C1'_4  and  C1_5 
ROOT
ATOM      1  C1  I4B d   1      -2.980   1.347   2.974  0.00  0.00    -0.075 A 
ATOM      2  C2  I4B d   1      -3.615   1.009   1.805  0.00  0.00     0.003 A 
ATOM      3  C3  I4B d   1      -3.155  -0.088   1.037  0.00  0.00     0.002 A 
ATOM      4  C4  I4B d   1      -2.035  -0.783   1.446  0.00  0.00    -0.004 A 
ATOM      5  C5  I4B d   1      -1.407  -0.452   2.643  0.00  0.00     0.002 A 
ATOM      6  C6  I4B d   1      -1.890   0.611   3.419  0.00  0.00     0.003 A 
ENDROOT
BRANCH   1   7
ATOM      7  C1' I4B d   1      -3.472   2.532   3.744  0.00  0.00     0.060 C 
BRANCH   7   8
ATOM      8  C2' I4B d   1      -4.622   2.076   4.619  0.00  0.00    -0.013 C 
ATOM      9  C4' I4B d   1      -4.169   1.049   5.623  0.00  0.00     0.013 C 
ATOM     10  C3' I4B d   1      -5.194   3.284   5.299  0.00  0.00     0.013 C 
ENDBRANCH   7   8
ENDBRANCH   1   7
TORSDOF 2
ENDMDL
