MODEL 1
REMARK minimizedAffinity 2.75849867
REMARK minimizedRMSD -1
REMARK  2 active torsions:
REMARK  status: ('A' for Active; 'I' for Inactive)
REMARK    1  A    between atoms: C2'_3  and  C1'_4 
REMARK    2  A    between atoms: C1'_4  and  C1_5 
ROOT
ATOM      1  C1  I4B d   1      -5.474  -3.265   2.345  0.00  0.00    -0.075 A 
ATOM      2  C2  I4B d   1      -5.512  -4.560   1.892  0.00  0.00     0.003 A 
ATOM      3  C3  I4B d   1      -5.804  -5.620   2.786  0.00  0.00     0.002 A 
ATOM      4  C4  I4B d   1      -6.000  -5.345   4.124  0.00  0.00    -0.004 A 
ATOM      5  C5  I4B d   1      -5.984  -4.029   4.577  0.00  0.00     0.002 A 
ATOM      6  C6  I4B d   1      -5.732  -2.981   3.680  0.00  0.00     0.003 A 
ENDROOT
BRANCH   1   7
ATOM      7  C1' I4B d   1      -5.131  -2.174   1.381  0.00  0.00     0.060 C 
BRANCH   7   8
ATOM      8  C2' I4B d   1      -3.712  -1.727   1.668  0.00  0.00    -0.013 C 
ATOM      9  C4' I4B d   1      -2.755  -2.247   0.628  0.00  0.00     0.013 C 
ATOM     10  C3' I4B d   1      -3.700  -0.228   1.714  0.00  0.00     0.013 C 
ENDBRANCH   7   8
ENDBRANCH   1   7
TORSDOF 2
ENDMDL
