MODEL 1
REMARK minimizedAffinity 10.4916506
REMARK minimizedRMSD -1
REMARK  2 active torsions:
REMARK  status: ('A' for Active; 'I' for Inactive)
REMARK    1  A    between atoms: C2'_3  and  C1'_4 
REMARK    2  A    between atoms: C1'_4  and  C1_5 
ROOT
ATOM      1  C1  I4B d   1      -5.865  -3.532   3.384  0.00  0.00    -0.075 A 
ATOM      2  C2  I4B d   1      -5.876  -4.716   2.690  0.00  0.00     0.003 A 
ATOM      3  C3  I4B d   1      -5.964  -5.948   3.384  0.00  0.00     0.002 A 
ATOM      4  C4  I4B d   1      -5.988  -5.950   4.763  0.00  0.00    -0.004 A 
ATOM      5  C5  I4B d   1      -5.999  -4.748   5.464  0.00  0.00     0.002 A 
ATOM      6  C6  I4B d   1      -5.950  -3.530   4.770  0.00  0.00     0.003 A 
ENDROOT
BRANCH   1   7
ATOM      7  C1' I4B d   1      -5.738  -2.251   2.621  0.00  0.00     0.060 C 
BRANCH   7   8
ATOM      8  C2' I4B d   1      -4.335  -1.719   2.833  0.00  0.00    -0.013 C 
ATOM      9  C4' I4B d   1      -3.400  -2.201   1.755  0.00  0.00     0.013 C 
ATOM     10  C3' I4B d   1      -4.407  -0.221   2.858  0.00  0.00     0.013 C 
ENDBRANCH   7   8
ENDBRANCH   1   7
TORSDOF 2
ENDMDL
