MODEL 1
REMARK minimizedAffinity 9.3474102
REMARK minimizedRMSD -1
REMARK  2 active torsions:
REMARK  status: ('A' for Active; 'I' for Inactive)
REMARK    1  A    between atoms: C2'_3  and  C1'_4 
REMARK    2  A    between atoms: C1'_4  and  C1_5 
ROOT
ATOM      1  C1  I4B d   1       3.941   2.987  -1.391  0.00  0.00    -0.075 A 
ATOM      2  C2  I4B d   1       4.906   3.821  -0.883  0.00  0.00     0.003 A 
ATOM      3  C3  I4B d   1       5.075   3.945   0.517  0.00  0.00     0.002 A 
ATOM      4  C4  I4B d   1       4.229   3.262   1.367  0.00  0.00    -0.004 A 
ATOM      5  C5  I4B d   1       3.266   2.400   0.850  0.00  0.00     0.002 A 
ATOM      6  C6  I4B d   1       3.129   2.252  -0.537  0.00  0.00     0.003 A 
ENDROOT
BRANCH   1   7
ATOM      7  C1' I4B d   1       3.768   2.905  -2.875  0.00  0.00     0.060 C 
BRANCH   7   8
ATOM      8  C2' I4B d   1       4.494   4.081  -3.495  0.00  0.00    -0.013 C 
ATOM      9  C4' I4B d   1       5.140   3.696  -4.800  0.00  0.00     0.013 C 
ATOM     10  C3' I4B d   1       3.501   5.188  -3.689  0.00  0.00     0.013 C 
ENDBRANCH   7   8
ENDBRANCH   1   7
TORSDOF 2
ENDMDL
