MODEL 1
REMARK minimizedAffinity 2.55833817
REMARK minimizedRMSD -1
REMARK  2 active torsions:
REMARK  status: ('A' for Active; 'I' for Inactive)
REMARK    1  A    between atoms: C2'_3  and  C1'_4 
REMARK    2  A    between atoms: C1'_4  and  C1_5 
ROOT
ATOM      1  C1  I4B d   1      -2.249  -0.364   2.174  0.00  0.00    -0.075 A 
ATOM      2  C2  I4B d   1      -2.867  -1.465   1.636  0.00  0.00     0.003 A 
ATOM      3  C3  I4B d   1      -2.176  -2.698   1.548  0.00  0.00     0.002 A 
ATOM      4  C4  I4B d   1      -0.862  -2.772   1.961  0.00  0.00    -0.004 A 
ATOM      5  C5  I4B d   1      -0.244  -1.660   2.527  0.00  0.00     0.002 A 
ATOM      6  C6  I4B d   1      -0.945  -0.452   2.646  0.00  0.00     0.003 A 
ENDROOT
BRANCH   1   7
ATOM      7  C1' I4B d   1      -2.996   0.931   2.221  0.00  0.00     0.060 C 
BRANCH   7   8
ATOM      8  C2' I4B d   1      -3.002   1.415   3.657  0.00  0.00    -0.013 C 
ATOM      9  C4' I4B d   1      -4.329   2.026   4.021  0.00  0.00     0.013 C 
ATOM     10  C3' I4B d   1      -2.684   0.246   4.540  0.00  0.00     0.013 C 
ENDBRANCH   7   8
ENDBRANCH   1   7
TORSDOF 2
ENDMDL
