MODEL 1
REMARK minimizedAffinity 11.9263258
REMARK minimizedRMSD -1
REMARK  2 active torsions:
REMARK  status: ('A' for Active; 'I' for Inactive)
REMARK    1  A    between atoms: C2'_3  and  C1'_4 
REMARK    2  A    between atoms: C1'_4  and  C1_5 
ROOT
ATOM      1  C1  I4B d   1       3.673   3.297  -2.787  0.00  0.00    -0.075 A 
ATOM      2  C2  I4B d   1       3.472   2.199  -1.988  0.00  0.00     0.003 A 
ATOM      3  C3  I4B d   1       2.185   1.619  -1.883  0.00  0.00     0.002 A 
ATOM      4  C4  I4B d   1       1.123   2.196  -2.550  0.00  0.00    -0.004 A 
ATOM      5  C5  I4B d   1       1.333   3.296  -3.377  0.00  0.00     0.002 A 
ATOM      6  C6  I4B d   1       2.617   3.843  -3.506  0.00  0.00     0.003 A 
ENDROOT
BRANCH   1   7
ATOM      7  C1' I4B d   1       5.038   3.904  -2.848  0.00  0.00     0.060 C 
BRANCH   7   8
ATOM      8  C2' I4B d   1       5.238   4.734  -1.597  0.00  0.00    -0.013 C 
ATOM      9  C4' I4B d   1       5.998   3.965  -0.548  0.00  0.00     0.013 C 
ATOM     10  C3' I4B d   1       5.965   5.987  -1.983  0.00  0.00     0.013 C 
ENDBRANCH   7   8
ENDBRANCH   1   7
TORSDOF 2
ENDMDL
