MODEL 1
REMARK minimizedAffinity 14.0477915
REMARK minimizedRMSD -1
REMARK  2 active torsions:
REMARK  status: ('A' for Active; 'I' for Inactive)
REMARK    1  A    between atoms: C2'_3  and  C1'_4 
REMARK    2  A    between atoms: C1'_4  and  C1_5 
ROOT
ATOM      1  C1  I4B d   1      -2.121  -1.824   1.914  0.00  0.00    -0.075 A 
ATOM      2  C2  I4B d   1      -1.421  -2.685   1.107  0.00  0.00     0.003 A 
ATOM      3  C3  I4B d   1      -1.942  -3.968   0.810  0.00  0.00     0.002 A 
ATOM      4  C4  I4B d   1      -3.136  -4.364   1.378  0.00  0.00    -0.004 A 
ATOM      5  C5  I4B d   1      -3.856  -3.481   2.178  0.00  0.00     0.002 A 
ATOM      6  C6  I4B d   1      -3.352  -2.198   2.437  0.00  0.00     0.003 A 
ENDROOT
BRANCH   1   7
ATOM      7  C1' I4B d   1      -1.525  -0.490   2.233  0.00  0.00     0.060 C 
BRANCH   7   8
ATOM      8  C2' I4B d   1      -2.392   0.169   3.287  0.00  0.00    -0.013 C 
ATOM      9  C4' I4B d   1      -1.708   0.177   4.628  0.00  0.00     0.013 C 
ATOM     10  C3' I4B d   1      -2.701   1.562   2.827  0.00  0.00     0.013 C 
ENDBRANCH   7   8
ENDBRANCH   1   7
TORSDOF 2
ENDMDL
