MODEL 1
REMARK minimizedAffinity 0.0887376368
REMARK minimizedRMSD -1
REMARK  0 active torsions:
REMARK  status: ('A' for Active; 'I' for Inactive)
ROOT
ATOM      1  C2' OXE d   1       5.780  -2.624   6.000  0.00  0.00     0.078 C 
ATOM      2  C1' OXE d   1       5.999  -2.013   3.269  0.00  0.00     0.078 C 
ATOM      3  C1  OXE d   1       4.619  -2.037   3.875  0.00  0.00    -0.078 A 
ATOM      4  C2  OXE d   1       4.517  -2.382   5.201  0.00  0.00    -0.078 A 
ATOM      5  C3  OXE d   1       3.272  -2.366   5.824  0.00  0.00     0.003 A 
ATOM      6  C4  OXE d   1       2.108  -2.151   5.076  0.00  0.00    -0.002 A 
ATOM      7  C5  OXE d   1       2.186  -1.837   3.715  0.00  0.00    -0.002 A 
ATOM      8  C6  OXE d   1       3.434  -1.734   3.111  0.00  0.00     0.003 A 
ENDROOT
TORSDOF 0
ENDMDL
