MODEL 1
REMARK minimizedAffinity 9.42686176
REMARK minimizedRMSD -1
REMARK  0 active torsions:
REMARK  status: ('A' for Active; 'I' for Inactive)
ROOT
ATOM      1  C2' OXE d   1       5.964  -2.259   5.873  0.00  0.00     0.078 C 
ATOM      2  C1' OXE d   1       6.000  -2.236   3.066  0.00  0.00     0.078 C 
ATOM      3  C1  OXE d   1       4.668  -2.073   3.754  0.00  0.00    -0.078 A 
ATOM      4  C2  OXE d   1       4.654  -2.133   5.127  0.00  0.00    -0.078 A 
ATOM      5  C3  OXE d   1       3.459  -1.933   5.814  0.00  0.00     0.003 A 
ATOM      6  C4  OXE d   1       2.250  -1.827   5.116  0.00  0.00    -0.002 A 
ATOM      7  C5  OXE d   1       2.237  -1.804   3.717  0.00  0.00    -0.002 A 
ATOM      8  C6  OXE d   1       3.439  -1.883   3.023  0.00  0.00     0.003 A 
ENDROOT
TORSDOF 0
ENDMDL
