MODEL 1
REMARK minimizedAffinity 4.2008996
REMARK minimizedRMSD -1
REMARK  0 active torsions:
REMARK  status: ('A' for Active; 'I' for Inactive)
ROOT
ATOM      1  C2' OXE d   1       4.142  -3.008   5.925  0.00  0.00     0.078 C 
ATOM      2  C1' OXE d   1       6.000  -1.959   4.100  0.00  0.00     0.078 C 
ATOM      3  C1  OXE d   1       4.538  -1.682   3.853  0.00  0.00    -0.078 A 
ATOM      4  C2  OXE d   1       3.633  -2.238   4.725  0.00  0.00    -0.078 A 
ATOM      5  C3  OXE d   1       2.275  -1.969   4.574  0.00  0.00     0.003 A 
ATOM      6  C4  OXE d   1       1.812  -1.265   3.456  0.00  0.00    -0.002 A 
ATOM      7  C5  OXE d   1       2.714  -0.724   2.534  0.00  0.00    -0.002 A 
ATOM      8  C6  OXE d   1       4.080  -0.886   2.741  0.00  0.00     0.003 A 
ENDROOT
TORSDOF 0
ENDMDL
