MODEL 1
REMARK minimizedAffinity 18.9803715
REMARK minimizedRMSD -1
REMARK  0 active torsions:
REMARK  status: ('A' for Active; 'I' for Inactive)
ROOT
ATOM      1  C2' OXE d   1       2.580   5.386  -2.419  0.00  0.00     0.078 C 
ATOM      2  C1' OXE d   1       5.206   5.903  -1.570  0.00  0.00     0.078 C 
ATOM      3  C1  OXE d   1       4.952   5.809  -3.054  0.00  0.00    -0.078 A 
ATOM      4  C2  OXE d   1       3.673   5.510  -3.459  0.00  0.00    -0.078 A 
ATOM      5  C3  OXE d   1       3.373   5.465  -4.817  0.00  0.00     0.003 A 
ATOM      6  C4  OXE d   1       4.391   5.571  -5.772  0.00  0.00    -0.002 A 
ATOM      7  C5  OXE d   1       5.708   5.836  -5.380  0.00  0.00    -0.002 A 
ATOM      8  C6  OXE d   1       5.996   6.000  -4.030  0.00  0.00     0.003 A 
ENDROOT
TORSDOF 0
ENDMDL
