MODEL 1
REMARK minimizedAffinity 15.4261961
REMARK minimizedRMSD -1
REMARK  0 active torsions:
REMARK  status: ('A' for Active; 'I' for Inactive)
ROOT
ATOM      1  C2' OXE d   1       3.749  -0.322   1.090  0.00  0.00     0.078 C 
ATOM      2  C1' OXE d   1       1.536   0.829   2.376  0.00  0.00     0.078 C 
ATOM      3  C1  OXE d   1       2.056  -0.482   2.910  0.00  0.00    -0.078 A 
ATOM      4  C2  OXE d   1       3.110  -1.062   2.245  0.00  0.00    -0.078 A 
ATOM      5  C3  OXE d   1       3.664  -2.244   2.728  0.00  0.00     0.003 A 
ATOM      6  C4  OXE d   1       3.060  -2.927   3.791  0.00  0.00    -0.002 A 
ATOM      7  C5  OXE d   1       1.961  -2.374   4.457  0.00  0.00    -0.002 A 
ATOM      8  C6  OXE d   1       1.474  -1.135   4.057  0.00  0.00     0.003 A 
ENDROOT
TORSDOF 0
ENDMDL
