MODEL 1
REMARK minimizedAffinity 3.24127603
REMARK minimizedRMSD -1
REMARK  0 active torsions:
REMARK  status: ('A' for Active; 'I' for Inactive)
ROOT
ATOM      1  C2' OXE d   1       5.204  -2.432   4.097  0.00  0.00     0.078 C 
ATOM      2  C1' OXE d   1       2.970  -4.076   4.532  0.00  0.00     0.078 C 
ATOM      3  C1  OXE d   1       2.734  -2.713   3.930  0.00  0.00    -0.078 A 
ATOM      4  C2  OXE d   1       3.827  -1.897   3.764  0.00  0.00    -0.078 A 
ATOM      5  C3  OXE d   1       3.673  -0.651   3.163  0.00  0.00     0.003 A 
ATOM      6  C4  OXE d   1       2.396  -0.160   2.867  0.00  0.00    -0.002 A 
ATOM      7  C5  OXE d   1       1.265  -0.959   3.065  0.00  0.00    -0.002 A 
ATOM      8  C6  OXE d   1       1.420  -2.251   3.555  0.00  0.00     0.003 A 
ENDROOT
TORSDOF 0
ENDMDL
