MODEL 1
REMARK minimizedAffinity 2.04127765
REMARK minimizedRMSD -1
REMARK  0 active torsions:
REMARK  status: ('A' for Active; 'I' for Inactive)
ROOT
ATOM      1  C2' OXE d   1       1.454  -3.830   5.457  0.00  0.00     0.078 C 
ATOM      2  C1' OXE d   1       2.395  -4.826   3.006  0.00  0.00     0.078 C 
ATOM      3  C1  OXE d   1       2.213  -3.334   3.137  0.00  0.00    -0.078 A 
ATOM      4  C2  OXE d   1       1.708  -2.860   4.323  0.00  0.00    -0.078 A 
ATOM      5  C3  OXE d   1       1.573  -1.488   4.516  0.00  0.00     0.003 A 
ATOM      6  C4  OXE d   1       1.800  -0.598   3.459  0.00  0.00    -0.002 A 
ATOM      7  C5  OXE d   1       2.277  -1.064   2.229  0.00  0.00    -0.002 A 
ATOM      8  C6  OXE d   1       2.529  -2.421   2.066  0.00  0.00     0.003 A 
ENDROOT
TORSDOF 0
ENDMDL
