MODEL 1
REMARK minimizedAffinity 14.4778681
REMARK minimizedRMSD -1
REMARK  0 active torsions:
REMARK  status: ('A' for Active; 'I' for Inactive)
ROOT
ATOM      1  C2' OXE d   1       2.545   2.311   1.828  0.00  0.00     0.078 C 
ATOM      2  C1' OXE d   1       2.829  -0.480   1.932  0.00  0.00     0.078 C 
ATOM      3  C1  OXE d   1       1.440   0.080   1.753  0.00  0.00    -0.078 A 
ATOM      4  C2  OXE d   1       1.305   1.448   1.750  0.00  0.00    -0.078 A 
ATOM      5  C3  OXE d   1       0.053   2.016   1.534  0.00  0.00     0.003 A 
ATOM      6  C4  OXE d   1      -1.091   1.211   1.473  0.00  0.00    -0.002 A 
ATOM      7  C5  OXE d   1      -0.980  -0.183   1.513  0.00  0.00    -0.002 A 
ATOM      8  C6  OXE d   1       0.279  -0.764   1.610  0.00  0.00     0.003 A 
ENDROOT
TORSDOF 0
ENDMDL
