MODEL 1
REMARK minimizedAffinity 1.81407797
REMARK minimizedRMSD -1
REMARK  0 active torsions:
REMARK  status: ('A' for Active; 'I' for Inactive)
ROOT
ATOM      1  C2' OXE d   1       1.289  -4.739   4.874  0.00  0.00     0.078 C 
ATOM      2  C1' OXE d   1       2.565  -5.232   2.423  0.00  0.00     0.078 C 
ATOM      3  C1  OXE d   1       2.370  -3.795   2.838  0.00  0.00    -0.078 A 
ATOM      4  C2  OXE d   1       1.703  -3.563   4.016  0.00  0.00    -0.078 A 
ATOM      5  C3  OXE d   1       1.544  -2.257   4.473  0.00  0.00     0.003 A 
ATOM      6  C4  OXE d   1       1.920  -1.175   3.669  0.00  0.00    -0.002 A 
ATOM      7  C5  OXE d   1       2.565  -1.389   2.446  0.00  0.00    -0.002 A 
ATOM      8  C6  OXE d   1       2.835  -2.690   2.037  0.00  0.00     0.003 A 
ENDROOT
TORSDOF 0
ENDMDL
