MODEL 1
REMARK minimizedAffinity 10.3695593
REMARK minimizedRMSD -1
REMARK  0 active torsions:
REMARK  status: ('A' for Active; 'I' for Inactive)
ROOT
ATOM      1  C2' OXE d   1       1.778   0.063   1.556  0.00  0.00     0.078 C 
ATOM      2  C1' OXE d   1       1.827  -2.028  -0.316  0.00  0.00     0.078 C 
ATOM      3  C1  OXE d   1       2.206  -2.350   1.108  0.00  0.00    -0.078 A 
ATOM      4  C2  OXE d   1       2.224  -1.311   2.007  0.00  0.00    -0.078 A 
ATOM      5  C3  OXE d   1       2.513  -1.563   3.345  0.00  0.00     0.003 A 
ATOM      6  C4  OXE d   1       2.934  -2.834   3.753  0.00  0.00    -0.002 A 
ATOM      7  C5  OXE d   1       2.961  -3.898   2.844  0.00  0.00    -0.002 A 
ATOM      8  C6  OXE d   1       2.560  -3.682   1.531  0.00  0.00     0.003 A 
ENDROOT
TORSDOF 0
ENDMDL
