MODEL 1
REMARK minimizedAffinity 5.25159788
REMARK minimizedRMSD -1
REMARK  1 active torsions:
REMARK  status: ('A' for Active; 'I' for Inactive)
REMARK    1  A    between atoms: C3_4  and  O_7 
ROOT
ATOM      1  C   UNL d   1      -0.013   0.411   2.518  0.00  0.00    -0.033 A 
ATOM      2  C1  UNL d   1      -0.769   1.568   2.711  0.00  0.00     0.039 A 
ATOM      3  C2  UNL d   1      -0.614   2.319   3.879  0.00  0.00    -0.080 A 
ATOM      4  C3  UNL d   1       0.300   1.902   4.843  0.00  0.00     0.150 A 
ATOM      5  C4  UNL d   1       1.059   0.751   4.655  0.00  0.00    -0.007 A 
ATOM      6  C5  UNL d   1       0.902   0.003   3.489  0.00  0.00     0.039 A 
ENDROOT
BRANCH   4   7
ATOM      7  O   UNL d   1       0.483   2.599   6.000  0.00  0.00    -0.526 OA
ATOM      8  H5  UNL d   1      -0.129   3.354   6.005  0.00  0.00     0.418 HD
ENDBRANCH   4   7
TORSDOF 1
ENDMDL
