MODEL 1
REMARK minimizedAffinity 14.4353399
REMARK minimizedRMSD -1
REMARK  1 active torsions:
REMARK  status: ('A' for Active; 'I' for Inactive)
REMARK    1  A    between atoms: C3_4  and  O_7 
ROOT
ATOM      1  C   UNL d   1      -0.907  -2.421  -1.909  0.00  0.00    -0.033 A 
ATOM      2  C1  UNL d   1      -1.395  -1.148  -2.209  0.00  0.00     0.039 A 
ATOM      3  C2  UNL d   1      -0.771  -0.372  -3.187  0.00  0.00    -0.080 A 
ATOM      4  C3  UNL d   1       0.338  -0.880  -3.858  0.00  0.00     0.150 A 
ATOM      5  C4  UNL d   1       0.827  -2.150  -3.567  0.00  0.00    -0.007 A 
ATOM      6  C5  UNL d   1       0.203  -2.923  -2.589  0.00  0.00     0.039 A 
ENDROOT
BRANCH   4   7
ATOM      7  O   UNL d   1       0.983  -0.158  -4.818  0.00  0.00    -0.526 OA
ATOM      8  H5  UNL d   1       0.552   0.710  -4.891  0.00  0.00     0.418 HD
ENDBRANCH   4   7
TORSDOF 1
ENDMDL
