MODEL 1
REMARK minimizedAffinity 13.5284176
REMARK minimizedRMSD -1
REMARK  1 active torsions:
REMARK  status: ('A' for Active; 'I' for Inactive)
REMARK    1  A    between atoms: C3_4  and  O_7 
ROOT
ATOM      1  C   UNL d   1       3.402   0.528   1.901  0.00  0.00    -0.033 A 
ATOM      2  C1  UNL d   1       2.560   0.592   3.013  0.00  0.00     0.039 A 
ATOM      3  C2  UNL d   1       3.102   0.711   4.295  0.00  0.00    -0.080 A 
ATOM      4  C3  UNL d   1       4.484   0.766   4.450  0.00  0.00     0.150 A 
ATOM      5  C4  UNL d   1       5.328   0.707   3.346  0.00  0.00    -0.007 A 
ATOM      6  C5  UNL d   1       4.786   0.587   2.067  0.00  0.00     0.039 A 
ENDROOT
BRANCH   4   7
ATOM      7  O   UNL d   1       5.059   0.878   5.681  0.00  0.00    -0.526 OA
ATOM      8  H5  UNL d   1       4.355   0.879   6.350  0.00  0.00     0.418 HD
ENDBRANCH   4   7
TORSDOF 1
ENDMDL
