MODEL 1
REMARK minimizedAffinity 17.7696953
REMARK minimizedRMSD -1
REMARK  1 active torsions:
REMARK  status: ('A' for Active; 'I' for Inactive)
REMARK    1  A    between atoms: C3_4  and  O_7 
ROOT
ATOM      1  C   UNL d   1       0.317   0.629   2.299  0.00  0.00    -0.033 A 
ATOM      2  C1  UNL d   1      -0.631   1.654   2.290  0.00  0.00     0.039 A 
ATOM      3  C2  UNL d   1      -0.775   2.484   3.403  0.00  0.00    -0.080 A 
ATOM      4  C3  UNL d   1       0.035   2.280   4.517  0.00  0.00     0.150 A 
ATOM      5  C4  UNL d   1       0.984   1.263   4.532  0.00  0.00    -0.007 A 
ATOM      6  C5  UNL d   1       1.125   0.434   3.420  0.00  0.00     0.039 A 
ENDROOT
BRANCH   4   7
ATOM      7  O   UNL d   1      -0.072   3.061   5.629  0.00  0.00    -0.526 OA
ATOM      8  H5  UNL d   1      -0.788   3.703   5.487  0.00  0.00     0.418 HD
ENDBRANCH   4   7
TORSDOF 1
ENDMDL
