MODEL 1
REMARK minimizedAffinity 2.20842528
REMARK minimizedRMSD -1
REMARK  1 active torsions:
REMARK  status: ('A' for Active; 'I' for Inactive)
REMARK    1  A    between atoms: C3_4  and  O_7 
ROOT
ATOM      1  C   UNL d   1       4.871   3.714   3.054  0.00  0.00    -0.033 A 
ATOM      2  C1  UNL d   1       4.985   5.103   3.142  0.00  0.00     0.039 A 
ATOM      3  C2  UNL d   1       4.857   5.889   1.995  0.00  0.00    -0.080 A 
ATOM      4  C3  UNL d   1       4.614   5.275   0.769  0.00  0.00     0.150 A 
ATOM      5  C4  UNL d   1       4.496   3.892   0.676  0.00  0.00    -0.007 A 
ATOM      6  C5  UNL d   1       4.625   3.109   1.822  0.00  0.00     0.039 A 
ENDROOT
BRANCH   4   7
ATOM      7  O   UNL d   1       4.487   6.000  -0.378  0.00  0.00    -0.526 OA
ATOM      8  H5  UNL d   1       4.621   6.939  -0.166  0.00  0.00     0.418 HD
ENDBRANCH   4   7
TORSDOF 1
ENDMDL
