MODEL 1
REMARK minimizedAffinity 3.12092161
REMARK minimizedRMSD -1
REMARK  1 active torsions:
REMARK  status: ('A' for Active; 'I' for Inactive)
REMARK    1  A    between atoms: C3_4  and  O_7 
ROOT
ATOM      1  C   UNL d   1       0.371   0.791   3.052  0.00  0.00    -0.033 A 
ATOM      2  C1  UNL d   1      -0.181  -0.220   2.263  0.00  0.00     0.039 A 
ATOM      3  C2  UNL d   1      -0.040  -1.557   2.640  0.00  0.00    -0.080 A 
ATOM      4  C3  UNL d   1       0.651  -1.869   3.808  0.00  0.00     0.150 A 
ATOM      5  C4  UNL d   1       1.200  -0.866   4.601  0.00  0.00    -0.007 A 
ATOM      6  C5  UNL d   1       1.060   0.468   4.222  0.00  0.00     0.039 A 
ENDROOT
BRANCH   4   7
ATOM      7  O   UNL d   1       0.818  -3.159   4.214  0.00  0.00    -0.526 OA
ATOM      8  H5  UNL d   1       0.412  -3.745   3.554  0.00  0.00     0.418 HD
ENDBRANCH   4   7
TORSDOF 1
ENDMDL
