MODEL 1
REMARK minimizedAffinity 14.1506701
REMARK minimizedRMSD -1
REMARK  1 active torsions:
REMARK  status: ('A' for Active; 'I' for Inactive)
REMARK    1  A    between atoms: C3_4  and  O_7 
ROOT
ATOM      1  C   UNL d   1       1.364   0.498   2.935  0.00  0.00    -0.033 A 
ATOM      2  C1  UNL d   1       0.493   1.230   2.125  0.00  0.00     0.039 A 
ATOM      3  C2  UNL d   1      -0.263   0.583   1.146  0.00  0.00    -0.080 A 
ATOM      4  C3  UNL d   1      -0.140  -0.795   0.987  0.00  0.00     0.150 A 
ATOM      5  C4  UNL d   1       0.722  -1.531   1.793  0.00  0.00    -0.007 A 
ATOM      6  C5  UNL d   1       1.477  -0.883   2.769  0.00  0.00     0.039 A 
ENDROOT
BRANCH   4   7
ATOM      7  O   UNL d   1      -0.854  -1.470   0.042  0.00  0.00    -0.526 OA
ATOM      8  H5  UNL d   1      -1.386  -0.828  -0.458  0.00  0.00     0.418 HD
ENDBRANCH   4   7
TORSDOF 1
ENDMDL
