MODEL 1
REMARK minimizedAffinity 0.17650944
REMARK minimizedRMSD -1
REMARK  1 active torsions:
REMARK  status: ('A' for Active; 'I' for Inactive)
REMARK    1  A    between atoms: C3_4  and  O_7 
ROOT
ATOM      1  C   UNL d   1       1.440   0.483   2.997  0.00  0.00    -0.033 A 
ATOM      2  C1  UNL d   1       2.325   0.811   4.026  0.00  0.00     0.039 A 
ATOM      3  C2  UNL d   1       2.583  -0.108   5.046  0.00  0.00    -0.080 A 
ATOM      4  C3  UNL d   1       1.952  -1.348   5.024  0.00  0.00     0.150 A 
ATOM      5  C4  UNL d   1       1.073  -1.683   4.000  0.00  0.00    -0.007 A 
ATOM      6  C5  UNL d   1       0.815  -0.764   2.983  0.00  0.00     0.039 A 
ENDROOT
BRANCH   4   7
ATOM      7  O   UNL d   1       2.169  -2.276   6.000  0.00  0.00    -0.526 OA
ATOM      8  H5  UNL d   1       2.777  -1.895   6.656  0.00  0.00     0.418 HD
ENDBRANCH   4   7
TORSDOF 1
ENDMDL
