MODEL 1
REMARK minimizedAffinity -4.57681179
REMARK minimizedRMSD -1
REMARK  1 active torsions:
REMARK  status: ('A' for Active; 'I' for Inactive)
REMARK    1  A    between atoms: C1_2  and  C2_3 
ROOT
ATOM      1  C2  UNL d   1      -0.791   0.325  -0.125  0.00  0.00    -0.077 A 
ATOM      2  C3  UNL d   1      -0.800  -1.037  -0.456  0.00  0.00     0.002 A 
ATOM      3  C4  UNL d   1       0.363  -1.801  -0.336  0.00  0.00     0.002 A 
ATOM      4  C5  UNL d   1       1.541  -1.212   0.118  0.00  0.00    -0.004 A 
ATOM      5  C6  UNL d   1       1.561   0.143   0.448  0.00  0.00     0.002 A 
ATOM      6  C7  UNL d   1       0.400   0.907   0.327  0.00  0.00     0.002 A 
ENDROOT
BRANCH   1   7
ATOM      7  C1  UNL d   1      -2.056   1.139  -0.207  0.00  0.00     0.055 C 
ATOM      8  C   UNL d   1      -2.964   0.871   0.985  0.00  0.00     0.019 C 
ENDBRANCH   1   7
TORSDOF 1
ENDMDL
