MODEL 1
REMARK minimizedAffinity -3.16719389
REMARK minimizedRMSD -1
REMARK  1 active torsions:
REMARK  status: ('A' for Active; 'I' for Inactive)
REMARK    1  A    between atoms: C1_2  and  C2_3 
ROOT
ATOM      1  C2  UNL d   1      -0.819   0.047  -0.261  0.00  0.00    -0.077 A 
ATOM      2  C3  UNL d   1      -0.712  -1.298  -0.643  0.00  0.00     0.002 A 
ATOM      3  C4  UNL d   1       0.464  -2.010  -0.399  0.00  0.00     0.002 A 
ATOM      4  C5  UNL d   1       1.539  -1.388   0.231  0.00  0.00    -0.004 A 
ATOM      5  C6  UNL d   1       1.443  -0.050   0.613  0.00  0.00     0.002 A 
ATOM      6  C7  UNL d   1       0.269   0.663   0.369  0.00  0.00     0.002 A 
ENDROOT
BRANCH   1   7
ATOM      7  C1  UNL d   1      -2.104   0.802  -0.479  0.00  0.00     0.055 C 
ATOM      8  C   UNL d   1      -2.959   0.815   0.780  0.00  0.00     0.019 C 
ENDBRANCH   1   7
TORSDOF 1
ENDMDL
