MODEL 1
REMARK minimizedAffinity -4.80939722
REMARK minimizedRMSD -1
REMARK  1 active torsions:
REMARK  status: ('A' for Active; 'I' for Inactive)
REMARK    1  A    between atoms: C1_2  and  C2_3 
ROOT
ATOM      1  C2  UNL d   1       1.023  -0.153  -0.374  0.00  0.00    -0.077 A 
ATOM      2  C3  UNL d   1       1.270   1.218  -0.216  0.00  0.00     0.002 A 
ATOM      3  C4  UNL d   1       2.572   1.684  -0.021  0.00  0.00     0.002 A 
ATOM      4  C5  UNL d   1       3.637   0.787   0.014  0.00  0.00    -0.004 A 
ATOM      5  C6  UNL d   1       3.402  -0.579  -0.139  0.00  0.00     0.002 A 
ATOM      6  C7  UNL d   1       2.101  -1.047  -0.333  0.00  0.00     0.002 A 
ENDROOT
BRANCH   1   7
ATOM      7  C1  UNL d   1      -0.374  -0.652  -0.633  0.00  0.00     0.055 C 
ATOM      8  C   UNL d   1      -1.391   0.475  -0.538  0.00  0.00     0.019 C 
ENDBRANCH   1   7
TORSDOF 1
ENDMDL
