MODEL 1
REMARK minimizedAffinity -4.15191793
REMARK minimizedRMSD -1
REMARK  1 active torsions:
REMARK  status: ('A' for Active; 'I' for Inactive)
REMARK    1  A    between atoms: C1_2  and  C2_3 
ROOT
ATOM      1  C2  UNL d   1       0.106   0.089  -0.188  0.00  0.00    -0.077 A 
ATOM      2  C3  UNL d   1       0.949   0.793   0.683  0.00  0.00     0.002 A 
ATOM      3  C4  UNL d   1       2.130   0.211   1.147  0.00  0.00     0.002 A 
ATOM      4  C5  UNL d   1       2.480  -1.076   0.742  0.00  0.00    -0.004 A 
ATOM      5  C6  UNL d   1       1.647  -1.785  -0.122  0.00  0.00     0.002 A 
ATOM      6  C7  UNL d   1       0.466  -1.204  -0.586  0.00  0.00     0.002 A 
ENDROOT
BRANCH   1   7
ATOM      7  C1  UNL d   1      -1.144   0.735  -0.728  0.00  0.00     0.055 C 
ATOM      8  C   UNL d   1      -2.276   0.683   0.287  0.00  0.00     0.019 C 
ENDBRANCH   1   7
TORSDOF 1
ENDMDL
