MODEL 1
REMARK minimizedAffinity -4.65864611
REMARK minimizedRMSD -1
REMARK  1 active torsions:
REMARK  status: ('A' for Active; 'I' for Inactive)
REMARK    1  A    between atoms: C1_2  and  C2_3 
ROOT
ATOM      1  C2  UNL d   1       1.179  -0.957   0.136  0.00  0.00    -0.077 A 
ATOM      2  C3  UNL d   1       0.738   0.358   0.337  0.00  0.00     0.002 A 
ATOM      3  C4  UNL d   1       1.640   1.357   0.706  0.00  0.00     0.002 A 
ATOM      4  C5  UNL d   1       2.989   1.053   0.874  0.00  0.00    -0.004 A 
ATOM      5  C6  UNL d   1       3.438  -0.253   0.679  0.00  0.00     0.002 A 
ATOM      6  C7  UNL d   1       2.537  -1.253   0.311  0.00  0.00     0.002 A 
ENDROOT
BRANCH   1   7
ATOM      7  C1  UNL d   1       0.216  -2.026  -0.310  0.00  0.00     0.055 C 
ATOM      8  C   UNL d   1      -0.884  -1.449  -1.188  0.00  0.00     0.019 C 
ENDBRANCH   1   7
TORSDOF 1
ENDMDL
