MODEL 1
REMARK minimizedAffinity -3.92973733
REMARK minimizedRMSD -1
REMARK  1 active torsions:
REMARK  status: ('A' for Active; 'I' for Inactive)
REMARK    1  A    between atoms: C1_2  and  C2_3 
ROOT
ATOM      1  C2  UNL d   1      -0.099   0.233  -0.026  0.00  0.00    -0.077 A 
ATOM      2  C3  UNL d   1       1.252   0.477   0.260  0.00  0.00     0.002 A 
ATOM      3  C4  UNL d   1       2.185  -0.560   0.202  0.00  0.00     0.002 A 
ATOM      4  C5  UNL d   1       1.778  -1.846  -0.147  0.00  0.00    -0.004 A 
ATOM      5  C6  UNL d   1       0.437  -2.099  -0.431  0.00  0.00     0.002 A 
ATOM      6  C7  UNL d   1      -0.497  -1.064  -0.372  0.00  0.00     0.002 A 
ENDROOT
BRANCH   1   7
ATOM      7  C1  UNL d   1      -1.098   1.360  -0.012  0.00  0.00     0.055 C 
ATOM      8  C   UNL d   1      -2.472   0.877   0.429  0.00  0.00     0.019 C 
ENDBRANCH   1   7
TORSDOF 1
ENDMDL
