MODEL 1
REMARK minimizedAffinity 7.56243229
REMARK minimizedRMSD -1
REMARK  0 active torsions:
REMARK  status: ('A' for Active; 'I' for Inactive)
ROOT
ATOM      1  C1  BNZ d   1      -1.902  -5.092  -2.913  0.00  0.00     0.000 A 
ATOM      2  C2  BNZ d   1      -2.057  -5.999  -3.926  0.00  0.00     0.000 A 
ATOM      3  C3  BNZ d   1      -2.089  -5.593  -5.231  0.00  0.00     0.000 A 
ATOM      4  C4  BNZ d   1      -2.007  -4.278  -5.518  0.00  0.00     0.000 A 
ATOM      5  C5  BNZ d   1      -1.860  -3.349  -4.507  0.00  0.00     0.000 A 
ATOM      6  C6  BNZ d   1      -1.788  -3.766  -3.197  0.00  0.00     0.000 A 
ENDROOT
TORSDOF 0
ENDMDL
