MODEL 1
REMARK minimizedAffinity 8.56923676
REMARK minimizedRMSD -1
REMARK  0 active torsions:
REMARK  status: ('A' for Active; 'I' for Inactive)
ROOT
ATOM      1  C1  BNZ d   1      -0.376  -3.032  -5.632  0.00  0.00     0.000 A 
ATOM      2  C2  BNZ d   1      -1.110  -4.127  -6.000  0.00  0.00     0.000 A 
ATOM      3  C3  BNZ d   1      -2.056  -4.649  -5.163  0.00  0.00     0.000 A 
ATOM      4  C4  BNZ d   1      -2.238  -4.101  -3.944  0.00  0.00     0.000 A 
ATOM      5  C5  BNZ d   1      -1.499  -3.002  -3.555  0.00  0.00     0.000 A 
ATOM      6  C6  BNZ d   1      -0.575  -2.455  -4.416  0.00  0.00     0.000 A 
ENDROOT
TORSDOF 0
ENDMDL
