MODEL 1
REMARK minimizedAffinity 6.59190226
REMARK minimizedRMSD -1
REMARK  0 active torsions:
REMARK  status: ('A' for Active; 'I' for Inactive)
ROOT
ATOM      1  C1  BNZ d   1       0.295  -0.367  -5.240  0.00  0.00     0.000 A 
ATOM      2  C2  BNZ d   1       1.386  -0.752  -4.507  0.00  0.00     0.000 A 
ATOM      3  C3  BNZ d   1       1.826  -2.045  -4.534  0.00  0.00     0.000 A 
ATOM      4  C4  BNZ d   1       1.153  -2.960  -5.261  0.00  0.00     0.000 A 
ATOM      5  C5  BNZ d   1       0.046  -2.589  -5.999  0.00  0.00     0.000 A 
ATOM      6  C6  BNZ d   1      -0.371  -1.278  -6.000  0.00  0.00     0.000 A 
ENDROOT
TORSDOF 0
ENDMDL
