MODEL 1
REMARK minimizedAffinity 12.0694437
REMARK minimizedRMSD -1
REMARK  0 active torsions:
REMARK  status: ('A' for Active; 'I' for Inactive)
ROOT
ATOM      1  C1  BNZ d   1      -0.904  -1.348  -5.333  0.00  0.00     0.000 A 
ATOM      2  C2  BNZ d   1       0.005  -0.324  -5.361  0.00  0.00     0.000 A 
ATOM      3  C3  BNZ d   1       0.699   0.026  -4.237  0.00  0.00     0.000 A 
ATOM      4  C4  BNZ d   1       0.456  -0.621  -3.079  0.00  0.00     0.000 A 
ATOM      5  C5  BNZ d   1      -0.464  -1.649  -3.032  0.00  0.00     0.000 A 
ATOM      6  C6  BNZ d   1      -1.133  -2.025  -4.175  0.00  0.00     0.000 A 
ENDROOT
TORSDOF 0
ENDMDL
