MODEL 1
REMARK minimizedAffinity -0.430707276
REMARK minimizedRMSD -1
REMARK  0 active torsions:
REMARK  status: ('A' for Active; 'I' for Inactive)
ROOT
ATOM      1  C1  BNZ d   1       1.245  -2.115   3.427  0.00  0.00     0.000 A 
ATOM      2  C2  BNZ d   1       1.772  -3.039   4.290  0.00  0.00     0.000 A 
ATOM      3  C3  BNZ d   1       2.837  -2.724   5.088  0.00  0.00     0.000 A 
ATOM      4  C4  BNZ d   1       3.397  -1.501   4.993  0.00  0.00     0.000 A 
ATOM      5  C5  BNZ d   1       2.883  -0.562   4.121  0.00  0.00     0.000 A 
ATOM      6  C6  BNZ d   1       1.787  -0.869   3.348  0.00  0.00     0.000 A 
ENDROOT
TORSDOF 0
ENDMDL
