MODEL 1
REMARK minimizedAffinity 10.1104813
REMARK minimizedRMSD -1
REMARK  0 active torsions:
REMARK  status: ('A' for Active; 'I' for Inactive)
ROOT
ATOM      1  C1  BNZ d   1      -0.720  -0.865  -4.400  0.00  0.00     0.000 A 
ATOM      2  C2  BNZ d   1       0.398  -0.263  -3.887  0.00  0.00     0.000 A 
ATOM      3  C3  BNZ d   1       1.635  -0.817  -4.065  0.00  0.00     0.000 A 
ATOM      4  C4  BNZ d   1       1.748  -1.990  -4.720  0.00  0.00     0.000 A 
ATOM      5  C5  BNZ d   1       0.629  -2.614  -5.235  0.00  0.00     0.000 A 
ATOM      6  C6  BNZ d   1      -0.610  -2.034  -5.087  0.00  0.00     0.000 A 
ENDROOT
TORSDOF 0
ENDMDL
