MODEL 1
REMARK minimizedAffinity 3.58851647
REMARK minimizedRMSD -1
REMARK  0 active torsions:
REMARK  status: ('A' for Active; 'I' for Inactive)
ROOT
ATOM      1  C1  BNZ d   1      -1.560  -2.592  -4.065  0.00  0.00     0.000 A 
ATOM      2  C2  BNZ d   1      -1.001  -1.447  -3.562  0.00  0.00     0.000 A 
ATOM      3  C3  BNZ d   1      -0.069  -0.750  -4.279  0.00  0.00     0.000 A 
ATOM      4  C4  BNZ d   1       0.333  -1.220  -5.478  0.00  0.00     0.000 A 
ATOM      5  C5  BNZ d   1      -0.214  -2.378  -5.994  0.00  0.00     0.000 A 
ATOM      6  C6  BNZ d   1      -1.181  -3.055  -5.287  0.00  0.00     0.000 A 
ENDROOT
TORSDOF 0
ENDMDL
