MODEL 1
REMARK minimizedAffinity 6.29087591
REMARK minimizedRMSD -1
REMARK  0 active torsions:
REMARK  status: ('A' for Active; 'I' for Inactive)
ROOT
ATOM      1  C1  BNZ d   1      -0.947   0.200   1.917  0.00  0.00     0.000 A 
ATOM      2  C2  BNZ d   1      -0.285   1.176   2.614  0.00  0.00     0.000 A 
ATOM      3  C3  BNZ d   1       0.936   0.929   3.177  0.00  0.00     0.000 A 
ATOM      4  C4  BNZ d   1       1.475  -0.303   3.076  0.00  0.00     0.000 A 
ATOM      5  C5  BNZ d   1       0.816  -1.300   2.385  0.00  0.00     0.000 A 
ATOM      6  C6  BNZ d   1      -0.395  -1.037   1.787  0.00  0.00     0.000 A 
ENDROOT
TORSDOF 0
ENDMDL
