MODEL 1
REMARK minimizedAffinity 1.82221055
REMARK minimizedRMSD -1
REMARK  0 active torsions:
REMARK  status: ('A' for Active; 'I' for Inactive)
ROOT
ATOM      1  C   UNL d   1       0.941  -0.646  -1.115  0.00  0.00     0.078 C 
ATOM      2  C1  UNL d   1       1.335  -1.097   0.259  0.00  0.00    -0.077 A 
ATOM      3  C2  UNL d   1       0.384  -1.213   1.281  0.00  0.00    -0.001 A 
ATOM      4  C3  UNL d   1       0.767  -1.625   2.558  0.00  0.00     0.003 A 
ATOM      5  C4  UNL d   1       2.101  -1.924   2.826  0.00  0.00    -0.005 A 
ATOM      6  C5  UNL d   1       3.055  -1.810   1.817  0.00  0.00     0.003 A 
ATOM      7  C6  UNL d   1       2.674  -1.398   0.539  0.00  0.00    -0.001 A 
ENDROOT
TORSDOF 0
ENDMDL
