MODEL 1
REMARK minimizedAffinity -2.80581212
REMARK minimizedRMSD -1
REMARK  0 active torsions:
REMARK  status: ('A' for Active; 'I' for Inactive)
ROOT
ATOM      1  C   UNL d   1       1.741  -3.114   1.386  0.00  0.00     0.078 C 
ATOM      2  C1  UNL d   1       0.669  -2.079   1.218  0.00  0.00    -0.077 A 
ATOM      3  C2  UNL d   1      -0.112  -1.666   2.304  0.00  0.00    -0.001 A 
ATOM      4  C3  UNL d   1      -1.113  -0.708   2.130  0.00  0.00     0.003 A 
ATOM      5  C4  UNL d   1      -1.342  -0.157   0.872  0.00  0.00    -0.005 A 
ATOM      6  C5  UNL d   1      -0.572  -0.563  -0.216  0.00  0.00     0.003 A 
ATOM      7  C6  UNL d   1       0.429  -1.521  -0.044  0.00  0.00    -0.001 A 
ENDROOT
TORSDOF 0
ENDMDL
