MODEL 1
REMARK minimizedAffinity -3.50031781
REMARK minimizedRMSD -1
REMARK  0 active torsions:
REMARK  status: ('A' for Active; 'I' for Inactive)
ROOT
ATOM      1  C   UNL d   1       4.450  -2.631   4.881  0.00  0.00     0.078 C 
ATOM      2  C1  UNL d   1       3.849  -2.528   3.511  0.00  0.00    -0.077 A 
ATOM      3  C2  UNL d   1       4.417  -3.200   2.422  0.00  0.00    -0.001 A 
ATOM      4  C3  UNL d   1       3.852  -3.088   1.150  0.00  0.00     0.003 A 
ATOM      5  C4  UNL d   1       2.717  -2.304   0.956  0.00  0.00    -0.005 A 
ATOM      6  C5  UNL d   1       2.145  -1.630   2.033  0.00  0.00     0.003 A 
ATOM      7  C6  UNL d   1       2.709  -1.741   3.306  0.00  0.00    -0.001 A 
ENDROOT
TORSDOF 0
ENDMDL
