MODEL 1
REMARK minimizedAffinity 6.64802408
REMARK minimizedRMSD -1
REMARK  0 active torsions:
REMARK  status: ('A' for Active; 'I' for Inactive)
ROOT
ATOM      1  C   UNL d   1      -2.324   1.955  -3.375  0.00  0.00     0.078 C 
ATOM      2  C1  UNL d   1      -3.601   1.709  -4.121  0.00  0.00    -0.077 A 
ATOM      3  C2  UNL d   1      -3.611   0.968  -5.309  0.00  0.00    -0.001 A 
ATOM      4  C3  UNL d   1      -4.806   0.755  -5.999  0.00  0.00     0.003 A 
ATOM      5  C4  UNL d   1      -5.999   1.281  -5.510  0.00  0.00    -0.005 A 
ATOM      6  C5  UNL d   1      -5.999   2.022  -4.330  0.00  0.00     0.003 A 
ATOM      7  C6  UNL d   1      -4.806   2.236  -3.638  0.00  0.00    -0.001 A 
ENDROOT
TORSDOF 0
ENDMDL
