MODEL 1
REMARK minimizedAffinity -4.46812391
REMARK minimizedRMSD -1
REMARK  0 active torsions:
REMARK  status: ('A' for Active; 'I' for Inactive)
ROOT
ATOM      1  C   UNL d   1       0.674  -1.055   2.612  0.00  0.00     0.078 C 
ATOM      2  C1  UNL d   1       1.679  -2.166   2.547  0.00  0.00    -0.077 A 
ATOM      3  C2  UNL d   1       1.577  -3.175   1.581  0.00  0.00    -0.001 A 
ATOM      4  C3  UNL d   1       2.514  -4.208   1.538  0.00  0.00     0.003 A 
ATOM      5  C4  UNL d   1       3.559  -4.244   2.459  0.00  0.00    -0.005 A 
ATOM      6  C5  UNL d   1       3.667  -3.246   3.426  0.00  0.00     0.003 A 
ATOM      7  C6  UNL d   1       2.731  -2.212   3.470  0.00  0.00    -0.001 A 
ENDROOT
TORSDOF 0
ENDMDL
