MODEL 1
REMARK minimizedAffinity 8.27578926
REMARK minimizedRMSD -1
REMARK  0 active torsions:
REMARK  status: ('A' for Active; 'I' for Inactive)
ROOT
ATOM      1  C   UNL d   1       3.771   2.192   1.384  0.00  0.00     0.078 C 
ATOM      2  C1  UNL d   1       2.523   2.957   1.707  0.00  0.00    -0.077 A 
ATOM      3  C2  UNL d   1       1.575   3.242   0.717  0.00  0.00    -0.001 A 
ATOM      4  C3  UNL d   1       0.422   3.963   1.029  0.00  0.00     0.003 A 
ATOM      5  C4  UNL d   1       0.207   4.408   2.332  0.00  0.00    -0.005 A 
ATOM      6  C5  UNL d   1       1.145   4.132   3.324  0.00  0.00     0.003 A 
ATOM      7  C6  UNL d   1       2.299   3.410   3.013  0.00  0.00    -0.001 A 
ENDROOT
TORSDOF 0
ENDMDL
