MODEL 1
REMARK minimizedAffinity -4.67606401
REMARK minimizedRMSD -1
REMARK  0 active torsions:
REMARK  status: ('A' for Active; 'I' for Inactive)
ROOT
ATOM      1  C   UNL d   1       3.970   4.686  -6.000  0.00  0.00     0.078 C 
ATOM      2  C1  UNL d   1       4.327   3.269  -5.664  0.00  0.00    -0.077 A 
ATOM      3  C2  UNL d   1       3.460   2.214  -5.973  0.00  0.00    -0.001 A 
ATOM      4  C3  UNL d   1       3.802   0.901  -5.645  0.00  0.00     0.003 A 
ATOM      5  C4  UNL d   1       5.010   0.631  -5.005  0.00  0.00    -0.005 A 
ATOM      6  C5  UNL d   1       5.878   1.674  -4.692  0.00  0.00     0.003 A 
ATOM      7  C6  UNL d   1       5.538   2.988  -5.019  0.00  0.00    -0.001 A 
ENDROOT
TORSDOF 0
ENDMDL
