MODEL 1
REMARK minimizedAffinity -2.16822147
REMARK minimizedRMSD -1
REMARK  1 active torsions:
REMARK  status: ('A' for Active; 'I' for Inactive)
REMARK    1  A    between atoms: C1_2  and  C2_3 
ROOT
ATOM      1  C2  UNL d   1      -1.386   0.772   0.145  0.00  0.00    -0.073 A 
ATOM      2  C3  UNL d   1      -0.979   2.060  -0.222  0.00  0.00    -0.002 A 
ATOM      3  C4  UNL d   1       0.287   2.527   0.133  0.00  0.00     0.004 A 
ATOM      4  C5  UNL d   1       1.160   1.711   0.852  0.00  0.00    -0.004 A 
ATOM      5  C6  UNL d   1       0.776   0.417   1.218  0.00  0.00    -0.075 A 
ATOM      6  C7  UNL d   1       1.703  -0.472   1.993  0.00  0.00     0.076 C 
ATOM      7  C8  UNL d   1      -0.497  -0.044   0.860  0.00  0.00     0.001 A 
ENDROOT
BRANCH   1   8
ATOM      8  C1  UNL d   1      -2.749   0.261  -0.242  0.00  0.00     0.053 C 
ATOM      9  C   UNL d   1      -3.849   0.857   0.622  0.00  0.00     0.018 C 
ENDBRANCH   1   8
TORSDOF 1
ENDMDL
