MODEL 1
REMARK minimizedAffinity -2.86865664
REMARK minimizedRMSD -1
REMARK  1 active torsions:
REMARK  status: ('A' for Active; 'I' for Inactive)
REMARK    1  A    between atoms: C1_2  and  C2_3 
ROOT
ATOM      1  C2  UNL d   1       2.184  -0.010   0.907  0.00  0.00    -0.073 A 
ATOM      2  C3  UNL d   1       2.434   1.364   0.994  0.00  0.00    -0.002 A 
ATOM      3  C4  UNL d   1       1.461   2.284   0.601  0.00  0.00     0.004 A 
ATOM      4  C5  UNL d   1       0.228   1.841   0.124  0.00  0.00    -0.004 A 
ATOM      5  C6  UNL d   1      -0.046   0.472   0.041  0.00  0.00    -0.075 A 
ATOM      6  C7  UNL d   1      -1.367  -0.021  -0.472  0.00  0.00     0.076 C 
ATOM      7  C8  UNL d   1       0.937  -0.446   0.435  0.00  0.00     0.001 A 
ENDROOT
BRANCH   1   8
ATOM      8  C1  UNL d   1       3.228  -1.008   1.336  0.00  0.00     0.053 C 
ATOM      9  C   UNL d   1       3.910  -1.666   0.147  0.00  0.00     0.018 C 
ENDBRANCH   1   8
TORSDOF 1
ENDMDL
