MODEL 1
REMARK minimizedAffinity -3.55541897
REMARK minimizedRMSD -1
REMARK  1 active torsions:
REMARK  status: ('A' for Active; 'I' for Inactive)
REMARK    1  A    between atoms: C1_2  and  C2_3 
ROOT
ATOM      1  C2  UNL d   1       1.492   0.449   0.250  0.00  0.00    -0.073 A 
ATOM      2  C3  UNL d   1       0.811   1.650   0.021  0.00  0.00    -0.002 A 
ATOM      3  C4  UNL d   1      -0.460   1.640  -0.557  0.00  0.00     0.004 A 
ATOM      4  C5  UNL d   1      -1.064   0.432  -0.904  0.00  0.00    -0.004 A 
ATOM      5  C6  UNL d   1      -0.404  -0.779  -0.672  0.00  0.00    -0.075 A 
ATOM      6  C7  UNL d   1      -1.039  -2.087  -1.042  0.00  0.00     0.076 C 
ATOM      7  C8  UNL d   1       0.873  -0.761  -0.095  0.00  0.00     0.001 A 
ENDROOT
BRANCH   1   8
ATOM      8  C1  UNL d   1       2.861   0.454   0.878  0.00  0.00     0.053 C 
ATOM      9  C   UNL d   1       3.506  -0.923   0.852  0.00  0.00     0.018 C 
ENDBRANCH   1   8
TORSDOF 1
ENDMDL
