MODEL 1
REMARK minimizedAffinity -4.05539274
REMARK minimizedRMSD -1
REMARK  1 active torsions:
REMARK  status: ('A' for Active; 'I' for Inactive)
REMARK    1  A    between atoms: C1_2  and  C2_3 
ROOT
ATOM      1  C2  UNL d   1      -0.049  -0.054  -0.152  0.00  0.00    -0.073 A 
ATOM      2  C3  UNL d   1       0.524   0.079   1.118  0.00  0.00    -0.002 A 
ATOM      3  C4  UNL d   1       1.642  -0.679   1.470  0.00  0.00     0.004 A 
ATOM      4  C5  UNL d   1       2.202  -1.570   0.555  0.00  0.00    -0.004 A 
ATOM      5  C6  UNL d   1       1.651  -1.708  -0.723  0.00  0.00    -0.075 A 
ATOM      6  C7  UNL d   1       2.240  -2.665  -1.718  0.00  0.00     0.076 C 
ATOM      7  C8  UNL d   1       0.527  -0.946  -1.068  0.00  0.00     0.001 A 
ENDROOT
BRANCH   1   8
ATOM      8  C1  UNL d   1      -1.252   0.766  -0.538  0.00  0.00     0.053 C 
ATOM      9  C   UNL d   1      -2.107   1.127   0.666  0.00  0.00     0.018 C 
ENDBRANCH   1   8
TORSDOF 1
ENDMDL
