MODEL 1
REMARK minimizedAffinity -3.38594127
REMARK minimizedRMSD -1
REMARK  1 active torsions:
REMARK  status: ('A' for Active; 'I' for Inactive)
REMARK    1  A    between atoms: C1_2  and  C2_3 
ROOT
ATOM      1  C2  UNL d   1      -0.329  -0.146  -0.024  0.00  0.00    -0.073 A 
ATOM      2  C3  UNL d   1      -0.766  -1.100  -0.950  0.00  0.00    -0.002 A 
ATOM      3  C4  UNL d   1       0.064  -2.162  -1.312  0.00  0.00     0.004 A 
ATOM      4  C5  UNL d   1       1.334  -2.285  -0.748  0.00  0.00    -0.004 A 
ATOM      5  C6  UNL d   1       1.784  -1.348   0.187  0.00  0.00    -0.075 A 
ATOM      6  C7  UNL d   1       3.148  -1.465   0.802  0.00  0.00     0.076 C 
ATOM      7  C8  UNL d   1       0.946  -0.283   0.544  0.00  0.00     0.001 A 
ENDROOT
BRANCH   1   8
ATOM      8  C1  UNL d   1      -1.223   0.999   0.374  0.00  0.00     0.053 C 
ATOM      9  C   UNL d   1      -2.694   0.673   0.167  0.00  0.00     0.018 C 
ENDBRANCH   1   8
TORSDOF 1
ENDMDL
