MODEL 1
REMARK minimizedAffinity -3.30007815
REMARK minimizedRMSD -1
REMARK  1 active torsions:
REMARK  status: ('A' for Active; 'I' for Inactive)
REMARK    1  A    between atoms: C1_2  and  C2_3 
ROOT
ATOM      1  C2  UNL d   1      -0.766   0.789  -0.286  0.00  0.00    -0.073 A 
ATOM      2  C3  UNL d   1       0.370   1.175   0.434  0.00  0.00    -0.002 A 
ATOM      3  C4  UNL d   1       1.484   0.336   0.498  0.00  0.00     0.004 A 
ATOM      4  C5  UNL d   1       1.475  -0.893  -0.162  0.00  0.00    -0.004 A 
ATOM      5  C6  UNL d   1       0.354  -1.292  -0.896  0.00  0.00    -0.075 A 
ATOM      6  C7  UNL d   1       0.328  -2.611  -1.610  0.00  0.00     0.076 C 
ATOM      7  C8  UNL d   1      -0.761  -0.445  -0.953  0.00  0.00     0.001 A 
ENDROOT
BRANCH   1   8
ATOM      8  C1  UNL d   1      -1.968   1.694  -0.363  0.00  0.00     0.053 C 
ATOM      9  C   UNL d   1      -3.254   0.966  -0.005  0.00  0.00     0.018 C 
ENDBRANCH   1   8
TORSDOF 1
ENDMDL
