MODEL 1
REMARK minimizedAffinity -0.112058714
REMARK minimizedRMSD -1
REMARK  1 active torsions:
REMARK  status: ('A' for Active; 'I' for Inactive)
REMARK    1  A    between atoms: C1_2  and  C2_3 
ROOT
ATOM      1  C2  UNL d   1       1.564  -0.864  -1.036  0.00  0.00    -0.073 A 
ATOM      2  C3  UNL d   1       0.243  -1.326  -1.026  0.00  0.00    -0.002 A 
ATOM      3  C4  UNL d   1      -0.797  -0.480  -0.639  0.00  0.00     0.004 A 
ATOM      4  C5  UNL d   1      -0.529   0.837  -0.264  0.00  0.00    -0.004 A 
ATOM      5  C6  UNL d   1       0.783   1.321  -0.279  0.00  0.00    -0.075 A 
ATOM      6  C7  UNL d   1       1.089   2.734   0.123  0.00  0.00     0.076 C 
ATOM      7  C8  UNL d   1       1.823   0.464  -0.666  0.00  0.00     0.001 A 
ENDROOT
BRANCH   1   8
ATOM      8  C1  UNL d   1       2.689  -1.771  -1.459  0.00  0.00     0.053 C 
ATOM      9  C   UNL d   1       2.421  -3.222  -1.091  0.00  0.00     0.018 C 
ENDBRANCH   1   8
TORSDOF 1
ENDMDL
