MODEL 1
REMARK minimizedAffinity -5.32884836
REMARK minimizedRMSD -1
REMARK  1 active torsions:
REMARK  status: ('A' for Active; 'I' for Inactive)
REMARK    1  A    between atoms: C1_2  and  C2_3 
ROOT
ATOM      1  C2  UNL d   1      -0.492  -0.128  -0.407  0.00  0.00    -0.073 A 
ATOM      2  C3  UNL d   1       0.042  -1.412  -0.568  0.00  0.00    -0.002 A 
ATOM      3  C4  UNL d   1       1.327  -1.703  -0.107  0.00  0.00     0.004 A 
ATOM      4  C5  UNL d   1       2.086  -0.719   0.526  0.00  0.00    -0.004 A 
ATOM      5  C6  UNL d   1       1.565   0.566   0.706  0.00  0.00    -0.075 A 
ATOM      6  C7  UNL d   1       2.369   1.637   1.383  0.00  0.00     0.076 C 
ATOM      7  C8  UNL d   1       0.275   0.852   0.238  0.00  0.00     0.001 A 
ENDROOT
BRANCH   1   8
ATOM      8  C1  UNL d   1      -1.881   0.190  -0.898  0.00  0.00     0.053 C 
ATOM      9  C   UNL d   1      -2.788   0.663   0.226  0.00  0.00     0.018 C 
ENDBRANCH   1   8
TORSDOF 1
ENDMDL
