MODEL 1
REMARK minimizedAffinity -1.27419519
REMARK minimizedRMSD -1
REMARK  0 active torsions:
REMARK  status: ('A' for Active; 'I' for Inactive)
ROOT
ATOM      1  C4' PXY d   1       0.975  -1.237  -0.363  0.00  0.00     0.077 C 
ATOM      2  C1' PXY d   1       0.923   4.338  -1.891  0.00  0.00     0.077 C 
ATOM      3  C1  PXY d   1       0.940   2.873  -1.503  0.00  0.00    -0.082 A 
ATOM      4  C2  PXY d   1       0.284   2.475  -0.425  0.00  0.00     0.003 A 
ATOM      5  C3  PXY d   1       0.314   1.159  -0.041  0.00  0.00     0.003 A 
ATOM      6  C4  PXY d   1       0.979   0.231  -0.798  0.00  0.00    -0.082 A 
ATOM      7  C5  PXY d   1       1.642   0.628  -1.905  0.00  0.00     0.003 A 
ATOM      8  C6  PXY d   1       1.633   1.975  -2.255  0.00  0.00     0.003 A 
ENDROOT
TORSDOF 0
ENDMDL
