MODEL 1
REMARK minimizedAffinity 4.05879974
REMARK minimizedRMSD -1
REMARK  0 active torsions:
REMARK  status: ('A' for Active; 'I' for Inactive)
ROOT
ATOM      1  C4' PXY d   1       2.636   0.746   1.476  0.00  0.00     0.077 C 
ATOM      2  C1' PXY d   1      -0.067   3.923  -2.527  0.00  0.00     0.077 C 
ATOM      3  C1  PXY d   1       0.642   3.100  -1.469  0.00  0.00    -0.082 A 
ATOM      4  C2  PXY d   1       1.366   2.054  -1.831  0.00  0.00     0.003 A 
ATOM      5  C3  PXY d   1       1.987   1.280  -0.885  0.00  0.00     0.003 A 
ATOM      6  C4  PXY d   1       1.910   1.612   0.441  0.00  0.00    -0.082 A 
ATOM      7  C5  PXY d   1       1.182   2.684   0.818  0.00  0.00     0.003 A 
ATOM      8  C6  PXY d   1       0.525   3.433  -0.155  0.00  0.00     0.003 A 
ENDROOT
TORSDOF 0
ENDMDL
