MODEL 1
REMARK minimizedAffinity 3.25947833
REMARK minimizedRMSD -1
REMARK  0 active torsions:
REMARK  status: ('A' for Active; 'I' for Inactive)
ROOT
ATOM      1  C4' PXY d   1      -2.809   1.542   5.912  0.00  0.00     0.077 C 
ATOM      2  C1' PXY d   1      -3.185   2.610   0.243  0.00  0.00     0.077 C 
ATOM      3  C1  PXY d   1      -3.073   2.331   1.729  0.00  0.00    -0.082 A 
ATOM      4  C2  PXY d   1      -4.032   1.655   2.342  0.00  0.00     0.003 A 
ATOM      5  C3  PXY d   1      -3.963   1.422   3.691  0.00  0.00     0.003 A 
ATOM      6  C4  PXY d   1      -2.875   1.839   4.411  0.00  0.00    -0.082 A 
ATOM      7  C5  PXY d   1      -1.888   2.520   3.791  0.00  0.00     0.003 A 
ATOM      8  C6  PXY d   1      -1.997   2.782   2.429  0.00  0.00     0.003 A 
ENDROOT
TORSDOF 0
ENDMDL
