MODEL 1
REMARK minimizedAffinity -3.99732852
REMARK minimizedRMSD -1
REMARK  0 active torsions:
REMARK  status: ('A' for Active; 'I' for Inactive)
ROOT
ATOM      1  C4' PXY d   1       1.068   4.621  -0.752  0.00  0.00     0.077 C 
ATOM      2  C1' PXY d   1       0.868  -1.118  -0.090  0.00  0.00     0.077 C 
ATOM      3  C1  PXY d   1       0.914   0.388  -0.252  0.00  0.00    -0.082 A 
ATOM      4  C2  PXY d   1       1.000   0.914  -1.463  0.00  0.00     0.003 A 
ATOM      5  C3  PXY d   1       1.076   2.273  -1.626  0.00  0.00     0.003 A 
ATOM      6  C4  PXY d   1       1.009   3.106  -0.541  0.00  0.00    -0.082 A 
ATOM      7  C5  PXY d   1       0.910   2.578   0.697  0.00  0.00     0.003 A 
ATOM      8  C6  PXY d   1       0.877   1.194   0.844  0.00  0.00     0.003 A 
ENDROOT
TORSDOF 0
ENDMDL
