MODEL 1
REMARK minimizedAffinity 3.60737801
REMARK minimizedRMSD -1
REMARK  0 active torsions:
REMARK  status: ('A' for Active; 'I' for Inactive)
ROOT
ATOM      1  C4' PXY d   1       0.887   5.061  -0.352  0.00  0.00     0.077 C 
ATOM      2  C1' PXY d   1       1.381  -0.633  -1.214  0.00  0.00     0.077 C 
ATOM      3  C1  PXY d   1       1.249   0.858  -0.976  0.00  0.00    -0.082 A 
ATOM      4  C2  PXY d   1       0.905   1.653  -1.976  0.00  0.00     0.003 A 
ATOM      5  C3  PXY d   1       0.813   3.007  -1.785  0.00  0.00     0.003 A 
ATOM      6  C4  PXY d   1       1.023   3.548  -0.545  0.00  0.00    -0.082 A 
ATOM      7  C5  PXY d   1       1.363   2.743   0.483  0.00  0.00     0.003 A 
ATOM      8  C6  PXY d   1       1.492   1.375   0.259  0.00  0.00     0.003 A 
ENDROOT
TORSDOF 0
ENDMDL
