MODEL 1
REMARK minimizedAffinity -0.527981341
REMARK minimizedRMSD -1
REMARK  0 active torsions:
REMARK  status: ('A' for Active; 'I' for Inactive)
ROOT
ATOM      1  C4' PXY d   1       1.285  -1.424   0.034  0.00  0.00     0.077 C 
ATOM      2  C1' PXY d   1       0.650   4.001  -1.858  0.00  0.00     0.077 C 
ATOM      3  C1  PXY d   1       0.821   2.583  -1.351  0.00  0.00    -0.082 A 
ATOM      4  C2  PXY d   1       0.989   1.595  -2.214  0.00  0.00     0.003 A 
ATOM      5  C3  PXY d   1       1.113   0.302  -1.774  0.00  0.00     0.003 A 
ATOM      6  C4  PXY d   1       1.118   0.025  -0.433  0.00  0.00    -0.082 A 
ATOM      7  C5  PXY d   1       0.958   1.029   0.455  0.00  0.00     0.003 A 
ATOM      8  C6  PXY d   1       0.792   2.329  -0.014  0.00  0.00     0.003 A 
ENDROOT
TORSDOF 0
ENDMDL
