MODEL 1
REMARK minimizedAffinity -4.64273834
REMARK minimizedRMSD -1
REMARK  0 active torsions:
REMARK  status: ('A' for Active; 'I' for Inactive)
ROOT
ATOM      1  C4' PXY d   1       1.394   3.259   1.239  0.00  0.00     0.077 C 
ATOM      2  C1' PXY d   1       1.537  -0.282  -3.328  0.00  0.00     0.077 C 
ATOM      3  C1  PXY d   1       1.499   0.657  -2.138  0.00  0.00    -0.082 A 
ATOM      4  C2  PXY d   1       2.010   0.269  -0.981  0.00  0.00     0.003 A 
ATOM      5  C3  PXY d   1       1.956   1.093   0.113  0.00  0.00     0.003 A 
ATOM      6  C4  PXY d   1       1.419   2.348   0.009  0.00  0.00    -0.082 A 
ATOM      7  C5  PXY d   1       0.905   2.756  -1.171  0.00  0.00     0.003 A 
ATOM      8  C6  PXY d   1       0.933   1.889  -2.259  0.00  0.00     0.003 A 
ENDROOT
TORSDOF 0
ENDMDL
