MODEL 1
REMARK minimizedAffinity 5.20214987
REMARK minimizedRMSD -1
REMARK  0 active torsions:
REMARK  status: ('A' for Active; 'I' for Inactive)
ROOT
ATOM      1  C4' PXY d   1       1.533   5.057  -0.894  0.00  0.00     0.077 C 
ATOM      2  C1' PXY d   1       1.003  -0.503  -2.386  0.00  0.00     0.077 C 
ATOM      3  C1  PXY d   1       1.140   0.959  -2.007  0.00  0.00    -0.082 A 
ATOM      4  C2  PXY d   1       1.839   1.294  -0.935  0.00  0.00     0.003 A 
ATOM      5  C3  PXY d   1       1.947   2.608  -0.560  0.00  0.00     0.003 A 
ATOM      6  C4  PXY d   1       1.376   3.594  -1.320  0.00  0.00    -0.082 A 
ATOM      7  C5  PXY d   1       0.670   3.261  -2.421  0.00  0.00     0.003 A 
ATOM      8  C6  PXY d   1       0.538   1.918  -2.762  0.00  0.00     0.003 A 
ENDROOT
TORSDOF 0
ENDMDL
