MODEL 1
REMARK minimizedAffinity 1.58042884
REMARK minimizedRMSD -1
REMARK  0 active torsions:
REMARK  status: ('A' for Active; 'I' for Inactive)
ROOT
ATOM      1  C4' PXY d   1       0.647  -1.889   0.794  0.00  0.00     0.077 C 
ATOM      2  C1' PXY d   1       1.125   3.206  -1.893  0.00  0.00     0.077 C 
ATOM      3  C1  PXY d   1       1.006   1.875  -1.178  0.00  0.00    -0.082 A 
ATOM      4  C2  PXY d   1       0.829   0.768  -1.882  0.00  0.00     0.003 A 
ATOM      5  C3  PXY d   1       0.687  -0.440  -1.249  0.00  0.00     0.003 A 
ATOM      6  C4  PXY d   1       0.782  -0.524   0.114  0.00  0.00    -0.082 A 
ATOM      7  C5  PXY d   1       0.973   0.599   0.838  0.00  0.00     0.003 A 
ATOM      8  C6  PXY d   1       1.073   1.822   0.180  0.00  0.00     0.003 A 
ENDROOT
TORSDOF 0
ENDMDL
