MODEL 1
REMARK minimizedAffinity 2.14171815
REMARK minimizedRMSD -1
REMARK  0 active torsions:
REMARK  status: ('A' for Active; 'I' for Inactive)
ROOT
ATOM      1  C4' PXY d   1       0.980   3.158   1.036  0.00  0.00     0.077 C 
ATOM      2  C1' PXY d   1       1.343  -0.126  -3.708  0.00  0.00     0.077 C 
ATOM      3  C1  PXY d   1       1.246   0.746  -2.471  0.00  0.00    -0.082 A 
ATOM      4  C2  PXY d   1       1.764   0.322  -1.330  0.00  0.00     0.003 A 
ATOM      5  C3  PXY d   1       1.658   1.083  -0.194  0.00  0.00     0.003 A 
ATOM      6  C4  PXY d   1       1.062   2.315  -0.240  0.00  0.00    -0.082 A 
ATOM      7  C5  PXY d   1       0.541   2.760  -1.403  0.00  0.00     0.003 A 
ATOM      8  C6  PXY d   1       0.623   1.954  -2.534  0.00  0.00     0.003 A 
ENDROOT
TORSDOF 0
ENDMDL
