MODEL 1
REMARK minimizedAffinity 3.89951444
REMARK minimizedRMSD -1
REMARK  0 active torsions:
REMARK  status: ('A' for Active; 'I' for Inactive)
ROOT
ATOM      1  C4' PXY d   1       1.122   5.620  -0.504  0.00  0.00     0.077 C 
ATOM      2  C1' PXY d   1       1.634  -0.095  -1.201  0.00  0.00     0.077 C 
ATOM      3  C1  PXY d   1       1.494   1.402  -1.006  0.00  0.00    -0.082 A 
ATOM      4  C2  PXY d   1       1.454   2.197  -2.063  0.00  0.00     0.003 A 
ATOM      5  C3  PXY d   1       1.360   3.556  -1.904  0.00  0.00     0.003 A 
ATOM      6  C4  PXY d   1       1.253   4.102  -0.653  0.00  0.00    -0.082 A 
ATOM      7  C5  PXY d   1       1.282   3.296   0.429  0.00  0.00     0.003 A 
ATOM      8  C6  PXY d   1       1.420   1.923   0.248  0.00  0.00     0.003 A 
ENDROOT
TORSDOF 0
ENDMDL
