MODEL 1
REMARK minimizedAffinity -0.954479337
REMARK minimizedRMSD -1
REMARK  0 active torsions:
REMARK  status: ('A' for Active; 'I' for Inactive)
ROOT
ATOM      1  C4' PXY d   1       0.954   3.008  -1.766  0.00  0.00     0.077 C 
ATOM      2  C1' PXY d   1       1.110  -2.452   0.123  0.00  0.00     0.077 C 
ATOM      3  C1  PXY d   1       1.063  -1.017  -0.361  0.00  0.00    -0.082 A 
ATOM      4  C2  PXY d   1       1.132  -0.761  -1.658  0.00  0.00     0.003 A 
ATOM      5  C3  PXY d   1       1.123   0.533  -2.111  0.00  0.00     0.003 A 
ATOM      6  C4  PXY d   1       0.988   1.574  -1.232  0.00  0.00    -0.082 A 
ATOM      7  C5  PXY d   1       0.907   1.321   0.091  0.00  0.00     0.003 A 
ATOM      8  C6  PXY d   1       0.959   0.002   0.534  0.00  0.00     0.003 A 
ENDROOT
TORSDOF 0
ENDMDL
