MODEL 1
REMARK minimizedAffinity 5.32083845
REMARK minimizedRMSD -1
REMARK  0 active torsions:
REMARK  status: ('A' for Active; 'I' for Inactive)
ROOT
ATOM      1  C4' PXY d   1       0.580   3.351   0.590  0.00  0.00     0.077 C 
ATOM      2  C1' PXY d   1       1.816  -1.171  -2.792  0.00  0.00     0.077 C 
ATOM      3  C1  PXY d   1       1.495   0.023  -1.915  0.00  0.00    -0.082 A 
ATOM      4  C2  PXY d   1       1.564  -0.095  -0.599  0.00  0.00     0.003 A 
ATOM      5  C3  PXY d   1       1.246   0.966   0.210  0.00  0.00     0.003 A 
ATOM      6  C4  PXY d   1       0.905   2.174  -0.335  0.00  0.00    -0.082 A 
ATOM      7  C5  PXY d   1       0.842   2.305  -1.677  0.00  0.00     0.003 A 
ATOM      8  C6  PXY d   1       1.129   1.205  -2.480  0.00  0.00     0.003 A 
ENDROOT
TORSDOF 0
ENDMDL
