MODEL 1
REMARK minimizedAffinity 5.99154997
REMARK minimizedRMSD -1
REMARK  0 active torsions:
REMARK  status: ('A' for Active; 'I' for Inactive)
ROOT
ATOM      1  C4' PXY d   1       1.169   5.234  -0.475  0.00  0.00     0.077 C 
ATOM      2  C1' PXY d   1       0.534  -0.328  -1.914  0.00  0.00     0.077 C 
ATOM      3  C1  PXY d   1       0.697   1.128  -1.524  0.00  0.00    -0.082 A 
ATOM      4  C2  PXY d   1       0.583   2.068  -2.447  0.00  0.00     0.003 A 
ATOM      5  C3  PXY d   1       0.760   3.388  -2.119  0.00  0.00     0.003 A 
ATOM      6  C4  PXY d   1       1.003   3.752  -0.821  0.00  0.00    -0.082 A 
ATOM      7  C5  PXY d   1       1.110   2.799   0.128  0.00  0.00     0.003 A 
ATOM      8  C6  PXY d   1       0.968   1.462  -0.233  0.00  0.00     0.003 A 
ENDROOT
TORSDOF 0
ENDMDL
