MODEL 1
REMARK minimizedAffinity 9.85141659
REMARK minimizedRMSD -1
REMARK  0 active torsions:
REMARK  status: ('A' for Active; 'I' for Inactive)
ROOT
ATOM      1  C4' PXY d   1       1.656   0.081  -1.156  0.00  0.00     0.077 C 
ATOM      2  C1' PXY d   1      -1.868   4.394  -2.702  0.00  0.00     0.077 C 
ATOM      3  C1  PXY d   1      -0.935   3.268  -2.305  0.00  0.00    -0.082 A 
ATOM      4  C2  PXY d   1      -1.437   2.133  -1.846  0.00  0.00     0.003 A 
ATOM      5  C3  PXY d   1      -0.606   1.116  -1.451  0.00  0.00     0.003 A 
ATOM      6  C4  PXY d   1       0.751   1.242  -1.578  0.00  0.00    -0.082 A 
ATOM      7  C5  PXY d   1       1.271   2.392  -2.056  0.00  0.00     0.003 A 
ATOM      8  C6  PXY d   1       0.412   3.428  -2.412  0.00  0.00     0.003 A 
ENDROOT
TORSDOF 0
ENDMDL
