MODEL 1
REMARK minimizedAffinity 11.821703
REMARK minimizedRMSD -1
REMARK  0 active torsions:
REMARK  status: ('A' for Active; 'I' for Inactive)
ROOT
ATOM      1  C4' PXY d   1       1.065   5.282  -1.139  0.00  0.00     0.077 C 
ATOM      2  C1' PXY d   1       0.602  -0.310  -2.526  0.00  0.00     0.077 C 
ATOM      3  C1  PXY d   1       0.719   1.160  -2.174  0.00  0.00    -0.082 A 
ATOM      4  C2  PXY d   1       1.611   1.549  -1.278  0.00  0.00     0.003 A 
ATOM      5  C3  PXY d   1       1.707   2.870  -0.924  0.00  0.00     0.003 A 
ATOM      6  C4  PXY d   1       0.919   3.810  -1.533  0.00  0.00    -0.082 A 
ATOM      7  C5  PXY d   1       0.014   3.422  -2.456  0.00  0.00     0.003 A 
ATOM      8  C6  PXY d   1      -0.097   2.071  -2.771  0.00  0.00     0.003 A 
ENDROOT
TORSDOF 0
ENDMDL
