MODEL 1
REMARK minimizedAffinity -0.992512822
REMARK minimizedRMSD -1
REMARK  0 active torsions:
REMARK  status: ('A' for Active; 'I' for Inactive)
ROOT
ATOM      1  C4' PXY d   1      -1.207  -3.959  -1.790  0.00  0.00     0.077 C 
ATOM      2  C1' PXY d   1       2.439   0.339  -0.505  0.00  0.00     0.077 C 
ATOM      3  C1  PXY d   1       1.489  -0.796  -0.833  0.00  0.00    -0.082 A 
ATOM      4  C2  PXY d   1       0.874  -0.816  -2.005  0.00  0.00     0.003 A 
ATOM      5  C3  PXY d   1      -0.013  -1.818  -2.305  0.00  0.00     0.003 A 
ATOM      6  C4  PXY d   1      -0.232  -2.838  -1.419  0.00  0.00    -0.082 A 
ATOM      7  C5  PXY d   1       0.400  -2.831  -0.226  0.00  0.00     0.003 A 
ATOM      8  C6  PXY d   1       1.265  -1.783   0.076  0.00  0.00     0.003 A 
ENDROOT
TORSDOF 0
ENDMDL
