MODEL 1
REMARK minimizedAffinity 4.30765104
REMARK minimizedRMSD -1
REMARK  2 active torsions:
REMARK  status: ('A' for Active; 'I' for Inactive)
REMARK    1  A    between atoms: C1_2  and  C2_3 
REMARK    2  A    between atoms: C2_3  and  C3_4 
ROOT
ATOM      1  C3  UNL d   1       1.180   2.429  -0.866  0.00  0.00    -0.075 A 
ATOM      2  C4  UNL d   1       1.457   2.247   0.497  0.00  0.00     0.002 A 
ATOM      3  C5  UNL d   1       1.712   0.973   1.004  0.00  0.00     0.002 A 
ATOM      4  C6  UNL d   1       1.683  -0.135   0.160  0.00  0.00    -0.004 A 
ATOM      5  C7  UNL d   1       1.392   0.032  -1.192  0.00  0.00     0.002 A 
ATOM      6  C8  UNL d   1       1.141   1.307  -1.703  0.00  0.00     0.002 A 
ENDROOT
BRANCH   1   7
ATOM      7  C2  UNL d   1       0.932   3.809  -1.426  0.00  0.00     0.056 C 
BRANCH   7   8
ATOM      8  C1  UNL d   1       1.425   4.946  -0.524  0.00  0.00     0.007 C 
ATOM      9  C   UNL d   1       2.231   5.999  -1.272  0.00  0.00     0.009 C 
ENDBRANCH   7   8
ENDBRANCH   1   7
TORSDOF 2
ENDMDL
