MODEL 1
REMARK minimizedAffinity 5.31241322
REMARK minimizedRMSD -1
REMARK  2 active torsions:
REMARK  status: ('A' for Active; 'I' for Inactive)
REMARK    1  A    between atoms: C1_2  and  C2_3 
REMARK    2  A    between atoms: C2_3  and  C3_4 
ROOT
ATOM      1  C3  UNL d   1       1.214   1.983  -1.251  0.00  0.00    -0.075 A 
ATOM      2  C4  UNL d   1       1.875   1.533  -0.099  0.00  0.00     0.002 A 
ATOM      3  C5  UNL d   1       2.237   0.192   0.032  0.00  0.00     0.002 A 
ATOM      4  C6  UNL d   1       1.935  -0.716  -0.980  0.00  0.00    -0.004 A 
ATOM      5  C7  UNL d   1       1.263  -0.284  -2.121  0.00  0.00     0.002 A 
ATOM      6  C8  UNL d   1       0.904   1.059  -2.257  0.00  0.00     0.002 A 
ENDROOT
BRANCH   1   7
ATOM      7  C2  UNL d   1       0.846   3.439  -1.412  0.00  0.00     0.056 C 
BRANCH   7   8
ATOM      8  C1  UNL d   1       1.401   4.348  -0.311  0.00  0.00     0.007 C 
ATOM      9  C   UNL d   1       1.597   5.789  -0.763  0.00  0.00     0.009 C 
ENDBRANCH   7   8
ENDBRANCH   1   7
TORSDOF 2
ENDMDL
