MODEL 1
REMARK minimizedAffinity 1.52317357
REMARK minimizedRMSD -1
REMARK  2 active torsions:
REMARK  status: ('A' for Active; 'I' for Inactive)
REMARK    1  A    between atoms: C1_2  and  C2_3 
REMARK    2  A    between atoms: C2_3  and  C3_4 
ROOT
ATOM      1  C3  UNL d   1      -2.277   2.328   3.541  0.00  0.00    -0.075 A 
ATOM      2  C4  UNL d   1      -2.245   1.594   4.736  0.00  0.00     0.002 A 
ATOM      3  C5  UNL d   1      -2.047   2.238   5.958  0.00  0.00     0.002 A 
ATOM      4  C6  UNL d   1      -1.869   3.619   6.000  0.00  0.00    -0.004 A 
ATOM      5  C7  UNL d   1      -1.883   4.356   4.818  0.00  0.00     0.002 A 
ATOM      6  C8  UNL d   1      -2.085   3.715   3.594  0.00  0.00     0.002 A 
ENDROOT
BRANCH   1   7
ATOM      7  C2  UNL d   1      -2.520   1.641   2.219  0.00  0.00     0.056 C 
BRANCH   7   8
ATOM      8  C1  UNL d   1      -3.655   2.259   1.394  0.00  0.00     0.007 C 
ATOM      9  C   UNL d   1      -3.382   2.250  -0.104  0.00  0.00     0.009 C 
ENDBRANCH   7   8
ENDBRANCH   1   7
TORSDOF 2
ENDMDL
