MODEL 1
REMARK minimizedAffinity 5.08750153
REMARK minimizedRMSD -1
REMARK  2 active torsions:
REMARK  status: ('A' for Active; 'I' for Inactive)
REMARK    1  A    between atoms: C1_2  and  C2_3 
REMARK    2  A    between atoms: C2_3  and  C3_4 
ROOT
ATOM      1  C3  UNL d   1       0.722   2.298  -1.403  0.00  0.00    -0.075 A 
ATOM      2  C4  UNL d   1       0.734   2.328  -0.001  0.00  0.00     0.002 A 
ATOM      3  C5  UNL d   1       1.034   1.178   0.729  0.00  0.00     0.002 A 
ATOM      4  C6  UNL d   1       1.315  -0.017   0.070  0.00  0.00    -0.004 A 
ATOM      5  C7  UNL d   1       1.290  -0.062  -1.323  0.00  0.00     0.002 A 
ATOM      6  C8  UNL d   1       0.995   1.088  -2.056  0.00  0.00     0.002 A 
ENDROOT
BRANCH   1   7
ATOM      7  C2  UNL d   1       0.428   3.546  -2.200  0.00  0.00     0.056 C 
BRANCH   7   8
ATOM      8  C1  UNL d   1      -0.351   3.290  -3.495  0.00  0.00     0.007 C 
ATOM      9  C   UNL d   1      -1.772   3.837  -3.460  0.00  0.00     0.009 C 
ENDBRANCH   7   8
ENDBRANCH   1   7
TORSDOF 2
ENDMDL
