MODEL 1
REMARK minimizedAffinity 0.847330511
REMARK minimizedRMSD -1
REMARK  2 active torsions:
REMARK  status: ('A' for Active; 'I' for Inactive)
REMARK    1  A    between atoms: C1_2  and  C2_3 
REMARK    2  A    between atoms: C2_3  and  C3_4 
ROOT
ATOM      1  C3  UNL d   1       0.932   1.402  -0.871  0.00  0.00    -0.075 A 
ATOM      2  C4  UNL d   1       0.828   2.320   0.184  0.00  0.00     0.002 A 
ATOM      3  C5  UNL d   1       0.988   3.686  -0.047  0.00  0.00     0.002 A 
ATOM      4  C6  UNL d   1       1.265   4.151  -1.331  0.00  0.00    -0.004 A 
ATOM      5  C7  UNL d   1       1.387   3.246  -2.384  0.00  0.00     0.002 A 
ATOM      6  C8  UNL d   1       1.223   1.879  -2.156  0.00  0.00     0.002 A 
ENDROOT
BRANCH   1   7
ATOM      7  C2  UNL d   1       0.730  -0.075  -0.633  0.00  0.00     0.056 C 
BRANCH   7   8
ATOM      8  C1  UNL d   1       1.440  -0.608   0.617  0.00  0.00     0.007 C 
ATOM      9  C   UNL d   1       2.858  -0.077   0.775  0.00  0.00     0.009 C 
ENDBRANCH   7   8
ENDBRANCH   1   7
TORSDOF 2
ENDMDL
