MODEL 1
REMARK minimizedAffinity 2.72136426
REMARK minimizedRMSD -1
REMARK  2 active torsions:
REMARK  status: ('A' for Active; 'I' for Inactive)
REMARK    1  A    between atoms: C1_2  and  C2_3 
REMARK    2  A    between atoms: C2_3  and  C3_4 
ROOT
ATOM      1  C3  UNL d   1       0.874   2.090  -1.260  0.00  0.00    -0.075 A 
ATOM      2  C4  UNL d   1       1.221   1.965   0.093  0.00  0.00     0.002 A 
ATOM      3  C5  UNL d   1       1.408   0.706   0.664  0.00  0.00     0.002 A 
ATOM      4  C6  UNL d   1       1.241  -0.443  -0.106  0.00  0.00    -0.004 A 
ATOM      5  C7  UNL d   1       0.880  -0.332  -1.447  0.00  0.00     0.002 A 
ATOM      6  C8  UNL d   1       0.696   0.927  -2.022  0.00  0.00     0.002 A 
ENDROOT
BRANCH   1   7
ATOM      7  C2  UNL d   1       0.699   3.450  -1.891  0.00  0.00     0.056 C 
BRANCH   7   8
ATOM      8  C1  UNL d   1      -0.109   3.435  -3.193  0.00  0.00     0.007 C 
ATOM      9  C   UNL d   1      -1.471   4.104  -3.062  0.00  0.00     0.009 C 
ENDBRANCH   7   8
ENDBRANCH   1   7
TORSDOF 2
ENDMDL
