MODEL 1
REMARK minimizedAffinity 5.9744997
REMARK minimizedRMSD -1
REMARK  2 active torsions:
REMARK  status: ('A' for Active; 'I' for Inactive)
REMARK    1  A    between atoms: C1_2  and  C2_3 
REMARK    2  A    between atoms: C2_3  and  C3_4 
ROOT
ATOM      1  C3  UNL d   1       1.325   0.924  -0.001  0.00  0.00    -0.075 A 
ATOM      2  C4  UNL d   1       1.268  -0.391  -0.485  0.00  0.00     0.002 A 
ATOM      3  C5  UNL d   1       2.353  -1.252  -0.324  0.00  0.00     0.002 A 
ATOM      4  C6  UNL d   1       3.511  -0.809   0.311  0.00  0.00    -0.004 A 
ATOM      5  C7  UNL d   1       3.585   0.501   0.781  0.00  0.00     0.002 A 
ATOM      6  C8  UNL d   1       2.499   1.364   0.626  0.00  0.00     0.002 A 
ENDROOT
BRANCH   1   7
ATOM      7  C2  UNL d   1       0.143   1.853  -0.145  0.00  0.00     0.056 C 
BRANCH   7   8
ATOM      8  C1  UNL d   1       0.526   3.321  -0.362  0.00  0.00     0.007 C 
ATOM      9  C   UNL d   1       0.715   3.681  -1.829  0.00  0.00     0.009 C 
ENDBRANCH   7   8
ENDBRANCH   1   7
TORSDOF 2
ENDMDL
