MODEL 1
REMARK minimizedAffinity 6.62312555
REMARK minimizedRMSD -1
REMARK  2 active torsions:
REMARK  status: ('A' for Active; 'I' for Inactive)
REMARK    1  A    between atoms: C1_2  and  C2_3 
REMARK    2  A    between atoms: C2_3  and  C3_4 
ROOT
ATOM      1  C3  UNL d   1       1.470   1.822   0.643  0.00  0.00    -0.075 A 
ATOM      2  C4  UNL d   1       1.112   2.827  -0.267  0.00  0.00     0.002 A 
ATOM      3  C5  UNL d   1       0.925   2.527  -1.617  0.00  0.00     0.002 A 
ATOM      4  C6  UNL d   1       1.102   1.223  -2.075  0.00  0.00    -0.004 A 
ATOM      5  C7  UNL d   1       1.473   0.219  -1.182  0.00  0.00     0.002 A 
ATOM      6  C8  UNL d   1       1.657   0.516   0.170  0.00  0.00     0.002 A 
ENDROOT
BRANCH   1   7
ATOM      7  C2  UNL d   1       1.645   2.135   2.110  0.00  0.00     0.056 C 
BRANCH   7   8
ATOM      8  C1  UNL d   1       1.481   3.618   2.455  0.00  0.00     0.007 C 
ATOM      9  C   UNL d   1       2.391   4.076   3.587  0.00  0.00     0.009 C 
ENDBRANCH   7   8
ENDBRANCH   1   7
TORSDOF 2
ENDMDL
