MODEL 1
REMARK minimizedAffinity 2.68743992
REMARK minimizedRMSD -1
REMARK  2 active torsions:
REMARK  status: ('A' for Active; 'I' for Inactive)
REMARK    1  A    between atoms: C1_2  and  C2_3 
REMARK    2  A    between atoms: C2_3  and  C3_4 
ROOT
ATOM      1  C3  UNL d   1       1.887   0.610  -0.574  0.00  0.00    -0.075 A 
ATOM      2  C4  UNL d   1       1.819   1.228  -1.831  0.00  0.00     0.002 A 
ATOM      3  C5  UNL d   1       1.361   2.540  -1.951  0.00  0.00     0.002 A 
ATOM      4  C6  UNL d   1       0.956   3.246  -0.820  0.00  0.00    -0.004 A 
ATOM      5  C7  UNL d   1       1.004   2.636   0.432  0.00  0.00     0.002 A 
ATOM      6  C8  UNL d   1       1.466   1.325   0.555  0.00  0.00     0.002 A 
ENDROOT
BRANCH   1   7
ATOM      7  C2  UNL d   1       2.411  -0.800  -0.433  0.00  0.00     0.056 C 
BRANCH   7   8
ATOM      8  C1  UNL d   1       3.793  -0.890   0.222  0.00  0.00     0.007 C 
ATOM      9  C   UNL d   1       4.345  -2.309   0.267  0.00  0.00     0.009 C 
ENDBRANCH   7   8
ENDBRANCH   1   7
TORSDOF 2
ENDMDL
