MODEL 1
REMARK minimizedAffinity -2.9495306
REMARK minimizedRMSD -1
REMARK  2 active torsions:
REMARK  status: ('A' for Active; 'I' for Inactive)
REMARK    1  A    between atoms: C1_2  and  C2_3 
REMARK    2  A    between atoms: C2_3  and  C3_4 
ROOT
ATOM      1  C3  UNL d   1       0.890   1.482  -0.924  0.00  0.00    -0.075 A 
ATOM      2  C4  UNL d   1       0.946   2.396  -1.986  0.00  0.00     0.002 A 
ATOM      3  C5  UNL d   1       0.898   3.768  -1.742  0.00  0.00     0.002 A 
ATOM      4  C6  UNL d   1       0.782   4.244  -0.438  0.00  0.00    -0.004 A 
ATOM      5  C7  UNL d   1       0.709   3.345   0.623  0.00  0.00     0.002 A 
ATOM      6  C8  UNL d   1       0.762   1.971   0.383  0.00  0.00     0.002 A 
ENDROOT
BRANCH   1   7
ATOM      7  C2  UNL d   1       0.972  -0.005  -1.178  0.00  0.00     0.056 C 
BRANCH   7   8
ATOM      8  C1  UNL d   1       1.709  -0.785  -0.085  0.00  0.00     0.007 C 
ATOM      9  C   UNL d   1       3.174  -0.391   0.050  0.00  0.00     0.009 C 
ENDBRANCH   7   8
ENDBRANCH   1   7
TORSDOF 2
ENDMDL
