MODEL 1
REMARK minimizedAffinity -0.462684035
REMARK minimizedRMSD -1
REMARK  2 active torsions:
REMARK  status: ('A' for Active; 'I' for Inactive)
REMARK    1  A    between atoms: C1_2  and  C2_3 
REMARK    2  A    between atoms: C2_3  and  C3_4 
ROOT
ATOM      1  C3  UNL d   1       1.195   2.149   0.296  0.00  0.00    -0.075 A 
ATOM      2  C4  UNL d   1       1.211   3.316  -0.482  0.00  0.00     0.002 A 
ATOM      3  C5  UNL d   1       1.148   3.240  -1.873  0.00  0.00     0.002 A 
ATOM      4  C6  UNL d   1       1.080   2.000  -2.504  0.00  0.00    -0.004 A 
ATOM      5  C7  UNL d   1       1.081   0.833  -1.742  0.00  0.00     0.002 A 
ATOM      6  C8  UNL d   1       1.139   0.906  -0.349  0.00  0.00     0.002 A 
ENDROOT
BRANCH   1   7
ATOM      7  C2  UNL d   1       1.233   2.225   1.804  0.00  0.00     0.056 C 
BRANCH   7   8
ATOM      8  C1  UNL d   1       1.898   1.017   2.473  0.00  0.00     0.007 C 
ATOM      9  C   UNL d   1       1.163   0.542   3.720  0.00  0.00     0.009 C 
ENDBRANCH   7   8
ENDBRANCH   1   7
TORSDOF 2
ENDMDL
