MODEL 1
REMARK minimizedAffinity 2.03035355
REMARK minimizedRMSD -1
REMARK  2 active torsions:
REMARK  status: ('A' for Active; 'I' for Inactive)
REMARK    1  A    between atoms: C1_2  and  C2_3 
REMARK    2  A    between atoms: C2_3  and  C3_4 
ROOT
ATOM      1  C3  UNL d   1       0.687   1.469  -0.906  0.00  0.00    -0.075 A 
ATOM      2  C4  UNL d   1       1.187   1.709   0.382  0.00  0.00     0.002 A 
ATOM      3  C5  UNL d   1       1.809   0.688   1.102  0.00  0.00     0.002 A 
ATOM      4  C6  UNL d   1       1.929  -0.585   0.549  0.00  0.00    -0.004 A 
ATOM      5  C7  UNL d   1       1.422  -0.839  -0.723  0.00  0.00     0.002 A 
ATOM      6  C8  UNL d   1       0.803   0.182  -1.447  0.00  0.00     0.002 A 
ENDROOT
BRANCH   1   7
ATOM      7  C2  UNL d   1       0.040   2.577  -1.702  0.00  0.00     0.056 C 
BRANCH   7   8
ATOM      8  C1  UNL d   1       1.030   3.602  -2.264  0.00  0.00     0.007 C 
ATOM      9  C   UNL d   1       1.217   4.814  -1.361  0.00  0.00     0.009 C 
ENDBRANCH   7   8
ENDBRANCH   1   7
TORSDOF 2
ENDMDL
