MODEL 1
REMARK minimizedAffinity 0.031343352
REMARK minimizedRMSD -1
REMARK  1 active torsions:
REMARK  status: ('A' for Active; 'I' for Inactive)
REMARK    1  A    between atoms: C1_2  and  C2_3 
ROOT
ATOM      1  C2  UNL d   1       0.412  -0.610  -1.687  0.00  0.00    -0.076 A 
ATOM      2  C3  UNL d   1      -0.028  -0.237  -2.968  0.00  0.00     0.004 A 
ATOM      3  C4  UNL d   1       0.845   0.344  -3.886  0.00  0.00    -0.003 A 
ATOM      4  C5  UNL d   1       2.174   0.560  -3.538  0.00  0.00     0.000 A 
ATOM      5  C6  UNL d   1       2.632   0.180  -2.277  0.00  0.00     0.000 A 
ATOM      6  C7  UNL d   1       1.769  -0.422  -1.346  0.00  0.00    -0.073 A 
ATOM      7  C8  UNL d   1       2.316  -0.807   0.002  0.00  0.00     0.078 C 
ENDROOT
BRANCH   1   8
ATOM      8  C1  UNL d   1      -0.586  -1.211  -0.724  0.00  0.00     0.053 C 
ATOM      9  C   UNL d   1      -1.456  -0.158  -0.054  0.00  0.00     0.018 C 
ENDBRANCH   1   8
TORSDOF 1
ENDMDL
