MODEL 1
REMARK minimizedAffinity -2.01584125
REMARK minimizedRMSD -1
REMARK  1 active torsions:
REMARK  status: ('A' for Active; 'I' for Inactive)
REMARK    1  A    between atoms: C1_2  and  C2_3 
ROOT
ATOM      1  C2  UNL d   1       0.105   0.001  -0.157  0.00  0.00    -0.076 A 
ATOM      2  C3  UNL d   1       1.173   0.357   0.685  0.00  0.00     0.004 A 
ATOM      3  C4  UNL d   1       0.947   1.029   1.885  0.00  0.00    -0.003 A 
ATOM      4  C5  UNL d   1      -0.351   1.355   2.263  0.00  0.00     0.000 A 
ATOM      5  C6  UNL d   1      -1.424   0.994   1.449  0.00  0.00     0.000 A 
ATOM      6  C7  UNL d   1      -1.215   0.301   0.244  0.00  0.00    -0.073 A 
ATOM      7  C8  UNL d   1      -2.408  -0.059  -0.598  0.00  0.00     0.078 C 
ENDROOT
BRANCH   1   8
ATOM      8  C1  UNL d   1       0.413  -0.703  -1.459  0.00  0.00     0.053 C 
ATOM      9  C   UNL d   1       0.820   0.262  -2.561  0.00  0.00     0.018 C 
ENDBRANCH   1   8
TORSDOF 1
ENDMDL
