MODEL 1
REMARK minimizedAffinity -1.13091683
REMARK minimizedRMSD -1
REMARK  1 active torsions:
REMARK  status: ('A' for Active; 'I' for Inactive)
REMARK    1  A    between atoms: C1_2  and  C2_3 
ROOT
ATOM      1  C2  UNL d   1      -0.606  -0.009   1.369  0.00  0.00    -0.076 A 
ATOM      2  C3  UNL d   1      -1.566  -0.292   0.382  0.00  0.00     0.004 A 
ATOM      3  C4  UNL d   1      -1.189  -0.545  -0.935  0.00  0.00    -0.003 A 
ATOM      4  C5  UNL d   1       0.156  -0.520  -1.288  0.00  0.00     0.000 A 
ATOM      5  C6  UNL d   1       1.124  -0.259  -0.318  0.00  0.00     0.000 A 
ATOM      6  C7  UNL d   1       0.761  -0.018   1.018  0.00  0.00    -0.073 A 
ATOM      7  C8  UNL d   1       1.846   0.265   2.021  0.00  0.00     0.078 C 
ENDROOT
BRANCH   1   8
ATOM      8  C1  UNL d   1      -1.077   0.284   2.776  0.00  0.00     0.053 C 
ATOM      9  C   UNL d   1      -2.284  -0.552   3.172  0.00  0.00     0.018 C 
ENDBRANCH   1   8
TORSDOF 1
ENDMDL
