MODEL 1
REMARK minimizedAffinity -3.01815748
REMARK minimizedRMSD -1
REMARK  1 active torsions:
REMARK  status: ('A' for Active; 'I' for Inactive)
REMARK    1  A    between atoms: C1_2  and  C2_3 
ROOT
ATOM      1  C2  UNL d   1      -0.007   0.644   0.866  0.00  0.00    -0.076 A 
ATOM      2  C3  UNL d   1       1.365   0.418   1.076  0.00  0.00     0.004 A 
ATOM      3  C4  UNL d   1       2.115  -0.335   0.174  0.00  0.00    -0.003 A 
ATOM      4  C5  UNL d   1       1.505  -0.873  -0.954  0.00  0.00     0.000 A 
ATOM      5  C6  UNL d   1       0.150  -0.644  -1.188  0.00  0.00     0.000 A 
ATOM      6  C7  UNL d   1      -0.617   0.126  -0.296  0.00  0.00    -0.073 A 
ATOM      7  C8  UNL d   1      -2.076   0.336  -0.595  0.00  0.00     0.078 C 
ENDROOT
BRANCH   1   8
ATOM      8  C1  UNL d   1      -0.775   1.444   1.893  0.00  0.00     0.053 C 
ATOM      9  C   UNL d   1      -1.522   0.561   2.881  0.00  0.00     0.018 C 
ENDBRANCH   1   8
TORSDOF 1
ENDMDL
