MODEL 1
REMARK minimizedAffinity -4.16345406
REMARK minimizedRMSD -1
REMARK  1 active torsions:
REMARK  status: ('A' for Active; 'I' for Inactive)
REMARK    1  A    between atoms: C1_2  and  C2_3 
ROOT
ATOM      1  C2  UNL d   1       0.347   0.599   0.871  0.00  0.00    -0.076 A 
ATOM      2  C3  UNL d   1      -0.534   0.441  -0.213  0.00  0.00     0.004 A 
ATOM      3  C4  UNL d   1      -0.245  -0.443  -1.250  0.00  0.00    -0.003 A 
ATOM      4  C5  UNL d   1       0.931  -1.185  -1.221  0.00  0.00     0.000 A 
ATOM      5  C6  UNL d   1       1.808  -1.055  -0.145  0.00  0.00     0.000 A 
ATOM      6  C7  UNL d   1       1.523  -0.180   0.917  0.00  0.00    -0.073 A 
ATOM      7  C8  UNL d   1       2.508  -0.074   2.049  0.00  0.00     0.078 C 
ENDROOT
BRANCH   1   8
ATOM      8  C1  UNL d   1      -0.007   1.593   1.954  0.00  0.00     0.053 C 
ATOM      9  C   UNL d   1      -0.856   0.977   3.055  0.00  0.00     0.018 C 
ENDBRANCH   1   8
TORSDOF 1
ENDMDL
