MODEL 1
REMARK minimizedAffinity -4.00423765
REMARK minimizedRMSD -1
REMARK  1 active torsions:
REMARK  status: ('A' for Active; 'I' for Inactive)
REMARK    1  A    between atoms: C1_2  and  C2_3 
ROOT
ATOM      1  C2  UNL d   1      -0.492  -0.106  -0.294  0.00  0.00    -0.076 A 
ATOM      2  C3  UNL d   1      -1.822   0.325  -0.433  0.00  0.00     0.004 A 
ATOM      3  C4  UNL d   1      -2.553   0.766   0.669  0.00  0.00    -0.003 A 
ATOM      4  C5  UNL d   1      -1.964   0.784   1.929  0.00  0.00     0.000 A 
ATOM      5  C6  UNL d   1      -0.639   0.376   2.083  0.00  0.00     0.000 A 
ATOM      6  C7  UNL d   1       0.116  -0.056   0.979  0.00  0.00    -0.073 A 
ATOM      7  C8  UNL d   1       1.539  -0.490   1.204  0.00  0.00     0.078 C 
ENDROOT
BRANCH   1   8
ATOM      8  C1  UNL d   1       0.242  -0.600  -1.520  0.00  0.00     0.053 C 
ATOM      9  C   UNL d   1       0.808   0.537  -2.357  0.00  0.00     0.018 C 
ENDBRANCH   1   8
TORSDOF 1
ENDMDL
