MODEL 1
REMARK minimizedAffinity -2.84229064
REMARK minimizedRMSD -1
REMARK  1 active torsions:
REMARK  status: ('A' for Active; 'I' for Inactive)
REMARK    1  A    between atoms: C1_2  and  C2_3 
ROOT
ATOM      1  C2  UNL d   1      -1.890   0.029   2.093  0.00  0.00    -0.076 A 
ATOM      2  C3  UNL d   1      -1.207   0.748   3.089  0.00  0.00     0.004 A 
ATOM      3  C4  UNL d   1      -0.004   1.394   2.809  0.00  0.00    -0.003 A 
ATOM      4  C5  UNL d   1       0.535   1.333   1.529  0.00  0.00     0.000 A 
ATOM      5  C6  UNL d   1      -0.139   0.639   0.524  0.00  0.00     0.000 A 
ATOM      6  C7  UNL d   1      -1.361  -0.004   0.786  0.00  0.00    -0.073 A 
ATOM      7  C8  UNL d   1      -2.042  -0.743  -0.334  0.00  0.00     0.078 C 
ENDROOT
BRANCH   1   8
ATOM      8  C1  UNL d   1      -3.177  -0.674   2.462  0.00  0.00     0.053 C 
ATOM      9  C   UNL d   1      -3.094  -1.371   3.812  0.00  0.00     0.018 C 
ENDBRANCH   1   8
TORSDOF 1
ENDMDL
