MODEL 1
REMARK minimizedAffinity -0.195019722
REMARK minimizedRMSD -1
REMARK  1 active torsions:
REMARK  status: ('A' for Active; 'I' for Inactive)
REMARK    1  A    between atoms: N_2  and  C1_3 
ROOT
ATOM      1  C1  UNL d   1      -0.471  -4.817  -2.798  0.00  0.00     0.143 A 
ATOM      2  C2  UNL d   1      -0.760  -5.998  -3.489  0.00  0.00    -0.057 A 
ATOM      3  C3  UNL d   1      -1.308  -5.971  -4.777  0.00  0.00     0.033 A 
ATOM      4  C4  UNL d   1      -1.605  -4.757  -5.387  0.00  0.00    -0.042 A 
ATOM      5  C5  UNL d   1      -1.349  -3.570  -4.710  0.00  0.00     0.033 A 
ATOM      6  C6  UNL d   1      -0.796  -3.604  -3.426  0.00  0.00    -0.057 A 
ENDROOT
BRANCH   1   7
ATOM      7  N   UNL d   1      -0.018  -4.779  -1.477  0.00  0.00    -0.732 N 
ATOM      8  C   UNL d   1       1.341  -5.154  -1.153  0.00  0.00     0.284 C 
ATOM      9  H3  UNL d   1      -0.355  -3.961  -0.974  0.00  0.00     0.395 HD
ENDBRANCH   1   7
TORSDOF 1
ENDMDL
