MODEL 1
REMARK minimizedAffinity 4.12368774
REMARK minimizedRMSD -1
REMARK  1 active torsions:
REMARK  status: ('A' for Active; 'I' for Inactive)
REMARK    1  A    between atoms: N_2  and  C1_3 
ROOT
ATOM      1  C1  UNL d   1       5.354  -3.656  -3.283  0.00  0.00     0.143 A 
ATOM      2  C2  UNL d   1       5.998  -2.589  -2.648  0.00  0.00    -0.057 A 
ATOM      3  C3  UNL d   1       5.328  -1.389  -2.385  0.00  0.00     0.033 A 
ATOM      4  C4  UNL d   1       4.004  -1.223  -2.781  0.00  0.00    -0.042 A 
ATOM      5  C5  UNL d   1       3.352  -2.261  -3.436  0.00  0.00     0.033 A 
ATOM      6  C6  UNL d   1       4.025  -3.460  -3.690  0.00  0.00    -0.057 A 
ENDROOT
BRANCH   1   7
ATOM      7  N   UNL d   1       5.996  -4.839  -3.660  0.00  0.00    -0.732 N 
ATOM      8  C   UNL d   1       5.998  -5.989  -2.782  0.00  0.00     0.284 C 
ATOM      9  H3  UNL d   1       5.847  -5.065  -4.641  0.00  0.00     0.395 HD
ENDBRANCH   1   7
TORSDOF 1
ENDMDL
