MODEL 1
REMARK minimizedAffinity -0.559612989
REMARK minimizedRMSD -1
REMARK  1 active torsions:
REMARK  status: ('A' for Active; 'I' for Inactive)
REMARK    1  A    between atoms: N_2  and  C1_3 
ROOT
ATOM      1  C1  UNL d   1      -1.891   2.067  -1.562  0.00  0.00     0.143 A 
ATOM      2  C2  UNL d   1      -2.564   0.841  -1.518  0.00  0.00    -0.057 A 
ATOM      3  C3  UNL d   1      -3.773   0.652  -2.199  0.00  0.00     0.033 A 
ATOM      4  C4  UNL d   1      -4.347   1.698  -2.913  0.00  0.00    -0.042 A 
ATOM      5  C5  UNL d   1      -3.708   2.933  -2.950  0.00  0.00     0.033 A 
ATOM      6  C6  UNL d   1      -2.497   3.113  -2.274  0.00  0.00    -0.057 A 
ENDROOT
BRANCH   1   7
ATOM      7  N   UNL d   1      -0.736   2.346  -0.827  0.00  0.00    -0.732 N 
ATOM      8  C   UNL d   1      -0.127   3.658  -0.882  0.00  0.00     0.284 C 
ATOM      9  H3  UNL d   1      -0.761   1.939   0.105  0.00  0.00     0.395 HD
ENDBRANCH   1   7
TORSDOF 1
ENDMDL
