MODEL 1
REMARK minimizedAffinity 1.27293122
REMARK minimizedRMSD -1
REMARK  1 active torsions:
REMARK  status: ('A' for Active; 'I' for Inactive)
REMARK    1  A    between atoms: N_2  and  C1_3 
ROOT
ATOM      1  C1  UNL d   1       0.309   2.866   0.622  0.00  0.00     0.143 A 
ATOM      2  C2  UNL d   1      -0.626   2.120   1.348  0.00  0.00    -0.057 A 
ATOM      3  C3  UNL d   1      -0.319   1.606   2.613  0.00  0.00     0.033 A 
ATOM      4  C4  UNL d   1       0.942   1.804   3.165  0.00  0.00    -0.042 A 
ATOM      5  C5  UNL d   1       1.896   2.521   2.450  0.00  0.00     0.033 A 
ATOM      6  C6  UNL d   1       1.582   3.038   1.190  0.00  0.00    -0.057 A 
ENDROOT
BRANCH   1   7
ATOM      7  N   UNL d   1       0.099   3.320  -0.682  0.00  0.00    -0.732 N 
ATOM      8  C   UNL d   1       0.652   4.583  -1.121  0.00  0.00     0.284 C 
ATOM      9  H3  UNL d   1       0.170   2.574  -1.370  0.00  0.00     0.395 HD
ENDBRANCH   1   7
TORSDOF 1
ENDMDL
