MODEL 1
REMARK minimizedAffinity -3.89895225
REMARK minimizedRMSD -1
REMARK  1 active torsions:
REMARK  status: ('A' for Active; 'I' for Inactive)
REMARK    1  A    between atoms: C1_2  and  C2_3 
ROOT
ATOM      1  C2  UNL d   1       0.396  -0.045  -0.047  0.00  0.00    -0.076 A 
ATOM      2  C3  UNL d   1       0.909   0.217   1.235  0.00  0.00     0.004 A 
ATOM      3  C4  UNL d   1       1.815  -0.654   1.838  0.00  0.00    -0.003 A 
ATOM      4  C5  UNL d   1       2.223  -1.802   1.168  0.00  0.00     0.000 A 
ATOM      5  C6  UNL d   1       1.737  -2.069  -0.112  0.00  0.00     0.000 A 
ATOM      6  C7  UNL d   1       0.836  -1.193  -0.740  0.00  0.00    -0.073 A 
ATOM      7  C8  UNL d   1       0.340  -1.534  -2.119  0.00  0.00     0.078 C 
ENDROOT
BRANCH   1   8
ATOM      8  C1  UNL d   1      -0.605   0.922  -0.639  0.00  0.00     0.053 C 
ATOM      9  C   UNL d   1      -2.014   0.698  -0.111  0.00  0.00     0.018 C 
ENDBRANCH   1   8
TORSDOF 1
ENDMDL
