MODEL 1
REMARK minimizedAffinity -3.99547672
REMARK minimizedRMSD -1
REMARK  1 active torsions:
REMARK  status: ('A' for Active; 'I' for Inactive)
REMARK    1  A    between atoms: C1_2  and  C2_3 
ROOT
ATOM      1  C2  UNL d   1      -2.942   0.511   0.054  0.00  0.00    -0.076 A 
ATOM      2  C3  UNL d   1      -3.684  -0.558  -0.478  0.00  0.00     0.004 A 
ATOM      3  C4  UNL d   1      -4.836  -1.018   0.156  0.00  0.00    -0.003 A 
ATOM      4  C5  UNL d   1      -5.266  -0.416   1.334  0.00  0.00     0.000 A 
ATOM      5  C6  UNL d   1      -4.553   0.658   1.866  0.00  0.00     0.000 A 
ATOM      6  C7  UNL d   1      -3.398   1.144   1.230  0.00  0.00    -0.073 A 
ATOM      7  C8  UNL d   1      -2.664   2.300   1.852  0.00  0.00     0.078 C 
ENDROOT
BRANCH   1   8
ATOM      8  C1  UNL d   1      -1.685   0.949  -0.664  0.00  0.00     0.053 C 
ATOM      9  C   UNL d   1      -0.462   0.154  -0.234  0.00  0.00     0.018 C 
ENDBRANCH   1   8
TORSDOF 1
ENDMDL
