MODEL 1
REMARK minimizedAffinity -0.929703057
REMARK minimizedRMSD -1
REMARK  1 active torsions:
REMARK  status: ('A' for Active; 'I' for Inactive)
REMARK    1  A    between atoms: C1_2  and  C2_3 
ROOT
ATOM      1  C2  UNL d   1       0.191   0.332  -0.583  0.00  0.00    -0.076 A 
ATOM      2  C3  UNL d   1       0.303  -1.068  -0.652  0.00  0.00     0.004 A 
ATOM      3  C4  UNL d   1       1.552  -1.687  -0.668  0.00  0.00    -0.003 A 
ATOM      4  C5  UNL d   1       2.708  -0.917  -0.616  0.00  0.00     0.000 A 
ATOM      5  C6  UNL d   1       2.616   0.472  -0.530  0.00  0.00     0.000 A 
ATOM      6  C7  UNL d   1       1.365   1.111  -0.496  0.00  0.00    -0.073 A 
ATOM      7  C8  UNL d   1       1.323   2.612  -0.409  0.00  0.00     0.078 C 
ENDROOT
BRANCH   1   8
ATOM      8  C1  UNL d   1      -1.189   0.949  -0.596  0.00  0.00     0.053 C 
ATOM      9  C   UNL d   1      -1.960   0.679   0.687  0.00  0.00     0.018 C 
ENDBRANCH   1   8
TORSDOF 1
ENDMDL
