MODEL 1
REMARK minimizedAffinity -3.53943467
REMARK minimizedRMSD -1
REMARK  1 active torsions:
REMARK  status: ('A' for Active; 'I' for Inactive)
REMARK    1  A    between atoms: C1_2  and  C2_3 
ROOT
ATOM      1  C2  UNL d   1       0.471  -0.057  -0.070  0.00  0.00    -0.076 A 
ATOM      2  C3  UNL d   1       0.523  -1.295  -0.734  0.00  0.00     0.004 A 
ATOM      3  C4  UNL d   1       1.612  -2.151  -0.572  0.00  0.00    -0.003 A 
ATOM      4  C5  UNL d   1       2.665  -1.783   0.258  0.00  0.00     0.000 A 
ATOM      5  C6  UNL d   1       2.622  -0.567   0.938  0.00  0.00     0.000 A 
ATOM      6  C7  UNL d   1       1.525   0.301   0.798  0.00  0.00    -0.073 A 
ATOM      7  C8  UNL d   1       1.534   1.603   1.551  0.00  0.00     0.078 C 
ENDROOT
BRANCH   1   8
ATOM      8  C1  UNL d   1      -0.722   0.842  -0.305  0.00  0.00     0.053 C 
ATOM      9  C   UNL d   1      -1.900   0.493   0.591  0.00  0.00     0.018 C 
ENDBRANCH   1   8
TORSDOF 1
ENDMDL
