MODEL 1
REMARK minimizedAffinity -4.84775877
REMARK minimizedRMSD -1
REMARK  0 active torsions:
REMARK  status: ('A' for Active; 'I' for Inactive)
ROOT
ATOM      1  C1  BNZ d   1       1.037  -1.261   0.062  0.00  0.00     0.000 A 
ATOM      2  C2  BNZ d   1       2.368  -1.396   0.352  0.00  0.00     0.000 A 
ATOM      3  C3  BNZ d   1       3.112  -0.318   0.744  0.00  0.00     0.000 A 
ATOM      4  C4  BNZ d   1       2.534   0.899   0.807  0.00  0.00     0.000 A 
ATOM      5  C5  BNZ d   1       1.194   1.053   0.509  0.00  0.00     0.000 A 
ATOM      6  C6  BNZ d   1       0.440  -0.042   0.152  0.00  0.00     0.000 A 
ENDROOT
TORSDOF 0
ENDMDL
