MODEL 1
REMARK minimizedAffinity -5.03994226
REMARK minimizedRMSD -1
REMARK  0 active torsions:
REMARK  status: ('A' for Active; 'I' for Inactive)
ROOT
ATOM      1  C1  BNZ d   1       0.767  -1.799  -1.046  0.00  0.00     0.000 A 
ATOM      2  C2  BNZ d   1       0.138  -0.829  -0.312  0.00  0.00     0.000 A 
ATOM      3  C3  BNZ d   1       0.772  -0.226   0.739  0.00  0.00     0.000 A 
ATOM      4  C4  BNZ d   1       2.016  -0.620   1.078  0.00  0.00     0.000 A 
ATOM      5  C5  BNZ d   1       2.660  -1.604   0.353  0.00  0.00     0.000 A 
ATOM      6  C6  BNZ d   1       2.034  -2.181  -0.728  0.00  0.00     0.000 A 
ENDROOT
TORSDOF 0
ENDMDL
