MODEL 1
REMARK minimizedAffinity -3.43913126
REMARK minimizedRMSD -1
REMARK  0 active torsions:
REMARK  status: ('A' for Active; 'I' for Inactive)
ROOT
ATOM      1  C1  BNZ d   1       0.970  -1.125   0.560  0.00  0.00     0.000 A 
ATOM      2  C2  BNZ d   1       0.569   0.174   0.720  0.00  0.00     0.000 A 
ATOM      3  C3  BNZ d   1      -0.357   0.729  -0.119  0.00  0.00     0.000 A 
ATOM      4  C4  BNZ d   1      -0.850  -0.003  -1.139  0.00  0.00     0.000 A 
ATOM      5  C5  BNZ d   1      -0.448  -1.311  -1.320  0.00  0.00     0.000 A 
ATOM      6  C6  BNZ d   1       0.455  -1.878  -0.450  0.00  0.00     0.000 A 
ENDROOT
TORSDOF 0
ENDMDL
