MODEL 1
REMARK minimizedAffinity -4.2216897
REMARK minimizedRMSD -1
REMARK  0 active torsions:
REMARK  status: ('A' for Active; 'I' for Inactive)
ROOT
ATOM      1  C1  BNZ d   1       1.466  -0.179   0.801  0.00  0.00     0.000 A 
ATOM      2  C2  BNZ d   1       0.713  -0.727  -0.202  0.00  0.00     0.000 A 
ATOM      3  C3  BNZ d   1       1.292  -1.499  -1.171  0.00  0.00     0.000 A 
ATOM      4  C4  BNZ d   1       2.627  -1.688  -1.157  0.00  0.00     0.000 A 
ATOM      5  C5  BNZ d   1       3.401  -1.135  -0.157  0.00  0.00     0.000 A 
ATOM      6  C6  BNZ d   1       2.810  -0.391   0.838  0.00  0.00     0.000 A 
ENDROOT
TORSDOF 0
ENDMDL
