MODEL 1
REMARK minimizedAffinity -4.90007544
REMARK minimizedRMSD -1
REMARK  0 active torsions:
REMARK  status: ('A' for Active; 'I' for Inactive)
ROOT
ATOM      1  C1  BNZ d   1       2.360  -0.121   0.954  0.00  0.00     0.000 A 
ATOM      2  C2  BNZ d   1       1.081   0.345   0.810  0.00  0.00     0.000 A 
ATOM      3  C3  BNZ d   1       0.191  -0.295  -0.007  0.00  0.00     0.000 A 
ATOM      4  C4  BNZ d   1       0.592  -1.374  -0.709  0.00  0.00     0.000 A 
ATOM      5  C5  BNZ d   1       1.882  -1.850  -0.582  0.00  0.00     0.000 A 
ATOM      6  C6  BNZ d   1       2.764  -1.227   0.271  0.00  0.00     0.000 A 
ENDROOT
TORSDOF 0
ENDMDL
