MODEL 1
REMARK minimizedAffinity -2.77552462
REMARK minimizedRMSD -1
REMARK  0 active torsions:
REMARK  status: ('A' for Active; 'I' for Inactive)
ROOT
ATOM      1  C1  BNZ d   1       0.087   1.914  -0.334  0.00  0.00     0.000 A 
ATOM      2  C2  BNZ d   1      -0.485   0.963  -1.135  0.00  0.00     0.000 A 
ATOM      3  C3  BNZ d   1      -0.139  -0.354  -1.016  0.00  0.00     0.000 A 
ATOM      4  C4  BNZ d   1       0.807  -0.712  -0.124  0.00  0.00     0.000 A 
ATOM      5  C5  BNZ d   1       1.401   0.237   0.685  0.00  0.00     0.000 A 
ATOM      6  C6  BNZ d   1       1.021   1.556   0.589  0.00  0.00     0.000 A 
ENDROOT
TORSDOF 0
ENDMDL
