MODEL 1
REMARK minimizedAffinity 0.0741067082
REMARK minimizedRMSD -1
REMARK  2 active torsions:
REMARK  status: ('A' for Active; 'I' for Inactive)
REMARK    1  A    between atoms: C2'_3  and  C1'_4 
REMARK    2  A    between atoms: C1'_4  and  C1_5 
ROOT
ATOM      1  C1  I4B d   1       0.318   0.467   0.424  0.00  0.00    -0.075 A 
ATOM      2  C2  I4B d   1      -0.805  -0.043   1.025  0.00  0.00     0.003 A 
ATOM      3  C3  I4B d   1      -1.870  -0.543   0.237  0.00  0.00     0.002 A 
ATOM      4  C4  I4B d   1      -1.791  -0.468  -1.139  0.00  0.00    -0.004 A 
ATOM      5  C5  I4B d   1      -0.641   0.029  -1.746  0.00  0.00     0.002 A 
ATOM      6  C6  I4B d   1       0.426   0.488  -0.960  0.00  0.00     0.003 A 
ENDROOT
BRANCH   1   7
ATOM      7  C1' I4B d   1       1.410   1.017   1.287  0.00  0.00     0.060 C 
BRANCH   7   8
ATOM      8  C2' I4B d   1       2.265  -0.143   1.753  0.00  0.00    -0.013 C 
ATOM      9  C4' I4B d   1       1.506  -1.035   2.700  0.00  0.00     0.013 C 
ATOM     10  C3' I4B d   1       2.719  -0.901   0.541  0.00  0.00     0.013 C 
ENDBRANCH   7   8
ENDBRANCH   1   7
TORSDOF 2
ENDMDL
