MODEL 1
REMARK minimizedAffinity 0.473009288
REMARK minimizedRMSD -1
REMARK  2 active torsions:
REMARK  status: ('A' for Active; 'I' for Inactive)
REMARK    1  A    between atoms: C2'_3  and  C1'_4 
REMARK    2  A    between atoms: C1'_4  and  C1_5 
ROOT
ATOM      1  C1  I4B d   1      -0.152   1.139  -0.290  0.00  0.00    -0.075 A 
ATOM      2  C2  I4B d   1       0.925   0.622   0.387  0.00  0.00     0.003 A 
ATOM      3  C3  I4B d   1       0.794  -0.581   1.122  0.00  0.00     0.002 A 
ATOM      4  C4  I4B d   1      -0.435  -1.204   1.192  0.00  0.00    -0.004 A 
ATOM      5  C5  I4B d   1      -1.520  -0.692   0.486  0.00  0.00     0.002 A 
ATOM      6  C6  I4B d   1      -1.374   0.480  -0.271  0.00  0.00     0.003 A 
ENDROOT
BRANCH   1   7
ATOM      7  C1' I4B d   1       0.013   2.429  -1.029  0.00  0.00     0.060 C 
BRANCH   7   8
ATOM      8  C2' I4B d   1      -0.603   2.262  -2.403  0.00  0.00    -0.013 C 
ATOM      9  C4' I4B d   1      -1.927   2.974  -2.497  0.00  0.00     0.013 C 
ATOM     10  C3' I4B d   1       0.370   2.793  -3.414  0.00  0.00     0.013 C 
ENDBRANCH   7   8
ENDBRANCH   1   7
TORSDOF 2
ENDMDL
