MODEL 1
REMARK minimizedAffinity 1.00653505
REMARK minimizedRMSD -1
REMARK  2 active torsions:
REMARK  status: ('A' for Active; 'I' for Inactive)
REMARK    1  A    between atoms: C2'_3  and  C1'_4 
REMARK    2  A    between atoms: C1'_4  and  C1_5 
ROOT
ATOM      1  C1  I4B d   1      -0.511   0.594  -1.051  0.00  0.00    -0.075 A 
ATOM      2  C2  I4B d   1      -1.616   0.271  -1.799  0.00  0.00     0.003 A 
ATOM      3  C3  I4B d   1      -2.059   1.139  -2.826  0.00  0.00     0.002 A 
ATOM      4  C4  I4B d   1      -1.404   2.335  -3.036  0.00  0.00    -0.004 A 
ATOM      5  C5  I4B d   1      -0.271   2.650  -2.291  0.00  0.00     0.002 A 
ATOM      6  C6  I4B d   1       0.186   1.768  -1.301  0.00  0.00     0.003 A 
ENDROOT
BRANCH   1   7
ATOM      7  C1' I4B d   1      -0.090  -0.330   0.048  0.00  0.00     0.060 C 
BRANCH   7   8
ATOM      8  C2' I4B d   1       1.423  -0.301   0.128  0.00  0.00    -0.013 C 
ATOM      9  C4' I4B d   1       1.892  -0.219   1.556  0.00  0.00     0.013 C 
ATOM     10  C3' I4B d   1       1.946  -1.536  -0.544  0.00  0.00     0.013 C 
ENDBRANCH   7   8
ENDBRANCH   1   7
TORSDOF 2
ENDMDL
