MODEL 1
REMARK minimizedAffinity -5.50647211
REMARK minimizedRMSD -1
REMARK  2 active torsions:
REMARK  status: ('A' for Active; 'I' for Inactive)
REMARK    1  A    between atoms: C2'_3  and  C1'_4 
REMARK    2  A    between atoms: C1'_4  and  C1_5 
ROOT
ATOM      1  C1  I4B d   1      -0.016  -0.033   0.103  0.00  0.00    -0.075 A 
ATOM      2  C2  I4B d   1      -1.173   0.056   0.836  0.00  0.00     0.003 A 
ATOM      3  C3  I4B d   1      -1.158  -0.209   2.227  0.00  0.00     0.002 A 
ATOM      4  C4  I4B d   1       0.018  -0.606   2.830  0.00  0.00    -0.004 A 
ATOM      5  C5  I4B d   1       1.195  -0.673   2.090  0.00  0.00     0.002 A 
ATOM      6  C6  I4B d   1       1.181  -0.373   0.720  0.00  0.00     0.003 A 
ENDROOT
BRANCH   1   7
ATOM      7  C1' I4B d   1      -0.074   0.222  -1.370  0.00  0.00     0.060 C 
BRANCH   7   8
ATOM      8  C2' I4B d   1      -0.652   1.606  -1.582  0.00  0.00    -0.013 C 
ATOM      9  C4' I4B d   1       0.347   2.519  -2.242  0.00  0.00     0.013 C 
ATOM     10  C3' I4B d   1      -1.892   1.467  -2.415  0.00  0.00     0.013 C 
ENDBRANCH   7   8
ENDBRANCH   1   7
TORSDOF 2
ENDMDL
