MODEL 1
REMARK minimizedAffinity 2.97083378
REMARK minimizedRMSD -1
REMARK  2 active torsions:
REMARK  status: ('A' for Active; 'I' for Inactive)
REMARK    1  A    between atoms: C2'_3  and  C1'_4 
REMARK    2  A    between atoms: C1'_4  and  C1_5 
ROOT
ATOM      1  C1  I4B d   1      -3.141   0.343  -2.983  0.00  0.00    -0.075 A 
ATOM      2  C2  I4B d   1      -3.003  -0.969  -2.606  0.00  0.00     0.003 A 
ATOM      3  C3  I4B d   1      -3.789  -1.974  -3.222  0.00  0.00     0.002 A 
ATOM      4  C4  I4B d   1      -4.728  -1.618  -4.167  0.00  0.00    -0.004 A 
ATOM      5  C5  I4B d   1      -4.850  -0.289  -4.565  0.00  0.00     0.002 A 
ATOM      6  C6  I4B d   1      -4.043   0.696  -3.979  0.00  0.00     0.003 A 
ENDROOT
BRANCH   1   7
ATOM      7  C1' I4B d   1      -2.319   1.383  -2.289  0.00  0.00     0.060 C 
BRANCH   7   8
ATOM      8  C2' I4B d   1      -2.099   2.527  -3.257  0.00  0.00    -0.013 C 
ATOM      9  C4' I4B d   1      -3.144   3.598  -3.082  0.00  0.00     0.013 C 
ATOM     10  C3' I4B d   1      -0.722   3.072  -3.025  0.00  0.00     0.013 C 
ENDBRANCH   7   8
ENDBRANCH   1   7
TORSDOF 2
ENDMDL
