MODEL 1
REMARK minimizedAffinity -4.76764631
REMARK minimizedRMSD -1
REMARK  2 active torsions:
REMARK  status: ('A' for Active; 'I' for Inactive)
REMARK    1  A    between atoms: C2'_3  and  C1'_4 
REMARK    2  A    between atoms: C1'_4  and  C1_5 
ROOT
ATOM      1  C1  I4B d   1       0.131  -0.013  -0.602  0.00  0.00    -0.075 A 
ATOM      2  C2  I4B d   1       1.397  -0.443  -0.292  0.00  0.00     0.003 A 
ATOM      3  C3  I4B d   1       1.746  -0.723   1.052  0.00  0.00     0.002 A 
ATOM      4  C4  I4B d   1       0.820  -0.511   2.052  0.00  0.00    -0.004 A 
ATOM      5  C5  I4B d   1      -0.470  -0.097   1.734  0.00  0.00     0.002 A 
ATOM      6  C6  I4B d   1      -0.821   0.142   0.397  0.00  0.00     0.003 A 
ENDROOT
BRANCH   1   7
ATOM      7  C1' I4B d   1      -0.193   0.304  -2.027  0.00  0.00     0.060 C 
BRANCH   7   8
ATOM      8  C2' I4B d   1      -0.735   1.718  -2.079  0.00  0.00    -0.013 C 
ATOM      9  C4' I4B d   1       0.189   2.628  -2.845  0.00  0.00     0.013 C 
ATOM     10  C3' I4B d   1      -2.094   1.670  -2.711  0.00  0.00     0.013 C 
ENDBRANCH   7   8
ENDBRANCH   1   7
TORSDOF 2
ENDMDL
