MODEL 1
REMARK minimizedAffinity -4.36574173
REMARK minimizedRMSD -1
REMARK  2 active torsions:
REMARK  status: ('A' for Active; 'I' for Inactive)
REMARK    1  A    between atoms: C2'_3  and  C1'_4 
REMARK    2  A    between atoms: C1'_4  and  C1_5 
ROOT
ATOM      1  C1  I4B d   1      -0.541   0.152  -0.298  0.00  0.00    -0.075 A 
ATOM      2  C2  I4B d   1       0.677  -0.374   0.053  0.00  0.00     0.003 A 
ATOM      3  C3  I4B d   1       0.935  -0.739   1.396  0.00  0.00     0.002 A 
ATOM      4  C4  I4B d   1      -0.028  -0.516   2.358  0.00  0.00    -0.004 A 
ATOM      5  C5  I4B d   1      -1.271  -0.005   1.997  0.00  0.00     0.002 A 
ATOM      6  C6  I4B d   1      -1.534   0.320   0.658  0.00  0.00     0.003 A 
ENDROOT
BRANCH   1   7
ATOM      7  C1' I4B d   1      -0.769   0.558  -1.720  0.00  0.00     0.060 C 
BRANCH   7   8
ATOM      8  C2' I4B d   1      -1.154   2.023  -1.732  0.00  0.00    -0.013 C 
ATOM      9  C4' I4B d   1      -0.169   2.839  -2.526  0.00  0.00     0.013 C 
ATOM     10  C3' I4B d   1      -2.535   2.134  -2.304  0.00  0.00     0.013 C 
ENDBRANCH   7   8
ENDBRANCH   1   7
TORSDOF 2
ENDMDL
