MODEL 1
REMARK minimizedAffinity -4.45448589
REMARK minimizedRMSD -1
REMARK  2 active torsions:
REMARK  status: ('A' for Active; 'I' for Inactive)
REMARK    1  A    between atoms: C2'_3  and  C1'_4 
REMARK    2  A    between atoms: C1'_4  and  C1_5 
ROOT
ATOM      1  C1  I4B d   1      -0.131   0.368   0.026  0.00  0.00    -0.075 A 
ATOM      2  C2  I4B d   1      -1.119   0.513   0.968  0.00  0.00     0.003 A 
ATOM      3  C3  I4B d   1      -0.890   0.116   2.308  0.00  0.00     0.002 A 
ATOM      4  C4  I4B d   1       0.315  -0.465   2.648  0.00  0.00    -0.004 A 
ATOM      5  C5  I4B d   1       1.323  -0.591   1.697  0.00  0.00     0.002 A 
ATOM      6  C6  I4B d   1       1.104  -0.161   0.380  0.00  0.00     0.003 A 
ENDROOT
BRANCH   1   7
ATOM      7  C1' I4B d   1      -0.418   0.767  -1.386  0.00  0.00     0.060 C 
BRANCH   7   8
ATOM      8  C2' I4B d   1      -0.527   2.278  -1.431  0.00  0.00    -0.013 C 
ATOM      9  C4' I4B d   1       0.703   2.896  -2.042  0.00  0.00     0.013 C 
ATOM     10  C3' I4B d   1      -1.756   2.630  -2.215  0.00  0.00     0.013 C 
ENDBRANCH   7   8
ENDBRANCH   1   7
TORSDOF 2
ENDMDL
