MODEL 1
REMARK minimizedAffinity -1.81089032
REMARK minimizedRMSD -1
REMARK  0 active torsions:
REMARK  status: ('A' for Active; 'I' for Inactive)
ROOT
ATOM      1  C   UNL d   1      -3.058  -1.642  -1.883  0.00  0.00     0.023 A 
ATOM      2  C1  UNL d   1      -2.485  -0.602  -2.615  0.00  0.00     0.003 A 
ATOM      3  C2  UNL d   1      -1.495   0.197  -2.038  0.00  0.00     0.048 A 
ATOM      4  C3  UNL d   1      -1.082  -0.051  -0.730  0.00  0.00     0.023 A 
ATOM      5  C4  UNL d   1      -1.652  -1.091   0.006  0.00  0.00     0.048 A 
ATOM      6  C5  UNL d   1      -2.643  -1.886  -0.574  0.00  0.00     0.003 A 
ATOM      7  I   UNL d   1       0.392   1.136   0.130  0.00  0.00    -0.146 I 
ENDROOT
TORSDOF 0
ENDMDL
