MODEL 1
REMARK minimizedAffinity 6.87193203
REMARK minimizedRMSD -1
REMARK  0 active torsions:
REMARK  status: ('A' for Active; 'I' for Inactive)
ROOT
ATOM      1  C   UNL d   1      -5.711   3.385   0.283  0.00  0.00     0.023 A 
ATOM      2  C1  UNL d   1      -5.375   2.922   1.555  0.00  0.00     0.003 A 
ATOM      3  C2  UNL d   1      -4.221   2.158   1.739  0.00  0.00     0.048 A 
ATOM      4  C3  UNL d   1      -3.407   1.861   0.646  0.00  0.00     0.023 A 
ATOM      5  C4  UNL d   1      -3.739   2.322  -0.629  0.00  0.00     0.048 A 
ATOM      6  C5  UNL d   1      -4.895   3.085  -0.808  0.00  0.00     0.003 A 
ATOM      7  I   UNL d   1      -1.688   0.724   0.917  0.00  0.00    -0.146 I 
ENDROOT
TORSDOF 0
ENDMDL
