MODEL 1
REMARK minimizedAffinity -5.09419441
REMARK minimizedRMSD -1
REMARK  0 active torsions:
REMARK  status: ('A' for Active; 'I' for Inactive)
ROOT
ATOM      1  C   UNL d   1       2.813  -1.135   1.596  0.00  0.00     0.023 A 
ATOM      2  C1  UNL d   1       2.633   0.139   1.057  0.00  0.00     0.003 A 
ATOM      3  C2  UNL d   1       1.409   0.488   0.483  0.00  0.00     0.048 A 
ATOM      4  C3  UNL d   1       0.369  -0.441   0.452  0.00  0.00     0.023 A 
ATOM      5  C4  UNL d   1       0.545  -1.716   0.991  0.00  0.00     0.048 A 
ATOM      6  C5  UNL d   1       1.771  -2.061   1.563  0.00  0.00     0.003 A 
ATOM      7  I   UNL d   1      -1.453   0.077  -0.402  0.00  0.00    -0.146 I 
ENDROOT
TORSDOF 0
ENDMDL
