MODEL 1
REMARK minimizedAffinity -4.82953453
REMARK minimizedRMSD -1
REMARK  0 active torsions:
REMARK  status: ('A' for Active; 'I' for Inactive)
ROOT
ATOM      1  C   UNL d   1       3.268  -1.934   2.212  0.00  0.00     0.023 A 
ATOM      2  C1  UNL d   1       3.035  -0.653   1.712  0.00  0.00     0.003 A 
ATOM      3  C2  UNL d   1       1.832  -0.363   1.066  0.00  0.00     0.048 A 
ATOM      4  C3  UNL d   1       0.865  -1.358   0.924  0.00  0.00     0.023 A 
ATOM      5  C4  UNL d   1       1.093  -2.641   1.424  0.00  0.00     0.048 A 
ATOM      6  C5  UNL d   1       2.298  -2.927   2.068  0.00  0.00     0.003 A 
ATOM      7  I   UNL d   1      -0.927  -0.927  -0.037  0.00  0.00    -0.146 I 
ENDROOT
TORSDOF 0
ENDMDL
