MODEL 1
REMARK minimizedAffinity -0.822210968
REMARK minimizedRMSD -1
REMARK  0 active torsions:
REMARK  status: ('A' for Active; 'I' for Inactive)
ROOT
ATOM      1  C   UNL d   1       1.971   1.717   0.478  0.00  0.00     0.023 A 
ATOM      2  C1  UNL d   1       0.656   1.970   0.089  0.00  0.00     0.003 A 
ATOM      3  C2  UNL d   1      -0.300   0.954   0.157  0.00  0.00     0.048 A 
ATOM      4  C3  UNL d   1       0.066  -0.311   0.615  0.00  0.00     0.023 A 
ATOM      5  C4  UNL d   1       1.381  -0.568   1.005  0.00  0.00     0.048 A 
ATOM      6  C5  UNL d   1       2.334   0.450   0.936  0.00  0.00     0.003 A 
ATOM      7  I   UNL d   1      -1.355  -1.824   0.716  0.00  0.00    -0.146 I 
ENDROOT
TORSDOF 0
ENDMDL
