MODEL 1
REMARK minimizedAffinity -1.92164171
REMARK minimizedRMSD -1
REMARK  0 active torsions:
REMARK  status: ('A' for Active; 'I' for Inactive)
ROOT
ATOM      1  C   UNL d   1       1.089   0.472   0.808  0.00  0.00     0.023 A 
ATOM      2  C1  UNL d   1       0.993   1.410  -0.220  0.00  0.00     0.003 A 
ATOM      3  C2  UNL d   1      -0.048   1.328  -1.147  0.00  0.00     0.048 A 
ATOM      4  C3  UNL d   1      -0.990   0.306  -1.040  0.00  0.00     0.023 A 
ATOM      5  C4  UNL d   1      -0.898  -0.635  -0.012  0.00  0.00     0.048 A 
ATOM      6  C5  UNL d   1       0.145  -0.549   0.912  0.00  0.00     0.003 A 
ATOM      7  I   UNL d   1      -2.541   0.181  -2.418  0.00  0.00    -0.146 I 
ENDROOT
TORSDOF 0
ENDMDL
