MODEL 1
REMARK minimizedAffinity -2.46610618
REMARK minimizedRMSD -1
REMARK  0 active torsions:
REMARK  status: ('A' for Active; 'I' for Inactive)
ROOT
ATOM      1  C   UNL d   1       2.639  -0.697   2.115  0.00  0.00     0.023 A 
ATOM      2  C1  UNL d   1       1.623  -1.649   2.193  0.00  0.00     0.003 A 
ATOM      3  C2  UNL d   1       0.471  -1.510   1.417  0.00  0.00     0.048 A 
ATOM      4  C3  UNL d   1       0.342  -0.415   0.562  0.00  0.00     0.023 A 
ATOM      5  C4  UNL d   1       1.357   0.540   0.479  0.00  0.00     0.048 A 
ATOM      6  C5  UNL d   1       2.506   0.396   1.258  0.00  0.00     0.003 A 
ATOM      7  I   UNL d   1      -1.371  -0.206  -0.596  0.00  0.00    -0.146 I 
ENDROOT
TORSDOF 0
ENDMDL
