MODEL 1
REMARK minimizedAffinity -3.90222049
REMARK minimizedRMSD -1
REMARK  0 active torsions:
REMARK  status: ('A' for Active; 'I' for Inactive)
ROOT
ATOM      1  C   UNL d   1      -1.532  -0.962   0.573  0.00  0.00     0.023 A 
ATOM      2  C1  UNL d   1      -0.854  -2.030   1.162  0.00  0.00     0.003 A 
ATOM      3  C2  UNL d   1       0.531  -1.970   1.333  0.00  0.00     0.048 A 
ATOM      4  C3  UNL d   1       1.231  -0.839   0.915  0.00  0.00     0.023 A 
ATOM      5  C4  UNL d   1       0.557   0.232   0.327  0.00  0.00     0.048 A 
ATOM      6  C5  UNL d   1      -0.827   0.167   0.156  0.00  0.00     0.003 A 
ATOM      7  I   UNL d   1       3.292  -0.748   1.169  0.00  0.00    -0.146 I 
ENDROOT
TORSDOF 0
ENDMDL
