MODEL 1
REMARK minimizedAffinity -2.73626804
REMARK minimizedRMSD -1
REMARK  0 active torsions:
REMARK  status: ('A' for Active; 'I' for Inactive)
ROOT
ATOM      1  C1  DEN d   1      -1.545   2.242   0.050  0.00  0.00     0.130 A 
ATOM      2  C2  DEN d   1      -1.884   2.332   1.468  0.00  0.00    -0.031 A 
ATOM      3  C3  DEN d   1      -1.208   1.224   2.171  0.00  0.00     0.027 A 
ATOM      4  C4  DEN d   1       0.327  -0.611   1.207  0.00  0.00     0.027 A 
ATOM      5  C5  DEN d   1       0.898  -1.107   0.056  0.00  0.00    -0.003 A 
ATOM      6  C6  DEN d   1       0.669  -0.546  -1.173  0.00  0.00     0.001 A 
ATOM      7  C7  DEN d   1      -0.116   0.572  -1.273  0.00  0.00     0.017 A 
ATOM      8  C8  DEN d   1      -0.701   1.073  -0.117  0.00  0.00    -0.094 A 
ATOM      9  C9  DEN d   1      -0.448   0.499   1.117  0.00  0.00    -0.072 A 
ENDROOT
TORSDOF 0
ENDMDL
