MODEL 1
REMARK minimizedAffinity -2.92802691
REMARK minimizedRMSD -1
REMARK  0 active torsions:
REMARK  status: ('A' for Active; 'I' for Inactive)
ROOT
ATOM      1  C1  DEN d   1      -1.844   2.050   0.457  0.00  0.00     0.130 A 
ATOM      2  C2  DEN d   1      -2.006   2.158   1.904  0.00  0.00    -0.031 A 
ATOM      3  C3  DEN d   1      -1.132   1.150   2.537  0.00  0.00     0.027 A 
ATOM      4  C4  DEN d   1       0.451  -0.555   1.423  0.00  0.00     0.027 A 
ATOM      5  C5  DEN d   1       0.918  -1.032   0.219  0.00  0.00    -0.003 A 
ATOM      6  C6  DEN d   1       0.476  -0.542  -0.982  0.00  0.00     0.001 A 
ATOM      7  C7  DEN d   1      -0.428   0.486  -1.004  0.00  0.00     0.017 A 
ATOM      8  C8  DEN d   1      -0.910   0.967   0.207  0.00  0.00    -0.094 A 
ATOM      9  C9  DEN d   1      -0.441   0.468   1.410  0.00  0.00    -0.072 A 
ENDROOT
TORSDOF 0
ENDMDL
