MODEL 1
REMARK minimizedAffinity -3.97880101
REMARK minimizedRMSD -1
REMARK  0 active torsions:
REMARK  status: ('A' for Active; 'I' for Inactive)
ROOT
ATOM      1  C1  DEN d   1      -1.574   1.853  -0.057  0.00  0.00     0.130 A 
ATOM      2  C2  DEN d   1      -2.029   2.146   1.299  0.00  0.00    -0.031 A 
ATOM      3  C3  DEN d   1      -1.342   1.220   2.221  0.00  0.00     0.027 A 
ATOM      4  C4  DEN d   1       0.377  -0.626   1.683  0.00  0.00     0.027 A 
ATOM      5  C5  DEN d   1       1.067  -1.257   0.672  0.00  0.00    -0.003 A 
ATOM      6  C6  DEN d   1       0.901  -0.921  -0.646  0.00  0.00     0.001 A 
ATOM      7  C7  DEN d   1       0.058   0.104  -0.984  0.00  0.00     0.017 A 
ATOM      8  C8  DEN d   1      -0.647   0.739   0.030  0.00  0.00    -0.094 A 
ATOM      9  C9  DEN d   1      -0.457   0.393   1.357  0.00  0.00    -0.072 A 
ENDROOT
TORSDOF 0
ENDMDL
