MODEL 1
REMARK minimizedAffinity 0.0136690084
REMARK minimizedRMSD -1
REMARK  0 active torsions:
REMARK  status: ('A' for Active; 'I' for Inactive)
ROOT
ATOM      1  C1  DEN d   1       0.878  -2.128  -0.668  0.00  0.00     0.130 A 
ATOM      2  C2  DEN d   1       1.810  -1.580  -1.649  0.00  0.00    -0.031 A 
ATOM      3  C3  DEN d   1       1.777  -0.108  -1.537  0.00  0.00     0.027 A 
ATOM      4  C4  DEN d   1       0.386   1.368   0.057  0.00  0.00     0.027 A 
ATOM      5  C5  DEN d   1      -0.556   1.356   1.062  0.00  0.00    -0.003 A 
ATOM      6  C6  DEN d   1      -1.107   0.194   1.533  0.00  0.00     0.001 A 
ATOM      7  C7  DEN d   1      -0.686  -1.009   1.031  0.00  0.00     0.017 A 
ATOM      8  C8  DEN d   1       0.258  -1.005   0.012  0.00  0.00    -0.094 A 
ATOM      9  C9  DEN d   1       0.811   0.180  -0.442  0.00  0.00    -0.072 A 
ENDROOT
TORSDOF 0
ENDMDL
