MODEL 1
REMARK minimizedAffinity -5.47946119
REMARK minimizedRMSD -1
REMARK  0 active torsions:
REMARK  status: ('A' for Active; 'I' for Inactive)
ROOT
ATOM      1  C1  DEN d   1       0.310  -0.790   1.113  0.00  0.00     0.130 A 
ATOM      2  C2  DEN d   1       0.934  -1.035  -0.184  0.00  0.00    -0.031 A 
ATOM      3  C3  DEN d   1       0.369  -0.074  -1.152  0.00  0.00     0.027 A 
ATOM      4  C4  DEN d   1      -1.400   1.764  -0.769  0.00  0.00     0.027 A 
ATOM      5  C5  DEN d   1      -2.230   2.347   0.164  0.00  0.00    -0.003 A 
ATOM      6  C6  DEN d   1      -2.295   1.906   1.459  0.00  0.00     0.001 A 
ATOM      7  C7  DEN d   1      -1.484   0.881   1.869  0.00  0.00     0.017 A 
ATOM      8  C8  DEN d   1      -0.650   0.284   0.933  0.00  0.00    -0.094 A 
ATOM      9  C9  DEN d   1      -0.589   0.752  -0.369  0.00  0.00    -0.072 A 
ENDROOT
TORSDOF 0
ENDMDL
