MODEL 1
REMARK minimizedAffinity -2.05843759
REMARK minimizedRMSD -1
REMARK  0 active torsions:
REMARK  status: ('A' for Active; 'I' for Inactive)
ROOT
ATOM      1  C1  DEN d   1      -0.392  -3.498  -1.203  0.00  0.00     0.130 A 
ATOM      2  C2  DEN d   1      -0.499  -3.463  -2.659  0.00  0.00    -0.031 A 
ATOM      3  C3  DEN d   1      -0.257  -2.076  -3.102  0.00  0.00     0.027 A 
ATOM      4  C4  DEN d   1       0.275   0.011  -1.682  0.00  0.00     0.027 A 
ATOM      5  C5  DEN d   1       0.457   0.480  -0.400  0.00  0.00    -0.003 A 
ATOM      6  C6  DEN d   1       0.337  -0.331   0.698  0.00  0.00     0.001 A 
ATOM      7  C7  DEN d   1       0.070  -1.664   0.531  0.00  0.00     0.017 A 
ATOM      8  C8  DEN d   1      -0.123  -2.142  -0.758  0.00  0.00    -0.094 A 
ATOM      9  C9  DEN d   1       0.015  -1.310  -1.856  0.00  0.00    -0.072 A 
ENDROOT
TORSDOF 0
ENDMDL
