MODEL 1
REMARK minimizedAffinity -6.00518036
REMARK minimizedRMSD -1
REMARK  0 active torsions:
REMARK  status: ('A' for Active; 'I' for Inactive)
ROOT
ATOM      1  C1  DEN d   1       0.348  -0.308  -0.740  0.00  0.00     0.130 A 
ATOM      2  C2  DEN d   1       1.065  -1.182   0.185  0.00  0.00    -0.031 A 
ATOM      3  C3  DEN d   1       0.702  -0.786   1.561  0.00  0.00     0.027 A 
ATOM      4  C4  DEN d   1      -0.896   1.080   2.345  0.00  0.00     0.027 A 
ATOM      5  C5  DEN d   1      -1.728   2.095   1.926  0.00  0.00    -0.003 A 
ATOM      6  C6  DEN d   1      -1.899   2.399   0.601  0.00  0.00     0.001 A 
ATOM      7  C7  DEN d   1      -1.263   1.651  -0.354  0.00  0.00     0.017 A 
ATOM      8  C8  DEN d   1      -0.416   0.632   0.060  0.00  0.00    -0.094 A 
ATOM      9  C9  DEN d   1      -0.266   0.332   1.404  0.00  0.00    -0.072 A 
ENDROOT
TORSDOF 0
ENDMDL
