MODEL 1
REMARK minimizedAffinity -4.81233454
REMARK minimizedRMSD -1
REMARK  0 active torsions:
REMARK  status: ('A' for Active; 'I' for Inactive)
ROOT
ATOM      1  C1  DEN d   1       0.545   1.184  -1.059  0.00  0.00     0.130 A 
ATOM      2  C2  DEN d   1       1.371  -0.014  -1.183  0.00  0.00    -0.031 A 
ATOM      3  C3  DEN d   1       1.039  -0.916  -0.063  0.00  0.00     0.027 A 
ATOM      4  C4  DEN d   1      -0.670  -0.579   1.840  0.00  0.00     0.027 A 
ATOM      5  C5  DEN d   1      -1.600   0.286   2.373  0.00  0.00    -0.003 A 
ATOM      6  C6  DEN d   1      -1.853   1.515   1.824  0.00  0.00     0.001 A 
ATOM      7  C7  DEN d   1      -1.201   1.895   0.681  0.00  0.00     0.017 A 
ATOM      8  C8  DEN d   1      -0.257   1.031   0.141  0.00  0.00    -0.094 A 
ATOM      9  C9  DEN d   1      -0.024  -0.212   0.704  0.00  0.00    -0.072 A 
ENDROOT
TORSDOF 0
ENDMDL
