MODEL 1
REMARK minimizedAffinity -3.42974353
REMARK minimizedRMSD -1
REMARK  0 active torsions:
REMARK  status: ('A' for Active; 'I' for Inactive)
ROOT
ATOM      1  C1  DEN d   1       0.194  -1.163   0.750  0.00  0.00     0.130 A 
ATOM      2  C2  DEN d   1       1.125  -1.121  -0.375  0.00  0.00    -0.031 A 
ATOM      3  C3  DEN d   1       1.012   0.206  -1.012  0.00  0.00     0.027 A 
ATOM      4  C4  DEN d   1      -0.502   2.192  -0.366  0.00  0.00     0.027 A 
ATOM      5  C5  DEN d   1      -1.471   2.626   0.511  0.00  0.00    -0.003 A 
ATOM      6  C6  DEN d   1      -1.974   1.822   1.500  0.00  0.00     0.001 A 
ATOM      7  C7  DEN d   1      -1.476   0.556   1.664  0.00  0.00     0.017 A 
ATOM      8  C8  DEN d   1      -0.504   0.109   0.779  0.00  0.00    -0.094 A 
ATOM      9  C9  DEN d   1       0.000   0.941  -0.206  0.00  0.00    -0.072 A 
ENDROOT
TORSDOF 0
ENDMDL
