MODEL 1
REMARK minimizedAffinity -3.10102654
REMARK minimizedRMSD -1
REMARK  0 active torsions:
REMARK  status: ('A' for Active; 'I' for Inactive)
ROOT
ATOM      1  C1  DEN d   1      -1.659   2.106  -0.004  0.00  0.00     0.130 A 
ATOM      2  C2  DEN d   1      -2.456   2.198   1.216  0.00  0.00    -0.031 A 
ATOM      3  C3  DEN d   1      -2.136   1.029   2.060  0.00  0.00     0.027 A 
ATOM      4  C4  DEN d   1      -0.486  -0.900   1.601  0.00  0.00     0.027 A 
ATOM      5  C5  DEN d   1       0.411  -1.418   0.694  0.00  0.00    -0.003 A 
ATOM      6  C6  DEN d   1       0.654  -0.821  -0.515  0.00  0.00     0.001 A 
ATOM      7  C7  DEN d   1       0.025   0.355  -0.830  0.00  0.00     0.017 A 
ATOM      8  C8  DEN d   1      -0.886   0.879   0.077  0.00  0.00    -0.094 A 
ATOM      9  C9  DEN d   1      -1.109   0.267   1.299  0.00  0.00    -0.072 A 
ENDROOT
TORSDOF 0
ENDMDL
