MODEL 1
REMARK minimizedAffinity -3.80092335
REMARK minimizedRMSD -1
REMARK  0 active torsions:
REMARK  status: ('A' for Active; 'I' for Inactive)
ROOT
ATOM      1  C1  DEN d   1       0.757  -0.412   1.349  0.00  0.00     0.130 A 
ATOM      2  C2  DEN d   1       1.093  -0.847  -0.004  0.00  0.00    -0.031 A 
ATOM      3  C3  DEN d   1       0.267  -0.072  -0.951  0.00  0.00     0.027 A 
ATOM      4  C4  DEN d   1      -1.487   1.753  -0.457  0.00  0.00     0.027 A 
ATOM      5  C5  DEN d   1      -2.125   2.456   0.541  0.00  0.00    -0.003 A 
ATOM      6  C6  DEN d   1      -1.874   2.230   1.868  0.00  0.00     0.001 A 
ATOM      7  C7  DEN d   1      -0.928   1.309   2.233  0.00  0.00     0.017 A 
ATOM      8  C8  DEN d   1      -0.286   0.591   1.232  0.00  0.00    -0.094 A 
ATOM      9  C9  DEN d   1      -0.545   0.843  -0.104  0.00  0.00    -0.072 A 
ENDROOT
TORSDOF 0
ENDMDL
