MODEL 1
REMARK minimizedAffinity -4.51273251
REMARK minimizedRMSD -1
REMARK  0 active torsions:
REMARK  status: ('A' for Active; 'I' for Inactive)
ROOT
ATOM      1  C1  DEN d   1       0.488  -0.945   1.338  0.00  0.00     0.130 A 
ATOM      2  C2  DEN d   1       0.971  -1.309   0.009  0.00  0.00    -0.031 A 
ATOM      3  C3  DEN d   1       0.368  -0.380  -0.967  0.00  0.00     0.027 A 
ATOM      4  C4  DEN d   1      -1.255   1.581  -0.551  0.00  0.00     0.027 A 
ATOM      5  C5  DEN d   1      -1.960   2.270   0.411  0.00  0.00    -0.003 A 
ATOM      6  C6  DEN d   1      -1.925   1.918   1.734  0.00  0.00     0.001 A 
ATOM      7  C7  DEN d   1      -1.134   0.875   2.138  0.00  0.00     0.017 A 
ATOM      8  C8  DEN d   1      -0.426   0.171   1.173  0.00  0.00    -0.094 A 
ATOM      9  C9  DEN d   1      -0.465   0.550  -0.158  0.00  0.00    -0.072 A 
ENDROOT
TORSDOF 0
ENDMDL
