MODEL 1
REMARK minimizedAffinity -4.71051168
REMARK minimizedRMSD -1
REMARK  1 active torsions:
REMARK  status: ('A' for Active; 'I' for Inactive)
REMARK    1  A    between atoms: C1_2  and  C2_3 
ROOT
ATOM      1  C2  UNL d   1       0.219   0.062   0.028  0.00  0.00    -0.073 A 
ATOM      2  C3  UNL d   1       0.309   0.203  -1.362  0.00  0.00    -0.002 A 
ATOM      3  C4  UNL d   1      -0.820   0.032  -2.163  0.00  0.00     0.004 A 
ATOM      4  C5  UNL d   1      -2.051  -0.275  -1.584  0.00  0.00    -0.004 A 
ATOM      5  C6  UNL d   1      -2.165  -0.409  -0.197  0.00  0.00    -0.075 A 
ATOM      6  C7  UNL d   1      -3.482  -0.741   0.441  0.00  0.00     0.076 C 
ATOM      7  C8  UNL d   1      -1.025  -0.238   0.601  0.00  0.00     0.001 A 
ENDROOT
BRANCH   1   8
ATOM      8  C1  UNL d   1       1.434   0.252   0.898  0.00  0.00     0.053 C 
ATOM      9  C   UNL d   1       1.710   1.721   1.179  0.00  0.00     0.018 C 
ENDBRANCH   1   8
TORSDOF 1
ENDMDL
