MODEL 1
REMARK minimizedAffinity -4.73126459
REMARK minimizedRMSD -1
REMARK  1 active torsions:
REMARK  status: ('A' for Active; 'I' for Inactive)
REMARK    1  A    between atoms: C1_2  and  C2_3 
ROOT
ATOM      1  C2  UNL d   1      -1.935  -0.984  -1.400  0.00  0.00    -0.073 A 
ATOM      2  C3  UNL d   1      -2.888  -1.111  -0.384  0.00  0.00    -0.002 A 
ATOM      3  C4  UNL d   1      -2.625  -0.619   0.895  0.00  0.00     0.004 A 
ATOM      4  C5  UNL d   1      -1.411   0.010   1.170  0.00  0.00    -0.004 A 
ATOM      5  C6  UNL d   1      -0.450   0.157   0.164  0.00  0.00    -0.075 A 
ATOM      6  C7  UNL d   1       0.862   0.830   0.443  0.00  0.00     0.076 C 
ATOM      7  C8  UNL d   1      -0.720  -0.342  -1.117  0.00  0.00     0.001 A 
ENDROOT
BRANCH   1   8
ATOM      8  C1  UNL d   1      -2.217  -1.508  -2.784  0.00  0.00     0.053 C 
ATOM      9  C   UNL d   1      -2.269  -3.027  -2.819  0.00  0.00     0.018 C 
ENDBRANCH   1   8
TORSDOF 1
ENDMDL
