MODEL 1
REMARK minimizedAffinity -3.51948309
REMARK minimizedRMSD -1
REMARK  1 active torsions:
REMARK  status: ('A' for Active; 'I' for Inactive)
REMARK    1  A    between atoms: C1_2  and  C2_3 
ROOT
ATOM      1  C2  UNL d   1       0.407   0.545   0.086  0.00  0.00    -0.073 A 
ATOM      2  C3  UNL d   1       0.974  -0.348   1.003  0.00  0.00    -0.002 A 
ATOM      3  C4  UNL d   1       0.181  -1.307   1.635  0.00  0.00     0.004 A 
ATOM      4  C5  UNL d   1      -1.183  -1.387   1.353  0.00  0.00    -0.004 A 
ATOM      5  C6  UNL d   1      -1.765  -0.511   0.432  0.00  0.00    -0.075 A 
ATOM      6  C7  UNL d   1      -3.231  -0.582   0.119  0.00  0.00     0.076 C 
ATOM      7  C8  UNL d   1      -0.963   0.451  -0.197  0.00  0.00     0.001 A 
ENDROOT
BRANCH   1   8
ATOM      8  C1  UNL d   1       1.260   1.577  -0.604  0.00  0.00     0.053 C 
ATOM      9  C   UNL d   1       1.833   2.590   0.375  0.00  0.00     0.018 C 
ENDBRANCH   1   8
TORSDOF 1
ENDMDL
