MODEL 1
REMARK minimizedAffinity 5.43049669
REMARK minimizedRMSD -1
REMARK  1 active torsions:
REMARK  status: ('A' for Active; 'I' for Inactive)
REMARK    1  A    between atoms: C1_2  and  C2_3 
ROOT
ATOM      1  C2  UNL d   1      -0.969  -0.674  -0.161  0.00  0.00    -0.073 A 
ATOM      2  C3  UNL d   1      -0.038   0.238  -0.673  0.00  0.00    -0.002 A 
ATOM      3  C4  UNL d   1       0.141   0.364  -2.051  0.00  0.00     0.004 A 
ATOM      4  C5  UNL d   1      -0.613  -0.413  -2.931  0.00  0.00    -0.004 A 
ATOM      5  C6  UNL d   1      -1.556  -1.320  -2.439  0.00  0.00    -0.075 A 
ATOM      6  C7  UNL d   1      -2.374  -2.165  -3.372  0.00  0.00     0.076 C 
ATOM      7  C8  UNL d   1      -1.728  -1.444  -1.054  0.00  0.00     0.001 A 
ENDROOT
BRANCH   1   8
ATOM      8  C1  UNL d   1      -1.170  -0.809   1.326  0.00  0.00     0.053 C 
ATOM      9  C   UNL d   1      -0.670  -2.146   1.849  0.00  0.00     0.018 C 
ENDBRANCH   1   8
TORSDOF 1
ENDMDL
