MODEL 1
REMARK minimizedAffinity -4.96017742
REMARK minimizedRMSD -1
REMARK  1 active torsions:
REMARK  status: ('A' for Active; 'I' for Inactive)
REMARK    1  A    between atoms: C1_2  and  C2_3 
ROOT
ATOM      1  C2  UNL d   1       0.133   0.526   0.130  0.00  0.00    -0.073 A 
ATOM      2  C3  UNL d   1       1.188  -0.379  -0.030  0.00  0.00    -0.002 A 
ATOM      3  C4  UNL d   1       2.511   0.059   0.047  0.00  0.00     0.004 A 
ATOM      4  C5  UNL d   1       2.792   1.403   0.292  0.00  0.00    -0.004 A 
ATOM      5  C6  UNL d   1       1.751   2.321   0.467  0.00  0.00    -0.075 A 
ATOM      6  C7  UNL d   1       2.036   3.771   0.728  0.00  0.00     0.076 C 
ATOM      7  C8  UNL d   1       0.425   1.873   0.385  0.00  0.00     0.001 A 
ENDROOT
BRANCH   1   8
ATOM      8  C1  UNL d   1      -1.297   0.056   0.053  0.00  0.00     0.053 C 
ATOM      9  C   UNL d   1      -1.697  -0.325  -1.363  0.00  0.00     0.018 C 
ENDBRANCH   1   8
TORSDOF 1
ENDMDL
