MODEL 1
REMARK minimizedAffinity 0.918968439
REMARK minimizedRMSD -1
REMARK  1 active torsions:
REMARK  status: ('A' for Active; 'I' for Inactive)
REMARK    1  A    between atoms: C1_2  and  C2_3 
ROOT
ATOM      1  C2  UNL d   1       1.950   1.034   0.895  0.00  0.00    -0.073 A 
ATOM      2  C3  UNL d   1       1.978   1.296   2.269  0.00  0.00    -0.002 A 
ATOM      3  C4  UNL d   1       2.621   2.434   2.757  0.00  0.00     0.004 A 
ATOM      4  C5  UNL d   1       3.236   3.325   1.876  0.00  0.00    -0.004 A 
ATOM      5  C6  UNL d   1       3.208   3.087   0.499  0.00  0.00    -0.075 A 
ATOM      6  C7  UNL d   1       3.866   4.034  -0.462  0.00  0.00     0.076 C 
ATOM      7  C8  UNL d   1       2.562   1.940   0.017  0.00  0.00     0.001 A 
ENDROOT
BRANCH   1   8
ATOM      8  C1  UNL d   1       1.251  -0.190   0.363  0.00  0.00     0.053 C 
ATOM      9  C   UNL d   1       0.541  -0.964   1.463  0.00  0.00     0.018 C 
ENDBRANCH   1   8
TORSDOF 1
ENDMDL
