MODEL 1
REMARK minimizedAffinity -2.76838207
REMARK minimizedRMSD -1
REMARK  1 active torsions:
REMARK  status: ('A' for Active; 'I' for Inactive)
REMARK    1  A    between atoms: C1_2  and  C2_3 
ROOT
ATOM      1  C2  UNL d   1       1.144   0.141   0.375  0.00  0.00    -0.073 A 
ATOM      2  C3  UNL d   1       1.394  -0.833   1.348  0.00  0.00    -0.002 A 
ATOM      3  C4  UNL d   1       0.451  -1.830   1.605  0.00  0.00     0.004 A 
ATOM      4  C5  UNL d   1      -0.744  -1.868   0.888  0.00  0.00    -0.004 A 
ATOM      5  C6  UNL d   1      -1.006  -0.910  -0.097  0.00  0.00    -0.075 A 
ATOM      6  C7  UNL d   1      -2.289  -0.936  -0.876  0.00  0.00     0.076 C 
ATOM      7  C8  UNL d   1      -0.057   0.089  -0.347  0.00  0.00     0.001 A 
ENDROOT
BRANCH   1   8
ATOM      8  C1  UNL d   1       2.161   1.215   0.089  0.00  0.00     0.053 C 
ATOM      9  C   UNL d   1       2.294   2.196   1.244  0.00  0.00     0.018 C 
ENDBRANCH   1   8
TORSDOF 1
ENDMDL
