MODEL 1
REMARK minimizedAffinity -5.65834904
REMARK minimizedRMSD -1
REMARK  1 active torsions:
REMARK  status: ('A' for Active; 'I' for Inactive)
REMARK    1  A    between atoms: C1_2  and  C2_3 
ROOT
ATOM      1  C2  UNL d   1       0.259   0.074   0.086  0.00  0.00    -0.073 A 
ATOM      2  C3  UNL d   1       0.539   0.378  -1.251  0.00  0.00    -0.002 A 
ATOM      3  C4  UNL d   1      -0.427   0.174  -2.238  0.00  0.00     0.004 A 
ATOM      4  C5  UNL d   1      -1.682  -0.328  -1.897  0.00  0.00    -0.004 A 
ATOM      5  C6  UNL d   1      -1.985  -0.627  -0.565  0.00  0.00    -0.075 A 
ATOM      6  C7  UNL d   1      -3.331  -1.170  -0.183  0.00  0.00     0.076 C 
ATOM      7  C8  UNL d   1      -1.009  -0.422   0.419  0.00  0.00     0.001 A 
ENDROOT
BRANCH   1   8
ATOM      8  C1  UNL d   1       1.297   0.299   1.155  0.00  0.00     0.053 C 
ATOM      9  C   UNL d   1       2.204   1.475   0.831  0.00  0.00     0.018 C 
ENDBRANCH   1   8
TORSDOF 1
ENDMDL
