MODEL 1
REMARK minimizedAffinity -3.04024935
REMARK minimizedRMSD -1
REMARK  1 active torsions:
REMARK  status: ('A' for Active; 'I' for Inactive)
REMARK    1  A    between atoms: C1_2  and  C2_3 
ROOT
ATOM      1  C2  UNL d   1       1.523   0.723   0.331  0.00  0.00    -0.073 A 
ATOM      2  C3  UNL d   1       2.236  -0.454   0.588  0.00  0.00    -0.002 A 
ATOM      3  C4  UNL d   1       1.566  -1.608   0.995  0.00  0.00     0.004 A 
ATOM      4  C5  UNL d   1       0.180  -1.601   1.144  0.00  0.00    -0.004 A 
ATOM      5  C6  UNL d   1      -0.551  -0.438   0.881  0.00  0.00    -0.075 A 
ATOM      6  C7  UNL d   1      -2.043  -0.412   1.038  0.00  0.00     0.076 C 
ATOM      7  C8  UNL d   1       0.128   0.719   0.474  0.00  0.00     0.001 A 
ENDROOT
BRANCH   1   8
ATOM      8  C1  UNL d   1       2.241   1.971  -0.115  0.00  0.00     0.053 C 
ATOM      9  C   UNL d   1       3.116   2.549   0.985  0.00  0.00     0.018 C 
ENDBRANCH   1   8
TORSDOF 1
ENDMDL
