MODEL 1
REMARK minimizedAffinity -5.16996527
REMARK minimizedRMSD -1
REMARK  1 active torsions:
REMARK  status: ('A' for Active; 'I' for Inactive)
REMARK    1  A    between atoms: C1_2  and  C2_3 
ROOT
ATOM      1  C2  UNL d   1       1.168   0.147   0.468  0.00  0.00    -0.073 A 
ATOM      2  C3  UNL d   1       1.473  -0.813   1.440  0.00  0.00    -0.002 A 
ATOM      3  C4  UNL d   1       0.474  -1.644   1.948  0.00  0.00     0.004 A 
ATOM      4  C5  UNL d   1      -0.837  -1.528   1.487  0.00  0.00    -0.004 A 
ATOM      5  C6  UNL d   1      -1.160  -0.583   0.507  0.00  0.00    -0.075 A 
ATOM      6  C7  UNL d   1      -2.566  -0.444   0.002  0.00  0.00     0.076 C 
ATOM      7  C8  UNL d   1      -0.151   0.249   0.004  0.00  0.00     0.001 A 
ENDROOT
BRANCH   1   8
ATOM      8  C1  UNL d   1       2.246   1.041  -0.089  0.00  0.00     0.053 C 
ATOM      9  C   UNL d   1       2.833   1.956   0.974  0.00  0.00     0.018 C 
ENDBRANCH   1   8
TORSDOF 1
ENDMDL
