MODEL 1
REMARK minimizedAffinity -4.00259161
REMARK minimizedRMSD -1
REMARK  1 active torsions:
REMARK  status: ('A' for Active; 'I' for Inactive)
REMARK    1  A    between atoms: C1_2  and  C2_3 
ROOT
ATOM      1  C2  UNL d   1      -1.108  -0.512  -0.609  0.00  0.00    -0.073 A 
ATOM      2  C3  UNL d   1      -0.310   0.279  -1.443  0.00  0.00    -0.002 A 
ATOM      3  C4  UNL d   1       1.032   0.503  -1.130  0.00  0.00     0.004 A 
ATOM      4  C5  UNL d   1       1.590  -0.067   0.015  0.00  0.00    -0.004 A 
ATOM      5  C6  UNL d   1       0.811  -0.870   0.854  0.00  0.00    -0.075 A 
ATOM      6  C7  UNL d   1       1.396  -1.489   2.090  0.00  0.00     0.076 C 
ATOM      7  C8  UNL d   1      -0.536  -1.088   0.534  0.00  0.00     0.001 A 
ENDROOT
BRANCH   1   8
ATOM      8  C1  UNL d   1      -2.555  -0.762  -0.947  0.00  0.00     0.053 C 
ATOM      9  C   UNL d   1      -3.448  -0.688   0.282  0.00  0.00     0.018 C 
ENDBRANCH   1   8
TORSDOF 1
ENDMDL
