MODEL 1
REMARK minimizedAffinity -4.44458485
REMARK minimizedRMSD -1
REMARK  1 active torsions:
REMARK  status: ('A' for Active; 'I' for Inactive)
REMARK    1  A    between atoms: C1_2  and  C2_3 
ROOT
ATOM      1  C2  UNL d   1      -0.396   0.482  -0.362  0.00  0.00    -0.073 A 
ATOM      2  C3  UNL d   1      -0.225   0.537  -1.750  0.00  0.00    -0.002 A 
ATOM      3  C4  UNL d   1      -1.158  -0.060  -2.599  0.00  0.00     0.004 A 
ATOM      4  C5  UNL d   1      -2.273  -0.711  -2.071  0.00  0.00    -0.004 A 
ATOM      5  C6  UNL d   1      -2.467  -0.766  -0.687  0.00  0.00    -0.075 A 
ATOM      6  C7  UNL d   1      -3.660  -1.464  -0.103  0.00  0.00     0.076 C 
ATOM      7  C8  UNL d   1      -1.525  -0.167   0.159  0.00  0.00     0.001 A 
ENDROOT
BRANCH   1   8
ATOM      8  C1  UNL d   1       0.605   1.130   0.559  0.00  0.00     0.053 C 
ATOM      9  C   UNL d   1       1.975   0.477   0.463  0.00  0.00     0.018 C 
ENDBRANCH   1   8
TORSDOF 1
ENDMDL
