MODEL 1
REMARK minimizedAffinity -2.80165505
REMARK minimizedRMSD -1
REMARK  1 active torsions:
REMARK  status: ('A' for Active; 'I' for Inactive)
REMARK    1  A    between atoms: C1_2  and  C2_3 
ROOT
ATOM      1  C2  UNL d   1       0.190   0.568   0.117  0.00  0.00    -0.073 A 
ATOM      2  C3  UNL d   1       1.226  -0.364   0.239  0.00  0.00    -0.002 A 
ATOM      3  C4  UNL d   1       2.466   0.023   0.749  0.00  0.00     0.004 A 
ATOM      4  C5  UNL d   1       2.680   1.342   1.148  0.00  0.00    -0.004 A 
ATOM      5  C6  UNL d   1       1.653   2.286   1.045  0.00  0.00    -0.075 A 
ATOM      6  C7  UNL d   1       1.867   3.709   1.469  0.00  0.00     0.076 C 
ATOM      7  C8  UNL d   1       0.411   1.890   0.530  0.00  0.00     0.001 A 
ENDROOT
BRANCH   1   8
ATOM      8  C1  UNL d   1      -1.153   0.153  -0.427  0.00  0.00     0.053 C 
ATOM      9  C   UNL d   1      -1.096  -0.147  -1.917  0.00  0.00     0.018 C 
ENDBRANCH   1   8
TORSDOF 1
ENDMDL
