MODEL 1
REMARK minimizedAffinity -2.09326005
REMARK minimizedRMSD -1
REMARK  0 active torsions:
REMARK  status: ('A' for Active; 'I' for Inactive)
ROOT
ATOM      1  C   UNL d   1      -4.543  -2.586  -1.744  0.00  0.00     0.077 C 
ATOM      2  C1  UNL d   1      -3.265  -1.885  -2.096  0.00  0.00    -0.074 A 
ATOM      3  C2  UNL d   1      -2.971  -1.551  -3.422  0.00  0.00    -0.005 A 
ATOM      4  C3  UNL d   1      -1.782  -0.891  -3.733  0.00  0.00     0.006 A 
ATOM      5  C4  UNL d   1      -0.877  -0.559  -2.724  0.00  0.00    -0.005 A 
ATOM      6  C5  UNL d   1      -1.155  -0.885  -1.393  0.00  0.00    -0.074 A 
ATOM      7  C6  UNL d   1      -0.197  -0.528  -0.295  0.00  0.00     0.077 C 
ATOM      8  C7  UNL d   1      -2.354  -1.542  -1.087  0.00  0.00    -0.001 A 
ENDROOT
TORSDOF 0
ENDMDL
