MODEL 1
REMARK minimizedAffinity -2.26663733
REMARK minimizedRMSD -1
REMARK  0 active torsions:
REMARK  status: ('A' for Active; 'I' for Inactive)
ROOT
ATOM      1  C   UNL d   1       0.216  -1.824  -0.736  0.00  0.00     0.077 C 
ATOM      2  C1  UNL d   1      -0.957  -1.618  -1.647  0.00  0.00    -0.074 A 
ATOM      3  C2  UNL d   1      -0.808  -0.964  -2.874  0.00  0.00    -0.005 A 
ATOM      4  C3  UNL d   1      -1.906  -0.788  -3.716  0.00  0.00     0.006 A 
ATOM      5  C4  UNL d   1      -3.163  -1.263  -3.339  0.00  0.00    -0.005 A 
ATOM      6  C5  UNL d   1      -3.331  -1.920  -2.116  0.00  0.00    -0.074 A 
ATOM      7  C6  UNL d   1      -4.673  -2.445  -1.700  0.00  0.00     0.077 C 
ATOM      8  C7  UNL d   1      -2.221  -2.099  -1.279  0.00  0.00    -0.001 A 
ENDROOT
TORSDOF 0
ENDMDL
