MODEL 1
REMARK minimizedAffinity -2.35233617
REMARK minimizedRMSD -1
REMARK  0 active torsions:
REMARK  status: ('A' for Active; 'I' for Inactive)
ROOT
ATOM      1  C   UNL d   1       0.866   1.611   4.006  0.00  0.00     0.077 C 
ATOM      2  C1  UNL d   1       0.753   1.655   2.511  0.00  0.00    -0.074 A 
ATOM      3  C2  UNL d   1       0.956   2.848   1.809  0.00  0.00    -0.005 A 
ATOM      4  C3  UNL d   1       0.857   2.871   0.418  0.00  0.00     0.006 A 
ATOM      5  C4  UNL d   1       0.555   1.704  -0.284  0.00  0.00    -0.005 A 
ATOM      6  C5  UNL d   1       0.349   0.502   0.400  0.00  0.00    -0.074 A 
ATOM      7  C6  UNL d   1       0.033  -0.764  -0.341  0.00  0.00     0.077 C 
ATOM      8  C7  UNL d   1       0.457   0.485   1.797  0.00  0.00    -0.001 A 
ENDROOT
TORSDOF 0
ENDMDL
