MODEL 1
REMARK minimizedAffinity -3.50713921
REMARK minimizedRMSD -1
REMARK  0 active torsions:
REMARK  status: ('A' for Active; 'I' for Inactive)
ROOT
ATOM      1  C   UNL d   1      -0.258  -1.021  -1.263  0.00  0.00     0.077 C 
ATOM      2  C1  UNL d   1      -0.183  -0.105  -0.078  0.00  0.00    -0.074 A 
ATOM      3  C2  UNL d   1      -1.325   0.195   0.672  0.00  0.00    -0.005 A 
ATOM      4  C3  UNL d   1      -1.239   1.040   1.777  0.00  0.00     0.006 A 
ATOM      5  C4  UNL d   1      -0.012   1.594   2.144  0.00  0.00    -0.005 A 
ATOM      6  C5  UNL d   1       1.141   1.305   1.408  0.00  0.00    -0.074 A 
ATOM      7  C6  UNL d   1       2.470   1.883   1.795  0.00  0.00     0.077 C 
ATOM      8  C7  UNL d   1       1.047   0.448   0.302  0.00  0.00    -0.001 A 
ENDROOT
TORSDOF 0
ENDMDL
