MODEL 1
REMARK minimizedAffinity -3.38866735
REMARK minimizedRMSD -1
REMARK  0 active torsions:
REMARK  status: ('A' for Active; 'I' for Inactive)
ROOT
ATOM      1  C   UNL d   1      -0.763  -1.667  -0.482  0.00  0.00     0.077 C 
ATOM      2  C1  UNL d   1      -0.393  -0.238  -0.213  0.00  0.00    -0.074 A 
ATOM      3  C2  UNL d   1      -0.563   0.745  -1.194  0.00  0.00    -0.005 A 
ATOM      4  C3  UNL d   1      -0.224   2.071  -0.927  0.00  0.00     0.006 A 
ATOM      5  C4  UNL d   1       0.287   2.428   0.321  0.00  0.00    -0.005 A 
ATOM      6  C5  UNL d   1       0.462   1.460   1.315  0.00  0.00    -0.074 A 
ATOM      7  C6  UNL d   1       1.001   1.828   2.665  0.00  0.00     0.077 C 
ATOM      8  C7  UNL d   1       0.113   0.130   1.041  0.00  0.00    -0.001 A 
ENDROOT
TORSDOF 0
ENDMDL
