MODEL 1
REMARK minimizedAffinity -3.49593711
REMARK minimizedRMSD -1
REMARK  0 active torsions:
REMARK  status: ('A' for Active; 'I' for Inactive)
ROOT
ATOM      1  C   UNL d   1      -4.573  -3.273  -1.801  0.00  0.00     0.077 C 
ATOM      2  C1  UNL d   1      -3.229  -2.807  -2.278  0.00  0.00    -0.074 A 
ATOM      3  C2  UNL d   1      -3.059  -2.307  -3.573  0.00  0.00    -0.005 A 
ATOM      4  C3  UNL d   1      -1.806  -1.868  -3.998  0.00  0.00     0.006 A 
ATOM      5  C4  UNL d   1      -0.711  -1.925  -3.135  0.00  0.00    -0.005 A 
ATOM      6  C5  UNL d   1      -0.862  -2.422  -1.836  0.00  0.00    -0.074 A 
ATOM      7  C6  UNL d   1       0.303  -2.481  -0.892  0.00  0.00     0.077 C 
ATOM      8  C7  UNL d   1      -2.126  -2.854  -1.414  0.00  0.00    -0.001 A 
ENDROOT
TORSDOF 0
ENDMDL
