MODEL 1
REMARK minimizedAffinity -2.81398869
REMARK minimizedRMSD -1
REMARK  0 active torsions:
REMARK  status: ('A' for Active; 'I' for Inactive)
ROOT
ATOM      1  C   UNL d   1      -0.173  -1.119  -0.720  0.00  0.00     0.077 C 
ATOM      2  C1  UNL d   1       0.274   0.100   0.031  0.00  0.00    -0.074 A 
ATOM      3  C2  UNL d   1       1.027   1.096  -0.599  0.00  0.00    -0.005 A 
ATOM      4  C3  UNL d   1       1.428   2.229   0.109  0.00  0.00     0.006 A 
ATOM      5  C4  UNL d   1       1.080   2.377   1.452  0.00  0.00    -0.005 A 
ATOM      6  C5  UNL d   1       0.327   1.392   2.099  0.00  0.00    -0.074 A 
ATOM      7  C6  UNL d   1      -0.064   1.540   3.539  0.00  0.00     0.077 C 
ATOM      8  C7  UNL d   1      -0.078   0.260   1.378  0.00  0.00    -0.001 A 
ENDROOT
TORSDOF 0
ENDMDL
