MODEL 1
REMARK minimizedAffinity -2.88349819
REMARK minimizedRMSD -1
REMARK  0 active torsions:
REMARK  status: ('A' for Active; 'I' for Inactive)
ROOT
ATOM      1  C   UNL d   1      -3.371  -2.210  -2.713  0.00  0.00     0.077 C 
ATOM      2  C1  UNL d   1      -2.148  -1.497  -2.219  0.00  0.00    -0.074 A 
ATOM      3  C2  UNL d   1      -1.327  -0.783  -3.098  0.00  0.00    -0.005 A 
ATOM      4  C3  UNL d   1      -0.198  -0.117  -2.621  0.00  0.00     0.006 A 
ATOM      5  C4  UNL d   1       0.122  -0.158  -1.264  0.00  0.00    -0.005 A 
ATOM      6  C5  UNL d   1      -0.687  -0.867  -0.370  0.00  0.00    -0.074 A 
ATOM      7  C6  UNL d   1      -0.363  -0.913   1.094  0.00  0.00     0.077 C 
ATOM      8  C7  UNL d   1      -1.824  -1.528  -0.855  0.00  0.00    -0.001 A 
ENDROOT
TORSDOF 0
ENDMDL
