MODEL 1
REMARK minimizedAffinity 3.14046097
REMARK minimizedRMSD -1
REMARK  0 active torsions:
REMARK  status: ('A' for Active; 'I' for Inactive)
ROOT
ATOM      1  C   UNL d   1      -3.371  -1.528  -2.637  0.00  0.00     0.077 C 
ATOM      2  C1  UNL d   1      -2.153  -1.123  -1.861  0.00  0.00    -0.074 A 
ATOM      3  C2  UNL d   1      -0.964  -0.783  -2.515  0.00  0.00    -0.005 A 
ATOM      4  C3  UNL d   1       0.158  -0.399  -1.780  0.00  0.00     0.006 A 
ATOM      5  C4  UNL d   1       0.103  -0.353  -0.387  0.00  0.00    -0.005 A 
ATOM      6  C5  UNL d   1      -1.077  -0.689   0.284  0.00  0.00    -0.074 A 
ATOM      7  C6  UNL d   1      -1.156  -0.636   1.781  0.00  0.00     0.077 C 
ATOM      8  C7  UNL d   1      -2.202  -1.067  -0.461  0.00  0.00    -0.001 A 
ENDROOT
TORSDOF 0
ENDMDL
