MODEL 1
REMARK minimizedAffinity -2.75074553
REMARK minimizedRMSD -1
REMARK  0 active torsions:
REMARK  status: ('A' for Active; 'I' for Inactive)
ROOT
ATOM      1  C   UNL d   1       1.579   2.944   1.260  0.00  0.00     0.077 C 
ATOM      2  C1  UNL d   1       0.910   1.656   0.882  0.00  0.00    -0.074 A 
ATOM      3  C2  UNL d   1       1.301   0.951  -0.261  0.00  0.00    -0.005 A 
ATOM      4  C3  UNL d   1       0.676  -0.250  -0.595  0.00  0.00     0.006 A 
ATOM      5  C4  UNL d   1      -0.345  -0.758   0.209  0.00  0.00    -0.005 A 
ATOM      6  C5  UNL d   1      -0.749  -0.068   1.357  0.00  0.00    -0.074 A 
ATOM      7  C6  UNL d   1      -1.837  -0.606   2.237  0.00  0.00     0.077 C 
ATOM      8  C7  UNL d   1      -0.111   1.135   1.689  0.00  0.00    -0.001 A 
ENDROOT
TORSDOF 0
ENDMDL
