MODEL 1
REMARK minimizedAffinity -2.07047558
REMARK minimizedRMSD -1
REMARK  0 active torsions:
REMARK  status: ('A' for Active; 'I' for Inactive)
ROOT
ATOM      1  C   UNL d   1      -4.911  -3.079  -1.296  0.00  0.00     0.077 C 
ATOM      2  C1  UNL d   1      -3.748  -2.346  -1.894  0.00  0.00    -0.074 A 
ATOM      3  C2  UNL d   1      -3.823  -1.807  -3.182  0.00  0.00    -0.005 A 
ATOM      4  C3  UNL d   1      -2.736  -1.119  -3.721  0.00  0.00     0.006 A 
ATOM      5  C4  UNL d   1      -1.564  -0.964  -2.980  0.00  0.00    -0.005 A 
ATOM      6  C5  UNL d   1      -1.471  -1.496  -1.690  0.00  0.00    -0.074 A 
ATOM      7  C6  UNL d   1      -0.222  -1.331  -0.875  0.00  0.00     0.077 C 
ATOM      8  C7  UNL d   1      -2.570  -2.180  -1.152  0.00  0.00    -0.001 A 
ENDROOT
TORSDOF 0
ENDMDL
