MODEL 1
REMARK minimizedAffinity -2.96559381
REMARK minimizedRMSD -1
REMARK  0 active torsions:
REMARK  status: ('A' for Active; 'I' for Inactive)
ROOT
ATOM      1  C   UNL d   1      -1.466  -1.476  -1.996  0.00  0.00     0.077 C 
ATOM      2  C1  UNL d   1      -0.745  -0.708  -0.928  0.00  0.00    -0.074 A 
ATOM      3  C2  UNL d   1      -1.338  -0.482   0.319  0.00  0.00    -0.005 A 
ATOM      4  C3  UNL d   1      -0.652   0.225   1.306  0.00  0.00     0.006 A 
ATOM      5  C4  UNL d   1       0.632   0.712   1.057  0.00  0.00    -0.005 A 
ATOM      6  C5  UNL d   1       1.242   0.494  -0.183  0.00  0.00    -0.074 A 
ATOM      7  C6  UNL d   1       2.625   1.002  -0.463  0.00  0.00     0.077 C 
ATOM      8  C7  UNL d   1       0.548  -0.223  -1.167  0.00  0.00    -0.001 A 
ENDROOT
TORSDOF 0
ENDMDL
