MODEL 1
REMARK minimizedAffinity -4.65746975
REMARK minimizedRMSD -1
REMARK  0 active torsions:
REMARK  status: ('A' for Active; 'I' for Inactive)
ROOT
ATOM      1  C   UNL d   1      -0.416  -1.301  -0.978  0.00  0.00     0.077 C 
ATOM      2  C1  UNL d   1      -1.592  -1.922  -1.670  0.00  0.00    -0.074 A 
ATOM      3  C2  UNL d   1      -1.901  -1.596  -2.995  0.00  0.00    -0.005 A 
ATOM      4  C3  UNL d   1      -2.992  -2.189  -3.629  0.00  0.00     0.006 A 
ATOM      5  C4  UNL d   1      -3.785  -3.112  -2.947  0.00  0.00    -0.005 A 
ATOM      6  C5  UNL d   1      -3.492  -3.451  -1.622  0.00  0.00    -0.074 A 
ATOM      7  C6  UNL d   1      -4.328  -4.449  -0.877  0.00  0.00     0.077 C 
ATOM      8  C7  UNL d   1      -2.389  -2.856  -0.994  0.00  0.00    -0.001 A 
ENDROOT
TORSDOF 0
ENDMDL
