MODEL 1
REMARK minimizedAffinity -6.34317732
REMARK minimizedRMSD -1
REMARK  0 active torsions:
REMARK  status: ('A' for Active; 'I' for Inactive)
ROOT
ATOM      1  C   UNL d   1      -0.792  -1.100  -0.601  0.00  0.00     0.077 C 
ATOM      2  C1  UNL d   1      -0.206   0.001   0.232  0.00  0.00    -0.074 A 
ATOM      3  C2  UNL d   1      -0.973   0.655   1.202  0.00  0.00    -0.005 A 
ATOM      4  C3  UNL d   1      -0.412   1.670   1.976  0.00  0.00     0.006 A 
ATOM      5  C4  UNL d   1       0.920   2.041   1.789  0.00  0.00    -0.005 A 
ATOM      6  C5  UNL d   1       1.703   1.398   0.824  0.00  0.00    -0.074 A 
ATOM      7  C6  UNL d   1       3.139   1.778   0.617  0.00  0.00     0.077 C 
ATOM      8  C7  UNL d   1       1.134   0.374   0.055  0.00  0.00    -0.001 A 
ENDROOT
TORSDOF 0
ENDMDL
