MODEL 1
REMARK minimizedAffinity -3.74550533
REMARK minimizedRMSD -1
REMARK  0 active torsions:
REMARK  status: ('A' for Active; 'I' for Inactive)
ROOT
ATOM      1  C   UNL d   1       2.866   0.249   0.028  0.00  0.00     0.077 C 
ATOM      2  C1  UNL d   1       1.387   0.216   0.277  0.00  0.00    -0.074 A 
ATOM      3  C2  UNL d   1       0.800   1.056   1.228  0.00  0.00    -0.005 A 
ATOM      4  C3  UNL d   1      -0.578   1.022   1.442  0.00  0.00     0.006 A 
ATOM      5  C4  UNL d   1      -1.381   0.147   0.708  0.00  0.00    -0.005 A 
ATOM      6  C5  UNL d   1      -0.812  -0.700  -0.247  0.00  0.00    -0.074 A 
ATOM      7  C6  UNL d   1      -1.661  -1.638  -1.051  0.00  0.00     0.077 C 
ATOM      8  C7  UNL d   1       0.573  -0.654  -0.461  0.00  0.00    -0.001 A 
ENDROOT
TORSDOF 0
ENDMDL
