MODEL 1
REMARK minimizedAffinity 12.7987404
REMARK minimizedRMSD -1
REMARK  0 active torsions:
REMARK  status: ('A' for Active; 'I' for Inactive)
ROOT
ATOM      1  C4' PXY d   1      -2.752  -5.235  -6.000  0.00  0.00     0.077 C 
ATOM      2  C1' PXY d   1       2.226  -5.227  -3.062  0.00  0.00     0.077 C 
ATOM      3  C1  PXY d   1       0.927  -5.233  -3.843  0.00  0.00    -0.082 A 
ATOM      4  C2  PXY d   1      -0.089  -4.495  -3.428  0.00  0.00     0.003 A 
ATOM      5  C3  PXY d   1      -1.282  -4.513  -4.104  0.00  0.00     0.003 A 
ATOM      6  C4  PXY d   1      -1.418  -5.253  -5.248  0.00  0.00    -0.082 A 
ATOM      7  C5  PXY d   1      -0.383  -6.000  -5.684  0.00  0.00     0.003 A 
ATOM      8  C6  PXY d   1       0.806  -6.000  -4.960  0.00  0.00     0.003 A 
ENDROOT
TORSDOF 0
ENDMDL
