MODEL 1
REMARK minimizedAffinity 14.6654301
REMARK minimizedRMSD -1
REMARK  0 active torsions:
REMARK  status: ('A' for Active; 'I' for Inactive)
ROOT
ATOM      1  C4' PXY d   1       1.732   6.000  -3.713  0.00  0.00     0.077 C 
ATOM      2  C1' PXY d   1      -3.487   5.555  -1.270  0.00  0.00     0.077 C 
ATOM      3  C1  PXY d   1      -2.113   5.675  -1.899  0.00  0.00    -0.082 A 
ATOM      4  C2  PXY d   1      -2.006   5.920  -3.195  0.00  0.00     0.003 A 
ATOM      5  C3  PXY d   1      -0.772   6.000  -3.786  0.00  0.00     0.003 A 
ATOM      6  C4  PXY d   1       0.366   5.880  -3.034  0.00  0.00    -0.082 A 
ATOM      7  C5  PXY d   1       0.265   5.640  -1.709  0.00  0.00     0.003 A 
ATOM      8  C6  PXY d   1      -0.998   5.522  -1.136  0.00  0.00     0.003 A 
ENDROOT
TORSDOF 0
ENDMDL
