MODEL 1
REMARK minimizedAffinity 15.8697844
REMARK minimizedRMSD -1
REMARK  0 active torsions:
REMARK  status: ('A' for Active; 'I' for Inactive)
ROOT
ATOM      1  C4' PXY d   1       2.657  -3.371   1.987  0.00  0.00     0.077 C 
ATOM      2  C1' PXY d   1       5.999  -1.835  -2.473  0.00  0.00     0.077 C 
ATOM      3  C1  PXY d   1       5.125  -2.250  -1.306  0.00  0.00    -0.082 A 
ATOM      4  C2  PXY d   1       4.224  -1.406  -0.831  0.00  0.00     0.003 A 
ATOM      5  C3  PXY d   1       3.447  -1.753   0.244  0.00  0.00     0.003 A 
ATOM      6  C4  PXY d   1       3.556  -2.998   0.804  0.00  0.00    -0.082 A 
ATOM      7  C5  PXY d   1       4.465  -3.869   0.318  0.00  0.00     0.003 A 
ATOM      8  C6  PXY d   1       5.273  -3.482  -0.747  0.00  0.00     0.003 A 
ENDROOT
TORSDOF 0
ENDMDL
