MODEL 1
REMARK minimizedAffinity 7.3342576
REMARK minimizedRMSD -1
REMARK  0 active torsions:
REMARK  status: ('A' for Active; 'I' for Inactive)
ROOT
ATOM      1  C4' PXY d   1       2.305  -5.104  -2.134  0.00  0.00     0.077 C 
ATOM      2  C1' PXY d   1      -1.236  -0.590  -1.425  0.00  0.00     0.077 C 
ATOM      3  C1  PXY d   1      -0.317  -1.782  -1.610  0.00  0.00    -0.082 A 
ATOM      4  C2  PXY d   1       0.973  -1.661  -1.342  0.00  0.00     0.003 A 
ATOM      5  C3  PXY d   1       1.823  -2.720  -1.534  0.00  0.00     0.003 A 
ATOM      6  C4  PXY d   1       1.339  -3.930  -1.954  0.00  0.00    -0.082 A 
ATOM      7  C5  PXY d   1       0.022  -4.065  -2.218  0.00  0.00     0.003 A 
ATOM      8  C6  PXY d   1      -0.818  -2.966  -2.056  0.00  0.00     0.003 A 
ENDROOT
TORSDOF 0
ENDMDL
