MODEL 1
REMARK minimizedAffinity 16.267828
REMARK minimizedRMSD -1
REMARK  0 active torsions:
REMARK  status: ('A' for Active; 'I' for Inactive)
ROOT
ATOM      1  C4' PXY d   1       3.991   2.605   4.684  0.00  0.00     0.077 C 
ATOM      2  C1' PXY d   1       0.836  -2.209   4.148  0.00  0.00     0.077 C 
ATOM      3  C1  PXY d   1       1.674  -0.952   4.283  0.00  0.00    -0.082 A 
ATOM      4  C2  PXY d   1       1.363  -0.055   5.204  0.00  0.00     0.003 A 
ATOM      5  C3  PXY d   1       2.090   1.102   5.319  0.00  0.00     0.003 A 
ATOM      6  C4  PXY d   1       3.179   1.318   4.518  0.00  0.00    -0.082 A 
ATOM      7  C5  PXY d   1       3.509   0.402   3.583  0.00  0.00     0.003 A 
ATOM      8  C6  PXY d   1       2.733  -0.747   3.455  0.00  0.00     0.003 A 
ENDROOT
TORSDOF 0
ENDMDL
