MODEL 1
REMARK minimizedAffinity 15.6818924
REMARK minimizedRMSD -1
REMARK  0 active torsions:
REMARK  status: ('A' for Active; 'I' for Inactive)
ROOT
ATOM      1  C4' PXY d   1       5.719  -1.257  -5.223  0.00  0.00     0.077 C 
ATOM      2  C1' PXY d   1       5.595  -4.403  -0.376  0.00  0.00     0.077 C 
ATOM      3  C1  PXY d   1       5.629  -3.589  -1.654  0.00  0.00    -0.082 A 
ATOM      4  C2  PXY d   1       5.994  -2.318  -1.610  0.00  0.00     0.003 A 
ATOM      5  C3  PXY d   1       5.999  -1.558  -2.752  0.00  0.00     0.003 A 
ATOM      6  C4  PXY d   1       5.679  -2.120  -3.959  0.00  0.00    -0.082 A 
ATOM      7  C5  PXY d   1       5.316  -3.419  -4.013  0.00  0.00     0.003 A 
ATOM      8  C6  PXY d   1       5.277  -4.162  -2.837  0.00  0.00     0.003 A 
ENDROOT
TORSDOF 0
ENDMDL
