MODEL 1
REMARK minimizedAffinity 16.2870178
REMARK minimizedRMSD -1
REMARK  0 active torsions:
REMARK  status: ('A' for Active; 'I' for Inactive)
ROOT
ATOM      1  C4' PXY d   1      -1.630   1.986   2.068  0.00  0.00     0.077 C 
ATOM      2  C1' PXY d   1       1.123   5.986  -1.067  0.00  0.00     0.077 C 
ATOM      3  C1  PXY d   1       0.411   4.929  -0.246  0.00  0.00    -0.082 A 
ATOM      4  C2  PXY d   1      -0.908   4.953  -0.152  0.00  0.00     0.003 A 
ATOM      5  C3  PXY d   1      -1.566   4.024   0.612  0.00  0.00     0.003 A 
ATOM      6  C4  PXY d   1      -0.870   3.028   1.243  0.00  0.00    -0.082 A 
ATOM      7  C5  PXY d   1       0.476   2.990   1.143  0.00  0.00     0.003 A 
ATOM      8  C6  PXY d   1       1.128   3.967   0.396  0.00  0.00     0.003 A 
ENDROOT
TORSDOF 0
ENDMDL
