MODEL 1
REMARK minimizedAffinity 17.8124733
REMARK minimizedRMSD -1
REMARK  0 active torsions:
REMARK  status: ('A' for Active; 'I' for Inactive)
ROOT
ATOM      1  C4' PXY d   1      -2.597   0.702  -0.154  0.00  0.00     0.077 C 
ATOM      2  C1' PXY d   1      -3.240   2.078  -5.731  0.00  0.00     0.077 C 
ATOM      3  C1  PXY d   1      -3.067   1.705  -4.272  0.00  0.00    -0.082 A 
ATOM      4  C2  PXY d   1      -3.798   2.312  -3.351  0.00  0.00     0.003 A 
ATOM      5  C3  PXY d   1      -3.631   2.010  -2.024  0.00  0.00     0.003 A 
ATOM      6  C4  PXY d   1      -2.745   1.039  -1.640  0.00  0.00    -0.082 A 
ATOM      7  C5  PXY d   1      -2.003   0.409  -2.574  0.00  0.00     0.003 A 
ATOM      8  C6  PXY d   1      -2.157   0.759  -3.913  0.00  0.00     0.003 A 
ENDROOT
TORSDOF 0
ENDMDL
