MODEL 1
REMARK minimizedAffinity 8.06709957
REMARK minimizedRMSD -1
REMARK  0 active torsions:
REMARK  status: ('A' for Active; 'I' for Inactive)
ROOT
ATOM      1  C4' PXY d   1       3.010   4.119   1.529  0.00  0.00     0.077 C 
ATOM      2  C1' PXY d   1      -1.826   5.500  -1.320  0.00  0.00     0.077 C 
ATOM      3  C1  PXY d   1      -0.551   5.146  -0.580  0.00  0.00    -0.082 A 
ATOM      4  C2  PXY d   1      -0.478   4.007   0.090  0.00  0.00     0.003 A 
ATOM      5  C3  PXY d   1       0.656   3.686   0.790  0.00  0.00     0.003 A 
ATOM      6  C4  PXY d   1       1.746   4.514   0.761  0.00  0.00    -0.082 A 
ATOM      7  C5  PXY d   1       1.683   5.672   0.070  0.00  0.00     0.003 A 
ATOM      8  C6  PXY d   1       0.508   5.999  -0.600  0.00  0.00     0.003 A 
ENDROOT
TORSDOF 0
ENDMDL
