MODEL 1
REMARK minimizedAffinity 8.47797871
REMARK minimizedRMSD -1
REMARK  0 active torsions:
REMARK  status: ('A' for Active; 'I' for Inactive)
ROOT
ATOM      1  C4' PXY d   1       3.236   6.000   1.871  0.00  0.00     0.077 C 
ATOM      2  C1' PXY d   1      -0.937   2.833  -0.573  0.00  0.00     0.077 C 
ATOM      3  C1  PXY d   1       0.159   3.670   0.057  0.00  0.00    -0.082 A 
ATOM      4  C2  PXY d   1       0.828   3.197   1.096  0.00  0.00     0.003 A 
ATOM      5  C3  PXY d   1       1.800   3.954   1.698  0.00  0.00     0.003 A 
ATOM      6  C4  PXY d   1       2.128   5.186   1.197  0.00  0.00    -0.082 A 
ATOM      7  C5  PXY d   1       1.458   5.670   0.130  0.00  0.00     0.003 A 
ATOM      8  C6  PXY d   1       0.446   4.904  -0.440  0.00  0.00     0.003 A 
ENDROOT
TORSDOF 0
ENDMDL
