MODEL 1
REMARK minimizedAffinity 5.28877354
REMARK minimizedRMSD -1
REMARK  0 active torsions:
REMARK  status: ('A' for Active; 'I' for Inactive)
ROOT
ATOM      1  N1  IND d   1       2.956   0.403   1.011  0.00  0.00    -0.196 N 
ATOM      2  C2  IND d   1       2.220  -0.112  -0.020  0.00  0.00     0.054 A 
ATOM      3  C3  IND d   1       2.662   0.375  -1.201  0.00  0.00    -0.031 A 
ATOM      4  C4  IND d   1       4.643   1.946  -1.685  0.00  0.00     0.051 A 
ATOM      5  C5  IND d   1       5.591   2.707  -1.061  0.00  0.00    -0.031 A 
ATOM      6  C6  IND d   1       5.714   2.738   0.313  0.00  0.00     0.015 A 
ATOM      7  C7  IND d   1       4.896   1.996   1.117  0.00  0.00    -0.016 A 
ATOM      8  C8  IND d   1       3.927   1.227   0.488  0.00  0.00    -0.047 A 
ATOM      9  C9  IND d   1       3.771   1.225  -0.904  0.00  0.00    -0.096 A 
ATOM     10  HN1 IND d   1       2.832   0.239   1.846  0.00  0.00     0.298 HD
ENDROOT
TORSDOF 0
ENDMDL
