MODEL 1
REMARK minimizedAffinity 14.8861866
REMARK minimizedRMSD -1
REMARK  0 active torsions:
REMARK  status: ('A' for Active; 'I' for Inactive)
ROOT
ATOM      1  N1  IND d   1       2.394  -0.486  -1.821  0.00  0.00    -0.196 N 
ATOM      2  C2  IND d   1       1.889  -1.114  -0.717  0.00  0.00     0.054 A 
ATOM      3  C3  IND d   1       2.333  -0.513   0.410  0.00  0.00    -0.031 A 
ATOM      4  C4  IND d   1       3.813   1.576   0.675  0.00  0.00     0.051 A 
ATOM      5  C5  IND d   1       4.549   2.474  -0.046  0.00  0.00    -0.031 A 
ATOM      6  C6  IND d   1       4.602   2.432  -1.425  0.00  0.00     0.015 A 
ATOM      7  C7  IND d   1       3.910   1.493  -2.136  0.00  0.00    -0.016 A 
ATOM      8  C8  IND d   1       3.168   0.575  -1.406  0.00  0.00    -0.047 A 
ATOM      9  C9  IND d   1       3.144   0.587  -0.006  0.00  0.00    -0.096 A 
ATOM     10  HN1 IND d   1       2.252  -0.715  -2.638  0.00  0.00     0.298 HD
ENDROOT
TORSDOF 0
ENDMDL
