MODEL 1
REMARK minimizedAffinity 6.4712224
REMARK minimizedRMSD -1
REMARK  0 active torsions:
REMARK  status: ('A' for Active; 'I' for Inactive)
ROOT
ATOM      1  N1  IND d   1       4.194   1.978  -0.477  0.00  0.00    -0.196 N 
ATOM      2  C2  IND d   1       3.041   2.159  -1.188  0.00  0.00     0.054 A 
ATOM      3  C3  IND d   1       2.171   1.156  -0.937  0.00  0.00    -0.031 A 
ATOM      4  C4  IND d   1       2.391  -0.832   0.684  0.00  0.00     0.051 A 
ATOM      5  C5  IND d   1       3.277  -1.442   1.527  0.00  0.00    -0.031 A 
ATOM      6  C6  IND d   1       4.539  -0.931   1.751  0.00  0.00     0.015 A 
ATOM      7  C7  IND d   1       4.960   0.220   1.147  0.00  0.00    -0.016 A 
ATOM      8  C8  IND d   1       4.065   0.838   0.285  0.00  0.00    -0.047 A 
ATOM      9  C9  IND d   1       2.798   0.301   0.021  0.00  0.00    -0.096 A 
ATOM     10  HN1 IND d   1       4.885   2.490  -0.502  0.00  0.00     0.298 HD
ENDROOT
TORSDOF 0
ENDMDL
