MODEL 1
REMARK minimizedAffinity 10.6581984
REMARK minimizedRMSD -1
REMARK  0 active torsions:
REMARK  status: ('A' for Active; 'I' for Inactive)
ROOT
ATOM      1  N1  IND d   1       3.018   1.702  -1.370  0.00  0.00    -0.196 N 
ATOM      2  C2  IND d   1       3.593   2.286  -0.275  0.00  0.00     0.054 A 
ATOM      3  C3  IND d   1       3.538   1.451   0.787  0.00  0.00    -0.031 A 
ATOM      4  C4  IND d   1       2.642  -0.958   0.929  0.00  0.00     0.051 A 
ATOM      5  C5  IND d   1       1.988  -1.909   0.197  0.00  0.00    -0.031 A 
ATOM      6  C6  IND d   1       1.639  -1.702  -1.122  0.00  0.00     0.015 A 
ATOM      7  C7  IND d   1       1.943  -0.535  -1.764  0.00  0.00    -0.016 A 
ATOM      8  C8  IND d   1       2.601   0.436  -1.022  0.00  0.00    -0.047 A 
ATOM      9  C9  IND d   1       2.920   0.248   0.329  0.00  0.00    -0.096 A 
ATOM     10  HN1 IND d   1       2.932   2.065  -2.144  0.00  0.00     0.298 HD
ENDROOT
TORSDOF 0
ENDMDL
