MODEL 1
REMARK minimizedAffinity 16.6331997
REMARK minimizedRMSD -1
REMARK  0 active torsions:
REMARK  status: ('A' for Active; 'I' for Inactive)
ROOT
ATOM      1  N1  IND d   1      -0.691  -4.299   2.136  0.00  0.00    -0.196 N 
ATOM      2  C2  IND d   1      -1.511  -5.182   1.492  0.00  0.00     0.054 A 
ATOM      3  C3  IND d   1      -2.114  -6.000   2.383  0.00  0.00    -0.031 A 
ATOM      4  C4  IND d   1      -1.981  -5.999   4.954  0.00  0.00     0.051 A 
ATOM      5  C5  IND d   1      -1.334  -5.401   5.999  0.00  0.00    -0.031 A 
ATOM      6  C6  IND d   1      -0.423  -4.383   5.806  0.00  0.00     0.015 A 
ATOM      7  C7  IND d   1      -0.133  -3.915   4.556  0.00  0.00    -0.016 A 
ATOM      8  C8  IND d   1      -0.782  -4.524   3.492  0.00  0.00    -0.047 A 
ATOM      9  C9  IND d   1      -1.676  -5.587   3.679  0.00  0.00    -0.096 A 
ATOM     10  HN1 IND d   1      -0.200  -3.702   1.758  0.00  0.00     0.298 HD
ENDROOT
TORSDOF 0
ENDMDL
