MODEL 1
REMARK minimizedAffinity 3.91445947
REMARK minimizedRMSD -1
REMARK  0 active torsions:
REMARK  status: ('A' for Active; 'I' for Inactive)
ROOT
ATOM      1  N1  IND d   1       3.102   1.155  -1.649  0.00  0.00    -0.196 N 
ATOM      2  C2  IND d   1       3.658   1.890  -0.638  0.00  0.00     0.054 A 
ATOM      3  C3  IND d   1       3.612   1.200   0.524  0.00  0.00    -0.031 A 
ATOM      4  C4  IND d   1       2.763  -1.188   0.977  0.00  0.00     0.051 A 
ATOM      5  C5  IND d   1       2.133  -2.240   0.373  0.00  0.00    -0.031 A 
ATOM      6  C6  IND d   1       1.789  -2.214  -0.964  0.00  0.00     0.015 A 
ATOM      7  C7  IND d   1       2.075  -1.135  -1.752  0.00  0.00    -0.016 A 
ATOM      8  C8  IND d   1       2.708  -0.063  -1.140  0.00  0.00    -0.047 A 
ATOM      9  C9  IND d   1       3.021  -0.066   0.225  0.00  0.00    -0.096 A 
ATOM     10  HN1 IND d   1       3.014   1.412  -2.465  0.00  0.00     0.298 HD
ENDROOT
TORSDOF 0
ENDMDL
