MODEL 1
REMARK minimizedAffinity 1.88775003
REMARK minimizedRMSD -1
REMARK  0 active torsions:
REMARK  status: ('A' for Active; 'I' for Inactive)
ROOT
ATOM      1  N1  IND d   1      -5.749   2.984  -3.088  0.00  0.00    -0.196 N 
ATOM      2  C2  IND d   1      -6.000   1.877  -3.850  0.00  0.00     0.054 A 
ATOM      3  C3  IND d   1      -5.669   0.755  -3.172  0.00  0.00    -0.031 A 
ATOM      4  C4  IND d   1      -4.795   0.497  -0.764  0.00  0.00     0.051 A 
ATOM      5  C5  IND d   1      -4.374   1.225   0.313  0.00  0.00    -0.031 A 
ATOM      6  C6  IND d   1      -4.393   2.605   0.312  0.00  0.00     0.015 A 
ATOM      7  C7  IND d   1      -4.846   3.311  -0.766  0.00  0.00    -0.016 A 
ATOM      8  C8  IND d   1      -5.268   2.574  -1.864  0.00  0.00    -0.047 A 
ATOM      9  C9  IND d   1      -5.211   1.175  -1.885  0.00  0.00    -0.096 A 
ATOM     10  HN1 IND d   1      -5.871   3.799  -3.333  0.00  0.00     0.298 HD
ENDROOT
TORSDOF 0
ENDMDL
