MODEL 1
REMARK minimizedAffinity 19.2265491
REMARK minimizedRMSD -1
REMARK  0 active torsions:
REMARK  status: ('A' for Active; 'I' for Inactive)
ROOT
ATOM      1  N1  IND d   1      -1.884  -5.141  -1.480  0.00  0.00    -0.196 N 
ATOM      2  C2  IND d   1      -1.881  -6.000  -0.416  0.00  0.00     0.054 A 
ATOM      3  C3  IND d   1      -0.899  -5.670   0.452  0.00  0.00    -0.031 A 
ATOM      4  C4  IND d   1       0.756  -3.699   0.377  0.00  0.00     0.051 A 
ATOM      5  C5  IND d   1       1.163  -2.664  -0.418  0.00  0.00    -0.031 A 
ATOM      6  C6  IND d   1       0.561  -2.395  -1.630  0.00  0.00     0.015 A 
ATOM      7  C7  IND d   1      -0.482  -3.147  -2.090  0.00  0.00    -0.016 A 
ATOM      8  C8  IND d   1      -0.894  -4.203  -1.289  0.00  0.00    -0.047 A 
ATOM      9  C9  IND d   1      -0.259  -4.507  -0.078  0.00  0.00    -0.096 A 
ATOM     10  HN1 IND d   1      -2.416  -5.180  -2.155  0.00  0.00     0.298 HD
ENDROOT
TORSDOF 0
ENDMDL
