MODEL 1
REMARK minimizedAffinity 1.78228438
REMARK minimizedRMSD -1
REMARK  0 active torsions:
REMARK  status: ('A' for Active; 'I' for Inactive)
ROOT
ATOM      1  C1  BNZ d   1       0.842  -2.921  -5.991  0.00  0.00     0.000 A 
ATOM      2  C2  BNZ d   1      -0.486  -2.587  -5.997  0.00  0.00     0.000 A 
ATOM      3  C3  BNZ d   1      -1.451  -3.556  -5.979  0.00  0.00     0.000 A 
ATOM      4  C4  BNZ d   1      -1.087  -4.854  -5.997  0.00  0.00     0.000 A 
ATOM      5  C5  BNZ d   1       0.248  -5.206  -6.000  0.00  0.00     0.000 A 
ATOM      6  C6  BNZ d   1       1.216  -4.229  -5.978  0.00  0.00     0.000 A 
ENDROOT
TORSDOF 0
ENDMDL
