MODEL 1
REMARK minimizedAffinity 2.6674335
REMARK minimizedRMSD -1
REMARK  0 active torsions:
REMARK  status: ('A' for Active; 'I' for Inactive)
ROOT
ATOM      1  C1  BNZ d   1       4.004   4.835   1.218  0.00  0.00     0.000 A 
ATOM      2  C2  BNZ d   1       4.723   5.977   1.448  0.00  0.00     0.000 A 
ATOM      3  C3  BNZ d   1       5.724   5.999   2.378  0.00  0.00     0.000 A 
ATOM      4  C4  BNZ d   1       5.977   4.891   3.105  0.00  0.00     0.000 A 
ATOM      5  C5  BNZ d   1       5.255   3.734   2.892  0.00  0.00     0.000 A 
ATOM      6  C6  BNZ d   1       4.274   3.705   1.927  0.00  0.00     0.000 A 
ENDROOT
TORSDOF 0
ENDMDL
