MODEL 1
REMARK minimizedAffinity 9.60993767
REMARK minimizedRMSD -1
REMARK  0 active torsions:
REMARK  status: ('A' for Active; 'I' for Inactive)
ROOT
ATOM      1  C1  BNZ d   1      -0.717  -0.396   2.524  0.00  0.00     0.000 A 
ATOM      2  C2  BNZ d   1      -0.656  -1.485   3.352  0.00  0.00     0.000 A 
ATOM      3  C3  BNZ d   1       0.544  -1.940   3.823  0.00  0.00     0.000 A 
ATOM      4  C4  BNZ d   1       1.683  -1.331   3.434  0.00  0.00     0.000 A 
ATOM      5  C5  BNZ d   1       1.638  -0.238   2.591  0.00  0.00     0.000 A 
ATOM      6  C6  BNZ d   1       0.426   0.241   2.150  0.00  0.00     0.000 A 
ENDROOT
TORSDOF 0
ENDMDL
