MODEL 1
REMARK minimizedAffinity 7.8713212
REMARK minimizedRMSD -1
REMARK  0 active torsions:
REMARK  status: ('A' for Active; 'I' for Inactive)
ROOT
ATOM      1  C1  BNZ d   1       1.167  -4.965  -5.986  0.00  0.00     0.000 A 
ATOM      2  C2  BNZ d   1       0.942  -3.614  -5.999  0.00  0.00     0.000 A 
ATOM      3  C3  BNZ d   1      -0.331  -3.117  -5.984  0.00  0.00     0.000 A 
ATOM      4  C4  BNZ d   1      -1.376  -3.969  -5.995  0.00  0.00     0.000 A 
ATOM      5  C5  BNZ d   1      -1.166  -5.333  -5.992  0.00  0.00     0.000 A 
ATOM      6  C6  BNZ d   1       0.117  -5.830  -5.968  0.00  0.00     0.000 A 
ENDROOT
TORSDOF 0
ENDMDL
