MODEL 1
REMARK minimizedAffinity 9.42964077
REMARK minimizedRMSD -1
REMARK  0 active torsions:
REMARK  status: ('A' for Active; 'I' for Inactive)
ROOT
ATOM      1  C1  BNZ d   1       1.237  -0.305   4.414  0.00  0.00     0.000 A 
ATOM      2  C2  BNZ d   1       1.125  -0.969   3.222  0.00  0.00     0.000 A 
ATOM      3  C3  BNZ d   1       0.259  -0.534   2.257  0.00  0.00     0.000 A 
ATOM      4  C4  BNZ d   1      -0.521   0.538   2.501  0.00  0.00     0.000 A 
ATOM      5  C5  BNZ d   1      -0.426   1.213   3.702  0.00  0.00     0.000 A 
ATOM      6  C6  BNZ d   1       0.475   0.796   4.655  0.00  0.00     0.000 A 
ENDROOT
TORSDOF 0
ENDMDL
