MODEL 1
REMARK minimizedAffinity 2.5478785
REMARK minimizedRMSD -1
REMARK  0 active torsions:
REMARK  status: ('A' for Active; 'I' for Inactive)
ROOT
ATOM      1  C1  BNZ d   1      -0.318   0.007   2.652  0.00  0.00     0.000 A 
ATOM      2  C2  BNZ d   1       0.069  -1.306   2.700  0.00  0.00     0.000 A 
ATOM      3  C3  BNZ d   1       1.005  -1.727   3.603  0.00  0.00     0.000 A 
ATOM      4  C4  BNZ d   1       1.580  -0.830   4.429  0.00  0.00     0.000 A 
ATOM      5  C5  BNZ d   1       1.207   0.499   4.386  0.00  0.00     0.000 A 
ATOM      6  C6  BNZ d   1       0.237   0.913   3.502  0.00  0.00     0.000 A 
ENDROOT
TORSDOF 0
ENDMDL
