MODEL 1
REMARK minimizedAffinity 4.13139629
REMARK minimizedRMSD -1
REMARK  0 active torsions:
REMARK  status: ('A' for Active; 'I' for Inactive)
ROOT
ATOM      1  C1  BNZ d   1       2.527  -0.017   4.746  0.00  0.00     0.000 A 
ATOM      2  C2  BNZ d   1       2.213   0.399   3.480  0.00  0.00     0.000 A 
ATOM      3  C3  BNZ d   1       1.360  -0.327   2.696  0.00  0.00     0.000 A 
ATOM      4  C4  BNZ d   1       0.854  -1.486   3.165  0.00  0.00     0.000 A 
ATOM      5  C5  BNZ d   1       1.169  -1.923   4.436  0.00  0.00     0.000 A 
ATOM      6  C6  BNZ d   1       1.997  -1.170   5.236  0.00  0.00     0.000 A 
ENDROOT
TORSDOF 0
ENDMDL
