MODEL 1
REMARK minimizedAffinity 5.12798643
REMARK minimizedRMSD -1
REMARK  0 active torsions:
REMARK  status: ('A' for Active; 'I' for Inactive)
ROOT
ATOM      1  C1  BNZ d   1      -0.253   0.027   2.733  0.00  0.00     0.000 A 
ATOM      2  C2  BNZ d   1       0.157  -1.279   2.780  0.00  0.00     0.000 A 
ATOM      3  C3  BNZ d   1       1.411  -1.603   3.216  0.00  0.00     0.000 A 
ATOM      4  C4  BNZ d   1       2.266  -0.621   3.566  0.00  0.00     0.000 A 
ATOM      5  C5  BNZ d   1       1.871   0.701   3.515  0.00  0.00     0.000 A 
ATOM      6  C6  BNZ d   1       0.595   1.022   3.113  0.00  0.00     0.000 A 
ENDROOT
TORSDOF 0
ENDMDL
