MODEL 1
REMARK minimizedAffinity 0.859050214
REMARK minimizedRMSD -1
REMARK  0 active torsions:
REMARK  status: ('A' for Active; 'I' for Inactive)
ROOT
ATOM      1  C   UNL d   1      -0.018   2.977  -0.012  0.00  0.00     0.172 C 
ATOM      2  N   UNL d   1      -0.116   4.073  -0.948  0.00  0.00    -0.070 N 
ATOM      3  C1  UNL d   1       0.683   5.185  -0.962  0.00  0.00    -0.004 A 
ATOM      4  C2  UNL d   1       0.271   5.988  -2.004  0.00  0.00    -0.047 A 
ATOM      5  C3  UNL d   1      -0.814   5.336  -2.636  0.00  0.00    -0.047 A 
ATOM      6  C4  UNL d   1      -1.033   4.153  -1.963  0.00  0.00    -0.004 A 
ENDROOT
TORSDOF 0
ENDMDL
