MODEL 1
REMARK minimizedAffinity 4.6279645
REMARK minimizedRMSD -1
REMARK  0 active torsions:
REMARK  status: ('A' for Active; 'I' for Inactive)
ROOT
ATOM      1  C   UNL d   1       0.631   5.551  -3.824  0.00  0.00     0.172 C 
ATOM      2  N   UNL d   1       0.086   5.136  -2.553  0.00  0.00    -0.070 N 
ATOM      3  C1  UNL d   1       0.736   4.379  -1.615  0.00  0.00    -0.004 A 
ATOM      4  C2  UNL d   1      -0.120   4.202  -0.549  0.00  0.00    -0.047 A 
ATOM      5  C3  UNL d   1      -1.326   4.874  -0.858  0.00  0.00    -0.047 A 
ATOM      6  C4  UNL d   1      -1.171   5.444  -2.104  0.00  0.00    -0.004 A 
ENDROOT
TORSDOF 0
ENDMDL
