MODEL 1
REMARK minimizedAffinity 5.50523472
REMARK minimizedRMSD -1
REMARK  0 active torsions:
REMARK  status: ('A' for Active; 'I' for Inactive)
ROOT
ATOM      1  C   UNL d   1       5.249  -4.983  -1.741  0.00  0.00     0.172 C 
ATOM      2  N   UNL d   1       4.873  -5.256  -3.108  0.00  0.00    -0.070 N 
ATOM      3  C1  UNL d   1       5.575  -4.875  -4.220  0.00  0.00    -0.004 A 
ATOM      4  C2  UNL d   1       4.889  -5.325  -5.328  0.00  0.00    -0.047 A 
ATOM      5  C3  UNL d   1       3.735  -6.000  -4.865  0.00  0.00    -0.047 A 
ATOM      6  C4  UNL d   1       3.749  -5.942  -3.487  0.00  0.00    -0.004 A 
ENDROOT
TORSDOF 0
ENDMDL
