MODEL 1
REMARK minimizedAffinity 3.39388466
REMARK minimizedRMSD -1
REMARK  0 active torsions:
REMARK  status: ('A' for Active; 'I' for Inactive)
ROOT
ATOM      1  C   UNL d   1      -0.872  -3.429  -1.921  0.00  0.00     0.172 C 
ATOM      2  N   UNL d   1       0.252  -3.138  -1.062  0.00  0.00    -0.070 N 
ATOM      3  C1  UNL d   1       0.635  -1.892  -0.643  0.00  0.00    -0.004 A 
ATOM      4  C2  UNL d   1       1.746  -2.039   0.159  0.00  0.00    -0.047 A 
ATOM      5  C3  UNL d   1       2.042  -3.422   0.223  0.00  0.00    -0.047 A 
ATOM      6  C4  UNL d   1       1.101  -4.079  -0.542  0.00  0.00    -0.004 A 
ENDROOT
TORSDOF 0
ENDMDL
