MODEL 1
REMARK minimizedAffinity 0.965523779
REMARK minimizedRMSD -1
REMARK  0 active torsions:
REMARK  status: ('A' for Active; 'I' for Inactive)
ROOT
ATOM      1  C   UNL d   1       1.777   3.401   0.817  0.00  0.00     0.172 C 
ATOM      2  N   UNL d   1       0.680   3.817  -0.025  0.00  0.00    -0.070 N 
ATOM      3  C1  UNL d   1       0.695   3.854  -1.394  0.00  0.00    -0.004 A 
ATOM      4  C2  UNL d   1      -0.537   4.305  -1.817  0.00  0.00    -0.047 A 
ATOM      5  C3  UNL d   1      -1.318   4.549  -0.663  0.00  0.00    -0.047 A 
ATOM      6  C4  UNL d   1      -0.540   4.239   0.433  0.00  0.00    -0.004 A 
ENDROOT
TORSDOF 0
ENDMDL
