MODEL 1
REMARK minimizedAffinity 4.64476061
REMARK minimizedRMSD -1
REMARK  0 active torsions:
REMARK  status: ('A' for Active; 'I' for Inactive)
ROOT
ATOM      1  C   UNL d   1      -0.822   4.679  -2.265  0.00  0.00     0.172 C 
ATOM      2  N   UNL d   1      -0.298   4.142  -1.032  0.00  0.00    -0.070 N 
ATOM      3  C1  UNL d   1      -0.745   3.013  -0.399  0.00  0.00    -0.004 A 
ATOM      4  C2  UNL d   1       0.011   2.841   0.741  0.00  0.00    -0.047 A 
ATOM      5  C3  UNL d   1       0.944   3.904   0.795  0.00  0.00    -0.047 A 
ATOM      6  C4  UNL d   1       0.731   4.694  -0.315  0.00  0.00    -0.004 A 
ENDROOT
TORSDOF 0
ENDMDL
