MODEL 1
REMARK minimizedAffinity -5.90225601
REMARK minimizedRMSD -1
REMARK  1 active torsions:
REMARK  status: ('A' for Active; 'I' for Inactive)
REMARK    1  A    between atoms: C1_2  and  C2_3 
ROOT
ATOM      1  C2  UNL d   1      -0.056  -0.306  -0.680  0.00  0.00    -0.081 A 
ATOM      2  C3  UNL d   1      -0.285  -0.176   0.696  0.00  0.00     0.006 A 
ATOM      3  C4  UNL d   1       0.612  -0.722   1.617  0.00  0.00     0.002 A 
ATOM      4  C5  UNL d   1       1.755  -1.399   1.180  0.00  0.00    -0.080 A 
ATOM      5  C6  UNL d   1       2.741  -1.964   2.159  0.00  0.00     0.076 C 
ATOM      6  C7  UNL d   1       1.975  -1.544  -0.194  0.00  0.00     0.002 A 
ATOM      7  C8  UNL d   1       1.078  -0.999  -1.116  0.00  0.00     0.006 A 
ENDROOT
BRANCH   1   8
ATOM      8  C1  UNL d   1      -0.986   0.338  -1.676  0.00  0.00     0.054 C 
ATOM      9  C   UNL d   1      -0.464   1.695  -2.124  0.00  0.00     0.018 C 
ENDBRANCH   1   8
TORSDOF 1
ENDMDL
