MODEL 1
REMARK minimizedAffinity -5.39129829
REMARK minimizedRMSD -1
REMARK  1 active torsions:
REMARK  status: ('A' for Active; 'I' for Inactive)
REMARK    1  A    between atoms: C1_2  and  C2_3 
ROOT
ATOM      1  C2  UNL d   1      -0.774   0.298  -0.666  0.00  0.00    -0.081 A 
ATOM      2  C3  UNL d   1      -1.539   0.147   0.497  0.00  0.00     0.006 A 
ATOM      3  C4  UNL d   1      -0.940  -0.260   1.692  0.00  0.00     0.002 A 
ATOM      4  C5  UNL d   1       0.435  -0.514   1.745  0.00  0.00    -0.080 A 
ATOM      5  C6  UNL d   1       1.097  -0.922   3.028  0.00  0.00     0.076 C 
ATOM      6  C7  UNL d   1       1.196  -0.380   0.579  0.00  0.00     0.002 A 
ATOM      7  C8  UNL d   1       0.597   0.026  -0.616  0.00  0.00     0.006 A 
ENDROOT
BRANCH   1   8
ATOM      8  C1  UNL d   1      -1.407   0.799  -1.939  0.00  0.00     0.054 C 
ATOM      9  C   UNL d   1      -0.619   1.960  -2.529  0.00  0.00     0.018 C 
ENDBRANCH   1   8
TORSDOF 1
ENDMDL
