MODEL 1
REMARK minimizedAffinity -4.28864527
REMARK minimizedRMSD -1
REMARK  1 active torsions:
REMARK  status: ('A' for Active; 'I' for Inactive)
REMARK    1  A    between atoms: C1_2  and  C2_3 
ROOT
ATOM      1  C2  UNL d   1      -0.719   0.590  -0.614  0.00  0.00    -0.081 A 
ATOM      2  C3  UNL d   1      -1.444   0.681   0.580  0.00  0.00     0.006 A 
ATOM      3  C4  UNL d   1      -0.882   0.253   1.785  0.00  0.00     0.002 A 
ATOM      4  C5  UNL d   1       0.417  -0.266   1.817  0.00  0.00    -0.080 A 
ATOM      5  C6  UNL d   1       1.043  -0.702   3.108  0.00  0.00     0.076 C 
ATOM      6  C7  UNL d   1       1.135  -0.373   0.621  0.00  0.00     0.002 A 
ATOM      7  C8  UNL d   1       0.573   0.054  -0.584  0.00  0.00     0.006 A 
ENDROOT
BRANCH   1   8
ATOM      8  C1  UNL d   1      -1.298   1.111  -1.905  0.00  0.00     0.054 C 
ATOM      9  C   UNL d   1      -0.697   2.459  -2.276  0.00  0.00     0.018 C 
ENDBRANCH   1   8
TORSDOF 1
ENDMDL
