MODEL 1
REMARK minimizedAffinity -4.24406719
REMARK minimizedRMSD -1
REMARK  1 active torsions:
REMARK  status: ('A' for Active; 'I' for Inactive)
REMARK    1  A    between atoms: C1_2  and  C2_3 
ROOT
ATOM      1  C2  UNL d   1      -2.543   2.287  -2.020  0.00  0.00    -0.081 A 
ATOM      2  C3  UNL d   1      -1.503   2.570  -2.914  0.00  0.00     0.006 A 
ATOM      3  C4  UNL d   1      -0.436   1.682  -3.063  0.00  0.00     0.002 A 
ATOM      4  C5  UNL d   1      -0.394   0.493  -2.327  0.00  0.00    -0.080 A 
ATOM      5  C6  UNL d   1       0.731  -0.484  -2.500  0.00  0.00     0.076 C 
ATOM      6  C7  UNL d   1      -1.424   0.218  -1.421  0.00  0.00     0.002 A 
ATOM      7  C8  UNL d   1      -2.492   1.106  -1.271  0.00  0.00     0.006 A 
ENDROOT
BRANCH   1   8
ATOM      8  C1  UNL d   1      -3.728   3.212  -1.904  0.00  0.00     0.054 C 
ATOM      9  C   UNL d   1      -5.035   2.468  -2.141  0.00  0.00     0.018 C 
ENDBRANCH   1   8
TORSDOF 1
ENDMDL
