MODEL 1
REMARK minimizedAffinity -3.19305944
REMARK minimizedRMSD -1
REMARK  1 active torsions:
REMARK  status: ('A' for Active; 'I' for Inactive)
REMARK    1  A    between atoms: C1_2  and  C2_3 
ROOT
ATOM      1  C2  UNL d   1      -0.381  -0.927   1.542  0.00  0.00    -0.081 A 
ATOM      2  C3  UNL d   1       0.598  -0.712   0.565  0.00  0.00     0.006 A 
ATOM      3  C4  UNL d   1       0.282  -0.044  -0.621  0.00  0.00     0.002 A 
ATOM      4  C5  UNL d   1      -1.016   0.427  -0.846  0.00  0.00    -0.080 A 
ATOM      5  C6  UNL d   1      -1.361   1.172  -2.101  0.00  0.00     0.076 C 
ATOM      6  C7  UNL d   1      -1.999   0.197   0.123  0.00  0.00     0.002 A 
ATOM      7  C8  UNL d   1      -1.684  -0.472   1.308  0.00  0.00     0.006 A 
ENDROOT
BRANCH   1   8
ATOM      8  C1  UNL d   1      -0.028  -1.590   2.849  0.00  0.00     0.054 C 
ATOM      9  C   UNL d   1       1.282  -2.357   2.744  0.00  0.00     0.018 C 
ENDBRANCH   1   8
TORSDOF 1
ENDMDL
