MODEL 1
REMARK minimizedAffinity -5.39656305
REMARK minimizedRMSD -1
REMARK  2 active torsions:
REMARK  status: ('A' for Active; 'I' for Inactive)
REMARK    1  A    between atoms: C2'_3  and  C1'_4 
REMARK    2  A    between atoms: C1'_4  and  C1_5 
ROOT
ATOM      1  C1  I4B d   1      -0.081  -0.029   0.807  0.00  0.00    -0.075 A 
ATOM      2  C2  I4B d   1      -0.106  -1.091   1.676  0.00  0.00     0.003 A 
ATOM      3  C3  I4B d   1       0.938  -1.267   2.616  0.00  0.00     0.002 A 
ATOM      4  C4  I4B d   1       2.006  -0.393   2.619  0.00  0.00    -0.004 A 
ATOM      5  C5  I4B d   1       2.018   0.696   1.752  0.00  0.00     0.002 A 
ATOM      6  C6  I4B d   1       0.962   0.887   0.849  0.00  0.00     0.003 A 
ENDROOT
BRANCH   1   7
ATOM      7  C1' I4B d   1      -1.183   0.108  -0.195  0.00  0.00     0.060 C 
BRANCH   7   8
ATOM      8  C2' I4B d   1      -0.567   0.049  -1.578  0.00  0.00    -0.013 C 
ATOM      9  C4' I4B d   1      -0.152   1.419  -2.049  0.00  0.00     0.013 C 
ATOM     10  C3' I4B d   1       0.607  -0.882  -1.523  0.00  0.00     0.013 C 
ENDBRANCH   7   8
ENDBRANCH   1   7
TORSDOF 2
ENDMDL
