MODEL 1
REMARK minimizedAffinity -2.04337573
REMARK minimizedRMSD -1
REMARK  2 active torsions:
REMARK  status: ('A' for Active; 'I' for Inactive)
REMARK    1  A    between atoms: C2'_3  and  C1'_4 
REMARK    2  A    between atoms: C1'_4  and  C1_5 
ROOT
ATOM      1  C1  I4B d   1      -0.667   0.563  -1.138  0.00  0.00    -0.075 A 
ATOM      2  C2  I4B d   1       0.692   0.412  -1.021  0.00  0.00     0.003 A 
ATOM      3  C3  I4B d   1       1.265   0.046   0.221  0.00  0.00     0.002 A 
ATOM      4  C4  I4B d   1       0.451  -0.108   1.325  0.00  0.00    -0.004 A 
ATOM      5  C5  I4B d   1      -0.929   0.024   1.200  0.00  0.00     0.002 A 
ATOM      6  C6  I4B d   1      -1.493   0.349  -0.043  0.00  0.00     0.003 A 
ENDROOT
BRANCH   1   7
ATOM      7  C1' I4B d   1      -1.235   0.982  -2.457  0.00  0.00     0.060 C 
BRANCH   7   8
ATOM      8  C2' I4B d   1      -1.537   2.465  -2.385  0.00  0.00    -0.013 C 
ATOM      9  C4' I4B d   1      -0.474   3.273  -3.081  0.00  0.00     0.013 C 
ATOM     10  C3' I4B d   1      -2.883   2.694  -3.005  0.00  0.00     0.013 C 
ENDBRANCH   7   8
ENDBRANCH   1   7
TORSDOF 2
ENDMDL
