MODEL 1
REMARK minimizedAffinity -4.48958111
REMARK minimizedRMSD -1
REMARK  2 active torsions:
REMARK  status: ('A' for Active; 'I' for Inactive)
REMARK    1  A    between atoms: C2'_3  and  C1'_4 
REMARK    2  A    between atoms: C1'_4  and  C1_5 
ROOT
ATOM      1  C1  I4B d   1       0.201  -0.027  -0.193  0.00  0.00    -0.075 A 
ATOM      2  C2  I4B d   1      -0.761  -0.291   0.750  0.00  0.00     0.003 A 
ATOM      3  C3  I4B d   1      -0.388  -0.603   2.080  0.00  0.00     0.002 A 
ATOM      4  C4  I4B d   1       0.949  -0.689   2.409  0.00  0.00    -0.004 A 
ATOM      5  C5  I4B d   1       1.922  -0.399   1.458  0.00  0.00     0.002 A 
ATOM      6  C6  I4B d   1       1.547  -0.054   0.151  0.00  0.00     0.003 A 
ENDROOT
BRANCH   1   7
ATOM      7  C1' I4B d   1      -0.226   0.266  -1.596  0.00  0.00     0.060 C 
BRANCH   7   8
ATOM      8  C2' I4B d   1      -0.526   1.749  -1.692  0.00  0.00    -0.013 C 
ATOM      9  C4' I4B d   1       0.564   2.479  -2.431  0.00  0.00     0.013 C 
ATOM     10  C3' I4B d   1      -1.848   1.909  -2.381  0.00  0.00     0.013 C 
ENDBRANCH   7   8
ENDBRANCH   1   7
TORSDOF 2
ENDMDL
