MODEL 1
REMARK minimizedAffinity -3.80275536
REMARK minimizedRMSD -1
REMARK  2 active torsions:
REMARK  status: ('A' for Active; 'I' for Inactive)
REMARK    1  A    between atoms: C2'_3  and  C1'_4 
REMARK    2  A    between atoms: C1'_4  and  C1_5 
ROOT
ATOM      1  C1  I4B d   1      -0.699   0.482  -0.795  0.00  0.00    -0.075 A 
ATOM      2  C2  I4B d   1       0.141   1.153   0.058  0.00  0.00     0.003 A 
ATOM      3  C3  I4B d   1       0.239   0.762   1.416  0.00  0.00     0.002 A 
ATOM      4  C4  I4B d   1      -0.552  -0.266   1.886  0.00  0.00    -0.004 A 
ATOM      5  C5  I4B d   1      -1.386  -0.961   1.013  0.00  0.00     0.002 A 
ATOM      6  C6  I4B d   1      -1.451  -0.593  -0.338  0.00  0.00     0.003 A 
ENDROOT
BRANCH   1   7
ATOM      7  C1' I4B d   1      -0.802   0.943  -2.214  0.00  0.00     0.060 C 
BRANCH   7   8
ATOM      8  C2' I4B d   1      -0.510   2.429  -2.245  0.00  0.00    -0.013 C 
ATOM      9  C4' I4B d   1       0.341   2.793  -3.433  0.00  0.00     0.013 C 
ATOM     10  C3' I4B d   1      -1.820   3.158  -2.275  0.00  0.00     0.013 C 
ENDBRANCH   7   8
ENDBRANCH   1   7
TORSDOF 2
ENDMDL
