MODEL 1
REMARK minimizedAffinity -4.82798481
REMARK minimizedRMSD -1
REMARK  2 active torsions:
REMARK  status: ('A' for Active; 'I' for Inactive)
REMARK    1  A    between atoms: C2'_3  and  C1'_4 
REMARK    2  A    between atoms: C1'_4  and  C1_5 
ROOT
ATOM      1  C1  I4B d   1       0.978  -0.195   0.408  0.00  0.00    -0.075 A 
ATOM      2  C2  I4B d   1       0.202   0.122   1.495  0.00  0.00     0.003 A 
ATOM      3  C3  I4B d   1       0.404  -0.538   2.731  0.00  0.00     0.002 A 
ATOM      4  C4  I4B d   1       1.352  -1.536   2.822  0.00  0.00    -0.004 A 
ATOM      5  C5  I4B d   1       2.153  -1.840   1.725  0.00  0.00     0.002 A 
ATOM      6  C6  I4B d   1       1.974  -1.157   0.513  0.00  0.00     0.003 A 
ENDROOT
BRANCH   1   7
ATOM      7  C1' I4B d   1       0.715   0.498  -0.892  0.00  0.00     0.060 C 
BRANCH   7   8
ATOM      8  C2' I4B d   1      -0.624   0.019  -1.414  0.00  0.00    -0.013 C 
ATOM      9  C4' I4B d   1      -1.218   1.009  -2.382  0.00  0.00     0.013 C 
ATOM     10  C3' I4B d   1      -0.416  -1.316  -2.065  0.00  0.00     0.013 C 
ENDBRANCH   7   8
ENDBRANCH   1   7
TORSDOF 2
ENDMDL
