MODEL 1
REMARK minimizedAffinity -5.41707039
REMARK minimizedRMSD -1
REMARK  2 active torsions:
REMARK  status: ('A' for Active; 'I' for Inactive)
REMARK    1  A    between atoms: C2'_3  and  C1'_4 
REMARK    2  A    between atoms: C1'_4  and  C1_5 
ROOT
ATOM      1  C1  I4B d   1      -0.783   1.007  -1.776  0.00  0.00    -0.075 A 
ATOM      2  C2  I4B d   1      -2.087   1.275  -2.112  0.00  0.00     0.003 A 
ATOM      3  C3  I4B d   1      -2.428   2.509  -2.717  0.00  0.00     0.002 A 
ATOM      4  C4  I4B d   1      -1.449   3.460  -2.920  0.00  0.00    -0.004 A 
ATOM      5  C5  I4B d   1      -0.124   3.177  -2.601  0.00  0.00     0.002 A 
ATOM      6  C6  I4B d   1       0.214   1.939  -2.036  0.00  0.00     0.003 A 
ENDROOT
BRANCH   1   7
ATOM      7  C1' I4B d   1      -0.463  -0.293  -1.109  0.00  0.00     0.060 C 
BRANCH   7   8
ATOM      8  C2' I4B d   1       0.616  -0.034  -0.077  0.00  0.00    -0.013 C 
ATOM      9  C4' I4B d   1       0.084  -0.206   1.322  0.00  0.00     0.013 C 
ATOM     10  C3' I4B d   1       1.749  -0.979  -0.345  0.00  0.00     0.013 C 
ENDBRANCH   7   8
ENDBRANCH   1   7
TORSDOF 2
ENDMDL
