MODEL 1
REMARK minimizedAffinity -3.66020608
REMARK minimizedRMSD -1
REMARK  2 active torsions:
REMARK  status: ('A' for Active; 'I' for Inactive)
REMARK    1  A    between atoms: C2'_3  and  C1'_4 
REMARK    2  A    between atoms: C1'_4  and  C1_5 
ROOT
ATOM      1  C1  I4B d   1      -0.192  -0.138  -0.511  0.00  0.00    -0.075 A 
ATOM      2  C2  I4B d   1       1.013  -0.565  -0.012  0.00  0.00     0.003 A 
ATOM      3  C3  I4B d   1       1.162  -0.822   1.372  0.00  0.00     0.002 A 
ATOM      4  C4  I4B d   1       0.100  -0.592   2.223  0.00  0.00    -0.004 A 
ATOM      5  C5  I4B d   1      -1.128  -0.182   1.713  0.00  0.00     0.002 A 
ATOM      6  C6  I4B d   1      -1.279   0.035   0.336  0.00  0.00     0.003 A 
ENDROOT
BRANCH   1   7
ATOM      7  C1' I4B d   1      -0.304   0.155  -1.973  0.00  0.00     0.060 C 
BRANCH   7   8
ATOM      8  C2' I4B d   1      -0.442   1.655  -2.139  0.00  0.00    -0.013 C 
ATOM      9  C4' I4B d   1       0.641   2.207  -3.028  0.00  0.00     0.013 C 
ATOM     10  C3' I4B d   1      -1.803   1.935  -2.705  0.00  0.00     0.013 C 
ENDBRANCH   7   8
ENDBRANCH   1   7
TORSDOF 2
ENDMDL
