MODEL 1
REMARK minimizedAffinity -1.35165417
REMARK minimizedRMSD -1
REMARK  2 active torsions:
REMARK  status: ('A' for Active; 'I' for Inactive)
REMARK    1  A    between atoms: C2'_3  and  C1'_4 
REMARK    2  A    between atoms: C1'_4  and  C1_5 
ROOT
ATOM      1  C1  I4B d   1      -0.532   0.169  -1.648  0.00  0.00    -0.075 A 
ATOM      2  C2  I4B d   1       0.709  -0.417  -1.682  0.00  0.00     0.003 A 
ATOM      3  C3  I4B d   1       1.260  -0.989  -0.509  0.00  0.00     0.002 A 
ATOM      4  C4  I4B d   1       0.562  -0.908   0.678  0.00  0.00    -0.004 A 
ATOM      5  C5  I4B d   1      -0.706  -0.334   0.706  0.00  0.00     0.002 A 
ATOM      6  C6  I4B d   1      -1.262   0.197  -0.467  0.00  0.00     0.003 A 
ENDROOT
BRANCH   1   7
ATOM      7  C1' I4B d   1      -1.069   0.792  -2.897  0.00  0.00     0.060 C 
BRANCH   7   8
ATOM      8  C2' I4B d   1      -1.415   2.234  -2.588  0.00  0.00    -0.013 C 
ATOM      9  C4' I4B d   1      -0.344   3.170  -3.084  0.00  0.00     0.013 C 
ATOM     10  C3' I4B d   1      -2.738   2.540  -3.225  0.00  0.00     0.013 C 
ENDBRANCH   7   8
ENDBRANCH   1   7
TORSDOF 2
ENDMDL
