MODEL 1
REMARK minimizedAffinity -5.13223886
REMARK minimizedRMSD -1
REMARK  2 active torsions:
REMARK  status: ('A' for Active; 'I' for Inactive)
REMARK    1  A    between atoms: C2'_3  and  C1'_4 
REMARK    2  A    between atoms: C1'_4  and  C1_5 
ROOT
ATOM      1  C1  I4B d   1       0.129  -0.090   0.748  0.00  0.00    -0.075 A 
ATOM      2  C2  I4B d   1       1.498   0.008   0.756  0.00  0.00     0.003 A 
ATOM      3  C3  I4B d   1       2.267  -0.820   1.609  0.00  0.00     0.002 A 
ATOM      4  C4  I4B d   1       1.628  -1.691   2.467  0.00  0.00    -0.004 A 
ATOM      5  C5  I4B d   1       0.241  -1.806   2.441  0.00  0.00     0.002 A 
ATOM      6  C6  I4B d   1      -0.513  -1.009   1.567  0.00  0.00     0.003 A 
ENDROOT
BRANCH   1   7
ATOM      7  C1' I4B d   1      -0.654   0.824  -0.141  0.00  0.00     0.060 C 
BRANCH   7   8
ATOM      8  C2' I4B d   1      -0.038   0.769  -1.525  0.00  0.00    -0.013 C 
ATOM      9  C4' I4B d   1      -0.112  -0.622  -2.099  0.00  0.00     0.013 C 
ATOM     10  C3' I4B d   1      -0.763   1.753  -2.394  0.00  0.00     0.013 C 
ENDBRANCH   7   8
ENDBRANCH   1   7
TORSDOF 2
ENDMDL
