MODEL 1
REMARK minimizedAffinity -2.00903225
REMARK minimizedRMSD -1
REMARK  2 active torsions:
REMARK  status: ('A' for Active; 'I' for Inactive)
REMARK    1  A    between atoms: C2'_3  and  C1'_4 
REMARK    2  A    between atoms: C1'_4  and  C1_5 
ROOT
ATOM      1  C1  I4B d   1      -0.703   0.942  -1.988  0.00  0.00    -0.075 A 
ATOM      2  C2  I4B d   1       0.440   1.673  -2.193  0.00  0.00     0.003 A 
ATOM      3  C3  I4B d   1       0.384   2.903  -2.893  0.00  0.00     0.002 A 
ATOM      4  C4  I4B d   1      -0.820   3.336  -3.411  0.00  0.00    -0.004 A 
ATOM      5  C5  I4B d   1      -1.982   2.605  -3.182  0.00  0.00     0.002 A 
ATOM      6  C6  I4B d   1      -1.926   1.407  -2.456  0.00  0.00     0.003 A 
ENDROOT
BRANCH   1   7
ATOM      7  C1' I4B d   1      -0.603  -0.368  -1.274  0.00  0.00     0.060 C 
BRANCH   7   8
ATOM      8  C2' I4B d   1       0.237  -0.158  -0.031  0.00  0.00    -0.013 C 
ATOM      9  C4' I4B d   1      -0.554  -0.449   1.217  0.00  0.00     0.013 C 
ATOM     10  C3' I4B d   1       1.440  -1.049  -0.129  0.00  0.00     0.013 C 
ENDBRANCH   7   8
ENDBRANCH   1   7
TORSDOF 2
ENDMDL
