MODEL 1
REMARK minimizedAffinity -3.50220466
REMARK minimizedRMSD -1
REMARK  0 active torsions:
REMARK  status: ('A' for Active; 'I' for Inactive)
ROOT
ATOM      1  C1  BNZ d   1      -1.689   3.134  -3.132  0.00  0.00     0.000 A 
ATOM      2  C2  BNZ d   1      -2.194   1.921  -3.517  0.00  0.00     0.000 A 
ATOM      3  C3  BNZ d   1      -2.120   0.837  -2.687  0.00  0.00     0.000 A 
ATOM      4  C4  BNZ d   1      -1.506   0.957  -1.492  0.00  0.00     0.000 A 
ATOM      5  C5  BNZ d   1      -0.984   2.171  -1.094  0.00  0.00     0.000 A 
ATOM      6  C6  BNZ d   1      -1.095   3.270  -1.915  0.00  0.00     0.000 A 
ENDROOT
TORSDOF 0
ENDMDL
