MODEL 1
REMARK minimizedAffinity -2.47863102
REMARK minimizedRMSD -1
REMARK  0 active torsions:
REMARK  status: ('A' for Active; 'I' for Inactive)
ROOT
ATOM      1  C1  BNZ d   1       0.917  -0.824   0.360  0.00  0.00     0.000 A 
ATOM      2  C2  BNZ d   1      -0.310  -0.370   0.765  0.00  0.00     0.000 A 
ATOM      3  C3  BNZ d   1      -0.695   0.919   0.520  0.00  0.00     0.000 A 
ATOM      4  C4  BNZ d   1       0.162   1.762  -0.092  0.00  0.00     0.000 A 
ATOM      5  C5  BNZ d   1       1.406   1.321  -0.498  0.00  0.00     0.000 A 
ATOM      6  C6  BNZ d   1       1.775   0.012  -0.285  0.00  0.00     0.000 A 
ENDROOT
TORSDOF 0
ENDMDL
