MODEL 1
REMARK minimizedAffinity -2.68767095
REMARK minimizedRMSD -1
REMARK  0 active torsions:
REMARK  status: ('A' for Active; 'I' for Inactive)
ROOT
ATOM      1  C1  BNZ d   1      -2.489   0.654  -2.499  0.00  0.00     0.000 A 
ATOM      2  C2  BNZ d   1      -2.462   1.572  -3.514  0.00  0.00     0.000 A 
ATOM      3  C3  BNZ d   1      -1.725   2.718  -3.403  0.00  0.00     0.000 A 
ATOM      4  C4  BNZ d   1      -1.048   2.962  -2.263  0.00  0.00     0.000 A 
ATOM      5  C5  BNZ d   1      -1.072   2.051  -1.226  0.00  0.00     0.000 A 
ATOM      6  C6  BNZ d   1      -1.784   0.880  -1.357  0.00  0.00     0.000 A 
ENDROOT
TORSDOF 0
ENDMDL
