MODEL 1
REMARK minimizedAffinity -2.2810967
REMARK minimizedRMSD -1
REMARK  0 active torsions:
REMARK  status: ('A' for Active; 'I' for Inactive)
ROOT
ATOM      1  C1  BNZ d   1       0.143  -0.461   0.619  0.00  0.00     0.000 A 
ATOM      2  C2  BNZ d   1      -0.574  -0.738   1.752  0.00  0.00     0.000 A 
ATOM      3  C3  BNZ d   1      -0.152  -1.697   2.631  0.00  0.00     0.000 A 
ATOM      4  C4  BNZ d   1       0.963  -2.404   2.355  0.00  0.00     0.000 A 
ATOM      5  C5  BNZ d   1       1.692  -2.143   1.212  0.00  0.00     0.000 A 
ATOM      6  C6  BNZ d   1       1.285  -1.150   0.350  0.00  0.00     0.000 A 
ENDROOT
TORSDOF 0
ENDMDL
