MODEL 1
REMARK minimizedAffinity -3.51493621
REMARK minimizedRMSD -1
REMARK  0 active torsions:
REMARK  status: ('A' for Active; 'I' for Inactive)
ROOT
ATOM      1  C1  BNZ d   1       2.021  -0.916   0.488  0.00  0.00     0.000 A 
ATOM      2  C2  BNZ d   1       1.509   0.036  -0.354  0.00  0.00     0.000 A 
ATOM      3  C3  BNZ d   1       0.269   0.569  -0.137  0.00  0.00     0.000 A 
ATOM      4  C4  BNZ d   1      -0.473   0.121   0.896  0.00  0.00     0.000 A 
ATOM      5  C5  BNZ d   1       0.025  -0.844   1.748  0.00  0.00     0.000 A 
ATOM      6  C6  BNZ d   1       1.289  -1.350   1.550  0.00  0.00     0.000 A 
ENDROOT
TORSDOF 0
ENDMDL
