MODEL 1
REMARK minimizedAffinity -4.89434481
REMARK minimizedRMSD -1
REMARK  0 active torsions:
REMARK  status: ('A' for Active; 'I' for Inactive)
ROOT
ATOM      1  C1  BNZ d   1       1.694  -0.060  -0.226  0.00  0.00     0.000 A 
ATOM      2  C2  BNZ d   1       0.459   0.530  -0.288  0.00  0.00     0.000 A 
ATOM      3  C3  BNZ d   1      -0.629  -0.062   0.291  0.00  0.00     0.000 A 
ATOM      4  C4  BNZ d   1      -0.489  -1.259   0.895  0.00  0.00     0.000 A 
ATOM      5  C5  BNZ d   1       0.747  -1.871   0.957  0.00  0.00     0.000 A 
ATOM      6  C6  BNZ d   1       1.847  -1.255   0.407  0.00  0.00     0.000 A 
ENDROOT
TORSDOF 0
ENDMDL
