MODEL 1
REMARK minimizedAffinity -3.33100796
REMARK minimizedRMSD -1
REMARK  0 active torsions:
REMARK  status: ('A' for Active; 'I' for Inactive)
ROOT
ATOM      1  C1  BNZ d   1       1.471  -0.786  -0.494  0.00  0.00     0.000 A 
ATOM      2  C2  BNZ d   1       1.984  -1.597   0.484  0.00  0.00     0.000 A 
ATOM      3  C3  BNZ d   1       1.363  -1.710   1.696  0.00  0.00     0.000 A 
ATOM      4  C4  BNZ d   1       0.255  -0.983   1.944  0.00  0.00     0.000 A 
ATOM      5  C5  BNZ d   1      -0.270  -0.155   0.972  0.00  0.00     0.000 A 
ATOM      6  C6  BNZ d   1       0.335  -0.073  -0.261  0.00  0.00     0.000 A 
ENDROOT
TORSDOF 0
ENDMDL
