MODEL 1
REMARK minimizedAffinity -3.16113734
REMARK minimizedRMSD -1
REMARK  0 active torsions:
REMARK  status: ('A' for Active; 'I' for Inactive)
ROOT
ATOM      1  C1  BNZ d   1      -3.171   1.928  -0.785  0.00  0.00     0.000 A 
ATOM      2  C2  BNZ d   1      -1.883   2.387  -0.713  0.00  0.00     0.000 A 
ATOM      3  C3  BNZ d   1      -1.062   2.342  -1.805  0.00  0.00     0.000 A 
ATOM      4  C4  BNZ d   1      -1.517   1.803  -2.955  0.00  0.00     0.000 A 
ATOM      5  C5  BNZ d   1      -2.810   1.327  -3.040  0.00  0.00     0.000 A 
ATOM      6  C6  BNZ d   1      -3.646   1.409  -1.950  0.00  0.00     0.000 A 
ENDROOT
TORSDOF 0
ENDMDL
