MODEL 1
REMARK minimizedAffinity -3.95771265
REMARK minimizedRMSD -1
REMARK  0 active torsions:
REMARK  status: ('A' for Active; 'I' for Inactive)
ROOT
ATOM      1  C1  BNZ d   1      -0.553  -0.036   0.704  0.00  0.00     0.000 A 
ATOM      2  C2  BNZ d   1      -0.346  -1.120   1.515  0.00  0.00     0.000 A 
ATOM      3  C3  BNZ d   1       0.836  -1.806   1.478  0.00  0.00     0.000 A 
ATOM      4  C4  BNZ d   1       1.793  -1.432   0.605  0.00  0.00     0.000 A 
ATOM      5  C5  BNZ d   1       1.596  -0.347  -0.226  0.00  0.00     0.000 A 
ATOM      6  C6  BNZ d   1       0.420   0.365  -0.159  0.00  0.00     0.000 A 
ENDROOT
TORSDOF 0
ENDMDL
