MODEL 1
REMARK minimizedAffinity -3.43444991
REMARK minimizedRMSD -1
REMARK  0 active torsions:
REMARK  status: ('A' for Active; 'I' for Inactive)
ROOT
ATOM      1  C1  BNZ d   1       0.721   0.809   0.174  0.00  0.00     0.000 A 
ATOM      2  C2  BNZ d   1      -0.516   1.340  -0.080  0.00  0.00     0.000 A 
ATOM      3  C3  BNZ d   1      -1.402   0.692  -0.895  0.00  0.00     0.000 A 
ATOM      4  C4  BNZ d   1      -1.037  -0.464  -1.484  0.00  0.00     0.000 A 
ATOM      5  C5  BNZ d   1       0.209  -1.008  -1.245  0.00  0.00     0.000 A 
ATOM      6  C6  BNZ d   1       1.084  -0.373  -0.394  0.00  0.00     0.000 A 
ENDROOT
TORSDOF 0
ENDMDL
