MODEL 1
REMARK minimizedAffinity -3.8830204
REMARK minimizedRMSD -1
REMARK  0 active torsions:
REMARK  status: ('A' for Active; 'I' for Inactive)
ROOT
ATOM      1  C1  BNZ d   1       1.891   0.049  -0.250  0.00  0.00     0.000 A 
ATOM      2  C2  BNZ d   1       2.268  -1.021   0.518  0.00  0.00     0.000 A 
ATOM      3  C3  BNZ d   1       1.383  -1.612   1.375  0.00  0.00     0.000 A 
ATOM      4  C4  BNZ d   1       0.137  -1.109   1.494  0.00  0.00     0.000 A 
ATOM      5  C5  BNZ d   1      -0.254  -0.025   0.734  0.00  0.00     0.000 A 
ATOM      6  C6  BNZ d   1       0.627   0.543  -0.157  0.00  0.00     0.000 A 
ENDROOT
TORSDOF 0
ENDMDL
