MODEL 1
REMARK minimizedAffinity -3.61187315
REMARK minimizedRMSD -1
REMARK  0 active torsions:
REMARK  status: ('A' for Active; 'I' for Inactive)
ROOT
ATOM      1  C1  BNZ d   1      -2.247   1.475  -1.159  0.00  0.00     0.000 A 
ATOM      2  C2  BNZ d   1      -1.232   2.393  -1.195  0.00  0.00     0.000 A 
ATOM      3  C3  BNZ d   1      -0.891   3.015  -2.363  0.00  0.00     0.000 A 
ATOM      4  C4  BNZ d   1      -1.539   2.689  -3.501  0.00  0.00     0.000 A 
ATOM      5  C5  BNZ d   1      -2.558   1.758  -3.483  0.00  0.00     0.000 A 
ATOM      6  C6  BNZ d   1      -2.925   1.163  -2.298  0.00  0.00     0.000 A 
ENDROOT
TORSDOF 0
ENDMDL
