MODEL 1
REMARK minimizedAffinity -1.15418518
REMARK minimizedRMSD -1
REMARK  0 active torsions:
REMARK  status: ('A' for Active; 'I' for Inactive)
ROOT
ATOM      1  C1  BNZ d   1      -2.231   1.353  -1.221  0.00  0.00     0.000 A 
ATOM      2  C2  BNZ d   1      -3.108   1.250  -2.268  0.00  0.00     0.000 A 
ATOM      3  C3  BNZ d   1      -2.910   1.962  -3.418  0.00  0.00     0.000 A 
ATOM      4  C4  BNZ d   1      -1.860   2.803  -3.505  0.00  0.00     0.000 A 
ATOM      5  C5  BNZ d   1      -0.972   2.924  -2.455  0.00  0.00     0.000 A 
ATOM      6  C6  BNZ d   1      -1.153   2.178  -1.313  0.00  0.00     0.000 A 
ENDROOT
TORSDOF 0
ENDMDL
