MODEL 1
REMARK minimizedAffinity -5.36081743
REMARK minimizedRMSD -1
REMARK  0 active torsions:
REMARK  status: ('A' for Active; 'I' for Inactive)
ROOT
ATOM      1  C1  DEN d   1       1.540   0.260  -1.858  0.00  0.00     0.130 A 
ATOM      2  C2  DEN d   1       1.287  -0.623  -0.723  0.00  0.00    -0.031 A 
ATOM      3  C3  DEN d   1       1.016   0.220   0.459  0.00  0.00     0.027 A 
ATOM      4  C4  DEN d   1       0.958   2.793   0.638  0.00  0.00     0.027 A 
ATOM      5  C5  DEN d   1       1.121   3.970  -0.057  0.00  0.00    -0.003 A 
ATOM      6  C6  DEN d   1       1.465   3.994  -1.383  0.00  0.00     0.001 A 
ATOM      7  C7  DEN d   1       1.614   2.816  -2.067  0.00  0.00     0.017 A 
ATOM      8  C8  DEN d   1       1.458   1.625  -1.370  0.00  0.00    -0.094 A 
ATOM      9  C9  DEN d   1       1.098   1.622  -0.033  0.00  0.00    -0.072 A 
ENDROOT
TORSDOF 0
ENDMDL
