MODEL 1
REMARK minimizedAffinity -5.19191551
REMARK minimizedRMSD -1
REMARK  0 active torsions:
REMARK  status: ('A' for Active; 'I' for Inactive)
ROOT
ATOM      1  C1  DEN d   1       1.688  -0.926  -2.253  0.00  0.00     0.130 A 
ATOM      2  C2  DEN d   1       1.580  -1.943  -1.211  0.00  0.00    -0.031 A 
ATOM      3  C3  DEN d   1       1.251  -1.262   0.058  0.00  0.00     0.027 A 
ATOM      4  C4  DEN d   1       0.898   1.253   0.506  0.00  0.00     0.027 A 
ATOM      5  C5  DEN d   1       0.898   2.506  -0.066  0.00  0.00    -0.003 A 
ATOM      6  C6  DEN d   1       1.192   2.705  -1.389  0.00  0.00     0.001 A 
ATOM      7  C7  DEN d   1       1.455   1.629  -2.195  0.00  0.00     0.017 A 
ATOM      8  C8  DEN d   1       1.464   0.363  -1.624  0.00  0.00    -0.094 A 
ATOM      9  C9  DEN d   1       1.152   0.182  -0.287  0.00  0.00    -0.072 A 
ENDROOT
TORSDOF 0
ENDMDL
