MODEL 1
REMARK minimizedAffinity 0.0424851887
REMARK minimizedRMSD -1
REMARK  0 active torsions:
REMARK  status: ('A' for Active; 'I' for Inactive)
ROOT
ATOM      1  C1  DEN d   1       1.726   4.324  -1.584  0.00  0.00     0.130 A 
ATOM      2  C2  DEN d   1       1.651   5.017  -0.301  0.00  0.00    -0.031 A 
ATOM      3  C3  DEN d   1       1.306   4.023   0.735  0.00  0.00     0.027 A 
ATOM      4  C4  DEN d   1       0.887   1.491   0.479  0.00  0.00     0.027 A 
ATOM      5  C5  DEN d   1       0.825   0.449  -0.420  0.00  0.00    -0.003 A 
ATOM      6  C6  DEN d   1       1.024   0.629  -1.763  0.00  0.00     0.001 A 
ATOM      7  C7  DEN d   1       1.340   1.874  -2.241  0.00  0.00     0.017 A 
ATOM      8  C8  DEN d   1       1.396   2.931  -1.342  0.00  0.00    -0.094 A 
ATOM      9  C9  DEN d   1       1.204   2.726   0.014  0.00  0.00    -0.072 A 
ENDROOT
TORSDOF 0
ENDMDL
