MODEL 1
REMARK minimizedAffinity 1.87055683
REMARK minimizedRMSD -1
REMARK  0 active torsions:
REMARK  status: ('A' for Active; 'I' for Inactive)
ROOT
ATOM      1  C1  DEN d   1       0.533   3.128  -3.026  0.00  0.00     0.130 A 
ATOM      2  C2  DEN d   1       0.353   1.699  -2.783  0.00  0.00    -0.031 A 
ATOM      3  C3  DEN d   1       0.732   1.423  -1.383  0.00  0.00     0.027 A 
ATOM      4  C4  DEN d   1       1.571   3.061   0.424  0.00  0.00     0.027 A 
ATOM      5  C5  DEN d   1       1.897   4.373   0.686  0.00  0.00    -0.003 A 
ATOM      6  C6  DEN d   1       1.823   5.348  -0.273  0.00  0.00     0.001 A 
ATOM      7  C7  DEN d   1       1.372   5.034  -1.528  0.00  0.00     0.017 A 
ATOM      8  C8  DEN d   1       1.049   3.712  -1.801  0.00  0.00    -0.094 A 
ATOM      9  C9  DEN d   1       1.118   2.742  -0.814  0.00  0.00    -0.072 A 
ENDROOT
TORSDOF 0
ENDMDL
