MODEL 1
REMARK minimizedAffinity 2.9061358
REMARK minimizedRMSD -1
REMARK  0 active torsions:
REMARK  status: ('A' for Active; 'I' for Inactive)
ROOT
ATOM      1  C1  DEN d   1       0.759  -0.483   0.572  0.00  0.00     0.130 A 
ATOM      2  C2  DEN d   1       1.315  -1.468  -0.352  0.00  0.00    -0.031 A 
ATOM      3  C3  DEN d   1       1.947  -0.739  -1.470  0.00  0.00     0.027 A 
ATOM      4  C4  DEN d   1       2.123   1.805  -1.855  0.00  0.00     0.027 A 
ATOM      5  C5  DEN d   1       1.791   3.042  -1.350  0.00  0.00    -0.003 A 
ATOM      6  C6  DEN d   1       1.068   3.190  -0.195  0.00  0.00     0.001 A 
ATOM      7  C7  DEN d   1       0.693   2.081   0.516  0.00  0.00     0.017 A 
ATOM      8  C8  DEN d   1       1.017   0.830   0.009  0.00  0.00    -0.094 A 
ATOM      9  C9  DEN d   1       1.759   0.702  -1.153  0.00  0.00    -0.072 A 
ENDROOT
TORSDOF 0
ENDMDL
