MODEL 1
REMARK minimizedAffinity -1.43698049
REMARK minimizedRMSD -1
REMARK  0 active torsions:
REMARK  status: ('A' for Active; 'I' for Inactive)
ROOT
ATOM      1  C1  DEN d   1       1.147   3.384   1.261  0.00  0.00     0.130 A 
ATOM      2  C2  DEN d   1       1.460   4.538   0.422  0.00  0.00    -0.031 A 
ATOM      3  C3  DEN d   1       1.732   4.048  -0.945  0.00  0.00     0.027 A 
ATOM      4  C4  DEN d   1       1.693   1.629  -1.839  0.00  0.00     0.027 A 
ATOM      5  C5  DEN d   1       1.491   0.310  -1.499  0.00  0.00    -0.003 A 
ATOM      6  C6  DEN d   1       1.196  -0.078  -0.219  0.00  0.00     0.001 A 
ATOM      7  C7  DEN d   1       1.050   0.870   0.760  0.00  0.00     0.017 A 
ATOM      8  C8  DEN d   1       1.259   2.201   0.427  0.00  0.00    -0.094 A 
ATOM      9  C9  DEN d   1       1.545   2.574  -0.876  0.00  0.00    -0.072 A 
ENDROOT
TORSDOF 0
ENDMDL
