MODEL 1
REMARK minimizedAffinity 2.21618438
REMARK minimizedRMSD -1
REMARK  0 active torsions:
REMARK  status: ('A' for Active; 'I' for Inactive)
ROOT
ATOM      1  C1  DEN d   1       1.353   3.915   0.964  0.00  0.00     0.130 A 
ATOM      2  C2  DEN d   1       1.631   4.914  -0.064  0.00  0.00    -0.031 A 
ATOM      3  C3  DEN d   1       1.667   4.228  -1.371  0.00  0.00     0.027 A 
ATOM      4  C4  DEN d   1       1.315   1.728  -1.900  0.00  0.00     0.027 A 
ATOM      5  C5  DEN d   1       1.063   0.489  -1.353  0.00  0.00    -0.003 A 
ATOM      6  C6  DEN d   1       0.926   0.301  -0.003  0.00  0.00     0.001 A 
ATOM      7  C7  DEN d   1       0.994   1.377   0.842  0.00  0.00     0.017 A 
ATOM      8  C8  DEN d   1       1.255   2.628   0.298  0.00  0.00    -0.094 A 
ATOM      9  C9  DEN d   1       1.379   2.799  -1.070  0.00  0.00    -0.072 A 
ENDROOT
TORSDOF 0
ENDMDL
