MODEL 1
REMARK minimizedAffinity 10.9562445
REMARK minimizedRMSD -1
REMARK  0 active torsions:
REMARK  status: ('A' for Active; 'I' for Inactive)
ROOT
ATOM      1  C1  DEN d   1       1.912   2.903  -0.704  0.00  0.00     0.130 A 
ATOM      2  C2  DEN d   1       1.183   3.247  -1.922  0.00  0.00    -0.031 A 
ATOM      3  C3  DEN d   1       0.601   2.006  -2.471  0.00  0.00     0.027 A 
ATOM      4  C4  DEN d   1       0.753  -0.401  -1.557  0.00  0.00     0.027 A 
ATOM      5  C5  DEN d   1       1.274  -1.190  -0.555  0.00  0.00    -0.003 A 
ATOM      6  C6  DEN d   1       2.065  -0.680   0.439  0.00  0.00     0.001 A 
ATOM      7  C7  DEN d   1       2.322   0.665   0.480  0.00  0.00     0.017 A 
ATOM      8  C8  DEN d   1       1.807   1.466  -0.530  0.00  0.00    -0.094 A 
ATOM      9  C9  DEN d   1       0.998   0.933  -1.520  0.00  0.00    -0.072 A 
ENDROOT
TORSDOF 0
ENDMDL
