MODEL 1
REMARK minimizedAffinity -5.24502277
REMARK minimizedRMSD -1
REMARK  0 active torsions:
REMARK  status: ('A' for Active; 'I' for Inactive)
ROOT
ATOM      1  C1  DEN d   1       1.339   0.639  -1.563  0.00  0.00     0.130 A 
ATOM      2  C2  DEN d   1       1.103  -0.017  -0.281  0.00  0.00    -0.031 A 
ATOM      3  C3  DEN d   1       1.029   1.027   0.760  0.00  0.00     0.027 A 
ATOM      4  C4  DEN d   1       1.251   3.585   0.511  0.00  0.00     0.027 A 
ATOM      5  C5  DEN d   1       1.469   4.611  -0.381  0.00  0.00    -0.003 A 
ATOM      6  C6  DEN d   1       1.691   4.385  -1.714  0.00  0.00     0.001 A 
ATOM      7  C7  DEN d   1       1.655   3.105  -2.200  0.00  0.00     0.017 A 
ATOM      8  C8  DEN d   1       1.443   2.064  -1.305  0.00  0.00    -0.094 A 
ATOM      9  C9  DEN d   1       1.209   2.314   0.036  0.00  0.00    -0.072 A 
ENDROOT
TORSDOF 0
ENDMDL
