MODEL 1
REMARK minimizedAffinity 6.06420517
REMARK minimizedRMSD -1
REMARK  0 active torsions:
REMARK  status: ('A' for Active; 'I' for Inactive)
ROOT
ATOM      1  C1  DEN d   1       1.495   3.391   1.004  0.00  0.00     0.130 A 
ATOM      2  C2  DEN d   1       1.166   4.445   0.049  0.00  0.00    -0.031 A 
ATOM      3  C3  DEN d   1       1.159   3.851  -1.303  0.00  0.00     0.027 A 
ATOM      4  C4  DEN d   1       1.620   1.412  -2.006  0.00  0.00     0.027 A 
ATOM      5  C5  DEN d   1       1.954   0.157  -1.550  0.00  0.00    -0.003 A 
ATOM      6  C6  DEN d   1       2.190  -0.100  -0.225  0.00  0.00     0.001 A 
ATOM      7  C7  DEN d   1       2.051   0.904   0.696  0.00  0.00     0.017 A 
ATOM      8  C8  DEN d   1       1.721   2.175   0.242  0.00  0.00    -0.094 A 
ATOM      9  C9  DEN d   1       1.475   2.411  -1.099  0.00  0.00    -0.072 A 
ENDROOT
TORSDOF 0
ENDMDL
