MODEL 1
REMARK minimizedAffinity -1.04116142
REMARK minimizedRMSD -1
REMARK  0 active torsions:
REMARK  status: ('A' for Active; 'I' for Inactive)
ROOT
ATOM      1  C1  DEN d   1       0.797   2.954  -1.204  0.00  0.00     0.130 A 
ATOM      2  C2  DEN d   1       1.443   2.453  -2.415  0.00  0.00    -0.031 A 
ATOM      3  C3  DEN d   1       1.947   1.094  -2.134  0.00  0.00     0.027 A 
ATOM      4  C4  DEN d   1       1.787  -0.279   0.043  0.00  0.00     0.027 A 
ATOM      5  C5  DEN d   1       1.339  -0.270   1.345  0.00  0.00    -0.003 A 
ATOM      6  C6  DEN d   1       0.714   0.818   1.895  0.00  0.00     0.001 A 
ATOM      7  C7  DEN d   1       0.480   1.926   1.125  0.00  0.00     0.017 A 
ATOM      8  C8  DEN d   1       0.935   1.928  -0.186  0.00  0.00    -0.094 A 
ATOM      9  C9  DEN d   1       1.553   0.813  -0.727  0.00  0.00    -0.072 A 
ENDROOT
TORSDOF 0
ENDMDL
