MODEL 1
REMARK minimizedAffinity 0.226520017
REMARK minimizedRMSD -1
REMARK  0 active torsions:
REMARK  status: ('A' for Active; 'I' for Inactive)
ROOT
ATOM      1  C1  DEN d   1       1.479   4.617  -1.684  0.00  0.00     0.130 A 
ATOM      2  C2  DEN d   1       1.507   5.347  -0.419  0.00  0.00    -0.031 A 
ATOM      3  C3  DEN d   1       1.326   4.371   0.675  0.00  0.00     0.027 A 
ATOM      4  C4  DEN d   1       1.012   1.815   0.534  0.00  0.00     0.027 A 
ATOM      5  C5  DEN d   1       0.909   0.742  -0.324  0.00  0.00    -0.003 A 
ATOM      6  C6  DEN d   1       0.954   0.889  -1.685  0.00  0.00     0.001 A 
ATOM      7  C7  DEN d   1       1.151   2.131  -2.228  0.00  0.00     0.017 A 
ATOM      8  C8  DEN d   1       1.249   3.219  -1.369  0.00  0.00    -0.094 A 
ATOM      9  C9  DEN d   1       1.214   3.048   0.004  0.00  0.00    -0.072 A 
ENDROOT
TORSDOF 0
ENDMDL
