MODEL 1
REMARK minimizedAffinity -1.31071639
REMARK minimizedRMSD -1
REMARK  0 active torsions:
REMARK  status: ('A' for Active; 'I' for Inactive)
ROOT
ATOM      1  C1  DEN d   1       1.224  -0.001   0.525  0.00  0.00     0.130 A 
ATOM      2  C2  DEN d   1       1.539  -0.917  -0.567  0.00  0.00    -0.031 A 
ATOM      3  C3  DEN d   1       1.705  -0.119  -1.799  0.00  0.00     0.027 A 
ATOM      4  C4  DEN d   1       1.508   2.433  -2.117  0.00  0.00     0.027 A 
ATOM      5  C5  DEN d   1       1.244   3.626  -1.481  0.00  0.00    -0.003 A 
ATOM      6  C6  DEN d   1       0.924   3.690  -0.151  0.00  0.00     0.001 A 
ATOM      7  C7  DEN d   1       0.904   2.543   0.598  0.00  0.00     0.017 A 
ATOM      8  C8  DEN d   1       1.162   1.336  -0.037  0.00  0.00    -0.094 A 
ATOM      9  C9  DEN d   1       1.495   1.293  -1.380  0.00  0.00    -0.072 A 
ENDROOT
TORSDOF 0
ENDMDL
