MODEL 1
REMARK minimizedAffinity -4.79082632
REMARK minimizedRMSD -1
REMARK  0 active torsions:
REMARK  status: ('A' for Active; 'I' for Inactive)
ROOT
ATOM      1  C1  DEN d   1       1.132   0.926  -2.142  0.00  0.00     0.130 A 
ATOM      2  C2  DEN d   1       1.152  -0.405  -1.542  0.00  0.00    -0.031 A 
ATOM      3  C3  DEN d   1       1.166  -0.244  -0.074  0.00  0.00     0.027 A 
ATOM      4  C4  DEN d   1       1.155   1.926   1.320  0.00  0.00     0.027 A 
ATOM      5  C5  DEN d   1       1.152   3.302   1.255  0.00  0.00    -0.003 A 
ATOM      6  C6  DEN d   1       1.176   3.977   0.063  0.00  0.00     0.001 A 
ATOM      7  C7  DEN d   1       1.159   3.276  -1.114  0.00  0.00     0.017 A 
ATOM      8  C8  DEN d   1       1.169   1.889  -1.057  0.00  0.00    -0.094 A 
ATOM      9  C9  DEN d   1       1.133   1.225   0.158  0.00  0.00    -0.072 A 
ENDROOT
TORSDOF 0
ENDMDL
