MODEL 1
REMARK minimizedAffinity 5.59487915
REMARK minimizedRMSD -1
REMARK  0 active torsions:
REMARK  status: ('A' for Active; 'I' for Inactive)
ROOT
ATOM      1  C1  DEN d   1       2.286   0.611   0.901  0.00  0.00     0.130 A 
ATOM      2  C2  DEN d   1       2.371  -0.318  -0.223  0.00  0.00    -0.031 A 
ATOM      3  C3  DEN d   1       1.841   0.363  -1.420  0.00  0.00     0.027 A 
ATOM      4  C4  DEN d   1       0.906   2.757  -1.645  0.00  0.00     0.027 A 
ATOM      5  C5  DEN d   1       0.620   3.919  -0.963  0.00  0.00    -0.003 A 
ATOM      6  C6  DEN d   1       0.837   4.047   0.384  0.00  0.00     0.001 A 
ATOM      7  C7  DEN d   1       1.396   3.011   1.083  0.00  0.00     0.017 A 
ATOM      8  C8  DEN d   1       1.679   1.833   0.404  0.00  0.00    -0.094 A 
ATOM      9  C9  DEN d   1       1.465   1.727  -0.960  0.00  0.00    -0.072 A 
ENDROOT
TORSDOF 0
ENDMDL
