MODEL 1
REMARK minimizedAffinity -1.14474511
REMARK minimizedRMSD -1
REMARK  0 active torsions:
REMARK  status: ('A' for Active; 'I' for Inactive)
ROOT
ATOM      1  C1  DEN d   1       1.367  -1.291   0.185  0.00  0.00     0.130 A 
ATOM      2  C2  DEN d   1       1.318  -1.984  -1.100  0.00  0.00    -0.031 A 
ATOM      3  C3  DEN d   1       1.218  -0.966  -2.165  0.00  0.00     0.027 A 
ATOM      4  C4  DEN d   1       1.141   1.603  -1.951  0.00  0.00     0.027 A 
ATOM      5  C5  DEN d   1       1.142   2.656  -1.063  0.00  0.00    -0.003 A 
ATOM      6  C6  DEN d   1       1.184   2.468   0.293  0.00  0.00     0.001 A 
ATOM      7  C7  DEN d   1       1.272   1.198   0.800  0.00  0.00     0.017 A 
ATOM      8  C8  DEN d   1       1.263   0.131  -0.089  0.00  0.00    -0.094 A 
ATOM      9  C9  DEN d   1       1.233   0.342  -1.457  0.00  0.00    -0.072 A 
ENDROOT
TORSDOF 0
ENDMDL
