MODEL 1
REMARK minimizedAffinity 17.6075783
REMARK minimizedRMSD -1
REMARK  1 active torsions:
REMARK  status: ('A' for Active; 'I' for Inactive)
REMARK    1  A    between atoms: C1_2  and  C2_3 
ROOT
ATOM      1  C2  UNL d   1      -0.821   2.708  -4.691  0.00  0.00    -0.076 A 
ATOM      2  C3  UNL d   1      -0.632   3.880  -5.444  0.00  0.00     0.004 A 
ATOM      3  C4  UNL d   1       0.612   4.185  -5.995  0.00  0.00    -0.003 A 
ATOM      4  C5  UNL d   1       1.686   3.323  -5.802  0.00  0.00     0.000 A 
ATOM      5  C6  UNL d   1       1.511   2.148  -5.072  0.00  0.00     0.000 A 
ATOM      6  C7  UNL d   1       0.260   1.817  -4.524  0.00  0.00    -0.073 A 
ATOM      7  C8  UNL d   1       0.130   0.540  -3.740  0.00  0.00     0.078 C 
ENDROOT
BRANCH   1   8
ATOM      8  C1  UNL d   1      -2.186   2.444  -4.095  0.00  0.00     0.053 C 
ATOM      9  C   UNL d   1      -3.069   3.681  -4.088  0.00  0.00     0.018 C 
ENDBRANCH   1   8
TORSDOF 1
ENDMDL
