MODEL 1
REMARK minimizedAffinity 21.7941742
REMARK minimizedRMSD -1
REMARK  1 active torsions:
REMARK  status: ('A' for Active; 'I' for Inactive)
REMARK    1  A    between atoms: C1_2  and  C2_3 
ROOT
ATOM      1  C2  UNL d   1      -1.007   1.268  -3.872  0.00  0.00    -0.076 A 
ATOM      2  C3  UNL d   1      -2.305   1.034  -3.383  0.00  0.00     0.004 A 
ATOM      3  C4  UNL d   1      -3.307   1.992  -3.523  0.00  0.00    -0.003 A 
ATOM      4  C5  UNL d   1      -3.030   3.199  -4.155  0.00  0.00     0.000 A 
ATOM      5  C6  UNL d   1      -1.753   3.441  -4.662  0.00  0.00     0.000 A 
ATOM      6  C7  UNL d   1      -0.735   2.479  -4.544  0.00  0.00    -0.073 A 
ATOM      7  C8  UNL d   1       0.625   2.795  -5.103  0.00  0.00     0.078 C 
ENDROOT
BRANCH   1   8
ATOM      8  C1  UNL d   1       0.046   0.203  -3.668  0.00  0.00     0.053 C 
ATOM      9  C   UNL d   1      -0.476  -0.990  -2.883  0.00  0.00     0.018 C 
ENDBRANCH   1   8
TORSDOF 1
ENDMDL
