MODEL 1
REMARK minimizedAffinity 15.2445803
REMARK minimizedRMSD -1
REMARK  1 active torsions:
REMARK  status: ('A' for Active; 'I' for Inactive)
REMARK    1  A    between atoms: C1_2  and  C2_3 
ROOT
ATOM      1  C2  UNL d   1      -1.654  -2.927   1.816  0.00  0.00    -0.076 A 
ATOM      2  C3  UNL d   1      -2.174  -1.791   1.172  0.00  0.00     0.004 A 
ATOM      3  C4  UNL d   1      -1.813  -1.479  -0.138  0.00  0.00    -0.003 A 
ATOM      4  C5  UNL d   1      -0.925  -2.300  -0.825  0.00  0.00     0.000 A 
ATOM      5  C6  UNL d   1      -0.413  -3.441  -0.208  0.00  0.00     0.000 A 
ATOM      6  C7  UNL d   1      -0.780  -3.778   1.106  0.00  0.00    -0.073 A 
ATOM      7  C8  UNL d   1      -0.193  -5.017   1.724  0.00  0.00     0.078 C 
ENDROOT
BRANCH   1   8
ATOM      8  C1  UNL d   1      -2.061  -3.199   3.246  0.00  0.00     0.053 C 
ATOM      9  C   UNL d   1      -2.369  -1.924   4.017  0.00  0.00     0.018 C 
ENDBRANCH   1   8
TORSDOF 1
ENDMDL
