MODEL 1
REMARK minimizedAffinity 14.951848
REMARK minimizedRMSD -1
REMARK  1 active torsions:
REMARK  status: ('A' for Active; 'I' for Inactive)
REMARK    1  A    between atoms: C1_2  and  C2_3 
ROOT
ATOM      1  C2  UNL d   1      -0.188   1.089  -3.581  0.00  0.00    -0.076 A 
ATOM      2  C3  UNL d   1       0.300   2.213  -4.271  0.00  0.00     0.004 A 
ATOM      3  C4  UNL d   1      -0.549   3.260  -4.627  0.00  0.00    -0.003 A 
ATOM      4  C5  UNL d   1      -1.898   3.201  -4.298  0.00  0.00     0.000 A 
ATOM      5  C6  UNL d   1      -2.396   2.102  -3.598  0.00  0.00     0.000 A 
ATOM      6  C7  UNL d   1      -1.551   1.046  -3.217  0.00  0.00    -0.073 A 
ATOM      7  C8  UNL d   1      -2.142  -0.118  -2.469  0.00  0.00     0.078 C 
ENDROOT
BRANCH   1   8
ATOM      8  C1  UNL d   1       0.774  -0.028  -3.245  0.00  0.00     0.053 C 
ATOM      9  C   UNL d   1       2.042   0.477  -2.574  0.00  0.00     0.018 C 
ENDBRANCH   1   8
TORSDOF 1
ENDMDL
