MODEL 1
REMARK minimizedAffinity 21.8864746
REMARK minimizedRMSD -1
REMARK  1 active torsions:
REMARK  status: ('A' for Active; 'I' for Inactive)
REMARK    1  A    between atoms: C1_2  and  C2_3 
ROOT
ATOM      1  C2  UNL d   1      -1.195  -3.112   0.754  0.00  0.00    -0.076 A 
ATOM      2  C3  UNL d   1      -0.824  -2.572  -0.489  0.00  0.00     0.004 A 
ATOM      3  C4  UNL d   1      -1.511  -1.489  -1.035  0.00  0.00    -0.003 A 
ATOM      4  C5  UNL d   1      -2.581  -0.929  -0.345  0.00  0.00     0.000 A 
ATOM      5  C6  UNL d   1      -2.952  -1.441   0.898  0.00  0.00     0.000 A 
ATOM      6  C7  UNL d   1      -2.259  -2.522   1.469  0.00  0.00    -0.073 A 
ATOM      7  C8  UNL d   1      -2.705  -3.038   2.810  0.00  0.00     0.078 C 
ENDROOT
BRANCH   1   8
ATOM      8  C1  UNL d   1      -0.430  -4.304   1.283  0.00  0.00     0.053 C 
ATOM      9  C   UNL d   1      -0.473  -5.492   0.335  0.00  0.00     0.018 C 
ENDBRANCH   1   8
TORSDOF 1
ENDMDL
