MODEL 1
REMARK minimizedAffinity 17.220993
REMARK minimizedRMSD -1
REMARK  1 active torsions:
REMARK  status: ('A' for Active; 'I' for Inactive)
REMARK    1  A    between atoms: C1_2  and  C2_3 
ROOT
ATOM      1  C2  UNL d   1      -3.749   1.394   5.545  0.00  0.00    -0.076 A 
ATOM      2  C3  UNL d   1      -3.287   2.721   5.609  0.00  0.00     0.004 A 
ATOM      3  C4  UNL d   1      -4.168   3.777   5.834  0.00  0.00    -0.003 A 
ATOM      4  C5  UNL d   1      -5.525   3.524   6.000  0.00  0.00     0.000 A 
ATOM      5  C6  UNL d   1      -5.999   2.213   5.957  0.00  0.00     0.000 A 
ATOM      6  C7  UNL d   1      -5.122   1.135   5.747  0.00  0.00    -0.073 A 
ATOM      7  C8  UNL d   1      -5.687  -0.258   5.704  0.00  0.00     0.078 C 
ENDROOT
BRANCH   1   8
ATOM      8  C1  UNL d   1      -2.751   0.292   5.271  0.00  0.00     0.053 C 
ATOM      9  C   UNL d   1      -2.615  -0.015   3.788  0.00  0.00     0.018 C 
ENDBRANCH   1   8
TORSDOF 1
ENDMDL
