MODEL 1
REMARK minimizedAffinity 11.5986757
REMARK minimizedRMSD -1
REMARK  1 active torsions:
REMARK  status: ('A' for Active; 'I' for Inactive)
REMARK    1  A    between atoms: C1_2  and  C2_3 
ROOT
ATOM      1  C2  UNL d   1      -1.692  -3.381   2.451  0.00  0.00    -0.076 A 
ATOM      2  C3  UNL d   1      -1.011  -4.557   2.810  0.00  0.00     0.004 A 
ATOM      3  C4  UNL d   1      -0.363  -5.333   1.850  0.00  0.00    -0.003 A 
ATOM      4  C5  UNL d   1      -0.386  -4.945   0.515  0.00  0.00     0.000 A 
ATOM      5  C6  UNL d   1      -1.043  -3.772   0.144  0.00  0.00     0.000 A 
ATOM      6  C7  UNL d   1      -1.686  -2.970   1.101  0.00  0.00    -0.073 A 
ATOM      7  C8  UNL d   1      -2.384  -1.718   0.644  0.00  0.00     0.078 C 
ENDROOT
BRANCH   1   8
ATOM      8  C1  UNL d   1      -2.399  -2.595   3.532  0.00  0.00     0.053 C 
ATOM      9  C   UNL d   1      -1.429  -1.916   4.487  0.00  0.00     0.018 C 
ENDBRANCH   1   8
TORSDOF 1
ENDMDL
