MODEL 1
REMARK minimizedAffinity 6.52932119
REMARK minimizedRMSD -1
REMARK  1 active torsions:
REMARK  status: ('A' for Active; 'I' for Inactive)
REMARK    1  A    between atoms: C1_2  and  C2_3 
ROOT
ATOM      1  C2  UNL d   1      -1.930  -3.335   2.157  0.00  0.00    -0.076 A 
ATOM      2  C3  UNL d   1      -1.324  -4.574   2.428  0.00  0.00     0.004 A 
ATOM      3  C4  UNL d   1      -0.632  -5.267   1.436  0.00  0.00    -0.003 A 
ATOM      4  C5  UNL d   1      -0.535  -4.732   0.157  0.00  0.00     0.000 A 
ATOM      5  C6  UNL d   1      -1.115  -3.496  -0.126  0.00  0.00     0.000 A 
ATOM      6  C7  UNL d   1      -1.802  -2.777   0.867  0.00  0.00    -0.073 A 
ATOM      7  C8  UNL d   1      -2.414  -1.451   0.505  0.00  0.00     0.078 C 
ENDROOT
BRANCH   1   8
ATOM      8  C1  UNL d   1      -2.691  -2.643   3.265  0.00  0.00     0.053 C 
ATOM      9  C   UNL d   1      -1.779  -1.855   4.193  0.00  0.00     0.018 C 
ENDBRANCH   1   8
TORSDOF 1
ENDMDL
