MODEL 1
REMARK minimizedAffinity 21.0157681
REMARK minimizedRMSD -1
REMARK  1 active torsions:
REMARK  status: ('A' for Active; 'I' for Inactive)
REMARK    1  A    between atoms: C1_2  and  C2_3 
ROOT
ATOM      1  C2  UNL d   1      -1.043  -3.746   2.058  0.00  0.00    -0.076 A 
ATOM      2  C3  UNL d   1      -0.602  -5.029   2.426  0.00  0.00     0.004 A 
ATOM      3  C4  UNL d   1      -0.334  -5.999   1.461  0.00  0.00    -0.003 A 
ATOM      4  C5  UNL d   1      -0.502  -5.701   0.113  0.00  0.00     0.000 A 
ATOM      5  C6  UNL d   1      -0.922  -4.428  -0.270  0.00  0.00     0.000 A 
ATOM      6  C7  UNL d   1      -1.181  -3.434   0.689  0.00  0.00    -0.073 A 
ATOM      7  C8  UNL d   1      -1.637  -2.080   0.219  0.00  0.00     0.078 C 
ENDROOT
BRANCH   1   8
ATOM      8  C1  UNL d   1      -1.344  -2.743   3.149  0.00  0.00     0.053 C 
ATOM      9  C   UNL d   1      -2.828  -2.664   3.475  0.00  0.00     0.018 C 
ENDBRANCH   1   8
TORSDOF 1
ENDMDL
