MODEL 1
REMARK minimizedAffinity 15.4433041
REMARK minimizedRMSD -1
REMARK  1 active torsions:
REMARK  status: ('A' for Active; 'I' for Inactive)
REMARK    1  A    between atoms: C1_2  and  C2_3 
ROOT
ATOM      1  C2  UNL d   1      -3.537  -0.475   5.770  0.00  0.00    -0.076 A 
ATOM      2  C3  UNL d   1      -4.893  -0.846   5.773  0.00  0.00     0.004 A 
ATOM      3  C4  UNL d   1      -5.898   0.112   5.887  0.00  0.00    -0.003 A 
ATOM      4  C5  UNL d   1      -5.564   1.458   5.999  0.00  0.00     0.000 A 
ATOM      5  C6  UNL d   1      -4.225   1.845   5.981  0.00  0.00     0.000 A 
ATOM      6  C7  UNL d   1      -3.199   0.893   5.850  0.00  0.00    -0.073 A 
ATOM      7  C8  UNL d   1      -1.772   1.366   5.842  0.00  0.00     0.078 C 
ENDROOT
BRANCH   1   8
ATOM      8  C1  UNL d   1      -2.489  -1.561   5.671  0.00  0.00     0.053 C 
ATOM      9  C   UNL d   1      -2.629  -2.392   4.405  0.00  0.00     0.018 C 
ENDBRANCH   1   8
TORSDOF 1
ENDMDL
