MODEL 1
REMARK minimizedAffinity 19.7600574
REMARK minimizedRMSD -1
REMARK  1 active torsions:
REMARK  status: ('A' for Active; 'I' for Inactive)
REMARK    1  A    between atoms: C1_2  and  C2_3 
ROOT
ATOM      1  C2  UNL d   1       4.551   3.452   0.279  0.00  0.00    -0.076 A 
ATOM      2  C3  UNL d   1       4.111   4.596   0.967  0.00  0.00     0.004 A 
ATOM      3  C4  UNL d   1       4.614   5.858   0.655  0.00  0.00    -0.003 A 
ATOM      4  C5  UNL d   1       5.565   5.996  -0.350  0.00  0.00     0.000 A 
ATOM      5  C6  UNL d   1       6.000   4.874  -1.055  0.00  0.00     0.000 A 
ATOM      6  C7  UNL d   1       5.491   3.597  -0.764  0.00  0.00    -0.073 A 
ATOM      7  C8  UNL d   1       5.999   2.421  -1.551  0.00  0.00     0.078 C 
ENDROOT
BRANCH   1   8
ATOM      8  C1  UNL d   1       3.989   2.106   0.679  0.00  0.00     0.053 C 
ATOM      9  C   UNL d   1       2.709   1.764  -0.067  0.00  0.00     0.018 C 
ENDBRANCH   1   8
TORSDOF 1
ENDMDL
