MODEL 1
REMARK minimizedAffinity 1.58260393
REMARK minimizedRMSD -1
REMARK  0 active torsions:
REMARK  status: ('A' for Active; 'I' for Inactive)
ROOT
ATOM      1  C2' OXE d   1       2.249   3.004  -4.072  0.00  0.00     0.078 C 
ATOM      2  C1' OXE d   1       1.611   4.985  -5.956  0.00  0.00     0.078 C 
ATOM      3  C1  OXE d   1       2.991   5.011  -5.347  0.00  0.00    -0.078 A 
ATOM      4  C2  OXE d   1       3.279   4.067  -4.391  0.00  0.00    -0.078 A 
ATOM      5  C3  OXE d   1       4.554   4.012  -3.838  0.00  0.00     0.003 A 
ATOM      6  C4  OXE d   1       5.497   5.005  -4.131  0.00  0.00    -0.002 A 
ATOM      7  C5  OXE d   1       5.211   6.000  -5.072  0.00  0.00    -0.002 A 
ATOM      8  C6  OXE d   1       3.980   5.992  -5.719  0.00  0.00     0.003 A 
ENDROOT
TORSDOF 0
ENDMDL
