MODEL 1
REMARK minimizedAffinity 3.10503817
REMARK minimizedRMSD -1
REMARK  0 active torsions:
REMARK  status: ('A' for Active; 'I' for Inactive)
ROOT
ATOM      1  C2' OXE d   1       4.929   3.613  -4.008  0.00  0.00     0.078 C 
ATOM      2  C1' OXE d   1       4.988   5.982  -5.512  0.00  0.00     0.078 C 
ATOM      3  C1  OXE d   1       3.640   5.383  -5.196  0.00  0.00    -0.078 A 
ATOM      4  C2  OXE d   1       3.623   4.199  -4.500  0.00  0.00    -0.078 A 
ATOM      5  C3  OXE d   1       2.405   3.632  -4.135  0.00  0.00     0.003 A 
ATOM      6  C4  OXE d   1       1.202   4.174  -4.602  0.00  0.00    -0.002 A 
ATOM      7  C5  OXE d   1       1.199   5.358  -5.347  0.00  0.00    -0.002 A 
ATOM      8  C6  OXE d   1       2.405   5.997  -5.616  0.00  0.00     0.003 A 
ENDROOT
TORSDOF 0
ENDMDL
