MODEL 1
REMARK minimizedAffinity 6.31724501
REMARK minimizedRMSD -1
REMARK  0 active torsions:
REMARK  status: ('A' for Active; 'I' for Inactive)
ROOT
ATOM      1  C2' OXE d   1      -0.792   5.951  -2.172  0.00  0.00     0.078 C 
ATOM      2  C1' OXE d   1      -2.318   5.997  -4.527  0.00  0.00     0.078 C 
ATOM      3  C1  OXE d   1      -0.816   5.975  -4.663  0.00  0.00    -0.078 A 
ATOM      4  C2  OXE d   1      -0.077   5.999  -3.505  0.00  0.00    -0.078 A 
ATOM      5  C3  OXE d   1       1.312   5.925  -3.571  0.00  0.00     0.003 A 
ATOM      6  C4  OXE d   1       1.966   5.980  -4.808  0.00  0.00    -0.002 A 
ATOM      7  C5  OXE d   1       1.232   5.995  -5.999  0.00  0.00    -0.002 A 
ATOM      8  C6  OXE d   1      -0.156   5.950  -5.945  0.00  0.00     0.003 A 
ENDROOT
TORSDOF 0
ENDMDL
