MODEL 1
REMARK minimizedAffinity 2.27135181
REMARK minimizedRMSD -1
REMARK  0 active torsions:
REMARK  status: ('A' for Active; 'I' for Inactive)
ROOT
ATOM      1  C2' OXE d   1      -0.990   5.912  -1.712  0.00  0.00     0.078 C 
ATOM      2  C1' OXE d   1      -3.045   5.998  -3.622  0.00  0.00     0.078 C 
ATOM      3  C1  OXE d   1      -1.623   5.965  -4.121  0.00  0.00    -0.078 A 
ATOM      4  C2  OXE d   1      -0.622   5.970  -3.179  0.00  0.00    -0.078 A 
ATOM      5  C3  OXE d   1       0.707   5.886  -3.585  0.00  0.00     0.003 A 
ATOM      6  C4  OXE d   1       1.039   5.951  -4.943  0.00  0.00    -0.002 A 
ATOM      7  C5  OXE d   1       0.036   5.986  -5.918  0.00  0.00    -0.002 A 
ATOM      8  C6  OXE d   1      -1.297   5.951  -5.526  0.00  0.00     0.003 A 
ENDROOT
TORSDOF 0
ENDMDL
