MODEL 1
REMARK minimizedAffinity -2.49091816
REMARK minimizedRMSD -1
REMARK  0 active torsions:
REMARK  status: ('A' for Active; 'I' for Inactive)
ROOT
ATOM      1  C2' OXE d   1       5.733   3.755  -4.092  0.00  0.00     0.078 C 
ATOM      2  C1' OXE d   1       5.865   5.987  -5.789  0.00  0.00     0.078 C 
ATOM      3  C1  OXE d   1       4.502   5.420  -5.477  0.00  0.00    -0.078 A 
ATOM      4  C2  OXE d   1       4.450   4.300  -4.683  0.00  0.00    -0.078 A 
ATOM      5  C3  OXE d   1       3.216   3.769  -4.320  0.00  0.00     0.003 A 
ATOM      6  C4  OXE d   1       2.036   4.272  -4.879  0.00  0.00    -0.002 A 
ATOM      7  C5  OXE d   1       2.069   5.388  -5.722  0.00  0.00    -0.002 A 
ATOM      8  C6  OXE d   1       3.288   5.999  -5.996  0.00  0.00     0.003 A 
ENDROOT
TORSDOF 0
ENDMDL
