MODEL 1
REMARK minimizedAffinity 7.30595922
REMARK minimizedRMSD -1
REMARK  0 active torsions:
REMARK  status: ('A' for Active; 'I' for Inactive)
ROOT
ATOM      1  C2' OXE d   1      -0.592  -0.699  -2.864  0.00  0.00     0.078 C 
ATOM      2  C1' OXE d   1      -2.989  -0.731  -1.403  0.00  0.00     0.078 C 
ATOM      3  C1  OXE d   1      -1.759  -0.180  -0.725  0.00  0.00    -0.078 A 
ATOM      4  C2  OXE d   1      -0.581  -0.211  -1.431  0.00  0.00    -0.078 A 
ATOM      5  C3  OXE d   1       0.572   0.335  -0.873  0.00  0.00     0.003 A 
ATOM      6  C4  OXE d   1       0.576   0.775   0.456  0.00  0.00    -0.002 A 
ATOM      7  C5  OXE d   1      -0.605   0.778   1.206  0.00  0.00    -0.002 A 
ATOM      8  C6  OXE d   1      -1.788   0.345   0.617  0.00  0.00     0.003 A 
ENDROOT
TORSDOF 0
ENDMDL
