MODEL 1
REMARK minimizedAffinity -0.847414613
REMARK minimizedRMSD -1
REMARK  0 active torsions:
REMARK  status: ('A' for Active; 'I' for Inactive)
ROOT
ATOM      1  C2' OXE d   1      -2.041   5.994  -4.874  0.00  0.00     0.078 C 
ATOM      2  C1' OXE d   1       0.655   5.849  -4.107  0.00  0.00     0.078 C 
ATOM      3  C1  OXE d   1      -0.386   5.881  -3.016  0.00  0.00    -0.078 A 
ATOM      4  C2  OXE d   1      -1.700   5.999  -3.399  0.00  0.00    -0.078 A 
ATOM      5  C3  OXE d   1      -2.704   5.978  -2.435  0.00  0.00     0.003 A 
ATOM      6  C4  OXE d   1      -2.379   5.993  -1.073  0.00  0.00    -0.002 A 
ATOM      7  C5  OXE d   1      -1.045   5.913  -0.661  0.00  0.00    -0.002 A 
ATOM      8  C6  OXE d   1      -0.041   5.814  -1.617  0.00  0.00     0.003 A 
ENDROOT
TORSDOF 0
ENDMDL
