MODEL 1
REMARK minimizedAffinity -0.610273302
REMARK minimizedRMSD -1
REMARK  0 active torsions:
REMARK  status: ('A' for Active; 'I' for Inactive)
ROOT
ATOM      1  C2' OXE d   1       0.032   5.940  -4.507  0.00  0.00     0.078 C 
ATOM      2  C1' OXE d   1      -0.175   5.999  -1.708  0.00  0.00     0.078 C 
ATOM      3  C1  OXE d   1      -1.454   5.973  -2.507  0.00  0.00    -0.078 A 
ATOM      4  C2  OXE d   1      -1.344   5.991  -3.877  0.00  0.00    -0.078 A 
ATOM      5  C3  OXE d   1      -2.490   5.912  -4.662  0.00  0.00     0.003 A 
ATOM      6  C4  OXE d   1      -3.759   5.970  -4.071  0.00  0.00    -0.002 A 
ATOM      7  C5  OXE d   1      -3.893   5.992  -2.679  0.00  0.00    -0.002 A 
ATOM      8  C6  OXE d   1      -2.754   5.950  -1.884  0.00  0.00     0.003 A 
ENDROOT
TORSDOF 0
ENDMDL
