MODEL 1
REMARK minimizedAffinity -0.989128053
REMARK minimizedRMSD -1
REMARK  0 active torsions:
REMARK  status: ('A' for Active; 'I' for Inactive)
ROOT
ATOM      1  C2' OXE d   1      -0.064   5.998  -2.260  0.00  0.00     0.078 C 
ATOM      2  C1' OXE d   1      -1.486   5.998  -4.680  0.00  0.00     0.078 C 
ATOM      3  C1  OXE d   1       0.020   5.939  -4.749  0.00  0.00    -0.078 A 
ATOM      4  C2  OXE d   1       0.709   5.986  -3.561  0.00  0.00    -0.078 A 
ATOM      5  C3  OXE d   1       2.097   5.880  -3.565  0.00  0.00     0.003 A 
ATOM      6  C4  OXE d   1       2.805   5.879  -4.773  0.00  0.00    -0.002 A 
ATOM      7  C5  OXE d   1       2.123   5.871  -5.995  0.00  0.00    -0.002 A 
ATOM      8  C6  OXE d   1       0.733   5.857  -6.000  0.00  0.00     0.003 A 
ENDROOT
TORSDOF 0
ENDMDL
