MODEL 1
REMARK minimizedAffinity 6.2349968
REMARK minimizedRMSD -1
REMARK  0 active torsions:
REMARK  status: ('A' for Active; 'I' for Inactive)
ROOT
ATOM      1  C2' OXE d   1       2.963   2.487  -3.662  0.00  0.00     0.078 C 
ATOM      2  C1' OXE d   1       5.629   3.362  -3.759  0.00  0.00     0.078 C 
ATOM      3  C1  OXE d   1       4.599   4.158  -4.521  0.00  0.00    -0.078 A 
ATOM      4  C2  OXE d   1       3.305   3.696  -4.506  0.00  0.00    -0.078 A 
ATOM      5  C3  OXE d   1       2.307   4.423  -5.148  0.00  0.00     0.003 A 
ATOM      6  C4  OXE d   1       2.633   5.534  -5.935  0.00  0.00    -0.002 A 
ATOM      7  C5  OXE d   1       3.951   5.998  -5.996  0.00  0.00    -0.002 A 
ATOM      8  C6  OXE d   1       4.937   5.348  -5.262  0.00  0.00     0.003 A 
ENDROOT
TORSDOF 0
ENDMDL
