MODEL 1
REMARK minimizedAffinity 1.23565531
REMARK minimizedRMSD -1
REMARK  0 active torsions:
REMARK  status: ('A' for Active; 'I' for Inactive)
ROOT
ATOM      1  C2' OXE d   1      -1.288  -5.370   5.793  0.00  0.00     0.078 C 
ATOM      2  C1' OXE d   1      -2.600  -2.943   5.276  0.00  0.00     0.078 C 
ATOM      3  C1  OXE d   1      -1.807  -3.566   4.155  0.00  0.00    -0.078 A 
ATOM      4  C2  OXE d   1      -1.130  -4.730   4.431  0.00  0.00    -0.078 A 
ATOM      5  C3  OXE d   1      -0.427  -5.376   3.418  0.00  0.00     0.003 A 
ATOM      6  C4  OXE d   1      -0.277  -4.772   2.163  0.00  0.00    -0.002 A 
ATOM      7  C5  OXE d   1      -0.926  -3.567   1.873  0.00  0.00    -0.002 A 
ATOM      8  C6  OXE d   1      -1.727  -2.974   2.843  0.00  0.00     0.003 A 
ENDROOT
TORSDOF 0
ENDMDL
