MODEL 1
REMARK minimizedAffinity -1.82221806
REMARK minimizedRMSD -1
REMARK  0 active torsions:
REMARK  status: ('A' for Active; 'I' for Inactive)
ROOT
ATOM      1  C2' OXE d   1      -0.451   6.000  -5.755  0.00  0.00     0.078 C 
ATOM      2  C1' OXE d   1       0.916   6.000  -3.303  0.00  0.00     0.078 C 
ATOM      3  C1  OXE d   1      -0.583   5.840  -3.272  0.00  0.00    -0.078 A 
ATOM      4  C2  OXE d   1      -1.249   5.888  -4.474  0.00  0.00    -0.078 A 
ATOM      5  C3  OXE d   1      -2.626   5.690  -4.507  0.00  0.00     0.003 A 
ATOM      6  C4  OXE d   1      -3.358   5.597  -3.317  0.00  0.00    -0.002 A 
ATOM      7  C5  OXE d   1      -2.704   5.586  -2.080  0.00  0.00    -0.002 A 
ATOM      8  C6  OXE d   1      -1.316   5.663  -2.043  0.00  0.00     0.003 A 
ENDROOT
TORSDOF 0
ENDMDL
