MODEL 1
REMARK minimizedAffinity -2.38725448
REMARK minimizedRMSD -1
REMARK  0 active torsions:
REMARK  status: ('A' for Active; 'I' for Inactive)
ROOT
ATOM      1  C2' OXE d   1       0.145   5.941  -4.336  0.00  0.00     0.078 C 
ATOM      2  C1' OXE d   1      -0.080   5.998  -1.538  0.00  0.00     0.078 C 
ATOM      3  C1  OXE d   1      -1.353   5.975  -2.346  0.00  0.00    -0.078 A 
ATOM      4  C2  OXE d   1      -1.234   5.994  -3.715  0.00  0.00    -0.078 A 
ATOM      5  C3  OXE d   1      -2.376   5.919  -4.507  0.00  0.00     0.003 A 
ATOM      6  C4  OXE d   1      -3.648   5.978  -3.925  0.00  0.00    -0.002 A 
ATOM      7  C5  OXE d   1      -3.792   5.999  -2.534  0.00  0.00    -0.002 A 
ATOM      8  C6  OXE d   1      -2.657   5.955  -1.731  0.00  0.00     0.003 A 
ENDROOT
TORSDOF 0
ENDMDL
