MODEL 1
REMARK minimizedAffinity -2.12492704
REMARK minimizedRMSD -1
REMARK  0 active torsions:
REMARK  status: ('A' for Active; 'I' for Inactive)
ROOT
ATOM      1  C2' OXE d   1      -2.690   6.000  -3.195  0.00  0.00     0.078 C 
ATOM      2  C1' OXE d   1      -0.347   5.869  -1.654  0.00  0.00     0.078 C 
ATOM      3  C1  OXE d   1      -0.201   5.899  -3.155  0.00  0.00    -0.078 A 
ATOM      4  C2  OXE d   1      -1.354   5.916  -3.902  0.00  0.00    -0.078 A 
ATOM      5  C3  OXE d   1      -1.275   6.000  -5.289  0.00  0.00     0.003 A 
ATOM      6  C4  OXE d   1      -0.036   5.912  -5.936  0.00  0.00    -0.002 A 
ATOM      7  C5  OXE d   1       1.148   5.854  -5.194  0.00  0.00    -0.002 A 
ATOM      8  C6  OXE d   1       1.086   5.890  -3.806  0.00  0.00     0.003 A 
ENDROOT
TORSDOF 0
ENDMDL
