MODEL 1
REMARK minimizedAffinity 0.905892968
REMARK minimizedRMSD -1
REMARK  0 active torsions:
REMARK  status: ('A' for Active; 'I' for Inactive)
ROOT
ATOM      1  C2' OXE d   1       2.041   5.958  -5.565  0.00  0.00     0.078 C 
ATOM      2  C1' OXE d   1       2.370   3.590  -4.093  0.00  0.00     0.078 C 
ATOM      3  C1  OXE d   1       3.599   4.216  -4.702  0.00  0.00    -0.078 A 
ATOM      4  C2  OXE d   1       3.423   5.349  -5.459  0.00  0.00    -0.078 A 
ATOM      5  C3  OXE d   1       4.531   5.998  -5.997  0.00  0.00     0.003 A 
ATOM      6  C4  OXE d   1       5.804   5.423  -5.903  0.00  0.00    -0.002 A 
ATOM      7  C5  OXE d   1       6.000   4.248  -5.170  0.00  0.00    -0.002 A 
ATOM      8  C6  OXE d   1       4.917   3.656  -4.529  0.00  0.00     0.003 A 
ENDROOT
TORSDOF 0
ENDMDL
