MODEL 1
REMARK minimizedAffinity 3.17484617
REMARK minimizedRMSD -1
REMARK  0 active torsions:
REMARK  status: ('A' for Active; 'I' for Inactive)
ROOT
ATOM      1  C2' OXE d   1      -2.964   5.975  -4.932  0.00  0.00     0.078 C 
ATOM      2  C1' OXE d   1      -1.810   5.958  -2.373  0.00  0.00     0.078 C 
ATOM      3  C1  OXE d   1      -0.883   5.970  -3.563  0.00  0.00    -0.078 A 
ATOM      4  C2  OXE d   1      -1.456   5.931  -4.811  0.00  0.00    -0.078 A 
ATOM      5  C3  OXE d   1      -0.648   5.995  -5.943  0.00  0.00     0.003 A 
ATOM      6  C4  OXE d   1       0.746   5.943  -5.822  0.00  0.00    -0.002 A 
ATOM      7  C5  OXE d   1       1.350   5.943  -4.561  0.00  0.00    -0.002 A 
ATOM      8  C6  OXE d   1       0.552   5.998  -3.423  0.00  0.00     0.003 A 
ENDROOT
TORSDOF 0
ENDMDL
