MODEL 1
REMARK minimizedAffinity 0.661564231
REMARK minimizedRMSD -1
REMARK  0 active torsions:
REMARK  status: ('A' for Active; 'I' for Inactive)
ROOT
ATOM      1  C2' OXE d   1      -2.552   5.957  -5.580  0.00  0.00     0.078 C 
ATOM      2  C1' OXE d   1       0.249   5.994  -5.407  0.00  0.00     0.078 C 
ATOM      3  C1  OXE d   1      -0.535   5.970  -4.119  0.00  0.00    -0.078 A 
ATOM      4  C2  OXE d   1      -1.905   5.999  -4.212  0.00  0.00    -0.078 A 
ATOM      5  C3  OXE d   1      -2.677   5.923  -3.056  0.00  0.00     0.003 A 
ATOM      6  C4  OXE d   1      -2.071   5.973  -1.795  0.00  0.00    -0.002 A 
ATOM      7  C5  OXE d   1      -0.677   5.984  -1.677  0.00  0.00    -0.002 A 
ATOM      8  C6  OXE d   1       0.105   5.940  -2.827  0.00  0.00     0.003 A 
ENDROOT
TORSDOF 0
ENDMDL
