MODEL 1
REMARK minimizedAffinity 3.89754343
REMARK minimizedRMSD -1
REMARK  0 active torsions:
REMARK  status: ('A' for Active; 'I' for Inactive)
ROOT
ATOM      1  C2' OXE d   1       3.253   2.665  -0.420  0.00  0.00     0.078 C 
ATOM      2  C1' OXE d   1       0.990   4.202   0.208  0.00  0.00     0.078 C 
ATOM      3  C1  OXE d   1       0.898   2.708   0.390  0.00  0.00    -0.078 A 
ATOM      4  C2  OXE d   1       1.994   1.959   0.036  0.00  0.00    -0.078 A 
ATOM      5  C3  OXE d   1       1.982   0.582   0.235  0.00  0.00     0.003 A 
ATOM      6  C4  OXE d   1       0.810  -0.064   0.647  0.00  0.00    -0.002 A 
ATOM      7  C5  OXE d   1      -0.331   0.676   0.975  0.00  0.00    -0.002 A 
ATOM      8  C6  OXE d   1      -0.290   2.063   0.893  0.00  0.00     0.003 A 
ENDROOT
TORSDOF 0
ENDMDL
