MODEL 1
REMARK minimizedAffinity -5.5344286
REMARK minimizedRMSD -1
REMARK  2 active torsions:
REMARK  status: ('A' for Active; 'I' for Inactive)
REMARK    1  A    between atoms: C1_2  and  C2_3 
REMARK    2  A    between atoms: C2_3  and  C3_4 
ROOT
ATOM      1  C3  UNL d   1      -0.017   0.238   0.254  0.00  0.00    -0.075 A 
ATOM      2  C4  UNL d   1      -0.990   1.244   0.168  0.00  0.00     0.002 A 
ATOM      3  C5  UNL d   1      -1.252   2.072   1.260  0.00  0.00     0.002 A 
ATOM      4  C6  UNL d   1      -0.554   1.898   2.453  0.00  0.00    -0.004 A 
ATOM      5  C7  UNL d   1       0.403   0.890   2.556  0.00  0.00     0.002 A 
ATOM      6  C8  UNL d   1       0.671   0.064   1.463  0.00  0.00     0.002 A 
ENDROOT
BRANCH   1   7
ATOM      7  C2  UNL d   1       0.292  -0.642  -0.934  0.00  0.00     0.056 C 
BRANCH   7   8
ATOM      8  C1  UNL d   1       0.511  -2.116  -0.578  0.00  0.00     0.007 C 
ATOM      9  C   UNL d   1      -0.622  -3.021  -1.043  0.00  0.00     0.009 C 
ENDBRANCH   7   8
ENDBRANCH   1   7
TORSDOF 2
ENDMDL
