MODEL 1
REMARK minimizedAffinity -4.63186455
REMARK minimizedRMSD -1
REMARK  2 active torsions:
REMARK  status: ('A' for Active; 'I' for Inactive)
REMARK    1  A    between atoms: C1_2  and  C2_3 
REMARK    2  A    between atoms: C2_3  and  C3_4 
ROOT
ATOM      1  C3  UNL d   1       0.140  -0.293   0.216  0.00  0.00    -0.075 A 
ATOM      2  C4  UNL d   1      -0.992   0.509   0.012  0.00  0.00     0.002 A 
ATOM      3  C5  UNL d   1      -1.246   1.600   0.844  0.00  0.00     0.002 A 
ATOM      4  C6  UNL d   1      -0.380   1.895   1.894  0.00  0.00    -0.004 A 
ATOM      5  C7  UNL d   1       0.739   1.095   2.116  0.00  0.00     0.002 A 
ATOM      6  C8  UNL d   1       0.998   0.006   1.283  0.00  0.00     0.002 A 
ENDROOT
BRANCH   1   7
ATOM      7  C2  UNL d   1       0.437  -1.457  -0.699  0.00  0.00     0.056 C 
BRANCH   7   8
ATOM      8  C1  UNL d   1      -0.576  -2.602  -0.600  0.00  0.00     0.007 C 
ATOM      9  C   UNL d   1      -1.106  -3.054  -1.955  0.00  0.00     0.009 C 
ENDBRANCH   7   8
ENDBRANCH   1   7
TORSDOF 2
ENDMDL
