MODEL 1
REMARK minimizedAffinity -4.81557512
REMARK minimizedRMSD -1
REMARK  2 active torsions:
REMARK  status: ('A' for Active; 'I' for Inactive)
REMARK    1  A    between atoms: C1_2  and  C2_3 
REMARK    2  A    between atoms: C2_3  and  C3_4 
ROOT
ATOM      1  C3  UNL d   1       0.067   0.830   0.683  0.00  0.00    -0.075 A 
ATOM      2  C4  UNL d   1      -0.203   1.589  -0.465  0.00  0.00     0.002 A 
ATOM      3  C5  UNL d   1      -0.538   2.939  -0.359  0.00  0.00     0.002 A 
ATOM      4  C6  UNL d   1      -0.617   3.544   0.894  0.00  0.00    -0.004 A 
ATOM      5  C7  UNL d   1      -0.368   2.795   2.042  0.00  0.00     0.002 A 
ATOM      6  C8  UNL d   1      -0.028   1.445   1.939  0.00  0.00     0.002 A 
ENDROOT
BRANCH   1   7
ATOM      7  C2  UNL d   1       0.459  -0.624   0.574  0.00  0.00     0.056 C 
BRANCH   7   8
ATOM      8  C1  UNL d   1       0.476  -1.159  -0.862  0.00  0.00     0.007 C 
ATOM      9  C   UNL d   1      -0.177  -2.527  -1.001  0.00  0.00     0.009 C 
ENDBRANCH   7   8
ENDBRANCH   1   7
TORSDOF 2
ENDMDL
