MODEL 1
REMARK minimizedAffinity -4.95211124
REMARK minimizedRMSD -1
REMARK  2 active torsions:
REMARK  status: ('A' for Active; 'I' for Inactive)
REMARK    1  A    between atoms: C1_2  and  C2_3 
REMARK    2  A    between atoms: C2_3  and  C3_4 
ROOT
ATOM      1  C3  UNL d   1       0.018  -0.270   0.109  0.00  0.00    -0.075 A 
ATOM      2  C4  UNL d   1      -0.822   0.836   0.303  0.00  0.00     0.002 A 
ATOM      3  C5  UNL d   1      -0.674   1.649   1.427  0.00  0.00     0.002 A 
ATOM      4  C6  UNL d   1       0.307   1.362   2.374  0.00  0.00    -0.004 A 
ATOM      5  C7  UNL d   1       1.136   0.256   2.199  0.00  0.00     0.002 A 
ATOM      6  C8  UNL d   1       0.992  -0.557   1.074  0.00  0.00     0.002 A 
ENDROOT
BRANCH   1   7
ATOM      7  C2  UNL d   1      -0.119  -1.137  -1.120  0.00  0.00     0.056 C 
BRANCH   7   8
ATOM      8  C1  UNL d   1      -0.285  -2.630  -0.816  0.00  0.00     0.007 C 
ATOM      9  C   UNL d   1      -1.032  -3.385  -1.907  0.00  0.00     0.009 C 
ENDBRANCH   7   8
ENDBRANCH   1   7
TORSDOF 2
ENDMDL
