MODEL 1
REMARK minimizedAffinity 0.610644519
REMARK minimizedRMSD -1
REMARK  0 active torsions:
REMARK  status: ('A' for Active; 'I' for Inactive)
ROOT
ATOM      1  C   UNL d   1       1.157  -0.657   1.149  0.00  0.00     0.078 C 
ATOM      2  C1  UNL d   1      -0.275  -0.541   0.718  0.00  0.00    -0.077 A 
ATOM      3  C2  UNL d   1      -0.695  -1.027  -0.526  0.00  0.00    -0.001 A 
ATOM      4  C3  UNL d   1      -2.029  -0.904  -0.919  0.00  0.00     0.003 A 
ATOM      5  C4  UNL d   1      -2.953  -0.293  -0.073  0.00  0.00    -0.005 A 
ATOM      6  C5  UNL d   1      -2.544   0.196   1.165  0.00  0.00     0.003 A 
ATOM      7  C6  UNL d   1      -1.211   0.073   1.559  0.00  0.00    -0.001 A 
ENDROOT
TORSDOF 0
ENDMDL
