MODEL 1
REMARK minimizedAffinity -2.04604602
REMARK minimizedRMSD -1
REMARK  0 active torsions:
REMARK  status: ('A' for Active; 'I' for Inactive)
ROOT
ATOM      1  C   UNL d   1      -1.895  -0.055   2.361  0.00  0.00     0.078 C 
ATOM      2  C1  UNL d   1      -0.606  -0.618   2.878  0.00  0.00    -0.077 A 
ATOM      3  C2  UNL d   1      -0.533  -1.205   4.147  0.00  0.00    -0.001 A 
ATOM      4  C3  UNL d   1       0.677  -1.717   4.620  0.00  0.00     0.003 A 
ATOM      5  C4  UNL d   1       1.823  -1.646   3.831  0.00  0.00    -0.005 A 
ATOM      6  C5  UNL d   1       1.761  -1.061   2.567  0.00  0.00     0.003 A 
ATOM      7  C6  UNL d   1       0.552  -0.549   2.093  0.00  0.00    -0.001 A 
ENDROOT
TORSDOF 0
ENDMDL
