MODEL 1
REMARK minimizedAffinity 2.23386788
REMARK minimizedRMSD -1
REMARK  0 active torsions:
REMARK  status: ('A' for Active; 'I' for Inactive)
ROOT
ATOM      1  C   UNL d   1      -2.124   0.091   1.969  0.00  0.00     0.078 C 
ATOM      2  C1  UNL d   1      -0.724  -0.367   2.249  0.00  0.00    -0.077 A 
ATOM      3  C2  UNL d   1      -0.375  -0.895   3.498  0.00  0.00    -0.001 A 
ATOM      4  C3  UNL d   1       0.935  -1.309   3.749  0.00  0.00     0.003 A 
ATOM      5  C4  UNL d   1       1.906  -1.197   2.756  0.00  0.00    -0.005 A 
ATOM      6  C5  UNL d   1       1.568  -0.670   1.511  0.00  0.00     0.003 A 
ATOM      7  C6  UNL d   1       0.260  -0.256   1.258  0.00  0.00    -0.001 A 
ENDROOT
TORSDOF 0
ENDMDL
