MODEL 1
REMARK minimizedAffinity -2.24973512
REMARK minimizedRMSD -1
REMARK  0 active torsions:
REMARK  status: ('A' for Active; 'I' for Inactive)
ROOT
ATOM      1  C   UNL d   1       0.872  -1.478   4.919  0.00  0.00     0.078 C 
ATOM      2  C1  UNL d   1       0.368  -0.969   3.602  0.00  0.00    -0.077 A 
ATOM      3  C2  UNL d   1      -0.929  -0.456   3.475  0.00  0.00    -0.001 A 
ATOM      4  C3  UNL d   1      -1.388   0.006   2.241  0.00  0.00     0.003 A 
ATOM      5  C4  UNL d   1      -0.558  -0.043   1.123  0.00  0.00    -0.005 A 
ATOM      6  C5  UNL d   1       0.733  -0.554   1.238  0.00  0.00     0.003 A 
ATOM      7  C6  UNL d   1       1.194  -1.016   2.472  0.00  0.00    -0.001 A 
ENDROOT
TORSDOF 0
ENDMDL
