MODEL 1
REMARK minimizedAffinity 1.16870034
REMARK minimizedRMSD -1
REMARK  0 active torsions:
REMARK  status: ('A' for Active; 'I' for Inactive)
ROOT
ATOM      1  C   UNL d   1       1.357  -0.679   0.970  0.00  0.00     0.078 C 
ATOM      2  C1  UNL d   1      -0.079  -0.571   0.553  0.00  0.00    -0.077 A 
ATOM      3  C2  UNL d   1      -1.042  -0.033   1.415  0.00  0.00    -0.001 A 
ATOM      4  C3  UNL d   1      -2.377   0.053   1.017  0.00  0.00     0.003 A 
ATOM      5  C4  UNL d   1      -2.761  -0.399  -0.244  0.00  0.00    -0.005 A 
ATOM      6  C5  UNL d   1      -1.810  -0.937  -1.109  0.00  0.00     0.003 A 
ATOM      7  C6  UNL d   1      -0.475  -1.024  -0.712  0.00  0.00    -0.001 A 
ENDROOT
TORSDOF 0
ENDMDL
