MODEL 1
REMARK minimizedAffinity -0.139321938
REMARK minimizedRMSD -1
REMARK  0 active torsions:
REMARK  status: ('A' for Active; 'I' for Inactive)
ROOT
ATOM      1  C   UNL d   1       1.558  -0.853   3.356  0.00  0.00     0.078 C 
ATOM      2  C1  UNL d   1       0.378  -0.511   2.496  0.00  0.00    -0.077 A 
ATOM      3  C2  UNL d   1       0.441  -0.634   1.103  0.00  0.00    -0.001 A 
ATOM      4  C3  UNL d   1      -0.662  -0.303   0.314  0.00  0.00     0.003 A 
ATOM      5  C4  UNL d   1      -1.836   0.155   0.910  0.00  0.00    -0.005 A 
ATOM      6  C5  UNL d   1      -1.907   0.283   2.296  0.00  0.00     0.003 A 
ATOM      7  C6  UNL d   1      -0.805  -0.048   3.086  0.00  0.00    -0.001 A 
ENDROOT
TORSDOF 0
ENDMDL
