MODEL 1
REMARK minimizedAffinity 1.66512251
REMARK minimizedRMSD -1
REMARK  0 active torsions:
REMARK  status: ('A' for Active; 'I' for Inactive)
ROOT
ATOM      1  C   UNL d   1       1.361  -0.292   1.220  0.00  0.00     0.078 C 
ATOM      2  C1  UNL d   1       1.650  -0.830   2.590  0.00  0.00    -0.077 A 
ATOM      3  C2  UNL d   1       0.619  -1.302   3.412  0.00  0.00    -0.001 A 
ATOM      4  C3  UNL d   1       0.902  -1.791   4.688  0.00  0.00     0.003 A 
ATOM      5  C4  UNL d   1       2.215  -1.812   5.155  0.00  0.00    -0.005 A 
ATOM      6  C5  UNL d   1       3.247  -1.343   4.345  0.00  0.00     0.003 A 
ATOM      7  C6  UNL d   1       2.966  -0.853   3.068  0.00  0.00    -0.001 A 
ENDROOT
TORSDOF 0
ENDMDL
