MODEL 1
REMARK minimizedAffinity 6.25889206
REMARK minimizedRMSD -1
REMARK  0 active torsions:
REMARK  status: ('A' for Active; 'I' for Inactive)
ROOT
ATOM      1  C   UNL d   1       0.745  -0.636   1.581  0.00  0.00     0.078 C 
ATOM      2  C1  UNL d   1      -0.588  -0.415   0.930  0.00  0.00    -0.077 A 
ATOM      3  C2  UNL d   1      -0.885  -0.979  -0.317  0.00  0.00    -0.001 A 
ATOM      4  C3  UNL d   1      -2.126  -0.756  -0.915  0.00  0.00     0.003 A 
ATOM      5  C4  UNL d   1      -3.080   0.031  -0.274  0.00  0.00    -0.005 A 
ATOM      6  C5  UNL d   1      -2.793   0.598   0.966  0.00  0.00     0.003 A 
ATOM      7  C6  UNL d   1      -1.553   0.377   1.566  0.00  0.00    -0.001 A 
ENDROOT
TORSDOF 0
ENDMDL
