MODEL 1
REMARK minimizedAffinity 2.22493505
REMARK minimizedRMSD -1
REMARK  0 active torsions:
REMARK  status: ('A' for Active; 'I' for Inactive)
ROOT
ATOM      1  C   UNL d   1       1.149   1.150   0.531  0.00  0.00     0.078 C 
ATOM      2  C1  UNL d   1      -0.214   0.544   0.677  0.00  0.00    -0.077 A 
ATOM      3  C2  UNL d   1      -0.848   0.485   1.924  0.00  0.00    -0.001 A 
ATOM      4  C3  UNL d   1      -2.113  -0.091   2.047  0.00  0.00     0.003 A 
ATOM      5  C4  UNL d   1      -2.756  -0.613   0.926  0.00  0.00    -0.005 A 
ATOM      6  C5  UNL d   1      -2.133  -0.560  -0.319  0.00  0.00     0.003 A 
ATOM      7  C6  UNL d   1      -0.867   0.015  -0.444  0.00  0.00    -0.001 A 
ENDROOT
TORSDOF 0
ENDMDL
