MODEL 1
REMARK minimizedAffinity -3.40646696
REMARK minimizedRMSD -1
REMARK  0 active torsions:
REMARK  status: ('A' for Active; 'I' for Inactive)
ROOT
ATOM      1  C   UNL d   1       2.677   1.028   0.707  0.00  0.00     0.078 C 
ATOM      2  C1  UNL d   1       2.304   0.283   1.953  0.00  0.00    -0.077 A 
ATOM      3  C2  UNL d   1       0.969   0.189   2.364  0.00  0.00    -0.001 A 
ATOM      4  C3  UNL d   1       0.637  -0.500   3.532  0.00  0.00     0.003 A 
ATOM      5  C4  UNL d   1       1.634  -1.100   4.299  0.00  0.00    -0.005 A 
ATOM      6  C5  UNL d   1       2.966  -1.010   3.898  0.00  0.00     0.003 A 
ATOM      7  C6  UNL d   1       3.300  -0.321   2.731  0.00  0.00    -0.001 A 
ENDROOT
TORSDOF 0
ENDMDL
