MODEL 1
REMARK minimizedAffinity 19.4070377
REMARK minimizedRMSD -1
REMARK  0 active torsions:
REMARK  status: ('A' for Active; 'I' for Inactive)
ROOT
ATOM      1  C   UNL d   1       0.692  -0.139   2.614  0.00  0.00     0.124 A 
ATOM      2  C1  UNL d   1      -0.104  -1.273   2.697  0.00  0.00     0.062 A 
ATOM      3  C2  UNL d   1       0.222  -2.294   3.585  0.00  0.00     0.162 A 
ATOM      4  C3  UNL d   1       1.350  -2.186   4.399  0.00  0.00    -0.034 A 
ATOM      5  C4  UNL d   1       2.147  -1.043   4.309  0.00  0.00     0.162 A 
ATOM      6  C5  UNL d   1       1.816  -0.025   3.420  0.00  0.00     0.062 A 
ATOM      7  F   UNL d   1       2.587   1.070   3.342  0.00  0.00    -0.097 F 
ATOM      8  F1  UNL d   1       3.238  -0.905   5.077  0.00  0.00    -0.096 F 
ATOM      9  I   UNL d   1       1.841  -3.710   5.728  0.00  0.00    -0.060 I 
ATOM     10  F2  UNL d   1      -0.565  -3.379   3.644  0.00  0.00    -0.096 F 
ATOM     11  F3  UNL d   1      -1.190  -1.387   1.919  0.00  0.00    -0.097 F 
ATOM     12  F4  UNL d   1       0.377   0.841   1.758  0.00  0.00    -0.092 F 
ENDROOT
TORSDOF 0
ENDMDL
