MODEL 1
REMARK minimizedAffinity 14.9994621
REMARK minimizedRMSD -1
REMARK  0 active torsions:
REMARK  status: ('A' for Active; 'I' for Inactive)
ROOT
ATOM      1  C   UNL d   1       2.345  -1.347   4.775  0.00  0.00     0.124 A 
ATOM      2  C1  UNL d   1       1.602  -2.514   4.886  0.00  0.00     0.062 A 
ATOM      3  C2  UNL d   1       0.399  -2.646   4.199  0.00  0.00     0.162 A 
ATOM      4  C3  UNL d   1      -0.069  -1.608   3.393  0.00  0.00    -0.034 A 
ATOM      5  C4  UNL d   1       0.683  -0.437   3.287  0.00  0.00     0.162 A 
ATOM      6  C5  UNL d   1       1.885  -0.309   3.976  0.00  0.00     0.062 A 
ATOM      7  F   UNL d   1       2.601   0.819   3.868  0.00  0.00    -0.097 F 
ATOM      8  F1  UNL d   1       0.263   0.581   2.521  0.00  0.00    -0.096 F 
ATOM      9  I   UNL d   1      -1.867  -1.801   2.364  0.00  0.00    -0.060 I 
ATOM     10  F2  UNL d   1      -0.298  -3.785   4.324  0.00  0.00    -0.096 F 
ATOM     11  F3  UNL d   1       2.044  -3.517   5.658  0.00  0.00    -0.097 F 
ATOM     12  F4  UNL d   1       3.502  -1.222   5.438  0.00  0.00    -0.092 F 
ENDROOT
TORSDOF 0
ENDMDL
