MODEL 1
REMARK minimizedAffinity 17.7866745
REMARK minimizedRMSD -1
REMARK  0 active torsions:
REMARK  status: ('A' for Active; 'I' for Inactive)
ROOT
ATOM      1  C   UNL d   1       0.063  -2.194  -4.589  0.00  0.00     0.124 A 
ATOM      2  C1  UNL d   1       1.150  -2.868  -5.127  0.00  0.00     0.062 A 
ATOM      3  C2  UNL d   1       2.304  -2.172  -5.473  0.00  0.00     0.162 A 
ATOM      4  C3  UNL d   1       2.378  -0.792  -5.281  0.00  0.00    -0.034 A 
ATOM      5  C4  UNL d   1       1.280  -0.121  -4.740  0.00  0.00     0.162 A 
ATOM      6  C5  UNL d   1       0.128  -0.821  -4.396  0.00  0.00     0.062 A 
ATOM      7  F   UNL d   1      -0.921  -0.168  -3.877  0.00  0.00    -0.097 F 
ATOM      8  F1  UNL d   1       1.316   1.205  -4.542  0.00  0.00    -0.096 F 
ATOM      9  I   UNL d   1       4.102   0.254  -5.797  0.00  0.00    -0.060 I 
ATOM     10  F2  UNL d   1       3.340  -2.849  -5.991  0.00  0.00    -0.096 F 
ATOM     11  F3  UNL d   1       1.089  -4.194  -5.316  0.00  0.00    -0.097 F 
ATOM     12  F4  UNL d   1      -1.047  -2.867  -4.259  0.00  0.00    -0.092 F 
ENDROOT
TORSDOF 0
ENDMDL
