MODEL 1
REMARK minimizedAffinity 24.1230507
REMARK minimizedRMSD -1
REMARK  0 active torsions:
REMARK  status: ('A' for Active; 'I' for Inactive)
ROOT
ATOM      1  C   UNL d   1       0.597   1.017   3.798  0.00  0.00     0.124 A 
ATOM      2  C1  UNL d   1      -0.675   1.401   3.395  0.00  0.00     0.062 A 
ATOM      3  C2  UNL d   1      -1.503   0.498   2.734  0.00  0.00     0.162 A 
ATOM      4  C3  UNL d   1      -1.061  -0.799   2.472  0.00  0.00    -0.034 A 
ATOM      5  C4  UNL d   1       0.219  -1.178   2.878  0.00  0.00     0.162 A 
ATOM      6  C5  UNL d   1       1.043  -0.272   3.539  0.00  0.00     0.062 A 
ATOM      7  F   UNL d   1       2.271  -0.644   3.926  0.00  0.00    -0.097 F 
ATOM      8  F1  UNL d   1       0.675  -2.417   2.642  0.00  0.00    -0.096 F 
ATOM      9  I   UNL d   1      -2.296  -2.152   1.483  0.00  0.00    -0.060 I 
ATOM     10  F2  UNL d   1      -2.727   0.896   2.357  0.00  0.00    -0.096 F 
ATOM     11  F3  UNL d   1      -1.108   2.645   3.644  0.00  0.00    -0.097 F 
ATOM     12  F4  UNL d   1       1.391   1.888   4.433  0.00  0.00    -0.092 F 
ENDROOT
TORSDOF 0
ENDMDL
