MODEL 1
REMARK minimizedAffinity 17.9271965
REMARK minimizedRMSD -1
REMARK  0 active torsions:
REMARK  status: ('A' for Active; 'I' for Inactive)
ROOT
ATOM      1  C   UNL d   1       1.375  -0.002   3.079  0.00  0.00     0.124 A 
ATOM      2  C1  UNL d   1       2.572   0.020   3.782  0.00  0.00     0.062 A 
ATOM      3  C2  UNL d   1       2.955  -1.078   4.547  0.00  0.00     0.162 A 
ATOM      4  C3  UNL d   1       2.140  -2.209   4.613  0.00  0.00    -0.034 A 
ATOM      5  C4  UNL d   1       0.937  -2.223   3.904  0.00  0.00     0.162 A 
ATOM      6  C5  UNL d   1       0.559  -1.123   3.141  0.00  0.00     0.062 A 
ATOM      7  F   UNL d   1      -0.598  -1.146   2.463  0.00  0.00    -0.097 F 
ATOM      8  F1  UNL d   1       0.130  -3.293   3.945  0.00  0.00    -0.096 F 
ATOM      9  I   UNL d   1       2.709  -3.852   5.755  0.00  0.00    -0.060 I 
ATOM     10  F2  UNL d   1       4.117  -1.029   5.215  0.00  0.00    -0.096 F 
ATOM     11  F3  UNL d   1       3.362   1.102   3.725  0.00  0.00    -0.097 F 
ATOM     12  F4  UNL d   1       1.009   1.056   2.345  0.00  0.00    -0.092 F 
ENDROOT
TORSDOF 0
ENDMDL
