MODEL 1
REMARK minimizedAffinity 13.8224669
REMARK minimizedRMSD -1
REMARK  0 active torsions:
REMARK  status: ('A' for Active; 'I' for Inactive)
ROOT
ATOM      1  C   UNL d   1       0.074  -0.617  -2.727  0.00  0.00     0.124 A 
ATOM      2  C1  UNL d   1      -0.689  -1.474  -1.945  0.00  0.00     0.062 A 
ATOM      3  C2  UNL d   1      -1.283  -2.597  -2.512  0.00  0.00     0.162 A 
ATOM      4  C3  UNL d   1      -1.116  -2.872  -3.870  0.00  0.00    -0.034 A 
ATOM      5  C4  UNL d   1      -0.348  -2.005  -4.650  0.00  0.00     0.162 A 
ATOM      6  C5  UNL d   1       0.243  -0.883  -4.078  0.00  0.00     0.062 A 
ATOM      7  F   UNL d   1       0.980  -0.057  -4.835  0.00  0.00    -0.097 F 
ATOM      8  F1  UNL d   1      -0.167  -2.239  -5.958  0.00  0.00    -0.096 F 
ATOM      9  I   UNL d   1      -2.002  -4.550  -4.722  0.00  0.00    -0.060 I 
ATOM     10  F2  UNL d   1      -2.014  -3.408  -1.733  0.00  0.00    -0.096 F 
ATOM     11  F3  UNL d   1      -0.855  -1.218  -0.639  0.00  0.00    -0.097 F 
ATOM     12  F4  UNL d   1       0.643   0.464  -2.178  0.00  0.00    -0.092 F 
ENDROOT
TORSDOF 0
ENDMDL
