MODEL 1
REMARK minimizedAffinity 13.3267059
REMARK minimizedRMSD -1
REMARK  0 active torsions:
REMARK  status: ('A' for Active; 'I' for Inactive)
ROOT
ATOM      1  C   UNL d   1       0.512   1.318   4.005  0.00  0.00     0.124 A 
ATOM      2  C1  UNL d   1      -0.469   1.899   3.213  0.00  0.00     0.062 A 
ATOM      3  C2  UNL d   1      -1.155   1.134   2.274  0.00  0.00     0.162 A 
ATOM      4  C3  UNL d   1      -0.863  -0.221   2.122  0.00  0.00    -0.034 A 
ATOM      5  C4  UNL d   1       0.125  -0.799   2.922  0.00  0.00     0.162 A 
ATOM      6  C5  UNL d   1       0.808  -0.030   3.859  0.00  0.00     0.062 A 
ATOM      7  F   UNL d   1       1.755  -0.593   4.623  0.00  0.00    -0.097 F 
ATOM      8  F1  UNL d   1       0.431  -2.099   2.802  0.00  0.00    -0.096 F 
ATOM      9  I   UNL d   1      -1.886  -1.369   0.719  0.00  0.00    -0.060 I 
ATOM     10  F2  UNL d   1      -2.097   1.722   1.522  0.00  0.00    -0.096 F 
ATOM     11  F3  UNL d   1      -0.756   3.201   3.352  0.00  0.00    -0.097 F 
ATOM     12  F4  UNL d   1       1.171   2.057   4.907  0.00  0.00    -0.092 F 
ENDROOT
TORSDOF 0
ENDMDL
