MODEL 1
REMARK minimizedAffinity 19.2636166
REMARK minimizedRMSD -1
REMARK  0 active torsions:
REMARK  status: ('A' for Active; 'I' for Inactive)
ROOT
ATOM      1  C   UNL d   1      -1.707  -2.331  -3.938  0.00  0.00     0.124 A 
ATOM      2  C1  UNL d   1      -1.744  -3.497  -4.689  0.00  0.00     0.062 A 
ATOM      3  C2  UNL d   1      -0.583  -3.988  -5.279  0.00  0.00     0.162 A 
ATOM      4  C3  UNL d   1       0.627  -3.312  -5.119  0.00  0.00    -0.034 A 
ATOM      5  C4  UNL d   1       0.656  -2.138  -4.364  0.00  0.00     0.162 A 
ATOM      6  C5  UNL d   1      -0.507  -1.652  -3.776  0.00  0.00     0.062 A 
ATOM      7  F   UNL d   1      -0.470  -0.525  -3.051  0.00  0.00    -0.097 F 
ATOM      8  F1  UNL d   1       1.802  -1.463  -4.190  0.00  0.00    -0.096 F 
ATOM      9  I   UNL d   1       2.366  -4.041  -6.000  0.00  0.00    -0.060 I 
ATOM     10  F2  UNL d   1      -0.648  -5.117  -6.000  0.00  0.00    -0.096 F 
ATOM     11  F3  UNL d   1      -2.903  -4.154  -4.849  0.00  0.00    -0.097 F 
ATOM     12  F4  UNL d   1      -2.827  -1.861  -3.373  0.00  0.00    -0.092 F 
ENDROOT
TORSDOF 0
ENDMDL
