MODEL 1
REMARK minimizedAffinity 15.9816265
REMARK minimizedRMSD -1
REMARK  0 active torsions:
REMARK  status: ('A' for Active; 'I' for Inactive)
ROOT
ATOM      1  C   UNL d   1      -0.480  -1.473  -2.742  0.00  0.00     0.124 A 
ATOM      2  C1  UNL d   1      -1.136  -2.438  -1.991  0.00  0.00     0.062 A 
ATOM      3  C2  UNL d   1      -1.559  -3.622  -2.588  0.00  0.00     0.162 A 
ATOM      4  C3  UNL d   1      -1.326  -3.849  -3.944  0.00  0.00    -0.034 A 
ATOM      5  C4  UNL d   1      -0.666  -2.873  -4.694  0.00  0.00     0.162 A 
ATOM      6  C5  UNL d   1      -0.245  -1.691  -4.092  0.00  0.00     0.062 A 
ATOM      7  F   UNL d   1       0.389  -0.760  -4.820  0.00  0.00    -0.097 F 
ATOM      8  F1  UNL d   1      -0.425  -3.058  -6.000  0.00  0.00    -0.096 F 
ATOM      9  I   UNL d   1      -1.956  -5.618  -4.841  0.00  0.00    -0.060 I 
ATOM     10  F2  UNL d   1      -2.191  -4.537  -1.838  0.00  0.00    -0.096 F 
ATOM     11  F3  UNL d   1      -1.365  -2.229  -0.686  0.00  0.00    -0.097 F 
ATOM     12  F4  UNL d   1      -0.075  -0.334  -2.165  0.00  0.00    -0.092 F 
ENDROOT
TORSDOF 0
ENDMDL
