MODEL 1
REMARK minimizedAffinity -4.19863272
REMARK minimizedRMSD -1
REMARK  3 active torsions:
REMARK  status: ('A' for Active; 'I' for Inactive)
REMARK    1  A    between atoms: C3'_2  and  C2'_3 
REMARK    2  A    between atoms: C2'_3  and  C1'_4 
REMARK    3  A    between atoms: C1'_4  and  C1_5 
ROOT
ATOM      1  C1  N4B d   1      -0.099   0.516   0.345  0.00  0.00    -0.075 A 
ATOM      2  C2  N4B d   1      -0.113   0.125  -1.012  0.00  0.00     0.002 A 
ATOM      3  C3  N4B d   1      -0.472  -1.156  -1.354  0.00  0.00     0.002 A 
ATOM      4  C4  N4B d   1      -0.800  -2.065  -0.360  0.00  0.00    -0.004 A 
ATOM      5  C5  N4B d   1      -0.809  -1.673   0.946  0.00  0.00     0.002 A 
ATOM      6  C6  N4B d   1      -0.455  -0.387   1.305  0.00  0.00     0.002 A 
ENDROOT
BRANCH   1   7
ATOM      7  C1' N4B d   1       0.368   1.880   0.774  0.00  0.00     0.057 C 
BRANCH   7   8
ATOM      8  C2' N4B d   1       1.320   2.437  -0.280  0.00  0.00     0.009 C 
BRANCH   8   9
ATOM      9  C3' N4B d   1       1.816   3.827   0.081  0.00  0.00     0.004 C 
ATOM     10  C4' N4B d   1       1.213   4.347   1.352  0.00  0.00     0.003 C 
ENDBRANCH   8   9
ENDBRANCH   7   8
ENDBRANCH   1   7
TORSDOF 3
ENDMDL
