MODEL 1
REMARK minimizedAffinity -5.63884354
REMARK minimizedRMSD -1
REMARK  3 active torsions:
REMARK  status: ('A' for Active; 'I' for Inactive)
REMARK    1  A    between atoms: C3'_2  and  C2'_3 
REMARK    2  A    between atoms: C2'_3  and  C1'_4 
REMARK    3  A    between atoms: C1'_4  and  C1_5 
ROOT
ATOM      1  C1  N4B d   1      -0.316   0.053   0.578  0.00  0.00    -0.075 A 
ATOM      2  C2  N4B d   1      -0.351  -1.097  -0.241  0.00  0.00     0.002 A 
ATOM      3  C3  N4B d   1      -0.811  -2.288   0.266  0.00  0.00     0.002 A 
ATOM      4  C4  N4B d   1      -1.220  -2.357   1.589  0.00  0.00    -0.004 A 
ATOM      5  C5  N4B d   1      -1.207  -1.236   2.367  0.00  0.00     0.002 A 
ATOM      6  C6  N4B d   1      -0.752  -0.032   1.869  0.00  0.00     0.002 A 
ENDROOT
BRANCH   1   7
ATOM      7  C1' N4B d   1       0.258   1.356   0.093  0.00  0.00     0.057 C 
BRANCH   7   8
ATOM      8  C2' N4B d   1       1.688   1.496   0.608  0.00  0.00     0.009 C 
BRANCH   8   9
ATOM      9  C3' N4B d   1       2.234   2.897   0.394  0.00  0.00     0.004 C 
ATOM     10  C4' N4B d   1       2.691   3.543   1.667  0.00  0.00     0.003 C 
ENDBRANCH   8   9
ENDBRANCH   7   8
ENDBRANCH   1   7
TORSDOF 3
ENDMDL
