MODEL 1
REMARK minimizedAffinity -4.06334829
REMARK minimizedRMSD -1
REMARK  3 active torsions:
REMARK  status: ('A' for Active; 'I' for Inactive)
REMARK    1  A    between atoms: C3'_2  and  C2'_3 
REMARK    2  A    between atoms: C2'_3  and  C1'_4 
REMARK    3  A    between atoms: C1'_4  and  C1_5 
ROOT
ATOM      1  C1  N4B d   1      -0.256  -0.591   0.878  0.00  0.00    -0.075 A 
ATOM      2  C2  N4B d   1      -1.371  -1.456   0.934  0.00  0.00     0.002 A 
ATOM      3  C3  N4B d   1      -1.194  -2.813   0.827  0.00  0.00     0.002 A 
ATOM      4  C4  N4B d   1       0.082  -3.326   0.645  0.00  0.00    -0.004 A 
ATOM      5  C5  N4B d   1       1.157  -2.486   0.618  0.00  0.00     0.002 A 
ATOM      6  C6  N4B d   1       0.993  -1.119   0.728  0.00  0.00     0.002 A 
ENDROOT
BRANCH   1   7
ATOM      7  C1' N4B d   1      -0.409   0.905   0.904  0.00  0.00     0.057 C 
BRANCH   7   8
ATOM      8  C2' N4B d   1       0.073   1.481  -0.424  0.00  0.00     0.009 C 
BRANCH   8   9
ATOM      9  C3' N4B d   1       0.956   2.702  -0.227  0.00  0.00     0.004 C 
ATOM     10  C4' N4B d   1       0.410   3.655   0.794  0.00  0.00     0.003 C 
ENDBRANCH   8   9
ENDBRANCH   7   8
ENDBRANCH   1   7
TORSDOF 3
ENDMDL
