MODEL 1
REMARK minimizedAffinity -2.80693722
REMARK minimizedRMSD -1
REMARK  3 active torsions:
REMARK  status: ('A' for Active; 'I' for Inactive)
REMARK    1  A    between atoms: C3'_2  and  C2'_3 
REMARK    2  A    between atoms: C2'_3  and  C1'_4 
REMARK    3  A    between atoms: C1'_4  and  C1_5 
ROOT
ATOM      1  C1  N4B d   1       0.359   2.120   0.033  0.00  0.00    -0.075 A 
ATOM      2  C2  N4B d   1       0.062   3.208   0.883  0.00  0.00     0.002 A 
ATOM      3  C3  N4B d   1       0.985   4.209   1.066  0.00  0.00     0.002 A 
ATOM      4  C4  N4B d   1       2.213   4.134   0.426  0.00  0.00    -0.004 A 
ATOM      5  C5  N4B d   1       2.482   3.093  -0.414  0.00  0.00     0.002 A 
ATOM      6  C6  N4B d   1       1.563   2.082  -0.610  0.00  0.00     0.002 A 
ENDROOT
BRANCH   1   7
ATOM      7  C1' N4B d   1      -0.584   0.960  -0.131  0.00  0.00     0.057 C 
BRANCH   7   8
ATOM      8  C2' N4B d   1      -0.090  -0.210   0.715  0.00  0.00     0.009 C 
BRANCH   8   9
ATOM      9  C3' N4B d   1      -0.229  -1.536  -0.012  0.00  0.00     0.004 C 
ATOM     10  C4' N4B d   1      -1.291  -2.415   0.580  0.00  0.00     0.003 C 
ENDBRANCH   8   9
ENDBRANCH   7   8
ENDBRANCH   1   7
TORSDOF 3
ENDMDL
