MODEL 1
REMARK minimizedAffinity -5.70078325
REMARK minimizedRMSD -1
REMARK  3 active torsions:
REMARK  status: ('A' for Active; 'I' for Inactive)
REMARK    1  A    between atoms: C3'_2  and  C2'_3 
REMARK    2  A    between atoms: C2'_3  and  C1'_4 
REMARK    3  A    between atoms: C1'_4  and  C1_5 
ROOT
ATOM      1  C1  N4B d   1       0.337  -1.248  -0.103  0.00  0.00    -0.075 A 
ATOM      2  C2  N4B d   1       0.250  -2.438   0.653  0.00  0.00     0.002 A 
ATOM      3  C3  N4B d   1       0.098  -3.645   0.016  0.00  0.00     0.002 A 
ATOM      4  C4  N4B d   1       0.013  -3.685  -1.368  0.00  0.00    -0.004 A 
ATOM      5  C5  N4B d   1       0.123  -2.534  -2.091  0.00  0.00     0.002 A 
ATOM      6  C6  N4B d   1       0.280  -1.314  -1.465  0.00  0.00     0.002 A 
ENDROOT
BRANCH   1   7
ATOM      7  C1' N4B d   1       0.416   0.104   0.552  0.00  0.00     0.057 C 
BRANCH   7   8
ATOM      8  C2' N4B d   1      -0.676   1.003  -0.020  0.00  0.00     0.009 C 
BRANCH   8   9
ATOM      9  C3' N4B d   1      -0.100   2.149  -0.834  0.00  0.00     0.004 C 
ATOM     10  C4' N4B d   1       0.393   3.278   0.020  0.00  0.00     0.003 C 
ENDBRANCH   8   9
ENDBRANCH   7   8
ENDBRANCH   1   7
TORSDOF 3
ENDMDL
