MODEL 1
REMARK minimizedAffinity -5.72715521
REMARK minimizedRMSD -1
REMARK  3 active torsions:
REMARK  status: ('A' for Active; 'I' for Inactive)
REMARK    1  A    between atoms: C3'_2  and  C2'_3 
REMARK    2  A    between atoms: C2'_3  and  C1'_4 
REMARK    3  A    between atoms: C1'_4  and  C1_5 
ROOT
ATOM      1  C1  N4B d   1      -0.076   0.051  -0.131  0.00  0.00    -0.075 A 
ATOM      2  C2  N4B d   1       0.271  -0.833  -1.176  0.00  0.00     0.002 A 
ATOM      3  C3  N4B d   1       0.091  -2.186  -1.019  0.00  0.00     0.002 A 
ATOM      4  C4  N4B d   1      -0.415  -2.676   0.175  0.00  0.00    -0.004 A 
ATOM      5  C5  N4B d   1      -0.772  -1.813   1.170  0.00  0.00     0.002 A 
ATOM      6  C6  N4B d   1      -0.600  -0.452   1.025  0.00  0.00     0.002 A 
ENDROOT
BRANCH   1   7
ATOM      7  C1' N4B d   1       0.183   1.530  -0.224  0.00  0.00     0.057 C 
BRANCH   7   8
ATOM      8  C2' N4B d   1       1.611   1.818   0.230  0.00  0.00     0.009 C 
BRANCH   8   9
ATOM      9  C3' N4B d   1       1.908   3.307   0.261  0.00  0.00     0.004 C 
ATOM     10  C4' N4B d   1       2.313   3.790   1.622  0.00  0.00     0.003 C 
ENDBRANCH   8   9
ENDBRANCH   7   8
ENDBRANCH   1   7
TORSDOF 3
ENDMDL
