MODEL 1
REMARK minimizedAffinity -3.34772086
REMARK minimizedRMSD -1
REMARK  3 active torsions:
REMARK  status: ('A' for Active; 'I' for Inactive)
REMARK    1  A    between atoms: C3'_2  and  C2'_3 
REMARK    2  A    between atoms: C2'_3  and  C1'_4 
REMARK    3  A    between atoms: C1'_4  and  C1_5 
ROOT
ATOM      1  C1  N4B d   1       0.287   0.429   0.455  0.00  0.00    -0.075 A 
ATOM      2  C2  N4B d   1      -0.850  -0.149   1.060  0.00  0.00     0.002 A 
ATOM      3  C3  N4B d   1      -0.963  -1.516   1.144  0.00  0.00     0.002 A 
ATOM      4  C4  N4B d   1       0.036  -2.320   0.616  0.00  0.00    -0.004 A 
ATOM      5  C5  N4B d   1       1.142  -1.753   0.055  0.00  0.00     0.002 A 
ATOM      6  C6  N4B d   1       1.271  -0.381  -0.033  0.00  0.00     0.002 A 
ENDROOT
BRANCH   1   7
ATOM      7  C1' N4B d   1       0.414   1.916   0.263  0.00  0.00     0.057 C 
BRANCH   7   8
ATOM      8  C2' N4B d   1       1.860   2.331   0.517  0.00  0.00     0.009 C 
BRANCH   8   9
ATOM      9  C3' N4B d   1       2.000   3.836   0.671  0.00  0.00     0.004 C 
ATOM     10  C4' N4B d   1       2.247   4.254   2.090  0.00  0.00     0.003 C 
ENDBRANCH   8   9
ENDBRANCH   7   8
ENDBRANCH   1   7
TORSDOF 3
ENDMDL
