MODEL 1
REMARK minimizedAffinity -5.27698898
REMARK minimizedRMSD -1
REMARK  3 active torsions:
REMARK  status: ('A' for Active; 'I' for Inactive)
REMARK    1  A    between atoms: C3'_2  and  C2'_3 
REMARK    2  A    between atoms: C2'_3  and  C1'_4 
REMARK    3  A    between atoms: C1'_4  and  C1_5 
ROOT
ATOM      1  C1  N4B d   1       0.219  -0.976  -0.480  0.00  0.00    -0.075 A 
ATOM      2  C2  N4B d   1       0.411  -1.153  -1.868  0.00  0.00     0.002 A 
ATOM      3  C3  N4B d   1       0.259  -2.397  -2.429  0.00  0.00     0.002 A 
ATOM      4  C4  N4B d   1      -0.065  -3.478  -1.623  0.00  0.00    -0.004 A 
ATOM      5  C5  N4B d   1      -0.274  -3.294  -0.288  0.00  0.00     0.002 A 
ATOM      6  C6  N4B d   1      -0.129  -2.048   0.289  0.00  0.00     0.002 A 
ENDROOT
BRANCH   1   7
ATOM      7  C1' N4B d   1       0.459   0.348   0.192  0.00  0.00     0.057 C 
BRANCH   7   8
ATOM      8  C2' N4B d   1       0.108   1.473  -0.777  0.00  0.00     0.009 C 
BRANCH   8   9
ATOM      9  C3' N4B d   1       0.428   2.841  -0.200  0.00  0.00     0.004 C 
ATOM     10  C4' N4B d   1       1.885   3.015   0.108  0.00  0.00     0.003 C 
ENDBRANCH   8   9
ENDBRANCH   7   8
ENDBRANCH   1   7
TORSDOF 3
ENDMDL
