MODEL 1
REMARK minimizedAffinity -5.91753769
REMARK minimizedRMSD -1
REMARK  3 active torsions:
REMARK  status: ('A' for Active; 'I' for Inactive)
REMARK    1  A    between atoms: C3'_2  and  C2'_3 
REMARK    2  A    between atoms: C2'_3  and  C1'_4 
REMARK    3  A    between atoms: C1'_4  and  C1_5 
ROOT
ATOM      1  C1  N4B d   1       0.063  -1.155  -0.057  0.00  0.00    -0.075 A 
ATOM      2  C2  N4B d   1      -0.267  -2.460   0.371  0.00  0.00     0.002 A 
ATOM      3  C3  N4B d   1      -0.298  -3.492  -0.534  0.00  0.00     0.002 A 
ATOM      4  C4  N4B d   1      -0.023  -3.241  -1.870  0.00  0.00    -0.004 A 
ATOM      5  C5  N4B d   1       0.320  -1.983  -2.271  0.00  0.00     0.002 A 
ATOM      6  C6  N4B d   1       0.359  -0.937  -1.371  0.00  0.00     0.002 A 
ENDROOT
BRANCH   1   7
ATOM      7  C1' N4B d   1       0.026   0.021   0.880  0.00  0.00     0.057 C 
BRANCH   7   8
ATOM      8  C2' N4B d   1      -0.031   1.310   0.065  0.00  0.00     0.009 C 
BRANCH   8   9
ATOM      9  C3' N4B d   1       1.101   2.258   0.420  0.00  0.00     0.004 C 
ATOM     10  C4' N4B d   1       0.664   3.692   0.469  0.00  0.00     0.003 C 
ENDBRANCH   8   9
ENDBRANCH   7   8
ENDBRANCH   1   7
TORSDOF 3
ENDMDL
