MODEL 1
REMARK minimizedAffinity -4.84438181
REMARK minimizedRMSD -1
REMARK  3 active torsions:
REMARK  status: ('A' for Active; 'I' for Inactive)
REMARK    1  A    between atoms: C3'_2  and  C2'_3 
REMARK    2  A    between atoms: C2'_3  and  C1'_4 
REMARK    3  A    between atoms: C1'_4  and  C1_5 
ROOT
ATOM      1  C1  N4B d   1      -0.220   0.294   0.099  0.00  0.00    -0.075 A 
ATOM      2  C2  N4B d   1      -0.757  -0.210   1.304  0.00  0.00     0.002 A 
ATOM      3  C3  N4B d   1      -1.004  -1.554   1.437  0.00  0.00     0.002 A 
ATOM      4  C4  N4B d   1      -0.740  -2.408   0.376  0.00  0.00    -0.004 A 
ATOM      5  C5  N4B d   1      -0.198  -1.917  -0.776  0.00  0.00     0.002 A 
ATOM      6  C6  N4B d   1       0.059  -0.568  -0.921  0.00  0.00     0.002 A 
ENDROOT
BRANCH   1   7
ATOM      7  C1' N4B d   1      -0.013   1.768  -0.123  0.00  0.00     0.057 C 
BRANCH   7   8
ATOM      8  C2' N4B d   1       1.481   2.074  -0.090  0.00  0.00     0.009 C 
BRANCH   8   9
ATOM      9  C3' N4B d   1       1.753   3.559   0.082  0.00  0.00     0.004 C 
ATOM     10  C4' N4B d   1       1.811   3.976   1.521  0.00  0.00     0.003 C 
ENDBRANCH   8   9
ENDBRANCH   7   8
ENDBRANCH   1   7
TORSDOF 3
ENDMDL
