MODEL 1
REMARK minimizedAffinity -3.65080643
REMARK minimizedRMSD -1
REMARK  3 active torsions:
REMARK  status: ('A' for Active; 'I' for Inactive)
REMARK    1  A    between atoms: C3'_2  and  C2'_3 
REMARK    2  A    between atoms: C2'_3  and  C1'_4 
REMARK    3  A    between atoms: C1'_4  and  C1_5 
ROOT
ATOM      1  C1  N4B d   1       0.170   2.287   0.188  0.00  0.00    -0.075 A 
ATOM      2  C2  N4B d   1       1.557   2.047   0.302  0.00  0.00     0.002 A 
ATOM      3  C3  N4B d   1       2.398   3.054   0.708  0.00  0.00     0.002 A 
ATOM      4  C4  N4B d   1       1.879   4.309   0.988  0.00  0.00    -0.004 A 
ATOM      5  C5  N4B d   1       0.535   4.526   0.901  0.00  0.00     0.002 A 
ATOM      6  C6  N4B d   1      -0.322   3.522   0.497  0.00  0.00     0.002 A 
ENDROOT
BRANCH   1   7
ATOM      7  C1' N4B d   1      -0.777   1.242  -0.335  0.00  0.00     0.057 C 
BRANCH   7   8
ATOM      8  C2' N4B d   1      -0.093  -0.121  -0.288  0.00  0.00     0.009 C 
BRANCH   8   9
ATOM      9  C3' N4B d   1      -0.800  -1.079   0.656  0.00  0.00     0.004 C 
ATOM     10  C4' N4B d   1      -1.050  -2.423   0.040  0.00  0.00     0.003 C 
ENDBRANCH   8   9
ENDBRANCH   7   8
ENDBRANCH   1   7
TORSDOF 3
ENDMDL
