MODEL 1
REMARK minimizedAffinity -1.76576531
REMARK minimizedRMSD -1
REMARK  1 active torsions:
REMARK  status: ('A' for Active; 'I' for Inactive)
REMARK    1  A    between atoms: C1_2  and  C2_3 
ROOT
ATOM      1  C2  UNL d   1      -0.092  -0.477   0.008  0.00  0.00    -0.073 A 
ATOM      2  C3  UNL d   1      -0.983   0.076   0.935  0.00  0.00    -0.002 A 
ATOM      3  C4  UNL d   1      -0.917  -0.289   2.280  0.00  0.00     0.004 A 
ATOM      4  C5  UNL d   1       0.043  -1.204   2.713  0.00  0.00    -0.004 A 
ATOM      5  C6  UNL d   1       0.949  -1.759   1.804  0.00  0.00    -0.075 A 
ATOM      6  C7  UNL d   1       1.986  -2.747   2.253  0.00  0.00     0.076 C 
ATOM      7  C8  UNL d   1       0.875  -1.390   0.454  0.00  0.00     0.001 A 
ENDROOT
BRANCH   1   8
ATOM      8  C1  UNL d   1      -0.156  -0.081  -1.445  0.00  0.00     0.053 C 
ATOM      9  C   UNL d   1      -0.148   1.429  -1.625  0.00  0.00     0.018 C 
ENDBRANCH   1   8
TORSDOF 1
ENDMDL
