MODEL 1
REMARK minimizedAffinity -3.98217154
REMARK minimizedRMSD -1
REMARK  1 active torsions:
REMARK  status: ('A' for Active; 'I' for Inactive)
REMARK    1  A    between atoms: C1_2  and  C2_3 
ROOT
ATOM      1  C2  UNL d   1      -0.662   0.806  -0.215  0.00  0.00    -0.073 A 
ATOM      2  C3  UNL d   1      -1.113   0.206  -1.396  0.00  0.00    -0.002 A 
ATOM      3  C4  UNL d   1      -1.190   0.945  -2.578  0.00  0.00     0.004 A 
ATOM      4  C5  UNL d   1      -0.810   2.287  -2.592  0.00  0.00    -0.004 A 
ATOM      5  C6  UNL d   1      -0.344   2.901  -1.425  0.00  0.00    -0.075 A 
ATOM      6  C7  UNL d   1       0.066   4.344  -1.423  0.00  0.00     0.076 C 
ATOM      7  C8  UNL d   1      -0.273   2.153  -0.242  0.00  0.00     0.001 A 
ENDROOT
BRANCH   1   8
ATOM      8  C1  UNL d   1      -0.571   0.010   1.061  0.00  0.00     0.053 C 
ATOM      9  C   UNL d   1       0.809  -0.596   1.258  0.00  0.00     0.018 C 
ENDBRANCH   1   8
TORSDOF 1
ENDMDL
