MODEL 1
REMARK minimizedAffinity -4.05844164
REMARK minimizedRMSD -1
REMARK  1 active torsions:
REMARK  status: ('A' for Active; 'I' for Inactive)
REMARK    1  A    between atoms: C1_2  and  C2_3 
ROOT
ATOM      1  C2  UNL d   1      -0.300   0.380  -0.737  0.00  0.00    -0.073 A 
ATOM      2  C3  UNL d   1       0.604  -0.257  -1.595  0.00  0.00    -0.002 A 
ATOM      3  C4  UNL d   1       1.698  -0.952  -1.077  0.00  0.00     0.004 A 
ATOM      4  C5  UNL d   1       1.896  -1.022   0.302  0.00  0.00    -0.004 A 
ATOM      5  C6  UNL d   1       0.997  -0.402   1.176  0.00  0.00    -0.075 A 
ATOM      6  C7  UNL d   1       1.197  -0.467   2.662  0.00  0.00     0.076 C 
ATOM      7  C8  UNL d   1      -0.097   0.296   0.648  0.00  0.00     0.001 A 
ENDROOT
BRANCH   1   8
ATOM      8  C1  UNL d   1      -1.486   1.126  -1.291  0.00  0.00     0.053 C 
ATOM      9  C   UNL d   1      -1.142   1.874  -2.569  0.00  0.00     0.018 C 
ENDBRANCH   1   8
TORSDOF 1
ENDMDL
