MODEL 1
REMARK minimizedAffinity -2.8430922
REMARK minimizedRMSD -1
REMARK  1 active torsions:
REMARK  status: ('A' for Active; 'I' for Inactive)
REMARK    1  A    between atoms: C1_2  and  C2_3 
ROOT
ATOM      1  C2  UNL d   1      -0.803   1.488  -1.757  0.00  0.00    -0.073 A 
ATOM      2  C3  UNL d   1      -0.343   0.261  -2.247  0.00  0.00    -0.002 A 
ATOM      3  C4  UNL d   1       0.138  -0.713  -1.370  0.00  0.00     0.004 A 
ATOM      4  C5  UNL d   1       0.157  -0.472   0.004  0.00  0.00    -0.004 A 
ATOM      5  C6  UNL d   1      -0.310   0.744   0.514  0.00  0.00    -0.075 A 
ATOM      6  C7  UNL d   1      -0.294   1.019   1.989  0.00  0.00     0.076 C 
ATOM      7  C8  UNL d   1      -0.788   1.717  -0.373  0.00  0.00     0.001 A 
ENDROOT
BRANCH   1   8
ATOM      8  C1  UNL d   1      -1.329   2.540  -2.699  0.00  0.00     0.053 C 
ATOM      9  C   UNL d   1      -0.210   3.230  -3.464  0.00  0.00     0.018 C 
ENDBRANCH   1   8
TORSDOF 1
ENDMDL
