MODEL 1
REMARK minimizedAffinity -3.79213572
REMARK minimizedRMSD -1
REMARK  0 active torsions:
REMARK  status: ('A' for Active; 'I' for Inactive)
ROOT
ATOM      1  N1  IND d   1      -1.075   2.017  -0.679  0.00  0.00    -0.196 N 
ATOM      2  C2  IND d   1      -2.113   1.403  -0.035  0.00  0.00     0.054 A 
ATOM      3  C3  IND d   1      -1.741   0.178   0.397  0.00  0.00    -0.031 A 
ATOM      4  C4  IND d   1       0.553  -0.982   0.248  0.00  0.00     0.051 A 
ATOM      5  C5  IND d   1       1.803  -0.832  -0.283  0.00  0.00    -0.031 A 
ATOM      6  C6  IND d   1       2.166   0.300  -0.985  0.00  0.00     0.015 A 
ATOM      7  C7  IND d   1       1.292   1.332  -1.173  0.00  0.00    -0.016 A 
ATOM      8  C8  IND d   1       0.019   1.180  -0.642  0.00  0.00    -0.047 A 
ATOM      9  C9  IND d   1      -0.368   0.017   0.035  0.00  0.00    -0.096 A 
ATOM     10  HN1 IND d   1      -1.101   2.794  -1.046  0.00  0.00     0.298 HD
ENDROOT
TORSDOF 0
ENDMDL
