MODEL 1
REMARK minimizedAffinity -2.80343747
REMARK minimizedRMSD -1
REMARK  0 active torsions:
REMARK  status: ('A' for Active; 'I' for Inactive)
ROOT
ATOM      1  N1  IND d   1       1.454  -1.796  -1.626  0.00  0.00    -0.196 N 
ATOM      2  C2  IND d   1       2.534  -0.962  -1.539  0.00  0.00     0.054 A 
ATOM      3  C3  IND d   1       2.256   0.084  -0.728  0.00  0.00    -0.031 A 
ATOM      4  C4  IND d   1       0.132   0.574   0.640  0.00  0.00     0.051 A 
ATOM      5  C5  IND d   1      -1.139   0.119   0.857  0.00  0.00    -0.031 A 
ATOM      6  C6  IND d   1      -1.619  -1.023   0.247  0.00  0.00     0.015 A 
ATOM      7  C7  IND d   1      -0.838  -1.760  -0.597  0.00  0.00    -0.016 A 
ATOM      8  C8  IND d   1       0.450  -1.297  -0.826  0.00  0.00    -0.047 A 
ATOM      9  C9  IND d   1       0.928  -0.117  -0.243  0.00  0.00    -0.096 A 
ATOM     10  HN1 IND d   1       1.409  -2.511  -2.101  0.00  0.00     0.298 HD
ENDROOT
TORSDOF 0
ENDMDL
