MODEL 1
REMARK minimizedAffinity -3.97458482
REMARK minimizedRMSD -1
REMARK  0 active torsions:
REMARK  status: ('A' for Active; 'I' for Inactive)
ROOT
ATOM      1  N1  IND d   1      -1.374   0.186  -0.365  0.00  0.00    -0.196 N 
ATOM      2  C2  IND d   1      -1.189  -0.989   0.309  0.00  0.00     0.054 A 
ATOM      3  C3  IND d   1       0.129  -1.211   0.513  0.00  0.00    -0.031 A 
ATOM      4  C4  IND d   1       2.149   0.270  -0.082  0.00  0.00     0.051 A 
ATOM      5  C5  IND d   1       2.484   1.422  -0.737  0.00  0.00    -0.031 A 
ATOM      6  C6  IND d   1       1.531   2.239  -1.310  0.00  0.00     0.015 A 
ATOM      7  C7  IND d   1       0.200   1.938  -1.240  0.00  0.00    -0.016 A 
ATOM      8  C8  IND d   1      -0.144   0.766  -0.582  0.00  0.00    -0.047 A 
ATOM      9  C9  IND d   1       0.822  -0.089  -0.035  0.00  0.00    -0.096 A 
ATOM     10  HN1 IND d   1      -2.132   0.508  -0.612  0.00  0.00     0.298 HD
ENDROOT
TORSDOF 0
ENDMDL
