MODEL 1
REMARK minimizedAffinity -2.03708482
REMARK minimizedRMSD -1
REMARK  0 active torsions:
REMARK  status: ('A' for Active; 'I' for Inactive)
ROOT
ATOM      1  N1  IND d   1       1.744  -0.403  -0.933  0.00  0.00    -0.196 N 
ATOM      2  C2  IND d   1       2.073  -1.455  -0.123  0.00  0.00     0.054 A 
ATOM      3  C3  IND d   1       1.140  -1.614   0.842  0.00  0.00    -0.031 A 
ATOM      4  C4  IND d   1      -1.058  -0.328   1.221  0.00  0.00     0.051 A 
ATOM      5  C5  IND d   1      -1.773   0.742   0.761  0.00  0.00    -0.031 A 
ATOM      6  C6  IND d   1      -1.345   1.499  -0.311  0.00  0.00     0.015 A 
ATOM      7  C7  IND d   1      -0.186   1.205  -0.972  0.00  0.00    -0.016 A 
ATOM      8  C8  IND d   1       0.546   0.124  -0.503  0.00  0.00    -0.047 A 
ATOM      9  C9  IND d   1       0.138  -0.622   0.610  0.00  0.00    -0.096 A 
ATOM     10  HN1 IND d   1       2.208  -0.119  -1.598  0.00  0.00     0.298 HD
ENDROOT
TORSDOF 0
ENDMDL
