MODEL 1
REMARK minimizedAffinity -5.15106487
REMARK minimizedRMSD -1
REMARK  0 active torsions:
REMARK  status: ('A' for Active; 'I' for Inactive)
ROOT
ATOM      1  N1  IND d   1      -0.508   1.049   0.443  0.00  0.00    -0.196 N 
ATOM      2  C2  IND d   1      -1.164  -0.074   0.865  0.00  0.00     0.054 A 
ATOM      3  C3  IND d   1      -0.477  -1.182   0.509  0.00  0.00    -0.031 A 
ATOM      4  C4  IND d   1       1.797  -1.385  -0.681  0.00  0.00     0.051 A 
ATOM      5  C5  IND d   1       2.762  -0.636  -1.294  0.00  0.00    -0.031 A 
ATOM      6  C6  IND d   1       2.687   0.740  -1.358  0.00  0.00     0.015 A 
ATOM      7  C7  IND d   1       1.644   1.423  -0.799  0.00  0.00    -0.016 A 
ATOM      8  C8  IND d   1       0.658   0.666  -0.182  0.00  0.00    -0.047 A 
ATOM      9  C9  IND d   1       0.708  -0.734  -0.151  0.00  0.00    -0.096 A 
ATOM     10  HN1 IND d   1      -0.779   1.858   0.550  0.00  0.00     0.298 HD
ENDROOT
TORSDOF 0
ENDMDL
