MODEL 1
REMARK minimizedAffinity -6.00704718
REMARK minimizedRMSD -1
REMARK  0 active torsions:
REMARK  status: ('A' for Active; 'I' for Inactive)
ROOT
ATOM      1  N1  IND d   1      -0.243  -1.216  -0.609  0.00  0.00    -0.196 N 
ATOM      2  C2  IND d   1      -0.883  -0.104  -0.138  0.00  0.00     0.054 A 
ATOM      3  C3  IND d   1      -0.091   0.984  -0.267  0.00  0.00    -0.031 A 
ATOM      4  C4  IND d   1       2.251   1.188  -1.318  0.00  0.00     0.051 A 
ATOM      5  C5  IND d   1       3.260   0.438  -1.852  0.00  0.00    -0.031 A 
ATOM      6  C6  IND d   1       3.151  -0.929  -2.005  0.00  0.00     0.015 A 
ATOM      7  C7  IND d   1       2.018  -1.599  -1.638  0.00  0.00    -0.016 A 
ATOM      8  C8  IND d   1       0.993  -0.841  -1.088  0.00  0.00    -0.047 A 
ATOM      9  C9  IND d   1       1.115   0.540  -0.892  0.00  0.00    -0.096 A 
ATOM     10  HN1 IND d   1      -0.559  -2.016  -0.606  0.00  0.00     0.298 HD
ENDROOT
TORSDOF 0
ENDMDL
