MODEL 1
REMARK minimizedAffinity -3.0334506
REMARK minimizedRMSD -1
REMARK  0 active torsions:
REMARK  status: ('A' for Active; 'I' for Inactive)
ROOT
ATOM      1  N1  IND d   1       0.719   1.890  -1.441  0.00  0.00    -0.196 N 
ATOM      2  C2  IND d   1      -0.492   2.333  -0.986  0.00  0.00     0.054 A 
ATOM      3  C3  IND d   1      -1.169   1.324  -0.394  0.00  0.00    -0.031 A 
ATOM      4  C4  IND d   1      -0.438  -1.108   0.033  0.00  0.00     0.051 A 
ATOM      5  C5  IND d   1       0.571  -1.991  -0.232  0.00  0.00    -0.031 A 
ATOM      6  C6  IND d   1       1.704  -1.618  -0.924  0.00  0.00     0.015 A 
ATOM      7  C7  IND d   1       1.878  -0.339  -1.370  0.00  0.00    -0.016 A 
ATOM      8  C8  IND d   1       0.852   0.560  -1.110  0.00  0.00    -0.047 A 
ATOM      9  C9  IND d   1      -0.319   0.176  -0.445  0.00  0.00    -0.096 A 
ATOM     10  HN1 IND d   1       1.300   2.364  -1.863  0.00  0.00     0.298 HD
ENDROOT
TORSDOF 0
ENDMDL
