MODEL 1
REMARK minimizedAffinity -2.17201996
REMARK minimizedRMSD -1
REMARK  0 active torsions:
REMARK  status: ('A' for Active; 'I' for Inactive)
ROOT
ATOM      1  N1  IND d   1       0.791  -2.326  -0.861  0.00  0.00    -0.196 N 
ATOM      2  C2  IND d   1       1.719  -2.376  -1.865  0.00  0.00     0.054 A 
ATOM      3  C3  IND d   1       2.182  -1.136  -2.139  0.00  0.00    -0.031 A 
ATOM      4  C4  IND d   1       1.633   1.105  -0.998  0.00  0.00     0.051 A 
ATOM      5  C5  IND d   1       0.815   1.662  -0.054  0.00  0.00    -0.031 A 
ATOM      6  C6  IND d   1      -0.068   0.902   0.685  0.00  0.00     0.015 A 
ATOM      7  C7  IND d   1      -0.159  -0.451   0.516  0.00  0.00    -0.016 A 
ATOM      8  C8  IND d   1       0.665  -1.018  -0.446  0.00  0.00    -0.047 A 
ATOM      9  C9  IND d   1       1.532  -0.246  -1.229  0.00  0.00    -0.096 A 
ATOM     10  HN1 IND d   1       0.360  -2.998  -0.543  0.00  0.00     0.298 HD
ENDROOT
TORSDOF 0
ENDMDL
