MODEL 1
REMARK minimizedAffinity -4.19242954
REMARK minimizedRMSD -1
REMARK  0 active torsions:
REMARK  status: ('A' for Active; 'I' for Inactive)
ROOT
ATOM      1  N1  IND d   1      -1.432   1.460   0.486  0.00  0.00    -0.196 N 
ATOM      2  C2  IND d   1      -2.167   0.590   1.242  0.00  0.00     0.054 A 
ATOM      3  C3  IND d   1      -1.651  -0.657   1.160  0.00  0.00    -0.031 A 
ATOM      4  C4  IND d   1       0.454  -1.478  -0.074  0.00  0.00     0.051 A 
ATOM      5  C5  IND d   1       1.433  -1.058  -0.930  0.00  0.00    -0.031 A 
ATOM      6  C6  IND d   1       1.511   0.250  -1.365  0.00  0.00     0.015 A 
ATOM      7  C7  IND d   1       0.614   1.193  -0.948  0.00  0.00    -0.016 A 
ATOM      8  C8  IND d   1      -0.386   0.769  -0.085  0.00  0.00    -0.047 A 
ATOM      9  C9  IND d   1      -0.494  -0.566   0.326  0.00  0.00    -0.096 A 
ATOM     10  HN1 IND d   1      -1.596   2.298   0.384  0.00  0.00     0.298 HD
ENDROOT
TORSDOF 0
ENDMDL
