MODEL 1
REMARK minimizedAffinity -3.82606411
REMARK minimizedRMSD -1
REMARK  0 active torsions:
REMARK  status: ('A' for Active; 'I' for Inactive)
ROOT
ATOM      1  N1  IND d   1       1.852  -1.563  -1.577  0.00  0.00    -0.196 N 
ATOM      2  C2  IND d   1       2.893  -0.679  -1.621  0.00  0.00     0.054 A 
ATOM      3  C3  IND d   1       2.687   0.334  -0.749  0.00  0.00    -0.031 A 
ATOM      4  C4  IND d   1       0.761   0.687   0.923  0.00  0.00     0.051 A 
ATOM      5  C5  IND d   1      -0.442   0.163   1.306  0.00  0.00    -0.031 A 
ATOM      6  C6  IND d   1      -0.951  -0.987   0.739  0.00  0.00     0.015 A 
ATOM      7  C7  IND d   1      -0.267  -1.666  -0.230  0.00  0.00    -0.016 A 
ATOM      8  C8  IND d   1       0.951  -1.134  -0.627  0.00  0.00    -0.047 A 
ATOM      9  C9  IND d   1       1.453   0.056  -0.085  0.00  0.00    -0.096 A 
ATOM     10  HN1 IND d   1       1.772  -2.270  -2.061  0.00  0.00     0.298 HD
ENDROOT
TORSDOF 0
ENDMDL
