MODEL 1
REMARK minimizedAffinity -6.50235748
REMARK minimizedRMSD -1
REMARK  0 active torsions:
REMARK  status: ('A' for Active; 'I' for Inactive)
ROOT
ATOM      1  N1  IND d   1      -0.663   0.986   0.029  0.00  0.00    -0.196 N 
ATOM      2  C2  IND d   1      -0.635  -0.180   0.742  0.00  0.00     0.054 A 
ATOM      3  C3  IND d   1       0.380  -0.967   0.319  0.00  0.00    -0.031 A 
ATOM      4  C4  IND d   1       2.180  -0.497  -1.460  0.00  0.00     0.051 A 
ATOM      5  C5  IND d   1       2.547   0.418  -2.406  0.00  0.00    -0.031 A 
ATOM      6  C6  IND d   1       1.850   1.595  -2.590  0.00  0.00     0.015 A 
ATOM      7  C7  IND d   1       0.763   1.906  -1.825  0.00  0.00    -0.016 A 
ATOM      8  C8  IND d   1       0.383   0.976  -0.868  0.00  0.00    -0.047 A 
ATOM      9  C9  IND d   1       1.061  -0.240  -0.705  0.00  0.00    -0.096 A 
ATOM     10  HN1 IND d   1      -1.237   1.619   0.124  0.00  0.00     0.298 HD
ENDROOT
TORSDOF 0
ENDMDL
