MODEL 1
REMARK minimizedAffinity -1.96920598
REMARK minimizedRMSD -1
REMARK  0 active torsions:
REMARK  status: ('A' for Active; 'I' for Inactive)
ROOT
ATOM      1  N1  IND d   1       0.271   1.108   0.620  0.00  0.00    -0.196 N 
ATOM      2  C2  IND d   1       0.141  -0.016  -0.148  0.00  0.00     0.054 A 
ATOM      3  C3  IND d   1      -0.905  -0.759   0.278  0.00  0.00    -0.031 A 
ATOM      4  C4  IND d   1      -2.602  -0.272   2.152  0.00  0.00     0.051 A 
ATOM      5  C5  IND d   1      -2.872   0.614   3.156  0.00  0.00    -0.031 A 
ATOM      6  C6  IND d   1      -2.095   1.735   3.369  0.00  0.00     0.015 A 
ATOM      7  C7  IND d   1      -1.020   2.017   2.575  0.00  0.00    -0.016 A 
ATOM      8  C8  IND d   1      -0.738   1.116   1.559  0.00  0.00    -0.047 A 
ATOM      9  C9  IND d   1      -1.498  -0.045   1.364  0.00  0.00    -0.096 A 
ATOM     10  HN1 IND d   1       0.880   1.708   0.532  0.00  0.00     0.298 HD
ENDROOT
TORSDOF 0
ENDMDL
