MODEL 1
REMARK minimizedAffinity -5.56339169
REMARK minimizedRMSD -1
REMARK  0 active torsions:
REMARK  status: ('A' for Active; 'I' for Inactive)
ROOT
ATOM      1  N1  IND d   1       0.864  -2.437  -0.407  0.00  0.00    -0.196 N 
ATOM      2  C2  IND d   1      -0.478  -2.485  -0.151  0.00  0.00     0.054 A 
ATOM      3  C3  IND d   1      -1.020  -1.251  -0.248  0.00  0.00    -0.031 A 
ATOM      4  C4  IND d   1       0.089   0.975  -0.915  0.00  0.00     0.051 A 
ATOM      5  C5  IND d   1       1.304   1.528  -1.206  0.00  0.00    -0.031 A 
ATOM      6  C6  IND d   1       2.458   0.772  -1.249  0.00  0.00     0.015 A 
ATOM      7  C7  IND d   1       2.437  -0.573  -1.013  0.00  0.00    -0.016 A 
ATOM      8  C8  IND d   1       1.206  -1.137  -0.710  0.00  0.00    -0.047 A 
ATOM      9  C9  IND d   1       0.038  -0.368  -0.623  0.00  0.00    -0.096 A 
ATOM     10  HN1 IND d   1       1.404  -3.106  -0.383  0.00  0.00     0.298 HD
ENDROOT
TORSDOF 0
ENDMDL
