MODEL 1
REMARK minimizedAffinity -3.97392321
REMARK minimizedRMSD -1
REMARK  0 active torsions:
REMARK  status: ('A' for Active; 'I' for Inactive)
ROOT
ATOM      1  N1  IND d   1      -0.886  -1.236  -0.476  0.00  0.00    -0.196 N 
ATOM      2  C2  IND d   1      -0.459  -2.529  -0.604  0.00  0.00     0.054 A 
ATOM      3  C3  IND d   1       0.862  -2.562  -0.889  0.00  0.00    -0.031 A 
ATOM      4  C4  IND d   1       2.541  -0.621  -1.093  0.00  0.00     0.051 A 
ATOM      5  C5  IND d   1       2.615   0.744  -1.094  0.00  0.00    -0.031 A 
ATOM      6  C6  IND d   1       1.503   1.534  -0.882  0.00  0.00     0.015 A 
ATOM      7  C7  IND d   1       0.274   0.986  -0.649  0.00  0.00    -0.016 A 
ATOM      8  C8  IND d   1       0.194  -0.399  -0.654  0.00  0.00    -0.047 A 
ATOM      9  C9  IND d   1       1.310  -1.206  -0.911  0.00  0.00    -0.096 A 
ATOM     10  HN1 IND d   1      -1.693  -0.988  -0.313  0.00  0.00     0.298 HD
ENDROOT
TORSDOF 0
ENDMDL
