MODEL 1
REMARK minimizedAffinity -2.21284461
REMARK minimizedRMSD -1
REMARK  0 active torsions:
REMARK  status: ('A' for Active; 'I' for Inactive)
ROOT
ATOM      1  N1  IND d   1       1.550  -1.952  -1.226  0.00  0.00    -0.196 N 
ATOM      2  C2  IND d   1       2.611  -1.122  -1.459  0.00  0.00     0.054 A 
ATOM      3  C3  IND d   1       2.348   0.120  -0.995  0.00  0.00    -0.031 A 
ATOM      4  C4  IND d   1       0.282   0.990   0.271  0.00  0.00     0.051 A 
ATOM      5  C5  IND d   1      -0.964   0.613   0.687  0.00  0.00    -0.031 A 
ATOM      6  C6  IND d   1      -1.445  -0.664   0.485  0.00  0.00     0.015 A 
ATOM      7  C7  IND d   1      -0.689  -1.620  -0.134  0.00  0.00    -0.016 A 
ATOM      8  C8  IND d   1       0.574  -1.239  -0.564  0.00  0.00    -0.047 A 
ATOM      9  C9  IND d   1       1.051   0.068  -0.399  0.00  0.00    -0.096 A 
ATOM     10  HN1 IND d   1       1.499  -2.779  -1.455  0.00  0.00     0.298 HD
ENDROOT
TORSDOF 0
ENDMDL
