MODEL 1
REMARK minimizedAffinity -5.34961939
REMARK minimizedRMSD -1
REMARK  0 active torsions:
REMARK  status: ('A' for Active; 'I' for Inactive)
ROOT
ATOM      1  N1  IND d   1      -1.064  -0.788   0.054  0.00  0.00    -0.196 N 
ATOM      2  C2  IND d   1      -1.534   0.396   0.550  0.00  0.00     0.054 A 
ATOM      3  C3  IND d   1      -0.552   1.326   0.555  0.00  0.00    -0.031 A 
ATOM      4  C4  IND d   1       1.870   1.153  -0.299  0.00  0.00     0.051 A 
ATOM      5  C5  IND d   1       2.772   0.260  -0.806  0.00  0.00    -0.031 A 
ATOM      6  C6  IND d   1       2.434  -1.054  -1.060  0.00  0.00     0.015 A 
ATOM      7  C7  IND d   1       1.173  -1.523  -0.826  0.00  0.00    -0.016 A 
ATOM      8  C8  IND d   1       0.256  -0.621  -0.305  0.00  0.00    -0.047 A 
ATOM      9  C9  IND d   1       0.604   0.703  -0.005  0.00  0.00    -0.096 A 
ATOM     10  HN1 IND d   1      -1.516  -1.516  -0.022  0.00  0.00     0.298 HD
ENDROOT
TORSDOF 0
ENDMDL
