MODEL 1
REMARK minimizedAffinity 0.679835796
REMARK minimizedRMSD -1
REMARK  1 active torsions:
REMARK  status: ('A' for Active; 'I' for Inactive)
REMARK    1  A    between atoms: N_2  and  C1_3 
ROOT
ATOM      1  C1  UNL d   1       3.694  -5.931  -3.527  0.00  0.00     0.143 A 
ATOM      2  C2  UNL d   1       3.000  -5.996  -4.740  0.00  0.00    -0.057 A 
ATOM      3  C3  UNL d   1       3.678  -6.000  -5.966  0.00  0.00     0.033 A 
ATOM      4  C4  UNL d   1       5.065  -5.909  -6.000  0.00  0.00    -0.042 A 
ATOM      5  C5  UNL d   1       5.774  -5.818  -4.808  0.00  0.00     0.033 A 
ATOM      6  C6  UNL d   1       5.092  -5.821  -3.587  0.00  0.00    -0.057 A 
ENDROOT
BRANCH   1   7
ATOM      7  N   UNL d   1       3.073  -5.824  -2.281  0.00  0.00    -0.732 N 
ATOM      8  C   UNL d   1       3.790  -5.289  -1.143  0.00  0.00     0.284 C 
ATOM      9  H3  UNL d   1       2.110  -5.505  -2.353  0.00  0.00     0.395 HD
ENDBRANCH   1   7
TORSDOF 1
ENDMDL
