MODEL 1
REMARK minimizedAffinity 7.35435057
REMARK minimizedRMSD -1
REMARK  1 active torsions:
REMARK  status: ('A' for Active; 'I' for Inactive)
REMARK    1  A    between atoms: N_2  and  C1_3 
ROOT
ATOM      1  C1  UNL d   1       1.517  -4.328   4.560  0.00  0.00     0.143 A 
ATOM      2  C2  UNL d   1       1.226  -2.960   4.510  0.00  0.00    -0.057 A 
ATOM      3  C3  UNL d   1       1.432  -2.216   3.342  0.00  0.00     0.033 A 
ATOM      4  C4  UNL d   1       1.962  -2.823   2.208  0.00  0.00    -0.042 A 
ATOM      5  C5  UNL d   1       2.282  -4.176   2.242  0.00  0.00     0.033 A 
ATOM      6  C6  UNL d   1       2.067  -4.915   3.410  0.00  0.00    -0.057 A 
ENDROOT
BRANCH   1   7
ATOM      7  N   UNL d   1       1.426  -5.100   5.720  0.00  0.00    -0.732 N 
ATOM      8  C   UNL d   1       0.238  -5.878   5.998  0.00  0.00     0.284 C 
ATOM      9  H3  UNL d   1       2.297  -5.580   5.936  0.00  0.00     0.395 HD
ENDBRANCH   1   7
TORSDOF 1
ENDMDL
