MODEL 1
REMARK minimizedAffinity 3.59450769
REMARK minimizedRMSD -1
REMARK  1 active torsions:
REMARK  status: ('A' for Active; 'I' for Inactive)
REMARK    1  A    between atoms: N_2  and  C1_3 
ROOT
ATOM      1  C1  UNL d   1       3.584  -3.054   3.623  0.00  0.00     0.143 A 
ATOM      2  C2  UNL d   1       2.701  -4.124   3.803  0.00  0.00    -0.057 A 
ATOM      3  C3  UNL d   1       1.371  -4.048   3.372  0.00  0.00     0.033 A 
ATOM      4  C4  UNL d   1       0.892  -2.885   2.777  0.00  0.00    -0.042 A 
ATOM      5  C5  UNL d   1       1.746  -1.800   2.611  0.00  0.00     0.033 A 
ATOM      6  C6  UNL d   1       3.074  -1.885   3.038  0.00  0.00    -0.057 A 
ENDROOT
BRANCH   1   7
ATOM      7  N   UNL d   1       4.890  -3.032   4.119  0.00  0.00    -0.732 N 
ATOM      8  C   UNL d   1       6.000  -2.684   3.258  0.00  0.00     0.284 C 
ATOM      9  H3  UNL d   1       4.945  -2.628   5.051  0.00  0.00     0.395 HD
ENDBRANCH   1   7
TORSDOF 1
ENDMDL
