MODEL 1
REMARK minimizedAffinity 11.2874813
REMARK minimizedRMSD -1
REMARK  1 active torsions:
REMARK  status: ('A' for Active; 'I' for Inactive)
REMARK    1  A    between atoms: N_2  and  C1_3 
ROOT
ATOM      1  C1  UNL d   1       2.661  -5.986  -2.359  0.00  0.00     0.143 A 
ATOM      2  C2  UNL d   1       3.990  -5.976  -2.795  0.00  0.00    -0.057 A 
ATOM      3  C3  UNL d   1       5.054  -5.993  -1.884  0.00  0.00     0.033 A 
ATOM      4  C4  UNL d   1       4.806  -5.990  -0.516  0.00  0.00    -0.042 A 
ATOM      5  C5  UNL d   1       3.493  -5.975  -0.059  0.00  0.00     0.033 A 
ATOM      6  C6  UNL d   1       2.435  -5.965  -0.973  0.00  0.00    -0.057 A 
ENDROOT
BRANCH   1   7
ATOM      7  N   UNL d   1       1.561  -5.870  -3.212  0.00  0.00    -0.732 N 
ATOM      8  C   UNL d   1       1.747  -5.580  -4.618  0.00  0.00     0.284 C 
ATOM      9  H3  UNL d   1       0.847  -6.570  -3.022  0.00  0.00     0.395 HD
ENDBRANCH   1   7
TORSDOF 1
ENDMDL
