MODEL 1
REMARK minimizedAffinity 1.69210672
REMARK minimizedRMSD -1
REMARK  1 active torsions:
REMARK  status: ('A' for Active; 'I' for Inactive)
REMARK    1  A    between atoms: C1_2  and  C2_3 
ROOT
ATOM      1  C2  UNL d   1       0.349   3.223  -0.143  0.00  0.00    -0.073 A 
ATOM      2  C3  UNL d   1       0.041   2.256  -1.106  0.00  0.00    -0.002 A 
ATOM      3  C4  UNL d   1       0.038   0.901  -0.769  0.00  0.00     0.004 A 
ATOM      4  C5  UNL d   1       0.336   0.502   0.534  0.00  0.00    -0.004 A 
ATOM      5  C6  UNL d   1       0.635   1.454   1.513  0.00  0.00    -0.075 A 
ATOM      6  C7  UNL d   1       0.960   1.041   2.918  0.00  0.00     0.076 C 
ATOM      7  C8  UNL d   1       0.638   2.812   1.166  0.00  0.00     0.001 A 
ENDROOT
BRANCH   1   8
ATOM      8  C1  UNL d   1       0.347   4.687  -0.501  0.00  0.00     0.053 C 
ATOM      9  C   UNL d   1       0.313   4.906  -2.005  0.00  0.00     0.018 C 
ENDBRANCH   1   8
TORSDOF 1
ENDMDL
