MODEL 1
REMARK minimizedAffinity -3.9077704
REMARK minimizedRMSD -1
REMARK  1 active torsions:
REMARK  status: ('A' for Active; 'I' for Inactive)
REMARK    1  A    between atoms: C1_2  and  C2_3 
ROOT
ATOM      1  C2  UNL d   1       2.177   1.351   3.146  0.00  0.00    -0.073 A 
ATOM      2  C3  UNL d   1       1.255   1.013   2.148  0.00  0.00    -0.002 A 
ATOM      3  C4  UNL d   1       1.137  -0.308   1.715  0.00  0.00     0.004 A 
ATOM      4  C5  UNL d   1       1.933  -1.305   2.280  0.00  0.00    -0.004 A 
ATOM      5  C6  UNL d   1       2.851  -0.990   3.286  0.00  0.00    -0.075 A 
ATOM      6  C7  UNL d   1       3.715  -2.050   3.902  0.00  0.00     0.076 C 
ATOM      7  C8  UNL d   1       2.966   0.340   3.713  0.00  0.00     0.001 A 
ENDROOT
BRANCH   1   8
ATOM      8  C1  UNL d   1       2.304   2.775   3.620  0.00  0.00     0.053 C 
ATOM      9  C   UNL d   1       3.200   2.891   4.843  0.00  0.00     0.018 C 
ENDBRANCH   1   8
TORSDOF 1
ENDMDL
