MODEL 1
REMARK minimizedAffinity -3.01538825
REMARK minimizedRMSD -1
REMARK  1 active torsions:
REMARK  status: ('A' for Active; 'I' for Inactive)
REMARK    1  A    between atoms: C1_2  and  C2_3 
ROOT
ATOM      1  C2  UNL d   1       1.121   2.983   1.531  0.00  0.00    -0.073 A 
ATOM      2  C3  UNL d   1       2.235   3.727   1.936  0.00  0.00    -0.002 A 
ATOM      3  C4  UNL d   1       2.700   4.784   1.153  0.00  0.00     0.004 A 
ATOM      4  C5  UNL d   1       2.053   5.113  -0.038  0.00  0.00    -0.004 A 
ATOM      5  C6  UNL d   1       0.931   4.389  -0.455  0.00  0.00    -0.075 A 
ATOM      6  C7  UNL d   1       0.226   4.728  -1.735  0.00  0.00     0.076 C 
ATOM      7  C8  UNL d   1       0.472   3.327   0.336  0.00  0.00     0.001 A 
ENDROOT
BRANCH   1   8
ATOM      8  C1  UNL d   1       0.611   1.845   2.376  0.00  0.00     0.053 C 
ATOM      9  C   UNL d   1       0.725   0.508   1.661  0.00  0.00     0.018 C 
ENDBRANCH   1   8
TORSDOF 1
ENDMDL
