MODEL 1
REMARK minimizedAffinity -1.39877677
REMARK minimizedRMSD -1
REMARK  1 active torsions:
REMARK  status: ('A' for Active; 'I' for Inactive)
REMARK    1  A    between atoms: C1_2  and  C2_3 
ROOT
ATOM      1  C2  UNL d   1       0.397   2.800   0.185  0.00  0.00    -0.073 A 
ATOM      2  C3  UNL d   1       0.303   2.030  -0.980  0.00  0.00    -0.002 A 
ATOM      3  C4  UNL d   1       0.412   0.640  -0.917  0.00  0.00     0.004 A 
ATOM      4  C5  UNL d   1       0.608   0.006   0.310  0.00  0.00    -0.004 A 
ATOM      5  C6  UNL d   1       0.692   0.758   1.487  0.00  0.00    -0.075 A 
ATOM      6  C7  UNL d   1       0.905   0.091   2.814  0.00  0.00     0.076 C 
ATOM      7  C8  UNL d   1       0.585   2.153   1.415  0.00  0.00     0.001 A 
ENDROOT
BRANCH   1   8
ATOM      8  C1  UNL d   1       0.273   4.300   0.123  0.00  0.00     0.053 C 
ATOM      9  C   UNL d   1       0.825   4.864  -1.177  0.00  0.00     0.018 C 
ENDBRANCH   1   8
TORSDOF 1
ENDMDL
