MODEL 1
REMARK minimizedAffinity 3.67773032
REMARK minimizedRMSD -1
REMARK  1 active torsions:
REMARK  status: ('A' for Active; 'I' for Inactive)
REMARK    1  A    between atoms: C1_2  and  C2_3 
ROOT
ATOM      1  C2  UNL d   1       0.389   2.935  -0.952  0.00  0.00    -0.073 A 
ATOM      2  C3  UNL d   1       0.789   3.534   0.247  0.00  0.00    -0.002 A 
ATOM      3  C4  UNL d   1       0.849   4.924   0.355  0.00  0.00     0.004 A 
ATOM      4  C5  UNL d   1       0.503   5.728  -0.731  0.00  0.00    -0.004 A 
ATOM      5  C6  UNL d   1       0.089   5.148  -1.934  0.00  0.00    -0.075 A 
ATOM      6  C7  UNL d   1      -0.284   5.999  -3.112  0.00  0.00     0.076 C 
ATOM      7  C8  UNL d   1       0.035   3.751  -2.036  0.00  0.00     0.001 A 
ENDROOT
BRANCH   1   8
ATOM      8  C1  UNL d   1       0.317   1.434  -1.072  0.00  0.00     0.053 C 
ATOM      9  C   UNL d   1       0.473   0.747   0.276  0.00  0.00     0.018 C 
ENDBRANCH   1   8
TORSDOF 1
ENDMDL
