MODEL 1
REMARK minimizedAffinity 4.56780577
REMARK minimizedRMSD -1
REMARK  1 active torsions:
REMARK  status: ('A' for Active; 'I' for Inactive)
REMARK    1  A    between atoms: C1_2  and  C2_3 
ROOT
ATOM      1  C2  UNL d   1       1.097   3.979   0.868  0.00  0.00    -0.073 A 
ATOM      2  C3  UNL d   1       2.058   4.356   1.813  0.00  0.00    -0.002 A 
ATOM      3  C4  UNL d   1       2.368   3.510   2.879  0.00  0.00     0.004 A 
ATOM      4  C5  UNL d   1       1.726   2.278   3.006  0.00  0.00    -0.004 A 
ATOM      5  C6  UNL d   1       0.771   1.879   2.065  0.00  0.00    -0.075 A 
ATOM      6  C7  UNL d   1       0.071   0.558   2.190  0.00  0.00     0.076 C 
ATOM      7  C8  UNL d   1       0.464   2.735   0.999  0.00  0.00     0.001 A 
ENDROOT
BRANCH   1   8
ATOM      8  C1  UNL d   1       0.764   4.887  -0.288  0.00  0.00     0.053 C 
ATOM      9  C   UNL d   1       0.315   4.107  -1.514  0.00  0.00     0.018 C 
ENDBRANCH   1   8
TORSDOF 1
ENDMDL
