MODEL 1
REMARK minimizedAffinity -6.57993698
REMARK minimizedRMSD -1
REMARK  1 active torsions:
REMARK  status: ('A' for Active; 'I' for Inactive)
REMARK    1  A    between atoms: C1_2  and  C2_3 
ROOT
ATOM      1  C2  UNL d   1      -0.345   2.722   0.443  0.00  0.00    -0.073 A 
ATOM      2  C3  UNL d   1      -0.727   1.832  -0.567  0.00  0.00    -0.002 A 
ATOM      3  C4  UNL d   1      -0.935   2.290  -1.868  0.00  0.00     0.004 A 
ATOM      4  C5  UNL d   1      -0.757   3.639  -2.175  0.00  0.00    -0.004 A 
ATOM      5  C6  UNL d   1      -0.364   4.542  -1.182  0.00  0.00    -0.075 A 
ATOM      6  C7  UNL d   1      -0.170   5.996  -1.495  0.00  0.00     0.076 C 
ATOM      7  C8  UNL d   1      -0.159   4.075   0.123  0.00  0.00     0.001 A 
ENDROOT
BRANCH   1   8
ATOM      8  C1  UNL d   1      -0.113   2.232   1.849  0.00  0.00     0.053 C 
ATOM      9  C   UNL d   1       0.465   0.826   1.874  0.00  0.00     0.018 C 
ENDBRANCH   1   8
TORSDOF 1
ENDMDL
