MODEL 1
REMARK minimizedAffinity 9.7215929
REMARK minimizedRMSD -1
REMARK  1 active torsions:
REMARK  status: ('A' for Active; 'I' for Inactive)
REMARK    1  A    between atoms: C1_2  and  C2_3 
ROOT
ATOM      1  C2  UNL d   1       1.156  -3.770   0.039  0.00  0.00    -0.081 A 
ATOM      2  C3  UNL d   1       2.298  -3.244   0.654  0.00  0.00     0.006 A 
ATOM      3  C4  UNL d   1       2.881  -2.068   0.175  0.00  0.00     0.002 A 
ATOM      4  C5  UNL d   1       2.328  -1.395  -0.919  0.00  0.00    -0.080 A 
ATOM      5  C6  UNL d   1       2.926  -0.116  -1.424  0.00  0.00     0.076 C 
ATOM      6  C7  UNL d   1       1.196  -1.930  -1.544  0.00  0.00     0.002 A 
ATOM      7  C8  UNL d   1       0.613  -3.106  -1.067  0.00  0.00     0.006 A 
ENDROOT
BRANCH   1   8
ATOM      8  C1  UNL d   1       0.487  -5.002   0.592  0.00  0.00     0.054 C 
ATOM      9  C   UNL d   1       1.510  -5.996   1.124  0.00  0.00     0.018 C 
ENDBRANCH   1   8
TORSDOF 1
ENDMDL
