MODEL 1
REMARK minimizedAffinity -4.56757307
REMARK minimizedRMSD -1
REMARK  1 active torsions:
REMARK  status: ('A' for Active; 'I' for Inactive)
REMARK    1  A    between atoms: C1_2  and  C2_3 
ROOT
ATOM      1  C2  UNL d   1       0.402  -3.849   0.463  0.00  0.00    -0.081 A 
ATOM      2  C3  UNL d   1       1.602  -3.280   0.021  0.00  0.00     0.006 A 
ATOM      3  C4  UNL d   1       1.627  -1.975  -0.478  0.00  0.00     0.002 A 
ATOM      4  C5  UNL d   1       0.454  -1.215  -0.535  0.00  0.00    -0.080 A 
ATOM      5  C6  UNL d   1       0.472   0.197  -1.040  0.00  0.00     0.076 C 
ATOM      6  C7  UNL d   1      -0.749  -1.789  -0.110  0.00  0.00     0.002 A 
ATOM      7  C8  UNL d   1      -0.774  -3.094   0.388  0.00  0.00     0.006 A 
ENDROOT
BRANCH   1   8
ATOM      8  C1  UNL d   1       0.383  -5.232   1.061  0.00  0.00     0.054 C 
ATOM      9  C   UNL d   1       1.652  -6.000   0.719  0.00  0.00     0.018 C 
ENDBRANCH   1   8
TORSDOF 1
ENDMDL
