MODEL 1
REMARK minimizedAffinity -2.40452337
REMARK minimizedRMSD -1
REMARK  1 active torsions:
REMARK  status: ('A' for Active; 'I' for Inactive)
REMARK    1  A    between atoms: C1_2  and  C2_3 
ROOT
ATOM      1  C2  UNL d   1       1.428  -2.830   0.221  0.00  0.00    -0.081 A 
ATOM      2  C3  UNL d   1       2.181  -2.238  -0.801  0.00  0.00     0.006 A 
ATOM      3  C4  UNL d   1       1.778  -1.027  -1.367  0.00  0.00     0.002 A 
ATOM      4  C5  UNL d   1       0.621  -0.382  -0.916  0.00  0.00    -0.080 A 
ATOM      5  C6  UNL d   1       0.194   0.934  -1.494  0.00  0.00     0.076 C 
ATOM      6  C7  UNL d   1      -0.141  -0.982   0.093  0.00  0.00     0.002 A 
ATOM      7  C8  UNL d   1       0.261  -2.194   0.659  0.00  0.00     0.006 A 
ENDROOT
BRANCH   1   8
ATOM      8  C1  UNL d   1       1.895  -4.104   0.878  0.00  0.00     0.054 C 
ATOM      9  C   UNL d   1       0.721  -5.005   1.234  0.00  0.00     0.018 C 
ENDBRANCH   1   8
TORSDOF 1
ENDMDL
