MODEL 1
REMARK minimizedAffinity 1.98806357
REMARK minimizedRMSD -1
REMARK  1 active torsions:
REMARK  status: ('A' for Active; 'I' for Inactive)
REMARK    1  A    between atoms: C1_2  and  C2_3 
ROOT
ATOM      1  C2  UNL d   1       0.213  -4.050   0.747  0.00  0.00    -0.081 A 
ATOM      2  C3  UNL d   1       1.514  -3.563   0.568  0.00  0.00     0.006 A 
ATOM      3  C4  UNL d   1       1.726  -2.306  -0.004  0.00  0.00     0.002 A 
ATOM      4  C5  UNL d   1       0.643  -1.513  -0.399  0.00  0.00    -0.080 A 
ATOM      5  C6  UNL d   1       0.857  -0.150  -0.986  0.00  0.00     0.076 C 
ATOM      6  C7  UNL d   1      -0.655  -2.007  -0.235  0.00  0.00     0.002 A 
ATOM      7  C8  UNL d   1      -0.869  -3.264   0.336  0.00  0.00     0.006 A 
ENDROOT
BRANCH   1   8
ATOM      8  C1  UNL d   1      -0.021  -5.377   1.423  0.00  0.00     0.054 C 
ATOM      9  C   UNL d   1       1.287  -6.000   1.889  0.00  0.00     0.018 C 
ENDBRANCH   1   8
TORSDOF 1
ENDMDL
