MODEL 1
REMARK minimizedAffinity 8.53239441
REMARK minimizedRMSD -1
REMARK  1 active torsions:
REMARK  status: ('A' for Active; 'I' for Inactive)
REMARK    1  A    between atoms: C1_2  and  C2_3 
ROOT
ATOM      1  C2  UNL d   1       0.468  -1.221  -1.158  0.00  0.00    -0.081 A 
ATOM      2  C3  UNL d   1       1.003  -2.500  -1.358  0.00  0.00     0.006 A 
ATOM      3  C4  UNL d   1       2.122  -2.920  -0.635  0.00  0.00     0.002 A 
ATOM      4  C5  UNL d   1       2.719  -2.073   0.304  0.00  0.00    -0.080 A 
ATOM      5  C6  UNL d   1       3.903  -2.523   1.109  0.00  0.00     0.076 C 
ATOM      6  C7  UNL d   1       2.196  -0.789   0.492  0.00  0.00     0.002 A 
ATOM      7  C8  UNL d   1       1.077  -0.368  -0.231  0.00  0.00     0.006 A 
ENDROOT
BRANCH   1   8
ATOM      8  C1  UNL d   1      -0.778  -0.788  -1.888  0.00  0.00     0.054 C 
ATOM      9  C   UNL d   1      -1.973  -1.646  -1.500  0.00  0.00     0.018 C 
ENDBRANCH   1   8
TORSDOF 1
ENDMDL
