MODEL 1
REMARK minimizedAffinity -2.26881146
REMARK minimizedRMSD -1
REMARK  1 active torsions:
REMARK  status: ('A' for Active; 'I' for Inactive)
REMARK    1  A    between atoms: C1_2  and  C2_3 
ROOT
ATOM      1  C2  UNL d   1       0.700  -3.082   0.260  0.00  0.00    -0.081 A 
ATOM      2  C3  UNL d   1       2.095  -3.048   0.373  0.00  0.00     0.006 A 
ATOM      3  C4  UNL d   1       2.804  -1.889   0.048  0.00  0.00     0.002 A 
ATOM      4  C5  UNL d   1       2.130  -0.743  -0.386  0.00  0.00    -0.080 A 
ATOM      5  C6  UNL d   1       2.876   0.518  -0.709  0.00  0.00     0.076 C 
ATOM      6  C7  UNL d   1       0.737  -0.782  -0.516  0.00  0.00     0.002 A 
ATOM      7  C8  UNL d   1       0.028  -1.941  -0.192  0.00  0.00     0.006 A 
ENDROOT
BRANCH   1   8
ATOM      8  C1  UNL d   1      -0.072  -4.310   0.671  0.00  0.00     0.054 C 
ATOM      9  C   UNL d   1       0.859  -5.420   1.134  0.00  0.00     0.018 C 
ENDBRANCH   1   8
TORSDOF 1
ENDMDL
