MODEL 1
REMARK minimizedAffinity -6.41804409
REMARK minimizedRMSD -1
REMARK  1 active torsions:
REMARK  status: ('A' for Active; 'I' for Inactive)
REMARK    1  A    between atoms: C1_2  and  C2_3 
ROOT
ATOM      1  C2  UNL d   1       0.637  -3.302   0.119  0.00  0.00    -0.081 A 
ATOM      2  C3  UNL d   1      -0.260  -2.316  -0.309  0.00  0.00     0.006 A 
ATOM      3  C4  UNL d   1       0.169  -0.999  -0.490  0.00  0.00     0.002 A 
ATOM      4  C5  UNL d   1       1.502  -0.648  -0.254  0.00  0.00    -0.080 A 
ATOM      5  C6  UNL d   1       1.982   0.756  -0.473  0.00  0.00     0.076 C 
ATOM      6  C7  UNL d   1       2.394  -1.629   0.191  0.00  0.00     0.002 A 
ATOM      7  C8  UNL d   1       1.966  -2.946   0.373  0.00  0.00     0.006 A 
ENDROOT
BRANCH   1   8
ATOM      8  C1  UNL d   1       0.192  -4.736   0.253  0.00  0.00     0.054 C 
ATOM      9  C   UNL d   1       1.338  -5.630   0.707  0.00  0.00     0.018 C 
ENDBRANCH   1   8
TORSDOF 1
ENDMDL
