MODEL 1
REMARK minimizedAffinity -2.31885314
REMARK minimizedRMSD -1
REMARK  1 active torsions:
REMARK  status: ('A' for Active; 'I' for Inactive)
REMARK    1  A    between atoms: C1_2  and  C2_3 
ROOT
ATOM      1  C2  UNL d   1       0.812  -1.698  -0.353  0.00  0.00    -0.081 A 
ATOM      2  C3  UNL d   1       1.929  -2.538  -0.267  0.00  0.00     0.006 A 
ATOM      3  C4  UNL d   1       1.839  -3.773   0.378  0.00  0.00     0.002 A 
ATOM      4  C5  UNL d   1       0.629  -4.193   0.941  0.00  0.00    -0.080 A 
ATOM      5  C6  UNL d   1       0.511  -5.530   1.610  0.00  0.00     0.076 C 
ATOM      6  C7  UNL d   1      -0.483  -3.347   0.871  0.00  0.00     0.002 A 
ATOM      7  C8  UNL d   1      -0.393  -2.111   0.226  0.00  0.00     0.006 A 
ENDROOT
BRANCH   1   8
ATOM      8  C1  UNL d   1       0.889  -0.394  -1.104  0.00  0.00     0.054 C 
ATOM      9  C   UNL d   1      -0.063  -0.382  -2.292  0.00  0.00     0.018 C 
ENDBRANCH   1   8
TORSDOF 1
ENDMDL
