MODEL 1
REMARK minimizedAffinity -0.971936226
REMARK minimizedRMSD -1
REMARK  1 active torsions:
REMARK  status: ('A' for Active; 'I' for Inactive)
REMARK    1  A    between atoms: C1_2  and  C2_3 
ROOT
ATOM      1  C2  UNL d   1       1.394  -3.376  -0.007  0.00  0.00    -0.081 A 
ATOM      2  C3  UNL d   1       0.024  -3.105  -0.110  0.00  0.00     0.006 A 
ATOM      3  C4  UNL d   1      -0.419  -1.848  -0.528  0.00  0.00     0.002 A 
ATOM      4  C5  UNL d   1       0.498  -0.845  -0.857  0.00  0.00    -0.080 A 
ATOM      5  C6  UNL d   1       0.035   0.499  -1.336  0.00  0.00     0.076 C 
ATOM      6  C7  UNL d   1       1.867  -1.110  -0.737  0.00  0.00     0.002 A 
ATOM      7  C8  UNL d   1       2.311  -2.366  -0.319  0.00  0.00     0.006 A 
ENDROOT
BRANCH   1   8
ATOM      8  C1  UNL d   1       1.876  -4.751   0.381  0.00  0.00     0.054 C 
ATOM      9  C   UNL d   1       0.735  -5.610   0.905  0.00  0.00     0.018 C 
ENDBRANCH   1   8
TORSDOF 1
ENDMDL
