MODEL 1
REMARK minimizedAffinity -2.14014173
REMARK minimizedRMSD -1
REMARK  1 active torsions:
REMARK  status: ('A' for Active; 'I' for Inactive)
REMARK    1  A    between atoms: C1_2  and  C2_3 
ROOT
ATOM      1  C2  UNL d   1       1.560  -3.520   0.624  0.00  0.00    -0.081 A 
ATOM      2  C3  UNL d   1       0.203  -3.283   0.374  0.00  0.00     0.006 A 
ATOM      3  C4  UNL d   1      -0.190  -2.260  -0.492  0.00  0.00     0.002 A 
ATOM      4  C5  UNL d   1       0.767  -1.462  -1.128  0.00  0.00    -0.080 A 
ATOM      5  C6  UNL d   1       0.360  -0.380  -2.084  0.00  0.00     0.076 C 
ATOM      6  C7  UNL d   1       2.123  -1.688  -0.865  0.00  0.00     0.002 A 
ATOM      7  C8  UNL d   1       2.516  -2.710   0.001  0.00  0.00     0.006 A 
ENDROOT
BRANCH   1   8
ATOM      8  C1  UNL d   1       1.988  -4.664   1.507  0.00  0.00     0.054 C 
ATOM      9  C   UNL d   1       1.515  -6.000   0.951  0.00  0.00     0.018 C 
ENDBRANCH   1   8
TORSDOF 1
ENDMDL
