MODEL 1
REMARK minimizedAffinity 12.4085836
REMARK minimizedRMSD -1
REMARK  3 active torsions:
REMARK  status: ('A' for Active; 'I' for Inactive)
REMARK    1  A    between atoms: C3'_2  and  C2'_3 
REMARK    2  A    between atoms: C2'_3  and  C1'_4 
REMARK    3  A    between atoms: C1'_4  and  C1_5 
ROOT
ATOM      1  C1  N4B d   1      -4.353   2.773  -2.923  0.00  0.00    -0.075 A 
ATOM      2  C2  N4B d   1      -5.682   3.035  -3.320  0.00  0.00     0.002 A 
ATOM      3  C3  N4B d   1      -5.999   3.108  -4.654  0.00  0.00     0.002 A 
ATOM      4  C4  N4B d   1      -5.004   2.942  -5.605  0.00  0.00    -0.004 A 
ATOM      5  C5  N4B d   1      -3.727   2.663  -5.215  0.00  0.00     0.002 A 
ATOM      6  C6  N4B d   1      -3.395   2.583  -3.877  0.00  0.00     0.002 A 
ENDROOT
BRANCH   1   7
ATOM      7  C1' N4B d   1      -3.941   2.769  -1.476  0.00  0.00     0.057 C 
BRANCH   7   8
ATOM      8  C2' N4B d   1      -2.420   2.836  -1.388  0.00  0.00     0.009 C 
BRANCH   8   9
ATOM      9  C3' N4B d   1      -1.863   4.061  -2.094  0.00  0.00     0.004 C 
ATOM     10  C4' N4B d   1      -0.464   4.392  -1.667  0.00  0.00     0.003 C 
ENDBRANCH   8   9
ENDBRANCH   7   8
ENDBRANCH   1   7
TORSDOF 3
ENDMDL
