MODEL 1
REMARK minimizedAffinity 4.86757898
REMARK minimizedRMSD -1
REMARK  3 active torsions:
REMARK  status: ('A' for Active; 'I' for Inactive)
REMARK    1  A    between atoms: C3'_2  and  C2'_3 
REMARK    2  A    between atoms: C2'_3  and  C1'_4 
REMARK    3  A    between atoms: C1'_4  and  C1_5 
ROOT
ATOM      1  C1  N4B d   1      -0.332  -2.282  -1.525  0.00  0.00    -0.075 A 
ATOM      2  C2  N4B d   1       0.198  -1.766  -0.322  0.00  0.00     0.002 A 
ATOM      3  C3  N4B d   1      -0.632  -1.157   0.588  0.00  0.00     0.002 A 
ATOM      4  C4  N4B d   1      -1.985  -1.036   0.309  0.00  0.00    -0.004 A 
ATOM      5  C5  N4B d   1      -2.493  -1.561  -0.844  0.00  0.00     0.002 A 
ATOM      6  C6  N4B d   1      -1.671  -2.179  -1.765  0.00  0.00     0.002 A 
ENDROOT
BRANCH   1   7
ATOM      7  C1' N4B d   1       0.549  -2.880  -2.588  0.00  0.00     0.057 C 
BRANCH   7   8
ATOM      8  C2' N4B d   1       1.839  -3.381  -1.946  0.00  0.00     0.009 C 
BRANCH   8   9
ATOM      9  C3' N4B d   1       3.071  -2.819  -2.634  0.00  0.00     0.004 C 
ATOM     10  C4' N4B d   1       2.971  -1.345  -2.893  0.00  0.00     0.003 C 
ENDBRANCH   8   9
ENDBRANCH   7   8
ENDBRANCH   1   7
TORSDOF 3
ENDMDL
