MODEL 1
REMARK minimizedAffinity 3.6430788
REMARK minimizedRMSD -1
REMARK  3 active torsions:
REMARK  status: ('A' for Active; 'I' for Inactive)
REMARK    1  A    between atoms: C3'_2  and  C2'_3 
REMARK    2  A    between atoms: C2'_3  and  C1'_4 
REMARK    3  A    between atoms: C1'_4  and  C1_5 
ROOT
ATOM      1  C1  N4B d   1      -3.537   2.061   1.037  0.00  0.00    -0.075 A 
ATOM      2  C2  N4B d   1      -4.069   2.050   2.345  0.00  0.00     0.002 A 
ATOM      3  C3  N4B d   1      -5.296   2.616   2.592  0.00  0.00     0.002 A 
ATOM      4  C4  N4B d   1      -5.998   3.212   1.555  0.00  0.00    -0.004 A 
ATOM      5  C5  N4B d   1      -5.489   3.195   0.290  0.00  0.00     0.002 A 
ATOM      6  C6  N4B d   1      -4.259   2.627   0.026  0.00  0.00     0.002 A 
ENDROOT
BRANCH   1   7
ATOM      7  C1' N4B d   1      -2.162   1.532   0.735  0.00  0.00     0.057 C 
BRANCH   7   8
ATOM      8  C2' N4B d   1      -2.213   0.008   0.678  0.00  0.00     0.009 C 
BRANCH   8   9
ATOM      9  C3' N4B d   1      -2.364  -0.504  -0.744  0.00  0.00     0.004 C 
ATOM     10  C4' N4B d   1      -1.153  -1.246  -1.226  0.00  0.00     0.003 C 
ENDBRANCH   8   9
ENDBRANCH   7   8
ENDBRANCH   1   7
TORSDOF 3
ENDMDL
