MODEL 1
REMARK minimizedAffinity 8.43273449
REMARK minimizedRMSD -1
REMARK  3 active torsions:
REMARK  status: ('A' for Active; 'I' for Inactive)
REMARK    1  A    between atoms: C3'_2  and  C2'_3 
REMARK    2  A    between atoms: C2'_3  and  C1'_4 
REMARK    3  A    between atoms: C1'_4  and  C1_5 
ROOT
ATOM      1  C1  N4B d   1       1.488  -1.379   1.432  0.00  0.00    -0.075 A 
ATOM      2  C2  N4B d   1       2.214  -0.309   0.865  0.00  0.00     0.002 A 
ATOM      3  C3  N4B d   1       2.917   0.549   1.676  0.00  0.00     0.002 A 
ATOM      4  C4  N4B d   1       2.893   0.369   3.050  0.00  0.00    -0.004 A 
ATOM      5  C5  N4B d   1       2.209  -0.682   3.588  0.00  0.00     0.002 A 
ATOM      6  C6  N4B d   1       1.502  -1.555   2.786  0.00  0.00     0.002 A 
ENDROOT
BRANCH   1   7
ATOM      7  C1' N4B d   1       0.635  -2.292   0.594  0.00  0.00     0.057 C 
BRANCH   7   8
ATOM      8  C2' N4B d   1      -0.106  -1.464  -0.452  0.00  0.00     0.009 C 
BRANCH   8   9
ATOM      9  C3' N4B d   1      -1.613  -1.557  -0.286  0.00  0.00     0.004 C 
ATOM     10  C4' N4B d   1      -2.273  -0.212  -0.210  0.00  0.00     0.003 C 
ENDBRANCH   8   9
ENDBRANCH   7   8
ENDBRANCH   1   7
TORSDOF 3
ENDMDL
