MODEL 1
REMARK minimizedAffinity 1.62694454
REMARK minimizedRMSD -1
REMARK  3 active torsions:
REMARK  status: ('A' for Active; 'I' for Inactive)
REMARK    1  A    between atoms: C3'_2  and  C2'_3 
REMARK    2  A    between atoms: C2'_3  and  C1'_4 
REMARK    3  A    between atoms: C1'_4  and  C1_5 
ROOT
ATOM      1  C1  N4B d   1       0.154  -1.189   0.070  0.00  0.00    -0.075 A 
ATOM      2  C2  N4B d   1      -1.190  -0.765   0.156  0.00  0.00     0.002 A 
ATOM      3  C3  N4B d   1      -2.039  -0.954  -0.908  0.00  0.00     0.002 A 
ATOM      4  C4  N4B d   1      -1.563  -1.544  -2.069  0.00  0.00    -0.004 A 
ATOM      5  C5  N4B d   1      -0.270  -1.974  -2.134  0.00  0.00     0.002 A 
ATOM      6  C6  N4B d   1       0.593  -1.795  -1.072  0.00  0.00     0.002 A 
ENDROOT
BRANCH   1   7
ATOM      7  C1' N4B d   1       1.142  -0.927   1.174  0.00  0.00     0.057 C 
BRANCH   7   8
ATOM      8  C2' N4B d   1       1.145  -2.112   2.135  0.00  0.00     0.009 C 
BRANCH   8   9
ATOM      9  C3' N4B d   1       1.971  -1.833   3.379  0.00  0.00     0.004 C 
ATOM     10  C4' N4B d   1       2.493  -3.083   4.021  0.00  0.00     0.003 C 
ENDBRANCH   8   9
ENDBRANCH   7   8
ENDBRANCH   1   7
TORSDOF 3
ENDMDL
