MODEL 1
REMARK minimizedAffinity 9.24649048
REMARK minimizedRMSD -1
REMARK  0 active torsions:
REMARK  status: ('A' for Active; 'I' for Inactive)
ROOT
ATOM      1  C4' PXY d   1       2.508   2.085   2.343  0.00  0.00     0.077 C 
ATOM      2  C1' PXY d   1       0.278  -0.916  -2.066  0.00  0.00     0.077 C 
ATOM      3  C1  PXY d   1       0.863  -0.140  -0.902  0.00  0.00    -0.082 A 
ATOM      4  C2  PXY d   1       0.665   1.166  -0.822  0.00  0.00     0.003 A 
ATOM      5  C3  PXY d   1       1.214   1.888   0.206  0.00  0.00     0.003 A 
ATOM      6  C4  PXY d   1       1.928   1.260   1.191  0.00  0.00    -0.082 A 
ATOM      7  C5  PXY d   1       2.126  -0.074   1.121  0.00  0.00     0.003 A 
ATOM      8  C6  PXY d   1       1.595  -0.783   0.048  0.00  0.00     0.003 A 
ENDROOT
TORSDOF 0
ENDMDL
