MODEL 1
REMARK minimizedAffinity -0.420134991
REMARK minimizedRMSD -1
REMARK  0 active torsions:
REMARK  status: ('A' for Active; 'I' for Inactive)
ROOT
ATOM      1  C4' PXY d   1       0.878  -0.579  -0.570  0.00  0.00     0.077 C 
ATOM      2  C1' PXY d   1       1.670   5.118  -1.145  0.00  0.00     0.077 C 
ATOM      3  C1  PXY d   1       1.467   3.625  -0.982  0.00  0.00    -0.082 A 
ATOM      4  C2  PXY d   1       1.421   2.850  -2.053  0.00  0.00     0.003 A 
ATOM      5  C3  PXY d   1       1.207   1.502  -1.926  0.00  0.00     0.003 A 
ATOM      6  C4  PXY d   1       1.091   0.933  -0.686  0.00  0.00    -0.082 A 
ATOM      7  C5  PXY d   1       1.147   1.715   0.413  0.00  0.00     0.003 A 
ATOM      8  C6  PXY d   1       1.325   3.087   0.260  0.00  0.00     0.003 A 
ENDROOT
TORSDOF 0
ENDMDL
