MODEL 1
REMARK minimizedAffinity -5.71327019
REMARK minimizedRMSD -1
REMARK  0 active torsions:
REMARK  status: ('A' for Active; 'I' for Inactive)
ROOT
ATOM      1  C4' PXY d   1       1.483   5.272  -0.693  0.00  0.00     0.077 C 
ATOM      2  C1' PXY d   1       0.691  -0.447  -0.402  0.00  0.00     0.077 C 
ATOM      3  C1  PXY d   1       0.892   1.054  -0.467  0.00  0.00    -0.082 A 
ATOM      4  C2  PXY d   1       1.191   1.624  -1.623  0.00  0.00     0.003 A 
ATOM      5  C3  PXY d   1       1.407   2.977  -1.694  0.00  0.00     0.003 A 
ATOM      6  C4  PXY d   1       1.263   3.761  -0.581  0.00  0.00    -0.082 A 
ATOM      7  C5  PXY d   1       0.947   3.188   0.600  0.00  0.00     0.003 A 
ATOM      8  C6  PXY d   1       0.773   1.808   0.659  0.00  0.00     0.003 A 
ENDROOT
TORSDOF 0
ENDMDL
