MODEL 1
REMARK minimizedAffinity 7.77174377
REMARK minimizedRMSD -1
REMARK  0 active torsions:
REMARK  status: ('A' for Active; 'I' for Inactive)
ROOT
ATOM      1  C4' PXY d   1       1.897   4.963  -1.113  0.00  0.00     0.077 C 
ATOM      2  C1' PXY d   1       0.769  -0.636  -2.008  0.00  0.00     0.077 C 
ATOM      3  C1  PXY d   1       1.066   0.830  -1.761  0.00  0.00    -0.082 A 
ATOM      4  C2  PXY d   1       0.644   1.738  -2.626  0.00  0.00     0.003 A 
ATOM      5  C3  PXY d   1       0.932   3.065  -2.434  0.00  0.00     0.003 A 
ATOM      6  C4  PXY d   1       1.612   3.472  -1.318  0.00  0.00    -0.082 A 
ATOM      7  C5  PXY d   1       2.037   2.553  -0.425  0.00  0.00     0.003 A 
ATOM      8  C6  PXY d   1       1.770   1.207  -0.659  0.00  0.00     0.003 A 
ENDROOT
TORSDOF 0
ENDMDL
