MODEL 1
REMARK minimizedAffinity -0.456584156
REMARK minimizedRMSD -1
REMARK  0 active torsions:
REMARK  status: ('A' for Active; 'I' for Inactive)
ROOT
ATOM      1  C4' PXY d   1       1.608   4.911  -1.463  0.00  0.00     0.077 C 
ATOM      2  C1' PXY d   1       0.944  -0.768  -0.614  0.00  0.00     0.077 C 
ATOM      3  C1  PXY d   1       1.126   0.719  -0.847  0.00  0.00    -0.082 A 
ATOM      4  C2  PXY d   1       0.932   1.565   0.151  0.00  0.00     0.003 A 
ATOM      5  C3  PXY d   1       1.061   2.916  -0.050  0.00  0.00     0.003 A 
ATOM      6  C4  PXY d   1       1.445   3.401  -1.271  0.00  0.00    -0.082 A 
ATOM      7  C5  PXY d   1       1.655   2.542  -2.292  0.00  0.00     0.003 A 
ATOM      8  C6  PXY d   1       1.478   1.178  -2.078  0.00  0.00     0.003 A 
ENDROOT
TORSDOF 0
ENDMDL
