MODEL 1
REMARK minimizedAffinity -3.02865195
REMARK minimizedRMSD -1
REMARK  0 active torsions:
REMARK  status: ('A' for Active; 'I' for Inactive)
ROOT
ATOM      1  C4' PXY d   1       0.854  -0.681  -0.705  0.00  0.00     0.077 C 
ATOM      2  C1' PXY d   1       1.995   4.968  -1.157  0.00  0.00     0.077 C 
ATOM      3  C1  PXY d   1       1.701   3.486  -1.026  0.00  0.00    -0.082 A 
ATOM      4  C2  PXY d   1       1.573   2.746  -2.116  0.00  0.00     0.003 A 
ATOM      5  C3  PXY d   1       1.275   1.412  -2.017  0.00  0.00     0.003 A 
ATOM      6  C4  PXY d   1       1.160   0.817  -0.789  0.00  0.00    -0.082 A 
ATOM      7  C5  PXY d   1       1.300   1.563   0.328  0.00  0.00     0.003 A 
ATOM      8  C6  PXY d   1       1.561   2.924   0.205  0.00  0.00     0.003 A 
ENDROOT
TORSDOF 0
ENDMDL
