MODEL 1
REMARK minimizedAffinity 0.511104763
REMARK minimizedRMSD -1
REMARK  0 active torsions:
REMARK  status: ('A' for Active; 'I' for Inactive)
ROOT
ATOM      1  C4' PXY d   1      -0.189  -4.640  -1.884  0.00  0.00     0.077 C 
ATOM      2  C1' PXY d   1       1.606   0.696  -0.573  0.00  0.00     0.077 C 
ATOM      3  C1  PXY d   1       1.148  -0.707  -0.918  0.00  0.00    -0.082 A 
ATOM      4  C2  PXY d   1      -0.059  -0.895  -1.426  0.00  0.00     0.003 A 
ATOM      5  C3  PXY d   1      -0.502  -2.160  -1.714  0.00  0.00     0.003 A 
ATOM      6  C4  PXY d   1       0.320  -3.240  -1.529  0.00  0.00    -0.082 A 
ATOM      7  C5  PXY d   1       1.557  -3.056  -1.021  0.00  0.00     0.003 A 
ATOM      8  C6  PXY d   1       1.972  -1.767  -0.697  0.00  0.00     0.003 A 
ENDROOT
TORSDOF 0
ENDMDL
