MODEL 1
REMARK minimizedAffinity -3.82901573
REMARK minimizedRMSD -1
REMARK  0 active torsions:
REMARK  status: ('A' for Active; 'I' for Inactive)
ROOT
ATOM      1  C4' PXY d   1       0.762  -0.579  -0.731  0.00  0.00     0.077 C 
ATOM      2  C1' PXY d   1       1.605   5.139  -0.826  0.00  0.00     0.077 C 
ATOM      3  C1  PXY d   1       1.389   3.639  -0.789  0.00  0.00    -0.082 A 
ATOM      4  C2  PXY d   1       1.314   2.961  -1.922  0.00  0.00     0.003 A 
ATOM      5  C3  PXY d   1       1.088   1.608  -1.908  0.00  0.00     0.003 A 
ATOM      6  C4  PXY d   1       0.989   0.935  -0.720  0.00  0.00    -0.082 A 
ATOM      7  C5  PXY d   1       1.074   1.618   0.441  0.00  0.00     0.003 A 
ATOM      8  C6  PXY d   1       1.263   2.996   0.404  0.00  0.00     0.003 A 
ENDROOT
TORSDOF 0
ENDMDL
