MODEL 1
REMARK minimizedAffinity 6.00834608
REMARK minimizedRMSD -1
REMARK  0 active torsions:
REMARK  status: ('A' for Active; 'I' for Inactive)
ROOT
ATOM      1  C4' PXY d   1       1.800  -1.515   0.537  0.00  0.00     0.077 C 
ATOM      2  C1' PXY d   1       0.693   2.823  -3.120  0.00  0.00     0.077 C 
ATOM      3  C1  PXY d   1       0.994   1.691  -2.157  0.00  0.00    -0.082 A 
ATOM      4  C2  PXY d   1       0.518   0.481  -2.400  0.00  0.00     0.003 A 
ATOM      5  C3  PXY d   1       0.754  -0.546  -1.523  0.00  0.00     0.003 A 
ATOM      6  C4  PXY d   1       1.529  -0.345  -0.413  0.00  0.00    -0.082 A 
ATOM      7  C5  PXY d   1       2.027   0.885  -0.163  0.00  0.00     0.003 A 
ATOM      8  C6  PXY d   1       1.742   1.924  -1.044  0.00  0.00     0.003 A 
ENDROOT
TORSDOF 0
ENDMDL
