MODEL 1
REMARK minimizedAffinity 5.11312342
REMARK minimizedRMSD -1
REMARK  0 active torsions:
REMARK  status: ('A' for Active; 'I' for Inactive)
ROOT
ATOM      1  C4' PXY d   1       1.259   0.226  -1.050  0.00  0.00     0.077 C 
ATOM      2  C1' PXY d   1       1.508   5.965  -0.397  0.00  0.00     0.077 C 
ATOM      3  C1  PXY d   1       1.446   4.458  -0.556  0.00  0.00    -0.082 A 
ATOM      4  C2  PXY d   1       1.594   3.920  -1.755  0.00  0.00     0.003 A 
ATOM      5  C3  PXY d   1       1.509   2.562  -1.922  0.00  0.00     0.003 A 
ATOM      6  C4  PXY d   1       1.324   1.742  -0.841  0.00  0.00    -0.082 A 
ATOM      7  C5  PXY d   1       1.182   2.282   0.388  0.00  0.00     0.003 A 
ATOM      8  C6  PXY d   1       1.230   3.666   0.530  0.00  0.00     0.003 A 
ENDROOT
TORSDOF 0
ENDMDL
