MODEL 1
REMARK minimizedAffinity 2.53726459
REMARK minimizedRMSD -1
REMARK  0 active torsions:
REMARK  status: ('A' for Active; 'I' for Inactive)
ROOT
ATOM      1  C4' PXY d   1       0.789  -0.813  -1.477  0.00  0.00     0.077 C 
ATOM      2  C1' PXY d   1       2.220   2.525   3.020  0.00  0.00     0.077 C 
ATOM      3  C1  PXY d   1       1.833   1.654   1.841  0.00  0.00    -0.082 A 
ATOM      4  C2  PXY d   1       2.489   0.528   1.616  0.00  0.00     0.003 A 
ATOM      5  C3  PXY d   1       2.173  -0.255   0.536  0.00  0.00     0.003 A 
ATOM      6  C4  PXY d   1       1.140   0.092  -0.293  0.00  0.00    -0.082 A 
ATOM      7  C5  PXY d   1       0.458   1.235  -0.064  0.00  0.00     0.003 A 
ATOM      8  C6  PXY d   1       0.822   2.036   1.014  0.00  0.00     0.003 A 
ENDROOT
TORSDOF 0
ENDMDL
