MODEL 1
REMARK minimizedAffinity -1.90671551
REMARK minimizedRMSD -1
REMARK  0 active torsions:
REMARK  status: ('A' for Active; 'I' for Inactive)
ROOT
ATOM      1  C4' PXY d   1       1.905   5.281  -1.399  0.00  0.00     0.077 C 
ATOM      2  C1' PXY d   1       0.851  -0.312  -0.387  0.00  0.00     0.077 C 
ATOM      3  C1  PXY d   1       1.135   1.152  -0.662  0.00  0.00    -0.082 A 
ATOM      4  C2  PXY d   1       1.012   2.037   0.313  0.00  0.00     0.003 A 
ATOM      5  C3  PXY d   1       1.234   3.369   0.074  0.00  0.00     0.003 A 
ATOM      6  C4  PXY d   1       1.637   3.792  -1.164  0.00  0.00    -0.082 A 
ATOM      7  C5  PXY d   1       1.775   2.894  -2.162  0.00  0.00     0.003 A 
ATOM      8  C6  PXY d   1       1.505   1.552  -1.909  0.00  0.00     0.003 A 
ENDROOT
TORSDOF 0
ENDMDL
