MODEL 1
REMARK minimizedAffinity -2.73814726
REMARK minimizedRMSD -1
REMARK  0 active torsions:
REMARK  status: ('A' for Active; 'I' for Inactive)
ROOT
ATOM      1  C4' PXY d   1       0.673   0.179  -1.124  0.00  0.00     0.077 C 
ATOM      2  C1' PXY d   1       2.094   5.782  -1.075  0.00  0.00     0.077 C 
ATOM      3  C1  PXY d   1       1.729   4.311  -1.078  0.00  0.00    -0.082 A 
ATOM      4  C2  PXY d   1       1.315   3.741  -2.198  0.00  0.00     0.003 A 
ATOM      5  C3  PXY d   1       0.950   2.420  -2.211  0.00  0.00     0.003 A 
ATOM      6  C4  PXY d   1       1.061   1.659  -1.077  0.00  0.00    -0.082 A 
ATOM      7  C5  PXY d   1       1.492   2.230   0.067  0.00  0.00     0.003 A 
ATOM      8  C6  PXY d   1       1.818   3.584   0.069  0.00  0.00     0.003 A 
ENDROOT
TORSDOF 0
ENDMDL
