MODEL 1
REMARK minimizedAffinity 2.42462277
REMARK minimizedRMSD -1
REMARK  0 active torsions:
REMARK  status: ('A' for Active; 'I' for Inactive)
ROOT
ATOM      1  C4' PXY d   1       1.162   0.124  -1.228  0.00  0.00     0.077 C 
ATOM      2  C1' PXY d   1       1.876   5.851  -0.899  0.00  0.00     0.077 C 
ATOM      3  C1  PXY d   1       1.694   4.348  -0.973  0.00  0.00    -0.082 A 
ATOM      4  C2  PXY d   1       1.624   3.755  -2.154  0.00  0.00     0.003 A 
ATOM      5  C3  PXY d   1       1.427   2.401  -2.240  0.00  0.00     0.003 A 
ATOM      6  C4  PXY d   1       1.355   1.638  -1.105  0.00  0.00    -0.082 A 
ATOM      7  C5  PXY d   1       1.436   2.234   0.103  0.00  0.00     0.003 A 
ATOM      8  C6  PXY d   1       1.594   3.615   0.169  0.00  0.00     0.003 A 
ENDROOT
TORSDOF 0
ENDMDL
