MODEL 1
REMARK minimizedAffinity 3.70540786
REMARK minimizedRMSD -1
REMARK  0 active torsions:
REMARK  status: ('A' for Active; 'I' for Inactive)
ROOT
ATOM      1  C4' PXY d   1       3.729  -0.255   0.763  0.00  0.00     0.077 C 
ATOM      2  C1' PXY d   1       0.287   3.439  -2.051  0.00  0.00     0.077 C 
ATOM      3  C1  PXY d   1       1.193   2.480  -1.305  0.00  0.00    -0.082 A 
ATOM      4  C2  PXY d   1       1.609   1.374  -1.902  0.00  0.00     0.003 A 
ATOM      5  C3  PXY d   1       2.403   0.481  -1.231  0.00  0.00     0.003 A 
ATOM      6  C4  PXY d   1       2.821   0.747   0.045  0.00  0.00    -0.082 A 
ATOM      7  C5  PXY d   1       2.410   1.878   0.657  0.00  0.00     0.003 A 
ATOM      8  C6  PXY d   1       1.570   2.752  -0.026  0.00  0.00     0.003 A 
ENDROOT
TORSDOF 0
ENDMDL
