MODEL 1
REMARK minimizedAffinity 4.27264881
REMARK minimizedRMSD -1
REMARK  0 active torsions:
REMARK  status: ('A' for Active; 'I' for Inactive)
ROOT
ATOM      1  C4' PXY d   1      -0.122   2.999  -3.019  0.00  0.00     0.077 C 
ATOM      2  C1' PXY d   1       2.180  -0.502   0.963  0.00  0.00     0.077 C 
ATOM      3  C1  PXY d   1       1.573   0.424  -0.072  0.00  0.00    -0.082 A 
ATOM      4  C2  PXY d   1       1.175  -0.065  -1.235  0.00  0.00     0.003 A 
ATOM      5  C3  PXY d   1       0.653   0.764  -2.194  0.00  0.00     0.003 A 
ATOM      6  C4  PXY d   1       0.488   2.099  -1.941  0.00  0.00    -0.082 A 
ATOM      7  C5  PXY d   1       0.881   2.604  -0.753  0.00  0.00     0.003 A 
ATOM      8  C6  PXY d   1       1.447   1.753   0.192  0.00  0.00     0.003 A 
ENDROOT
TORSDOF 0
ENDMDL
