MODEL 1
REMARK minimizedAffinity -2.71177864
REMARK minimizedRMSD -1
REMARK  0 active torsions:
REMARK  status: ('A' for Active; 'I' for Inactive)
ROOT
ATOM      1  C4' PXY d   1       1.079   4.135   1.509  0.00  0.00     0.077 C 
ATOM      2  C1' PXY d   1       1.209   0.121  -2.649  0.00  0.00     0.077 C 
ATOM      3  C1  PXY d   1       1.180   1.183  -1.567  0.00  0.00    -0.082 A 
ATOM      4  C2  PXY d   1       1.228   0.822  -0.295  0.00  0.00     0.003 A 
ATOM      5  C3  PXY d   1       1.170   1.767   0.697  0.00  0.00     0.003 A 
ATOM      6  C4  PXY d   1       1.116   3.098   0.383  0.00  0.00    -0.082 A 
ATOM      7  C5  PXY d   1       1.077   3.475  -0.912  0.00  0.00     0.003 A 
ATOM      8  C6  PXY d   1       1.095   2.498  -1.904  0.00  0.00     0.003 A 
ENDROOT
TORSDOF 0
ENDMDL
