MODEL 1
REMARK minimizedAffinity 0.680005372
REMARK minimizedRMSD -1
REMARK  0 active torsions:
REMARK  status: ('A' for Active; 'I' for Inactive)
ROOT
ATOM      1  C4' PXY d   1       0.491   2.144  -2.899  0.00  0.00     0.077 C 
ATOM      2  C1' PXY d   1       1.786   0.306   2.427  0.00  0.00     0.077 C 
ATOM      3  C1  PXY d   1       1.454   0.778   1.025  0.00  0.00    -0.082 A 
ATOM      4  C2  PXY d   1       1.103   2.038   0.826  0.00  0.00     0.003 A 
ATOM      5  C3  PXY d   1       0.769   2.474  -0.431  0.00  0.00     0.003 A 
ATOM      6  C4  PXY d   1       0.845   1.625  -1.502  0.00  0.00    -0.082 A 
ATOM      7  C5  PXY d   1       1.211   0.341  -1.308  0.00  0.00     0.003 A 
ATOM      8  C6  PXY d   1       1.507  -0.093  -0.019  0.00  0.00     0.003 A 
ENDROOT
TORSDOF 0
ENDMDL
