MODEL 1
REMARK minimizedAffinity 4.94821644
REMARK minimizedRMSD -1
REMARK  0 active torsions:
REMARK  status: ('A' for Active; 'I' for Inactive)
ROOT
ATOM      1  C4' PXY d   1       1.548   4.545  -0.367  0.00  0.00     0.077 C 
ATOM      2  C1' PXY d   1       0.145  -0.744  -2.231  0.00  0.00     0.077 C 
ATOM      3  C1  PXY d   1       0.515   0.639  -1.730  0.00  0.00    -0.082 A 
ATOM      4  C2  PXY d   1       0.090   1.707  -2.386  0.00  0.00     0.003 A 
ATOM      5  C3  PXY d   1       0.442   2.964  -1.965  0.00  0.00     0.003 A 
ATOM      6  C4  PXY d   1       1.191   3.130  -0.831  0.00  0.00    -0.082 A 
ATOM      7  C5  PXY d   1       1.619   2.046  -0.151  0.00  0.00     0.003 A 
ATOM      8  C6  PXY d   1       1.286   0.778  -0.618  0.00  0.00     0.003 A 
ENDROOT
TORSDOF 0
ENDMDL
