MODEL 1
REMARK minimizedAffinity 5.35918951
REMARK minimizedRMSD -1
REMARK  0 active torsions:
REMARK  status: ('A' for Active; 'I' for Inactive)
ROOT
ATOM      1  C4' PXY d   1       0.985   4.954  -0.678  0.00  0.00     0.077 C 
ATOM      2  C1' PXY d   1       0.804  -0.601  -2.265  0.00  0.00     0.077 C 
ATOM      3  C1  PXY d   1       0.847   0.859  -1.860  0.00  0.00    -0.082 A 
ATOM      4  C2  PXY d   1       1.678   1.250  -0.908  0.00  0.00     0.003 A 
ATOM      5  C3  PXY d   1       1.707   2.561  -0.508  0.00  0.00     0.003 A 
ATOM      6  C4  PXY d   1       0.915   3.492  -1.125  0.00  0.00    -0.082 A 
ATOM      7  C5  PXY d   1       0.072   3.103  -2.105  0.00  0.00     0.003 A 
ATOM      8  C6  PXY d   1       0.028   1.760  -2.468  0.00  0.00     0.003 A 
ENDROOT
TORSDOF 0
ENDMDL
