MODEL 1
REMARK minimizedAffinity 0.76248914
REMARK minimizedRMSD -1
REMARK  0 active torsions:
REMARK  status: ('A' for Active; 'I' for Inactive)
ROOT
ATOM      1  C   UNL d   1      -5.792   2.234   2.661  0.00  0.00     0.172 C 
ATOM      2  N   UNL d   1      -5.424   2.564   4.018  0.00  0.00    -0.070 N 
ATOM      3  C1  UNL d   1      -4.456   1.939   4.758  0.00  0.00    -0.004 A 
ATOM      4  C2  UNL d   1      -4.411   2.546   5.994  0.00  0.00    -0.047 A 
ATOM      5  C3  UNL d   1      -5.387   3.570   5.999  0.00  0.00    -0.047 A 
ATOM      6  C4  UNL d   1      -5.999   3.559   4.763  0.00  0.00    -0.004 A 
ENDROOT
TORSDOF 0
ENDMDL
