MODEL 1
REMARK minimizedAffinity -1.19425058
REMARK minimizedRMSD -1
REMARK  0 active torsions:
REMARK  status: ('A' for Active; 'I' for Inactive)
ROOT
ATOM      1  C   UNL d   1      -5.992   1.727   2.524  0.00  0.00     0.172 C 
ATOM      2  N   UNL d   1      -5.768   2.250   3.851  0.00  0.00    -0.070 N 
ATOM      3  C1  UNL d   1      -6.000   3.538   4.252  0.00  0.00    -0.004 A 
ATOM      4  C2  UNL d   1      -5.662   3.633   5.585  0.00  0.00    -0.047 A 
ATOM      5  C3  UNL d   1      -5.210   2.358   5.999  0.00  0.00    -0.047 A 
ATOM      6  C4  UNL d   1      -5.286   1.520   4.906  0.00  0.00    -0.004 A 
ENDROOT
TORSDOF 0
ENDMDL
