MODEL 1
REMARK minimizedAffinity 2.9649241
REMARK minimizedRMSD -1
REMARK  0 active torsions:
REMARK  status: ('A' for Active; 'I' for Inactive)
ROOT
ATOM      1  C   UNL d   1       2.923  -0.642   2.868  0.00  0.00     0.172 C 
ATOM      2  N   UNL d   1       2.432   0.030   1.688  0.00  0.00    -0.070 N 
ATOM      3  C1  UNL d   1       2.998   1.130   1.102  0.00  0.00    -0.004 A 
ATOM      4  C2  UNL d   1       2.234   1.464   0.005  0.00  0.00    -0.047 A 
ATOM      5  C3  UNL d   1       1.171   0.533  -0.071  0.00  0.00    -0.047 A 
ATOM      6  C4  UNL d   1       1.318  -0.343   0.984  0.00  0.00    -0.004 A 
ENDROOT
TORSDOF 0
ENDMDL
