MODEL 1
REMARK minimizedAffinity 1.14647496
REMARK minimizedRMSD -1
REMARK  0 active torsions:
REMARK  status: ('A' for Active; 'I' for Inactive)
ROOT
ATOM      1  C   UNL d   1       0.099   0.827   3.002  0.00  0.00     0.172 C 
ATOM      2  N   UNL d   1      -1.044   0.811   2.121  0.00  0.00    -0.070 N 
ATOM      3  C1  UNL d   1      -2.207   1.508   2.309  0.00  0.00    -0.004 A 
ATOM      4  C2  UNL d   1      -3.045   1.226   1.251  0.00  0.00    -0.047 A 
ATOM      5  C3  UNL d   1      -2.362   0.327   0.398  0.00  0.00    -0.047 A 
ATOM      6  C4  UNL d   1      -1.126   0.087   0.960  0.00  0.00    -0.004 A 
ENDROOT
TORSDOF 0
ENDMDL
