MODEL 1
REMARK minimizedAffinity 5.6427598
REMARK minimizedRMSD -1
REMARK  0 active torsions:
REMARK  status: ('A' for Active; 'I' for Inactive)
ROOT
ATOM      1  C   UNL d   1      -2.012   1.325   2.292  0.00  0.00     0.172 C 
ATOM      2  N   UNL d   1      -0.835   0.627   1.832  0.00  0.00    -0.070 N 
ATOM      3  C1  UNL d   1      -0.743  -0.720   1.605  0.00  0.00    -0.004 A 
ATOM      4  C2  UNL d   1       0.539  -0.989   1.176  0.00  0.00    -0.047 A 
ATOM      5  C3  UNL d   1       1.241   0.239   1.143  0.00  0.00    -0.047 A 
ATOM      6  C4  UNL d   1       0.367   1.223   1.554  0.00  0.00    -0.004 A 
ENDROOT
TORSDOF 0
ENDMDL
