MODEL 1
REMARK minimizedAffinity 0.466295987
REMARK minimizedRMSD -1
REMARK  0 active torsions:
REMARK  status: ('A' for Active; 'I' for Inactive)
ROOT
ATOM      1  C   UNL d   1      -0.436  -0.166   1.394  0.00  0.00     0.172 C 
ATOM      2  N   UNL d   1      -1.730   0.463   1.524  0.00  0.00    -0.070 N 
ATOM      3  C1  UNL d   1      -2.660   0.589   0.527  0.00  0.00    -0.004 A 
ATOM      4  C2  UNL d   1      -3.754   1.243   1.050  0.00  0.00    -0.047 A 
ATOM      5  C3  UNL d   1      -3.472   1.521   2.408  0.00  0.00    -0.047 A 
ATOM      6  C4  UNL d   1      -2.212   1.027   2.675  0.00  0.00    -0.004 A 
ENDROOT
TORSDOF 0
ENDMDL
