MODEL 1
REMARK minimizedAffinity 1.46999741
REMARK minimizedRMSD -1
REMARK  0 active torsions:
REMARK  status: ('A' for Active; 'I' for Inactive)
ROOT
ATOM      1  C   UNL d   1      -3.368   1.365   1.807  0.00  0.00     0.172 C 
ATOM      2  N   UNL d   1      -2.038   0.845   1.588  0.00  0.00    -0.070 N 
ATOM      3  C1  UNL d   1      -1.287   0.162   2.506  0.00  0.00    -0.004 A 
ATOM      4  C2  UNL d   1      -0.086  -0.161   1.912  0.00  0.00    -0.047 A 
ATOM      5  C3  UNL d   1      -0.116   0.347   0.592  0.00  0.00    -0.047 A 
ATOM      6  C4  UNL d   1      -1.337   0.965   0.417  0.00  0.00    -0.004 A 
ENDROOT
TORSDOF 0
ENDMDL
