MODEL 1
REMARK minimizedAffinity 7.94387627
REMARK minimizedRMSD -1
REMARK  0 active torsions:
REMARK  status: ('A' for Active; 'I' for Inactive)
ROOT
ATOM      1  C   UNL d   1      -1.190  -5.397   0.750  0.00  0.00     0.172 C 
ATOM      2  N   UNL d   1       0.098  -5.641   1.353  0.00  0.00    -0.070 N 
ATOM      3  C1  UNL d   1       0.340  -5.769   2.695  0.00  0.00    -0.004 A 
ATOM      4  C2  UNL d   1       1.690  -5.994   2.862  0.00  0.00    -0.047 A 
ATOM      5  C3  UNL d   1       2.280  -6.000   1.575  0.00  0.00    -0.047 A 
ATOM      6  C4  UNL d   1       1.272  -5.779   0.660  0.00  0.00    -0.004 A 
ENDROOT
TORSDOF 0
ENDMDL
