MODEL 1
REMARK minimizedAffinity 2.24260688
REMARK minimizedRMSD -1
REMARK  0 active torsions:
REMARK  status: ('A' for Active; 'I' for Inactive)
ROOT
ATOM      1  C   UNL d   1      -4.041   1.464   1.549  0.00  0.00     0.172 C 
ATOM      2  N   UNL d   1      -3.111   0.529   0.959  0.00  0.00    -0.070 N 
ATOM      3  C1  UNL d   1      -1.774   0.749   0.765  0.00  0.00    -0.004 A 
ATOM      4  C2  UNL d   1      -1.242  -0.380   0.180  0.00  0.00    -0.047 A 
ATOM      5  C3  UNL d   1      -2.296  -1.309   0.016  0.00  0.00    -0.047 A 
ATOM      6  C4  UNL d   1      -3.443  -0.720   0.507  0.00  0.00    -0.004 A 
ENDROOT
TORSDOF 0
ENDMDL
