MODEL 1
REMARK minimizedAffinity 4.76857901
REMARK minimizedRMSD -1
REMARK  0 active torsions:
REMARK  status: ('A' for Active; 'I' for Inactive)
ROOT
ATOM      1  C   UNL d   1      -1.338  -3.220   0.348  0.00  0.00     0.172 C 
ATOM      2  N   UNL d   1      -1.815  -1.862   0.224  0.00  0.00    -0.070 N 
ATOM      3  C1  UNL d   1      -1.380  -0.793   0.961  0.00  0.00    -0.004 A 
ATOM      4  C2  UNL d   1      -2.077   0.319   0.542  0.00  0.00    -0.047 A 
ATOM      5  C3  UNL d   1      -2.962  -0.096  -0.482  0.00  0.00    -0.047 A 
ATOM      6  C4  UNL d   1      -2.778  -1.451  -0.658  0.00  0.00    -0.004 A 
ENDROOT
TORSDOF 0
ENDMDL
