MODEL 1
REMARK minimizedAffinity -2.4858582
REMARK minimizedRMSD -1
REMARK  0 active torsions:
REMARK  status: ('A' for Active; 'I' for Inactive)
ROOT
ATOM      1  C   UNL d   1       0.586   0.020   1.516  0.00  0.00     0.172 C 
ATOM      2  N   UNL d   1      -0.739   0.572   1.669  0.00  0.00    -0.070 N 
ATOM      3  C1  UNL d   1      -1.723   0.563   0.716  0.00  0.00    -0.004 A 
ATOM      4  C2  UNL d   1      -2.833   1.182   1.249  0.00  0.00    -0.047 A 
ATOM      5  C3  UNL d   1      -2.504   1.578   2.568  0.00  0.00    -0.047 A 
ATOM      6  C4  UNL d   1      -1.203   1.188   2.802  0.00  0.00    -0.004 A 
ENDROOT
TORSDOF 0
ENDMDL
