MODEL 1
REMARK minimizedAffinity 2.67039967
REMARK minimizedRMSD -1
REMARK  0 active torsions:
REMARK  status: ('A' for Active; 'I' for Inactive)
ROOT
ATOM      1  C   UNL d   1       1.328  -2.149  -6.000  0.00  0.00     0.172 C 
ATOM      2  N   UNL d   1       2.396  -1.537  -5.245  0.00  0.00    -0.070 N 
ATOM      3  C1  UNL d   1       2.967  -2.049  -4.111  0.00  0.00    -0.004 A 
ATOM      4  C2  UNL d   1       3.945  -1.171  -3.698  0.00  0.00    -0.047 A 
ATOM      5  C3  UNL d   1       3.962  -0.093  -4.615  0.00  0.00    -0.047 A 
ATOM      6  C4  UNL d   1       2.993  -0.346  -5.563  0.00  0.00    -0.004 A 
ENDROOT
TORSDOF 0
ENDMDL
