MODEL 1
REMARK minimizedAffinity 0.262628913
REMARK minimizedRMSD -1
REMARK  0 active torsions:
REMARK  status: ('A' for Active; 'I' for Inactive)
ROOT
ATOM      1  C   UNL d   1      -1.358  -0.116   0.780  0.00  0.00     0.172 C 
ATOM      2  N   UNL d   1      -1.065   0.853   1.810  0.00  0.00    -0.070 N 
ATOM      3  C1  UNL d   1      -1.975   1.400   2.674  0.00  0.00    -0.004 A 
ATOM      4  C2  UNL d   1      -1.302   2.275   3.498  0.00  0.00    -0.047 A 
ATOM      5  C3  UNL d   1       0.060   2.254   3.116  0.00  0.00    -0.047 A 
ATOM      6  C4  UNL d   1       0.179   1.365   2.069  0.00  0.00    -0.004 A 
ENDROOT
TORSDOF 0
ENDMDL
