MODEL 1
REMARK minimizedAffinity 4.47376919
REMARK minimizedRMSD -1
REMARK  0 active torsions:
REMARK  status: ('A' for Active; 'I' for Inactive)
ROOT
ATOM      1  C   UNL d   1      -2.440   2.203   3.115  0.00  0.00     0.172 C 
ATOM      2  N   UNL d   1      -1.497   1.416   2.356  0.00  0.00    -0.070 N 
ATOM      3  C1  UNL d   1      -1.730   0.859   1.126  0.00  0.00    -0.004 A 
ATOM      4  C2  UNL d   1      -0.588   0.190   0.743  0.00  0.00    -0.047 A 
ATOM      5  C3  UNL d   1       0.364   0.349   1.779  0.00  0.00    -0.047 A 
ATOM      6  C4  UNL d   1      -0.226   1.112   2.764  0.00  0.00    -0.004 A 
ENDROOT
TORSDOF 0
ENDMDL
