MODEL 1
REMARK minimizedAffinity 1.14975607
REMARK minimizedRMSD -1
REMARK  0 active torsions:
REMARK  status: ('A' for Active; 'I' for Inactive)
ROOT
ATOM      1  C   UNL d   1       0.669   2.344   3.596  0.00  0.00     0.172 C 
ATOM      2  N   UNL d   1      -0.266   1.743   2.674  0.00  0.00    -0.070 N 
ATOM      3  C1  UNL d   1      -1.612   1.992   2.627  0.00  0.00    -0.004 A 
ATOM      4  C2  UNL d   1      -2.147   1.225   1.614  0.00  0.00    -0.047 A 
ATOM      5  C3  UNL d   1      -1.087   0.490   1.034  0.00  0.00    -0.047 A 
ATOM      6  C4  UNL d   1       0.066   0.829   1.709  0.00  0.00    -0.004 A 
ENDROOT
TORSDOF 0
ENDMDL
