MODEL 1
REMARK minimizedAffinity 1.68618917
REMARK minimizedRMSD -1
REMARK  0 active torsions:
REMARK  status: ('A' for Active; 'I' for Inactive)
ROOT
ATOM      1  C   UNL d   1      -1.581   0.620   0.918  0.00  0.00     0.172 C 
ATOM      2  N   UNL d   1      -1.163   1.268   2.139  0.00  0.00    -0.070 N 
ATOM      3  C1  UNL d   1       0.132   1.496   2.519  0.00  0.00    -0.004 A 
ATOM      4  C2  UNL d   1       0.108   2.134   3.740  0.00  0.00    -0.047 A 
ATOM      5  C3  UNL d   1      -1.249   2.296   4.107  0.00  0.00    -0.047 A 
ATOM      6  C4  UNL d   1      -2.015   1.750   3.098  0.00  0.00    -0.004 A 
ENDROOT
TORSDOF 0
ENDMDL
