MODEL 1
REMARK minimizedAffinity 4.48804379
REMARK minimizedRMSD -1
REMARK  0 active torsions:
REMARK  status: ('A' for Active; 'I' for Inactive)
ROOT
ATOM      1  C   UNL d   1      -2.342   1.293   1.391  0.00  0.00     0.172 C 
ATOM      2  N   UNL d   1      -1.011   0.833   1.711  0.00  0.00    -0.070 N 
ATOM      3  C1  UNL d   1       0.051   1.631   2.044  0.00  0.00    -0.004 A 
ATOM      4  C2  UNL d   1       1.136   0.814   2.276  0.00  0.00    -0.047 A 
ATOM      5  C3  UNL d   1       0.712  -0.521   2.076  0.00  0.00    -0.047 A 
ATOM      6  C4  UNL d   1      -0.621  -0.480   1.727  0.00  0.00    -0.004 A 
ENDROOT
TORSDOF 0
ENDMDL
