MODEL 1
REMARK minimizedAffinity 4.82779121
REMARK minimizedRMSD -1
REMARK  0 active torsions:
REMARK  status: ('A' for Active; 'I' for Inactive)
ROOT
ATOM      1  C   UNL d   1      -0.774   2.381   3.786  0.00  0.00     0.172 C 
ATOM      2  N   UNL d   1      -0.709   1.486   2.654  0.00  0.00    -0.070 N 
ATOM      3  C1  UNL d   1       0.281   0.572   2.416  0.00  0.00    -0.004 A 
ATOM      4  C2  UNL d   1      -0.022  -0.082   1.241  0.00  0.00    -0.047 A 
ATOM      5  C3  UNL d   1      -1.236   0.459   0.757  0.00  0.00    -0.047 A 
ATOM      6  C4  UNL d   1      -1.640   1.428   1.651  0.00  0.00    -0.004 A 
ENDROOT
TORSDOF 0
ENDMDL
