MODEL 1
REMARK minimizedAffinity -2.17971516
REMARK minimizedRMSD -1
REMARK  0 active torsions:
REMARK  status: ('A' for Active; 'I' for Inactive)
ROOT
ATOM      1  C   UNL d   1      -1.369  -0.222   0.635  0.00  0.00    -0.002 A 
ATOM      2  C1  UNL d   1      -0.287  -1.079   0.494  0.00  0.00     0.010 A 
ATOM      3  C2  UNL d   1       0.940  -0.603   0.027  0.00  0.00     0.041 A 
ATOM      4  C3  UNL d   1       1.062   0.762  -0.297  0.00  0.00    -0.075 A 
ATOM      5  S   UNL d   1       2.468   1.569  -0.886  0.00  0.00     0.015 SA
ATOM      6  C4  UNL d   1       1.666   3.070  -0.963  0.00  0.00     0.022 A 
ATOM      7  C5  UNL d   1       0.357   2.977  -0.553  0.00  0.00     0.026 A 
ATOM      8  C6  UNL d   1      -0.013   1.646  -0.162  0.00  0.00    -0.082 A 
ATOM      9  C7  UNL d   1      -1.244   1.132   0.313  0.00  0.00     0.045 A 
ENDROOT
TORSDOF 0
ENDMDL
