MODEL 1
REMARK minimizedAffinity 4.44898272
REMARK minimizedRMSD -1
REMARK  0 active torsions:
REMARK  status: ('A' for Active; 'I' for Inactive)
ROOT
ATOM      1  C   UNL d   1      -2.091  -0.817   2.908  0.00  0.00    -0.002 A 
ATOM      2  C1  UNL d   1      -1.096  -1.649   2.415  0.00  0.00     0.010 A 
ATOM      3  C2  UNL d   1      -0.112  -1.149   1.559  0.00  0.00     0.041 A 
ATOM      4  C3  UNL d   1      -0.146   0.214   1.205  0.00  0.00    -0.075 A 
ATOM      5  S   UNL d   1       0.955   1.047   0.172  0.00  0.00     0.015 SA
ATOM      6  C4  UNL d   1       0.130   2.526   0.361  0.00  0.00     0.022 A 
ATOM      7  C5  UNL d   1      -0.961   2.406   1.188  0.00  0.00     0.026 A 
ATOM      8  C6  UNL d   1      -1.138   1.071   1.689  0.00  0.00    -0.082 A 
ATOM      9  C7  UNL d   1      -2.121   0.534   2.554  0.00  0.00     0.045 A 
ENDROOT
TORSDOF 0
ENDMDL
