MODEL 1
REMARK minimizedAffinity 12.3381157
REMARK minimizedRMSD -1
REMARK  0 active torsions:
REMARK  status: ('A' for Active; 'I' for Inactive)
ROOT
ATOM      1  C   UNL d   1      -2.516  -0.827   2.988  0.00  0.00    -0.002 A 
ATOM      2  C1  UNL d   1      -2.192   0.478   2.643  0.00  0.00     0.010 A 
ATOM      3  C2  UNL d   1      -1.141   0.739   1.762  0.00  0.00     0.041 A 
ATOM      4  C3  UNL d   1      -0.415  -0.343   1.227  0.00  0.00    -0.075 A 
ATOM      5  S   UNL d   1       0.911  -0.263   0.128  0.00  0.00     0.015 SA
ATOM      6  C4  UNL d   1       1.078  -1.959   0.089  0.00  0.00     0.022 A 
ATOM      7  C5  UNL d   1       0.153  -2.586   0.890  0.00  0.00     0.026 A 
ATOM      8  C6  UNL d   1      -0.724  -1.665   1.558  0.00  0.00    -0.082 A 
ATOM      9  C7  UNL d   1      -1.794  -1.898   2.455  0.00  0.00     0.045 A 
ENDROOT
TORSDOF 0
ENDMDL
