MODEL 1
REMARK minimizedAffinity 8.35899258
REMARK minimizedRMSD -1
REMARK  0 active torsions:
REMARK  status: ('A' for Active; 'I' for Inactive)
ROOT
ATOM      1  C   UNL d   1       4.006   3.143   0.923  0.00  0.00    -0.002 A 
ATOM      2  C1  UNL d   1       4.207   1.799   0.642  0.00  0.00     0.010 A 
ATOM      3  C2  UNL d   1       3.125   0.962   0.363  0.00  0.00     0.041 A 
ATOM      4  C3  UNL d   1       1.825   1.504   0.370  0.00  0.00    -0.075 A 
ATOM      5  S   UNL d   1       0.349   0.670   0.056  0.00  0.00     0.015 SA
ATOM      6  C4  UNL d   1      -0.583   2.078   0.287  0.00  0.00     0.022 A 
ATOM      7  C5  UNL d   1       0.196   3.167   0.597  0.00  0.00     0.026 A 
ATOM      8  C6  UNL d   1       1.597   2.855   0.649  0.00  0.00    -0.082 A 
ATOM      9  C7  UNL d   1       2.715   3.677   0.929  0.00  0.00     0.045 A 
ENDROOT
TORSDOF 0
ENDMDL
