MODEL 1
REMARK minimizedAffinity 3.23470211
REMARK minimizedRMSD -1
REMARK  0 active torsions:
REMARK  status: ('A' for Active; 'I' for Inactive)
ROOT
ATOM      1  C   UNL d   1       0.457  -5.441  -2.724  0.00  0.00    -0.002 A 
ATOM      2  C1  UNL d   1       1.455  -5.288  -1.772  0.00  0.00     0.010 A 
ATOM      3  C2  UNL d   1       2.801  -5.367  -2.136  0.00  0.00     0.041 A 
ATOM      4  C3  UNL d   1       3.129  -5.602  -3.486  0.00  0.00    -0.075 A 
ATOM      5  S   UNL d   1       4.709  -5.737  -4.163  0.00  0.00     0.015 SA
ATOM      6  C4  UNL d   1       4.095  -5.999  -5.731  0.00  0.00     0.022 A 
ATOM      7  C5  UNL d   1       2.721  -5.988  -5.756  0.00  0.00     0.026 A 
ATOM      8  C6  UNL d   1       2.141  -5.758  -4.462  0.00  0.00    -0.082 A 
ATOM      9  C7  UNL d   1       0.786  -5.674  -4.062  0.00  0.00     0.045 A 
ENDROOT
TORSDOF 0
ENDMDL
