MODEL 1
REMARK minimizedAffinity 4.86683035
REMARK minimizedRMSD -1
REMARK  0 active torsions:
REMARK  status: ('A' for Active; 'I' for Inactive)
ROOT
ATOM      1  C   UNL d   1       4.979   2.934   3.244  0.00  0.00    -0.002 A 
ATOM      2  C1  UNL d   1       3.941   2.193   3.792  0.00  0.00     0.010 A 
ATOM      3  C2  UNL d   1       2.790   1.926   3.048  0.00  0.00     0.041 A 
ATOM      4  C3  UNL d   1       2.700   2.418   1.731  0.00  0.00    -0.075 A 
ATOM      5  S   UNL d   1       1.387   2.214   0.632  0.00  0.00     0.015 SA
ATOM      6  C4  UNL d   1       2.173   3.104  -0.590  0.00  0.00     0.022 A 
ATOM      7  C5  UNL d   1       3.408   3.554  -0.187  0.00  0.00     0.026 A 
ATOM      8  C6  UNL d   1       3.732   3.165   1.157  0.00  0.00    -0.082 A 
ATOM      9  C7  UNL d   1       4.886   3.421   1.937  0.00  0.00     0.045 A 
ENDROOT
TORSDOF 0
ENDMDL
