MODEL 1
REMARK minimizedAffinity 9.19881344
REMARK minimizedRMSD -1
REMARK  0 active torsions:
REMARK  status: ('A' for Active; 'I' for Inactive)
ROOT
ATOM      1  C   UNL d   1       1.846   0.744  -0.464  0.00  0.00    -0.002 A 
ATOM      2  C1  UNL d   1       2.670   0.275   0.549  0.00  0.00     0.010 A 
ATOM      3  C2  UNL d   1       2.349   0.503   1.889  0.00  0.00     0.041 A 
ATOM      4  C3  UNL d   1       1.173   1.216   2.197  0.00  0.00    -0.075 A 
ATOM      5  S   UNL d   1       0.579   1.613   3.765  0.00  0.00     0.015 SA
ATOM      6  C4  UNL d   1      -0.784   2.413   3.128  0.00  0.00     0.022 A 
ATOM      7  C5  UNL d   1      -0.801   2.388   1.753  0.00  0.00     0.026 A 
ATOM      8  C6  UNL d   1       0.327   1.697   1.194  0.00  0.00    -0.082 A 
ATOM      9  C7  UNL d   1       0.680   1.451  -0.155  0.00  0.00     0.045 A 
ENDROOT
TORSDOF 0
ENDMDL
