MODEL 1
REMARK minimizedAffinity 7.5489397
REMARK minimizedRMSD -1
REMARK  0 active torsions:
REMARK  status: ('A' for Active; 'I' for Inactive)
ROOT
ATOM      1  C   UNL d   1       3.445   2.641   0.961  0.00  0.00    -0.002 A 
ATOM      2  C1  UNL d   1       3.353   1.266   0.798  0.00  0.00     0.010 A 
ATOM      3  C2  UNL d   1       2.107   0.647   0.678  0.00  0.00     0.041 A 
ATOM      4  C3  UNL d   1       0.945   1.441   0.722  0.00  0.00    -0.075 A 
ATOM      5  S   UNL d   1      -0.688   0.901   0.595  0.00  0.00     0.015 SA
ATOM      6  C4  UNL d   1      -1.302   2.483   0.752  0.00  0.00     0.022 A 
ATOM      7  C5  UNL d   1      -0.300   3.413   0.899  0.00  0.00     0.026 A 
ATOM      8  C6  UNL d   1       1.011   2.828   0.884  0.00  0.00    -0.082 A 
ATOM      9  C7  UNL d   1       2.289   3.426   1.004  0.00  0.00     0.045 A 
ENDROOT
TORSDOF 0
ENDMDL
