MODEL 1
REMARK minimizedAffinity 7.91736174
REMARK minimizedRMSD -1
REMARK  0 active torsions:
REMARK  status: ('A' for Active; 'I' for Inactive)
ROOT
ATOM      1  C   UNL d   1       3.238   2.682   0.528  0.00  0.00    -0.002 A 
ATOM      2  C1  UNL d   1       3.291   2.817   1.908  0.00  0.00     0.010 A 
ATOM      3  C2  UNL d   1       2.118   2.946   2.654  0.00  0.00     0.041 A 
ATOM      4  C3  UNL d   1       0.879   2.934   1.984  0.00  0.00    -0.075 A 
ATOM      5  S   UNL d   1      -0.687   3.076   2.691  0.00  0.00     0.015 SA
ATOM      6  C4  UNL d   1      -1.463   2.960   1.178  0.00  0.00     0.022 A 
ATOM      7  C5  UNL d   1      -0.564   2.816   0.147  0.00  0.00     0.026 A 
ATOM      8  C6  UNL d   1       0.800   2.799   0.595  0.00  0.00    -0.082 A 
ATOM      9  C7  UNL d   1       2.007   2.671  -0.134  0.00  0.00     0.045 A 
ENDROOT
TORSDOF 0
ENDMDL
