MODEL 1
REMARK minimizedAffinity 4.20301533
REMARK minimizedRMSD -1
REMARK  0 active torsions:
REMARK  status: ('A' for Active; 'I' for Inactive)
ROOT
ATOM      1  C   UNL d   1       3.375   4.572  -2.864  0.00  0.00     0.077 C 
ATOM      2  C1  UNL d   1       2.562   3.332  -3.088  0.00  0.00    -0.074 A 
ATOM      3  C2  UNL d   1       1.900   3.116  -4.302  0.00  0.00    -0.005 A 
ATOM      4  C3  UNL d   1       1.155   1.954  -4.500  0.00  0.00     0.006 A 
ATOM      5  C4  UNL d   1       1.064   0.997  -3.488  0.00  0.00    -0.005 A 
ATOM      6  C5  UNL d   1       1.719   1.195  -2.268  0.00  0.00    -0.074 A 
ATOM      7  C6  UNL d   1       1.638   0.173  -1.174  0.00  0.00     0.077 C 
ATOM      8  C7  UNL d   1       2.471   2.363  -2.080  0.00  0.00    -0.001 A 
ENDROOT
TORSDOF 0
ENDMDL
