MODEL 1
REMARK minimizedAffinity 10.0869684
REMARK minimizedRMSD -1
REMARK  0 active torsions:
REMARK  status: ('A' for Active; 'I' for Inactive)
ROOT
ATOM      1  C   UNL d   1      -2.989  -1.110   2.083  0.00  0.00     0.077 C 
ATOM      2  C1  UNL d   1      -2.594  -2.270   1.218  0.00  0.00    -0.074 A 
ATOM      3  C2  UNL d   1      -3.000  -2.341  -0.118  0.00  0.00    -0.005 A 
ATOM      4  C3  UNL d   1      -2.617  -3.421  -0.913  0.00  0.00     0.006 A 
ATOM      5  C4  UNL d   1      -1.825  -4.439  -0.381  0.00  0.00    -0.005 A 
ATOM      6  C5  UNL d   1      -1.408  -4.385   0.953  0.00  0.00    -0.074 A 
ATOM      7  C6  UNL d   1      -0.548  -5.465   1.538  0.00  0.00     0.077 C 
ATOM      8  C7  UNL d   1      -1.791  -3.292   1.744  0.00  0.00    -0.001 A 
ENDROOT
TORSDOF 0
ENDMDL
