MODEL 1
REMARK minimizedAffinity 3.76763082
REMARK minimizedRMSD -1
REMARK  0 active torsions:
REMARK  status: ('A' for Active; 'I' for Inactive)
ROOT
ATOM      1  C   UNL d   1       0.545   1.004  -6.000  0.00  0.00     0.077 C 
ATOM      2  C1  UNL d   1       0.956   0.745  -4.581  0.00  0.00    -0.074 A 
ATOM      3  C2  UNL d   1       1.867   1.584  -3.931  0.00  0.00    -0.005 A 
ATOM      4  C3  UNL d   1       2.232   1.336  -2.608  0.00  0.00     0.006 A 
ATOM      5  C4  UNL d   1       1.691   0.248  -1.923  0.00  0.00    -0.005 A 
ATOM      6  C5  UNL d   1       0.779  -0.602  -2.555  0.00  0.00    -0.074 A 
ATOM      7  C6  UNL d   1       0.181  -1.771  -1.830  0.00  0.00     0.077 C 
ATOM      8  C7  UNL d   1       0.411  -0.342  -3.883  0.00  0.00    -0.001 A 
ENDROOT
TORSDOF 0
ENDMDL
