MODEL 1
REMARK minimizedAffinity 14.4081163
REMARK minimizedRMSD -1
REMARK  0 active torsions:
REMARK  status: ('A' for Active; 'I' for Inactive)
ROOT
ATOM      1  C   UNL d   1       6.000  -5.880   3.753  0.00  0.00     0.077 C 
ATOM      2  C1  UNL d   1       4.501  -5.924   3.792  0.00  0.00    -0.074 A 
ATOM      3  C2  UNL d   1       3.814  -5.965   5.009  0.00  0.00    -0.005 A 
ATOM      4  C3  UNL d   1       2.420  -5.997   5.030  0.00  0.00     0.006 A 
ATOM      5  C4  UNL d   1       1.699  -5.987   3.835  0.00  0.00    -0.005 A 
ATOM      6  C5  UNL d   1       2.369  -5.946   2.608  0.00  0.00    -0.074 A 
ATOM      7  C6  UNL d   1       1.609  -5.925   1.314  0.00  0.00     0.077 C 
ATOM      8  C7  UNL d   1       3.770  -5.907   2.596  0.00  0.00    -0.001 A 
ENDROOT
TORSDOF 0
ENDMDL
