MODEL 1
REMARK minimizedAffinity 9.74916458
REMARK minimizedRMSD -1
REMARK  0 active torsions:
REMARK  status: ('A' for Active; 'I' for Inactive)
ROOT
ATOM      1  C   UNL d   1       2.542   3.600  -2.410  0.00  0.00     0.077 C 
ATOM      2  C1  UNL d   1       1.947   2.226  -2.332  0.00  0.00    -0.074 A 
ATOM      3  C2  UNL d   1       2.693   1.098  -2.691  0.00  0.00    -0.005 A 
ATOM      4  C3  UNL d   1       2.129  -0.175  -2.605  0.00  0.00     0.006 A 
ATOM      5  C4  UNL d   1       0.816  -0.333  -2.160  0.00  0.00    -0.005 A 
ATOM      6  C5  UNL d   1       0.055   0.783  -1.796  0.00  0.00    -0.074 A 
ATOM      7  C6  UNL d   1      -1.355   0.629  -1.307  0.00  0.00     0.077 C 
ATOM      8  C7  UNL d   1       0.631   2.058  -1.879  0.00  0.00    -0.001 A 
ENDROOT
TORSDOF 0
ENDMDL
