MODEL 1
REMARK minimizedAffinity 11.1435308
REMARK minimizedRMSD -1
REMARK  0 active torsions:
REMARK  status: ('A' for Active; 'I' for Inactive)
ROOT
ATOM      1  C   UNL d   1       3.211  -0.654  -0.691  0.00  0.00     0.077 C 
ATOM      2  C1  UNL d   1       2.231   0.108  -1.534  0.00  0.00    -0.074 A 
ATOM      3  C2  UNL d   1       0.970  -0.421  -1.825  0.00  0.00    -0.005 A 
ATOM      4  C3  UNL d   1       0.066   0.303  -2.602  0.00  0.00     0.006 A 
ATOM      5  C4  UNL d   1       0.414   1.561  -3.096  0.00  0.00    -0.005 A 
ATOM      6  C5  UNL d   1       1.671   2.106  -2.814  0.00  0.00    -0.074 A 
ATOM      7  C6  UNL d   1       2.057   3.461  -3.329  0.00  0.00     0.077 C 
ATOM      8  C7  UNL d   1       2.571   1.375  -2.027  0.00  0.00    -0.001 A 
ENDROOT
TORSDOF 0
ENDMDL
