MODEL 1
REMARK minimizedAffinity 12.4666986
REMARK minimizedRMSD -1
REMARK  0 active torsions:
REMARK  status: ('A' for Active; 'I' for Inactive)
ROOT
ATOM      1  C   UNL d   1      -1.860   0.364  -1.277  0.00  0.00     0.077 C 
ATOM      2  C1  UNL d   1      -2.416   0.002   0.068  0.00  0.00    -0.074 A 
ATOM      3  C2  UNL d   1      -2.898  -1.286   0.323  0.00  0.00    -0.005 A 
ATOM      4  C3  UNL d   1      -3.404  -1.612   1.582  0.00  0.00     0.006 A 
ATOM      5  C4  UNL d   1      -3.431  -0.654   2.597  0.00  0.00    -0.005 A 
ATOM      6  C5  UNL d   1      -2.952   0.638   2.361  0.00  0.00    -0.074 A 
ATOM      7  C6  UNL d   1      -2.965   1.676   3.444  0.00  0.00     0.077 C 
ATOM      8  C7  UNL d   1      -2.439   0.955   1.096  0.00  0.00    -0.001 A 
ENDROOT
TORSDOF 0
ENDMDL
