MODEL 1
REMARK minimizedAffinity 11.3967896
REMARK minimizedRMSD -1
REMARK  0 active torsions:
REMARK  status: ('A' for Active; 'I' for Inactive)
ROOT
ATOM      1  C   UNL d   1       2.693   4.156  -3.400  0.00  0.00     0.077 C 
ATOM      2  C1  UNL d   1       1.851   2.935  -3.627  0.00  0.00    -0.074 A 
ATOM      3  C2  UNL d   1       1.007   2.841  -4.738  0.00  0.00    -0.005 A 
ATOM      4  C3  UNL d   1       0.237   1.696  -4.941  0.00  0.00     0.006 A 
ATOM      5  C4  UNL d   1       0.302   0.636  -4.036  0.00  0.00    -0.005 A 
ATOM      6  C5  UNL d   1       1.140   0.712  -2.919  0.00  0.00    -0.074 A 
ATOM      7  C6  UNL d   1       1.230  -0.422  -1.942  0.00  0.00     0.077 C 
ATOM      8  C7  UNL d   1       1.916   1.863  -2.726  0.00  0.00    -0.001 A 
ENDROOT
TORSDOF 0
ENDMDL
