MODEL 1
REMARK minimizedAffinity 1.29687667
REMARK minimizedRMSD -1
REMARK  0 active torsions:
REMARK  status: ('A' for Active; 'I' for Inactive)
ROOT
ATOM      1  C   UNL d   1       1.756   1.686  -0.008  0.00  0.00     0.077 C 
ATOM      2  C1  UNL d   1       1.710   1.435  -1.486  0.00  0.00    -0.074 A 
ATOM      3  C2  UNL d   1       1.187   0.242  -1.997  0.00  0.00    -0.005 A 
ATOM      4  C3  UNL d   1       1.141   0.027  -3.374  0.00  0.00     0.006 A 
ATOM      5  C4  UNL d   1       1.618   1.000  -4.253  0.00  0.00    -0.005 A 
ATOM      6  C5  UNL d   1       2.143   2.199  -3.762  0.00  0.00    -0.074 A 
ATOM      7  C6  UNL d   1       2.651   3.259  -4.693  0.00  0.00     0.077 C 
ATOM      8  C7  UNL d   1       2.179   2.411  -2.377  0.00  0.00    -0.001 A 
ENDROOT
TORSDOF 0
ENDMDL
