MODEL 1
REMARK minimizedAffinity 3.71562219
REMARK minimizedRMSD -1
REMARK  0 active torsions:
REMARK  status: ('A' for Active; 'I' for Inactive)
ROOT
ATOM      1  C   UNL d   1      -0.472   0.751  -1.274  0.00  0.00     0.077 C 
ATOM      2  C1  UNL d   1       0.758   0.729  -2.133  0.00  0.00    -0.074 A 
ATOM      3  C2  UNL d   1       2.008   0.412  -1.591  0.00  0.00    -0.005 A 
ATOM      4  C3  UNL d   1       3.141   0.387  -2.404  0.00  0.00     0.006 A 
ATOM      5  C4  UNL d   1       3.036   0.678  -3.765  0.00  0.00    -0.005 A 
ATOM      6  C5  UNL d   1       1.794   0.996  -4.324  0.00  0.00    -0.074 A 
ATOM      7  C6  UNL d   1       1.662   1.302  -5.787  0.00  0.00     0.077 C 
ATOM      8  C7  UNL d   1       0.659   1.013  -3.502  0.00  0.00    -0.001 A 
ENDROOT
TORSDOF 0
ENDMDL
