MODEL 1
REMARK minimizedAffinity 14.2053823
REMARK minimizedRMSD -1
REMARK  0 active torsions:
REMARK  status: ('A' for Active; 'I' for Inactive)
ROOT
ATOM      1  C   UNL d   1       1.110  -2.759  -2.657  0.00  0.00     0.077 C 
ATOM      2  C1  UNL d   1       1.459  -1.305  -2.540  0.00  0.00    -0.074 A 
ATOM      3  C2  UNL d   1       1.850  -0.756  -1.314  0.00  0.00    -0.005 A 
ATOM      4  C3  UNL d   1       2.181   0.596  -1.223  0.00  0.00     0.006 A 
ATOM      5  C4  UNL d   1       2.123   1.411  -2.353  0.00  0.00    -0.005 A 
ATOM      6  C5  UNL d   1       1.735   0.880  -3.587  0.00  0.00    -0.074 A 
ATOM      7  C6  UNL d   1       1.678   1.741  -4.815  0.00  0.00     0.077 C 
ATOM      8  C7  UNL d   1       1.412  -0.481  -3.673  0.00  0.00    -0.001 A 
ENDROOT
TORSDOF 0
ENDMDL
