MODEL 1
REMARK minimizedAffinity 6.64700747
REMARK minimizedRMSD -1
REMARK  0 active torsions:
REMARK  status: ('A' for Active; 'I' for Inactive)
ROOT
ATOM      1  C   UNL d   1       0.059   1.879  -5.999  0.00  0.00     0.077 C 
ATOM      2  C1  UNL d   1       0.304   1.530  -4.561  0.00  0.00    -0.074 A 
ATOM      3  C2  UNL d   1       0.225   2.504  -3.561  0.00  0.00    -0.005 A 
ATOM      4  C3  UNL d   1       0.446   2.163  -2.227  0.00  0.00     0.006 A 
ATOM      5  C4  UNL d   1       0.749   0.845  -1.880  0.00  0.00    -0.005 A 
ATOM      6  C5  UNL d   1       0.831  -0.143  -2.867  0.00  0.00    -0.074 A 
ATOM      7  C6  UNL d   1       1.146  -1.565  -2.510  0.00  0.00     0.077 C 
ATOM      8  C7  UNL d   1       0.601   0.207  -4.204  0.00  0.00    -0.001 A 
ENDROOT
TORSDOF 0
ENDMDL
