MODEL 1
REMARK minimizedAffinity 8.47131348
REMARK minimizedRMSD -1
REMARK  0 active torsions:
REMARK  status: ('A' for Active; 'I' for Inactive)
ROOT
ATOM      1  C   UNL d   1       4.103  -0.765   0.707  0.00  0.00     0.077 C 
ATOM      2  C1  UNL d   1       3.388  -0.838  -0.610  0.00  0.00    -0.074 A 
ATOM      3  C2  UNL d   1       3.454   0.218  -1.524  0.00  0.00    -0.005 A 
ATOM      4  C3  UNL d   1       2.791   0.132  -2.748  0.00  0.00     0.006 A 
ATOM      5  C4  UNL d   1       2.057  -1.011  -3.070  0.00  0.00    -0.005 A 
ATOM      6  C5  UNL d   1       1.980  -2.077  -2.169  0.00  0.00    -0.074 A 
ATOM      7  C6  UNL d   1       1.203  -3.316  -2.504  0.00  0.00     0.077 C 
ATOM      8  C7  UNL d   1       2.655  -1.986  -0.944  0.00  0.00    -0.001 A 
ENDROOT
TORSDOF 0
ENDMDL
