MODEL 1
REMARK minimizedAffinity 6.69722223
REMARK minimizedRMSD -1
REMARK  0 active torsions:
REMARK  status: ('A' for Active; 'I' for Inactive)
ROOT
ATOM      1  C   UNL d   1      -1.406  -1.339  -0.722  0.00  0.00     0.077 C 
ATOM      2  C1  UNL d   1      -0.583  -0.342  -1.483  0.00  0.00    -0.074 A 
ATOM      3  C2  UNL d   1       0.506   0.298  -0.883  0.00  0.00    -0.005 A 
ATOM      4  C3  UNL d   1       1.268   1.215  -1.606  0.00  0.00     0.006 A 
ATOM      5  C4  UNL d   1       0.949   1.502  -2.934  0.00  0.00    -0.005 A 
ATOM      6  C5  UNL d   1      -0.136   0.871  -3.551  0.00  0.00    -0.074 A 
ATOM      7  C6  UNL d   1      -0.487   1.160  -4.980  0.00  0.00     0.077 C 
ATOM      8  C7  UNL d   1      -0.893  -0.055  -2.820  0.00  0.00    -0.001 A 
ENDROOT
TORSDOF 0
ENDMDL
