MODEL 1
REMARK minimizedAffinity 8.90359402
REMARK minimizedRMSD -1
REMARK  0 active torsions:
REMARK  status: ('A' for Active; 'I' for Inactive)
ROOT
ATOM      1  C   UNL d   1      -2.270   6.000   5.954  0.00  0.00     0.077 C 
ATOM      2  C1  UNL d   1      -3.558   5.509   5.364  0.00  0.00    -0.074 A 
ATOM      3  C2  UNL d   1      -4.779   5.753   6.000  0.00  0.00    -0.005 A 
ATOM      4  C3  UNL d   1      -5.970   5.298   5.434  0.00  0.00     0.006 A 
ATOM      5  C4  UNL d   1      -5.952   4.597   4.228  0.00  0.00    -0.005 A 
ATOM      6  C5  UNL d   1      -4.741   4.345   3.577  0.00  0.00    -0.074 A 
ATOM      7  C6  UNL d   1      -4.704   3.601   2.275  0.00  0.00     0.077 C 
ATOM      8  C7  UNL d   1      -3.549   4.810   4.148  0.00  0.00    -0.001 A 
ENDROOT
TORSDOF 0
ENDMDL
