MODEL 1
REMARK minimizedAffinity -6.40270138
REMARK minimizedRMSD -1
REMARK  0 active torsions:
REMARK  status: ('A' for Active; 'I' for Inactive)
ROOT
ATOM      1  C   UNL d   1      -3.373   1.118   4.622  0.00  0.00     0.077 C 
ATOM      2  C1  UNL d   1      -3.301   1.183   3.125  0.00  0.00    -0.074 A 
ATOM      3  C2  UNL d   1      -3.241   2.413   2.462  0.00  0.00    -0.005 A 
ATOM      4  C3  UNL d   1      -3.165   2.458   1.070  0.00  0.00     0.006 A 
ATOM      5  C4  UNL d   1      -3.148   1.276   0.329  0.00  0.00    -0.005 A 
ATOM      6  C5  UNL d   1      -3.207   0.038   0.974  0.00  0.00    -0.074 A 
ATOM      7  C6  UNL d   1      -3.180  -1.242   0.193  0.00  0.00     0.077 C 
ATOM      8  C7  UNL d   1      -3.276   0.000   2.374  0.00  0.00    -0.001 A 
ENDROOT
TORSDOF 0
ENDMDL
