MODEL 1
REMARK minimizedAffinity 5.09811544
REMARK minimizedRMSD -1
REMARK  0 active torsions:
REMARK  status: ('A' for Active; 'I' for Inactive)
ROOT
ATOM      1  C   UNL d   1       4.057   1.077  -0.471  0.00  0.00     0.077 C 
ATOM      2  C1  UNL d   1       3.455  -0.218  -0.930  0.00  0.00    -0.074 A 
ATOM      3  C2  UNL d   1       3.630  -0.666  -2.243  0.00  0.00    -0.005 A 
ATOM      4  C3  UNL d   1       3.072  -1.877  -2.653  0.00  0.00     0.006 A 
ATOM      5  C4  UNL d   1       2.336  -2.651  -1.756  0.00  0.00    -0.005 A 
ATOM      6  C5  UNL d   1       2.151  -2.220  -0.438  0.00  0.00    -0.074 A 
ATOM      7  C6  UNL d   1       1.370  -3.044   0.542  0.00  0.00     0.077 C 
ATOM      8  C7  UNL d   1       2.720  -1.005  -0.032  0.00  0.00    -0.001 A 
ENDROOT
TORSDOF 0
ENDMDL
