MODEL 1
REMARK minimizedAffinity 5.95980835
REMARK minimizedRMSD -1
REMARK  0 active torsions:
REMARK  status: ('A' for Active; 'I' for Inactive)
ROOT
ATOM      1  C   UNL d   1      -5.338   0.391  -1.063  0.00  0.00     0.077 C 
ATOM      2  C1  UNL d   1      -3.914   0.856  -1.144  0.00  0.00    -0.074 A 
ATOM      3  C2  UNL d   1      -3.063   0.392  -2.152  0.00  0.00    -0.005 A 
ATOM      4  C3  UNL d   1      -1.744   0.841  -2.220  0.00  0.00     0.006 A 
ATOM      5  C4  UNL d   1      -1.264   1.757  -1.283  0.00  0.00    -0.005 A 
ATOM      6  C5  UNL d   1      -2.101   2.233  -0.269  0.00  0.00    -0.074 A 
ATOM      7  C6  UNL d   1      -1.605   3.225   0.741  0.00  0.00     0.077 C 
ATOM      8  C7  UNL d   1      -3.427   1.782  -0.211  0.00  0.00    -0.001 A 
ENDROOT
TORSDOF 0
ENDMDL
