MODEL 1
REMARK minimizedAffinity 7.91008091
REMARK minimizedRMSD -1
REMARK  0 active torsions:
REMARK  status: ('A' for Active; 'I' for Inactive)
ROOT
ATOM      1  C   UNL d   1       2.573   0.627   0.349  0.00  0.00     0.077 C 
ATOM      2  C1  UNL d   1       1.206   0.876   0.912  0.00  0.00    -0.074 A 
ATOM      3  C2  UNL d   1       0.985   0.871   2.293  0.00  0.00    -0.005 A 
ATOM      4  C3  UNL d   1      -0.290   1.113   2.803  0.00  0.00     0.006 A 
ATOM      5  C4  UNL d   1      -1.357   1.363   1.938  0.00  0.00    -0.005 A 
ATOM      6  C5  UNL d   1      -1.155   1.373   0.554  0.00  0.00    -0.074 A 
ATOM      7  C6  UNL d   1      -2.288   1.649  -0.389  0.00  0.00     0.077 C 
ATOM      8  C7  UNL d   1       0.131   1.135   0.050  0.00  0.00    -0.001 A 
ENDROOT
TORSDOF 0
ENDMDL
