MODEL 1
REMARK minimizedAffinity 10.0261469
REMARK minimizedRMSD -1
REMARK  0 active torsions:
REMARK  status: ('A' for Active; 'I' for Inactive)
ROOT
ATOM      1  C   UNL d   1      -0.239   1.729   3.347  0.00  0.00     0.077 C 
ATOM      2  C1  UNL d   1      -0.869   2.381   2.152  0.00  0.00    -0.074 A 
ATOM      3  C2  UNL d   1      -1.398   3.673   2.234  0.00  0.00    -0.005 A 
ATOM      4  C3  UNL d   1      -1.972   4.271   1.112  0.00  0.00     0.006 A 
ATOM      5  C4  UNL d   1      -2.023   3.583  -0.101  0.00  0.00    -0.005 A 
ATOM      6  C5  UNL d   1      -1.498   2.291  -0.203  0.00  0.00    -0.074 A 
ATOM      7  C6  UNL d   1      -1.535   1.543  -1.502  0.00  0.00     0.077 C 
ATOM      8  C7  UNL d   1      -0.916   1.700   0.928  0.00  0.00    -0.001 A 
ENDROOT
TORSDOF 0
ENDMDL
