MODEL 1
REMARK minimizedAffinity 0.738733709
REMARK minimizedRMSD -1
REMARK  0 active torsions:
REMARK  status: ('A' for Active; 'I' for Inactive)
ROOT
ATOM      1  C   UNL d   1       0.889  -2.675   0.039  0.00  0.00     0.077 C 
ATOM      2  C1  UNL d   1       2.032  -1.865  -0.496  0.00  0.00    -0.074 A 
ATOM      3  C2  UNL d   1       2.893  -2.390  -1.465  0.00  0.00    -0.005 A 
ATOM      4  C3  UNL d   1       3.947  -1.622  -1.960  0.00  0.00     0.006 A 
ATOM      5  C4  UNL d   1       4.150  -0.323  -1.491  0.00  0.00    -0.005 A 
ATOM      6  C5  UNL d   1       3.299   0.219  -0.523  0.00  0.00    -0.074 A 
ATOM      7  C6  UNL d   1       3.497   1.616  -0.016  0.00  0.00     0.077 C 
ATOM      8  C7  UNL d   1       2.238  -0.557  -0.036  0.00  0.00    -0.001 A 
ENDROOT
TORSDOF 0
ENDMDL
