MODEL 1
REMARK minimizedAffinity 6.74657345
REMARK minimizedRMSD -1
REMARK  0 active torsions:
REMARK  status: ('A' for Active; 'I' for Inactive)
ROOT
ATOM      1  C   UNL d   1       2.411   0.854  -0.137  0.00  0.00     0.077 C 
ATOM      2  C1  UNL d   1       1.159   1.031   0.669  0.00  0.00    -0.074 A 
ATOM      3  C2  UNL d   1      -0.017   1.501   0.077  0.00  0.00    -0.005 A 
ATOM      4  C3  UNL d   1      -1.177   1.652   0.837  0.00  0.00     0.006 A 
ATOM      5  C4  UNL d   1      -1.172   1.334   2.196  0.00  0.00    -0.005 A 
ATOM      6  C5  UNL d   1      -0.005   0.862   2.806  0.00  0.00    -0.074 A 
ATOM      7  C6  UNL d   1       0.014   0.507   4.263  0.00  0.00     0.077 C 
ATOM      8  C7  UNL d   1       1.154   0.707   2.033  0.00  0.00    -0.001 A 
ENDROOT
TORSDOF 0
ENDMDL
