MODEL 1
REMARK minimizedAffinity 1.49845016
REMARK minimizedRMSD -1
REMARK  0 active torsions:
REMARK  status: ('A' for Active; 'I' for Inactive)
ROOT
ATOM      1  C   UNL d   1       0.022   0.052   3.993  0.00  0.00     0.077 C 
ATOM      2  C1  UNL d   1       0.409   0.235   2.555  0.00  0.00    -0.074 A 
ATOM      3  C2  UNL d   1       1.587  -0.325   2.051  0.00  0.00    -0.005 A 
ATOM      4  C3  UNL d   1       1.929  -0.154   0.709  0.00  0.00     0.006 A 
ATOM      5  C4  UNL d   1       1.098   0.578  -0.140  0.00  0.00    -0.005 A 
ATOM      6  C5  UNL d   1      -0.084   1.146   0.347  0.00  0.00    -0.074 A 
ATOM      7  C6  UNL d   1      -0.992   1.928  -0.554  0.00  0.00     0.077 C 
ATOM      8  C7  UNL d   1      -0.424   0.963   1.694  0.00  0.00    -0.001 A 
ENDROOT
TORSDOF 0
ENDMDL
