MODEL 1
REMARK minimizedAffinity 0.341211379
REMARK minimizedRMSD -1
REMARK  0 active torsions:
REMARK  status: ('A' for Active; 'I' for Inactive)
ROOT
ATOM      1  C   UNL d   1       2.705   0.371   0.157  0.00  0.00     0.077 C 
ATOM      2  C1  UNL d   1       1.430   0.619   0.905  0.00  0.00    -0.074 A 
ATOM      3  C2  UNL d   1       1.338   0.358   2.276  0.00  0.00    -0.005 A 
ATOM      4  C3  UNL d   1       0.147   0.603   2.960  0.00  0.00     0.006 A 
ATOM      5  C4  UNL d   1      -0.962   1.111   2.281  0.00  0.00    -0.005 A 
ATOM      6  C5  UNL d   1      -0.888   1.379   0.911  0.00  0.00    -0.074 A 
ATOM      7  C6  UNL d   1      -2.067   1.934   0.169  0.00  0.00     0.077 C 
ATOM      8  C7  UNL d   1       0.314   1.136   0.232  0.00  0.00    -0.001 A 
ENDROOT
TORSDOF 0
ENDMDL
