MODEL 1
REMARK minimizedAffinity 6.26916647
REMARK minimizedRMSD -1
REMARK  0 active torsions:
REMARK  status: ('A' for Active; 'I' for Inactive)
ROOT
ATOM      1  C   UNL d   1       5.262   1.128  -0.667  0.00  0.00     0.077 C 
ATOM      2  C1  UNL d   1       3.940   0.588  -0.212  0.00  0.00    -0.074 A 
ATOM      3  C2  UNL d   1       3.016   1.407   0.446  0.00  0.00    -0.005 A 
ATOM      4  C3  UNL d   1       1.786   0.892   0.855  0.00  0.00     0.006 A 
ATOM      5  C4  UNL d   1       1.467  -0.445   0.611  0.00  0.00    -0.005 A 
ATOM      6  C5  UNL d   1       2.378  -1.279  -0.046  0.00  0.00    -0.074 A 
ATOM      7  C6  UNL d   1       2.048  -2.715  -0.324  0.00  0.00     0.077 C 
ATOM      8  C7  UNL d   1       3.609  -0.752  -0.460  0.00  0.00    -0.001 A 
ENDROOT
TORSDOF 0
ENDMDL
