MODEL 1
REMARK minimizedAffinity 3.75602794
REMARK minimizedRMSD -1
REMARK  0 active torsions:
REMARK  status: ('A' for Active; 'I' for Inactive)
ROOT
ATOM      1  C   UNL d   1       2.683   0.871   0.155  0.00  0.00     0.077 C 
ATOM      2  C1  UNL d   1       1.294   0.956   0.716  0.00  0.00    -0.074 A 
ATOM      3  C2  UNL d   1       1.060   0.787   2.084  0.00  0.00    -0.005 A 
ATOM      4  C3  UNL d   1      -0.236   0.879   2.592  0.00  0.00     0.006 A 
ATOM      5  C4  UNL d   1      -1.308   1.141   1.739  0.00  0.00    -0.005 A 
ATOM      6  C5  UNL d   1      -1.093   1.315   0.368  0.00  0.00    -0.074 A 
ATOM      7  C6  UNL d   1      -2.233   1.607  -0.561  0.00  0.00     0.077 C 
ATOM      8  C7  UNL d   1       0.212   1.228  -0.134  0.00  0.00    -0.001 A 
ENDROOT
TORSDOF 0
ENDMDL
