MODEL 1
REMARK minimizedAffinity 4.22031832
REMARK minimizedRMSD -1
REMARK  0 active torsions:
REMARK  status: ('A' for Active; 'I' for Inactive)
ROOT
ATOM      1  C   UNL d   1       2.606   0.586   0.032  0.00  0.00     0.077 C 
ATOM      2  C1  UNL d   1       1.279   0.842   0.682  0.00  0.00    -0.074 A 
ATOM      3  C2  UNL d   1       1.104   0.655   2.057  0.00  0.00    -0.005 A 
ATOM      4  C3  UNL d   1      -0.133   0.906   2.650  0.00  0.00     0.006 A 
ATOM      5  C4  UNL d   1      -1.207   1.346   1.874  0.00  0.00    -0.005 A 
ATOM      6  C5  UNL d   1      -1.051   1.539   0.498  0.00  0.00    -0.074 A 
ATOM      7  C6  UNL d   1      -2.192   2.020  -0.348  0.00  0.00     0.077 C 
ATOM      8  C7  UNL d   1       0.197   1.291  -0.089  0.00  0.00    -0.001 A 
ENDROOT
TORSDOF 0
ENDMDL
