MODEL 1
REMARK minimizedAffinity -2.53702331
REMARK minimizedRMSD -1
REMARK  0 active torsions:
REMARK  status: ('A' for Active; 'I' for Inactive)
ROOT
ATOM      1  C   UNL d   1       3.595  -2.710  -1.490  0.00  0.00     0.077 C 
ATOM      2  C1  UNL d   1       3.161  -1.548  -0.646  0.00  0.00    -0.074 A 
ATOM      3  C2  UNL d   1       3.613  -0.253  -0.919  0.00  0.00    -0.005 A 
ATOM      4  C3  UNL d   1       3.193   0.819  -0.132  0.00  0.00     0.006 A 
ATOM      5  C4  UNL d   1       2.319   0.607   0.935  0.00  0.00    -0.005 A 
ATOM      6  C5  UNL d   1       1.857  -0.681   1.223  0.00  0.00    -0.074 A 
ATOM      7  C6  UNL d   1       0.909  -0.924   2.360  0.00  0.00     0.077 C 
ATOM      8  C7  UNL d   1       2.277  -1.752   0.423  0.00  0.00    -0.001 A 
ENDROOT
TORSDOF 0
ENDMDL
