MODEL 1
REMARK minimizedAffinity -1.94807792
REMARK minimizedRMSD -1
REMARK  0 active torsions:
REMARK  status: ('A' for Active; 'I' for Inactive)
ROOT
ATOM      1  C1  DEN d   1       2.068  -0.269  -0.759  0.00  0.00     0.130 A 
ATOM      2  C2  DEN d   1       1.305  -1.301  -1.456  0.00  0.00    -0.031 A 
ATOM      3  C3  DEN d   1      -0.102  -1.203  -1.018  0.00  0.00     0.027 A 
ATOM      4  C4  DEN d   1      -1.168   0.441   0.660  0.00  0.00     0.027 A 
ATOM      5  C5  DEN d   1      -0.918   1.491   1.516  0.00  0.00    -0.003 A 
ATOM      6  C6  DEN d   1       0.340   2.001   1.698  0.00  0.00     0.001 A 
ATOM      7  C7  DEN d   1       1.389   1.492   0.980  0.00  0.00     0.017 A 
ATOM      8  C8  DEN d   1       1.147   0.428   0.120  0.00  0.00    -0.094 A 
ATOM      9  C9  DEN d   1      -0.134  -0.065  -0.059  0.00  0.00    -0.072 A 
ENDROOT
TORSDOF 0
ENDMDL
