MODEL 1
REMARK minimizedAffinity -3.24329448
REMARK minimizedRMSD -1
REMARK  0 active torsions:
REMARK  status: ('A' for Active; 'I' for Inactive)
ROOT
ATOM      1  C1  DEN d   1       1.578   2.250  -0.065  0.00  0.00     0.130 A 
ATOM      2  C2  DEN d   1       1.537   2.695   1.325  0.00  0.00    -0.031 A 
ATOM      3  C3  DEN d   1       0.668   1.767   2.076  0.00  0.00     0.027 A 
ATOM      4  C4  DEN d   1      -0.607  -0.308   1.226  0.00  0.00     0.027 A 
ATOM      5  C5  DEN d   1      -0.889  -1.076   0.119  0.00  0.00    -0.003 A 
ATOM      6  C6  DEN d   1      -0.400  -0.773  -1.124  0.00  0.00     0.001 A 
ATOM      7  C7  DEN d   1       0.435   0.302  -1.282  0.00  0.00     0.017 A 
ATOM      8  C8  DEN d   1       0.717   1.086  -0.171  0.00  0.00    -0.094 A 
ATOM      9  C9  DEN d   1       0.223   0.756   1.080  0.00  0.00    -0.072 A 
ENDROOT
TORSDOF 0
ENDMDL
