MODEL 1
REMARK minimizedAffinity -5.28249311
REMARK minimizedRMSD -1
REMARK  0 active torsions:
REMARK  status: ('A' for Active; 'I' for Inactive)
ROOT
ATOM      1  C1  DEN d   1       2.234   0.670  -0.721  0.00  0.00     0.130 A 
ATOM      2  C2  DEN d   1       2.060  -0.745  -1.041  0.00  0.00    -0.031 A 
ATOM      3  C3  DEN d   1       0.808  -1.205  -0.406  0.00  0.00     0.027 A 
ATOM      4  C4  DEN d   1      -0.870   0.128   1.028  0.00  0.00     0.027 A 
ATOM      5  C5  DEN d   1      -1.144   1.359   1.582  0.00  0.00    -0.003 A 
ATOM      6  C6  DEN d   1      -0.301   2.428   1.437  0.00  0.00     0.001 A 
ATOM      7  C7  DEN d   1       0.835   2.300   0.682  0.00  0.00     0.017 A 
ATOM      8  C8  DEN d   1       1.121   1.060   0.127  0.00  0.00    -0.094 A 
ATOM      9  C9  DEN d   1       0.250  -0.006   0.274  0.00  0.00    -0.072 A 
ENDROOT
TORSDOF 0
ENDMDL
