MODEL 1
REMARK minimizedAffinity -2.62097073
REMARK minimizedRMSD -1
REMARK  0 active torsions:
REMARK  status: ('A' for Active; 'I' for Inactive)
ROOT
ATOM      1  C1  DEN d   1      -1.337   0.508   2.060  0.00  0.00     0.130 A 
ATOM      2  C2  DEN d   1      -1.692  -0.585   1.159  0.00  0.00    -0.031 A 
ATOM      3  C3  DEN d   1      -0.730  -0.583   0.038  0.00  0.00     0.027 A 
ATOM      4  C4  DEN d   1       1.266   0.996  -0.384  0.00  0.00     0.027 A 
ATOM      5  C5  DEN d   1       1.957   2.085   0.098  0.00  0.00    -0.003 A 
ATOM      6  C6  DEN d   1       1.582   2.741   1.241  0.00  0.00     0.001 A 
ATOM      7  C7  DEN d   1       0.511   2.285   1.964  0.00  0.00     0.017 A 
ATOM      8  C8  DEN d   1      -0.195   1.191   1.480  0.00  0.00    -0.094 A 
ATOM      9  C9  DEN d   1       0.208   0.535   0.330  0.00  0.00    -0.072 A 
ENDROOT
TORSDOF 0
ENDMDL
