MODEL 1
REMARK minimizedAffinity -5.68564177
REMARK minimizedRMSD -1
REMARK  0 active torsions:
REMARK  status: ('A' for Active; 'I' for Inactive)
ROOT
ATOM      1  C1  DEN d   1      -1.353   1.062   1.962  0.00  0.00     0.130 A 
ATOM      2  C2  DEN d   1      -0.620   2.200   2.508  0.00  0.00    -0.031 A 
ATOM      3  C3  DEN d   1       0.607   2.381   1.707  0.00  0.00     0.027 A 
ATOM      4  C4  DEN d   1       1.437   1.017  -0.319  0.00  0.00     0.027 A 
ATOM      5  C5  DEN d   1       1.160  -0.052  -1.142  0.00  0.00    -0.003 A 
ATOM      6  C6  DEN d   1       0.052  -0.839  -0.968  0.00  0.00     0.001 A 
ATOM      7  C7  DEN d   1      -0.843  -0.541   0.024  0.00  0.00     0.017 A 
ATOM      8  C8  DEN d   1      -0.567   0.530   0.863  0.00  0.00    -0.094 A 
ATOM      9  C9  DEN d   1       0.552   1.321   0.664  0.00  0.00    -0.072 A 
ENDROOT
TORSDOF 0
ENDMDL
