MODEL 1
REMARK minimizedAffinity -2.81868792
REMARK minimizedRMSD -1
REMARK  0 active torsions:
REMARK  status: ('A' for Active; 'I' for Inactive)
ROOT
ATOM      1  C1  DEN d   1      -1.291  -0.152   1.190  0.00  0.00     0.130 A 
ATOM      2  C2  DEN d   1      -1.084  -1.020   0.034  0.00  0.00    -0.031 A 
ATOM      3  C3  DEN d   1       0.024  -0.459  -0.765  0.00  0.00     0.027 A 
ATOM      4  C4  DEN d   1       1.434   1.655  -0.324  0.00  0.00     0.027 A 
ATOM      5  C5  DEN d   1       1.621   2.723   0.525  0.00  0.00    -0.003 A 
ATOM      6  C6  DEN d   1       0.835   2.924   1.629  0.00  0.00     0.001 A 
ATOM      7  C7  DEN d   1      -0.147   2.020   1.937  0.00  0.00     0.017 A 
ATOM      8  C8  DEN d   1      -0.346   0.945   1.081  0.00  0.00    -0.094 A 
ATOM      9  C9  DEN d   1       0.467   0.752  -0.023  0.00  0.00    -0.072 A 
ENDROOT
TORSDOF 0
ENDMDL
