MODEL 1
REMARK minimizedAffinity -2.61588287
REMARK minimizedRMSD -1
REMARK  0 active torsions:
REMARK  status: ('A' for Active; 'I' for Inactive)
ROOT
ATOM      1  C1  DEN d   1      -0.578   0.917  -0.957  0.00  0.00     0.130 A 
ATOM      2  C2  DEN d   1       0.186   0.233   0.083  0.00  0.00    -0.031 A 
ATOM      3  C3  DEN d   1      -0.095  -1.213  -0.020  0.00  0.00     0.027 A 
ATOM      4  C4  DEN d   1      -1.627  -2.454  -1.684  0.00  0.00     0.027 A 
ATOM      5  C5  DEN d   1      -2.493  -2.297  -2.744  0.00  0.00    -0.003 A 
ATOM      6  C6  DEN d   1      -2.805  -1.066  -3.256  0.00  0.00     0.001 A 
ATOM      7  C7  DEN d   1      -2.212   0.055  -2.738  0.00  0.00     0.017 A 
ATOM      8  C8  DEN d   1      -1.343  -0.094  -1.665  0.00  0.00    -0.094 A 
ATOM      9  C9  DEN d   1      -1.031  -1.348  -1.169  0.00  0.00    -0.072 A 
ENDROOT
TORSDOF 0
ENDMDL
