MODEL 1
REMARK minimizedAffinity -3.85809422
REMARK minimizedRMSD -1
REMARK  0 active torsions:
REMARK  status: ('A' for Active; 'I' for Inactive)
ROOT
ATOM      1  C1  DEN d   1      -1.209   0.596   1.855  0.00  0.00     0.130 A 
ATOM      2  C2  DEN d   1      -0.444   1.698   2.432  0.00  0.00    -0.031 A 
ATOM      3  C3  DEN d   1       0.717   1.955   1.557  0.00  0.00     0.027 A 
ATOM      4  C4  DEN d   1       1.399   0.764  -0.627  0.00  0.00     0.027 A 
ATOM      5  C5  DEN d   1       1.066  -0.241  -1.508  0.00  0.00    -0.003 A 
ATOM      6  C6  DEN d   1      -0.020  -1.053  -1.314  0.00  0.00     0.001 A 
ATOM      7  C7  DEN d   1      -0.838  -0.845  -0.235  0.00  0.00     0.017 A 
ATOM      8  C8  DEN d   1      -0.506   0.162   0.662  0.00  0.00    -0.094 A 
ATOM      9  C9  DEN d   1       0.589   0.980   0.441  0.00  0.00    -0.072 A 
ENDROOT
TORSDOF 0
ENDMDL
