MODEL 1
REMARK minimizedAffinity -5.02682018
REMARK minimizedRMSD -1
REMARK  0 active torsions:
REMARK  status: ('A' for Active; 'I' for Inactive)
ROOT
ATOM      1  C1  DEN d   1       1.733  -0.310  -0.697  0.00  0.00     0.130 A 
ATOM      2  C2  DEN d   1       0.834  -1.461  -0.695  0.00  0.00    -0.031 A 
ATOM      3  C3  DEN d   1      -0.389  -1.084   0.042  0.00  0.00     0.027 A 
ATOM      4  C4  DEN d   1      -0.977   1.161   1.167  0.00  0.00     0.027 A 
ATOM      5  C5  DEN d   1      -0.525   2.433   1.439  0.00  0.00    -0.003 A 
ATOM      6  C6  DEN d   1       0.716   2.865   1.051  0.00  0.00     0.001 A 
ATOM      7  C7  DEN d   1       1.529   2.033   0.329  0.00  0.00     0.017 A 
ATOM      8  C8  DEN d   1       1.083   0.746   0.057  0.00  0.00    -0.094 A 
ATOM      9  C9  DEN d   1      -0.179   0.332   0.448  0.00  0.00    -0.072 A 
ENDROOT
TORSDOF 0
ENDMDL
