MODEL 1
REMARK minimizedAffinity -2.29303503
REMARK minimizedRMSD -1
REMARK  0 active torsions:
REMARK  status: ('A' for Active; 'I' for Inactive)
ROOT
ATOM      1  C1  DEN d   1       1.749   2.129   0.735  0.00  0.00     0.130 A 
ATOM      2  C2  DEN d   1       0.496   2.565   1.346  0.00  0.00    -0.031 A 
ATOM      3  C3  DEN d   1      -0.522   1.526   1.090  0.00  0.00     0.027 A 
ATOM      4  C4  DEN d   1      -0.280  -0.705  -0.181  0.00  0.00     0.027 A 
ATOM      5  C5  DEN d   1       0.589  -1.506  -0.888  0.00  0.00    -0.003 A 
ATOM      6  C6  DEN d   1       1.887  -1.139  -1.130  0.00  0.00     0.001 A 
ATOM      7  C7  DEN d   1       2.364   0.041  -0.623  0.00  0.00     0.017 A 
ATOM      8  C8  DEN d   1       1.491   0.857   0.084  0.00  0.00    -0.094 A 
ATOM      9  C9  DEN d   1       0.187   0.463   0.329  0.00  0.00    -0.072 A 
ENDROOT
TORSDOF 0
ENDMDL
