MODEL 1
REMARK minimizedAffinity -3.40246844
REMARK minimizedRMSD -1
REMARK  0 active torsions:
REMARK  status: ('A' for Active; 'I' for Inactive)
ROOT
ATOM      1  C1  DEN d   1      -1.438  -0.267   0.857  0.00  0.00     0.130 A 
ATOM      2  C2  DEN d   1      -1.401  -1.150  -0.305  0.00  0.00    -0.031 A 
ATOM      3  C3  DEN d   1      -0.154  -0.878  -1.046  0.00  0.00     0.027 A 
ATOM      4  C4  DEN d   1       1.718   0.813  -0.507  0.00  0.00     0.027 A 
ATOM      5  C5  DEN d   1       2.126   1.794   0.370  0.00  0.00    -0.003 A 
ATOM      6  C6  DEN d   1       1.366   2.176   1.443  0.00  0.00     0.001 A 
ATOM      7  C7  DEN d   1       0.177   1.544   1.692  0.00  0.00     0.017 A 
ATOM      8  C8  DEN d   1      -0.245   0.559   0.808  0.00  0.00    -0.094 A 
ATOM      9  C9  DEN d   1       0.543   0.178  -0.264  0.00  0.00    -0.072 A 
ENDROOT
TORSDOF 0
ENDMDL
