MODEL 1
REMARK minimizedAffinity -6.40471983
REMARK minimizedRMSD -1
REMARK  0 active torsions:
REMARK  status: ('A' for Active; 'I' for Inactive)
ROOT
ATOM      1  C1  DEN d   1      -0.773   1.199   1.486  0.00  0.00     0.130 A 
ATOM      2  C2  DEN d   1       0.157   2.294   1.744  0.00  0.00    -0.031 A 
ATOM      3  C3  DEN d   1       1.400   2.024   0.993  0.00  0.00     0.027 A 
ATOM      4  C4  DEN d   1       1.969   0.028  -0.538  0.00  0.00     0.027 A 
ATOM      5  C5  DEN d   1       1.500  -1.159  -1.056  0.00  0.00    -0.003 A 
ATOM      6  C6  DEN d   1       0.264  -1.657  -0.738  0.00  0.00     0.001 A 
ATOM      7  C7  DEN d   1      -0.565  -0.941   0.086  0.00  0.00     0.017 A 
ATOM      8  C8  DEN d   1      -0.096   0.253   0.617  0.00  0.00    -0.094 A 
ATOM      9  C9  DEN d   1       1.152   0.745   0.274  0.00  0.00    -0.072 A 
ENDROOT
TORSDOF 0
ENDMDL
