MODEL 1
REMARK minimizedAffinity -5.06727743
REMARK minimizedRMSD -1
REMARK  0 active torsions:
REMARK  status: ('A' for Active; 'I' for Inactive)
ROOT
ATOM      1  C1  DEN d   1       0.968  -0.922  -0.684  0.00  0.00     0.130 A 
ATOM      2  C2  DEN d   1       2.316  -0.578  -1.128  0.00  0.00    -0.031 A 
ATOM      3  C3  DEN d   1       2.673   0.726  -0.535  0.00  0.00     0.027 A 
ATOM      4  C4  DEN d   1       1.279   2.235   1.024  0.00  0.00     0.027 A 
ATOM      5  C5  DEN d   1       0.069   2.370   1.669  0.00  0.00    -0.003 A 
ATOM      6  C6  DEN d   1      -0.930   1.441   1.549  0.00  0.00     0.001 A 
ATOM      7  C7  DEN d   1      -0.721   0.312   0.801  0.00  0.00     0.017 A 
ATOM      8  C8  DEN d   1       0.493   0.173   0.142  0.00  0.00    -0.094 A 
ATOM      9  C9  DEN d   1       1.495   1.118   0.286  0.00  0.00    -0.072 A 
ENDROOT
TORSDOF 0
ENDMDL
