MODEL 1
REMARK minimizedAffinity -4.2241807
REMARK minimizedRMSD -1
REMARK  0 active torsions:
REMARK  status: ('A' for Active; 'I' for Inactive)
ROOT
ATOM      1  C1  DEN d   1       0.225   2.813   1.135  0.00  0.00     0.130 A 
ATOM      2  C2  DEN d   1       1.673   3.004   1.096  0.00  0.00    -0.031 A 
ATOM      3  C3  DEN d   1       2.287   1.746   0.627  0.00  0.00     0.027 A 
ATOM      4  C4  DEN d   1       1.143  -0.466  -0.046  0.00  0.00     0.027 A 
ATOM      5  C5  DEN d   1      -0.067  -1.112  -0.167  0.00  0.00    -0.003 A 
ATOM      6  C6  DEN d   1      -1.252  -0.512   0.167  0.00  0.00     0.001 A 
ATOM      7  C7  DEN d   1      -1.257   0.789   0.596  0.00  0.00     0.017 A 
ATOM      8  C8  DEN d   1      -0.040   1.445   0.727  0.00  0.00    -0.094 A 
ATOM      9  C9  DEN d   1       1.146   0.825   0.373  0.00  0.00    -0.072 A 
ENDROOT
TORSDOF 0
ENDMDL
