MODEL 1
REMARK minimizedAffinity -3.77424312
REMARK minimizedRMSD -1
REMARK  0 active torsions:
REMARK  status: ('A' for Active; 'I' for Inactive)
ROOT
ATOM      1  C   UNL d   1      -0.665   0.381   0.203  0.00  0.00     0.172 C 
ATOM      2  N   UNL d   1      -0.049  -0.701   0.934  0.00  0.00    -0.070 N 
ATOM      3  C1  UNL d   1      -0.469  -1.190   2.142  0.00  0.00    -0.004 A 
ATOM      4  C2  UNL d   1       0.379  -2.215   2.500  0.00  0.00    -0.047 A 
ATOM      5  C3  UNL d   1       1.344  -2.346   1.473  0.00  0.00    -0.047 A 
ATOM      6  C4  UNL d   1       1.055  -1.397   0.516  0.00  0.00    -0.004 A 
ENDROOT
TORSDOF 0
ENDMDL
