MODEL 1
REMARK minimizedAffinity -1.79630399
REMARK minimizedRMSD -1
REMARK  0 active torsions:
REMARK  status: ('A' for Active; 'I' for Inactive)
ROOT
ATOM      1  C   UNL d   1      -0.330   0.444  -0.196  0.00  0.00     0.172 C 
ATOM      2  N   UNL d   1      -1.228   1.077  -1.134  0.00  0.00    -0.070 N 
ATOM      3  C1  UNL d   1      -2.562   1.310  -0.929  0.00  0.00    -0.004 A 
ATOM      4  C2  UNL d   1      -3.060   1.930  -2.054  0.00  0.00    -0.047 A 
ATOM      5  C3  UNL d   1      -1.989   2.073  -2.968  0.00  0.00    -0.047 A 
ATOM      6  C4  UNL d   1      -0.867   1.537  -2.372  0.00  0.00    -0.004 A 
ENDROOT
TORSDOF 0
ENDMDL
