MODEL 1
REMARK minimizedAffinity -2.29193926
REMARK minimizedRMSD -1
REMARK  0 active torsions:
REMARK  status: ('A' for Active; 'I' for Inactive)
ROOT
ATOM      1  C   UNL d   1      -0.490   3.792  -4.554  0.00  0.00     0.172 C 
ATOM      2  N   UNL d   1      -1.284   2.882  -3.762  0.00  0.00    -0.070 N 
ATOM      3  C1  UNL d   1      -1.843   1.714  -4.207  0.00  0.00    -0.004 A 
ATOM      4  C2  UNL d   1      -2.518   1.139  -3.152  0.00  0.00    -0.047 A 
ATOM      5  C3  UNL d   1      -2.361   1.992  -2.034  0.00  0.00    -0.047 A 
ATOM      6  C4  UNL d   1      -1.593   3.063  -2.439  0.00  0.00    -0.004 A 
ENDROOT
TORSDOF 0
ENDMDL
