MODEL 1
REMARK minimizedAffinity -2.52010345
REMARK minimizedRMSD -1
REMARK  0 active torsions:
REMARK  status: ('A' for Active; 'I' for Inactive)
ROOT
ATOM      1  C   UNL d   1      -1.157   1.388   0.232  0.00  0.00     0.172 C 
ATOM      2  N   UNL d   1      -1.633   1.490  -1.127  0.00  0.00    -0.070 N 
ATOM      3  C1  UNL d   1      -1.073   2.257  -2.114  0.00  0.00    -0.004 A 
ATOM      4  C2  UNL d   1      -1.818   2.080  -3.259  0.00  0.00    -0.047 A 
ATOM      5  C3  UNL d   1      -2.863   1.177  -2.950  0.00  0.00    -0.047 A 
ATOM      6  C4  UNL d   1      -2.725   0.828  -1.624  0.00  0.00    -0.004 A 
ENDROOT
TORSDOF 0
ENDMDL
