MODEL 1
REMARK minimizedAffinity -1.16760957
REMARK minimizedRMSD -1
REMARK  0 active torsions:
REMARK  status: ('A' for Active; 'I' for Inactive)
ROOT
ATOM      1  C   UNL d   1      -0.736   1.211  -0.667  0.00  0.00     0.172 C 
ATOM      2  N   UNL d   1       0.290   0.316  -0.184  0.00  0.00    -0.070 N 
ATOM      3  C1  UNL d   1       1.640   0.506  -0.313  0.00  0.00    -0.004 A 
ATOM      4  C2  UNL d   1       2.275  -0.565   0.276  0.00  0.00    -0.047 A 
ATOM      5  C3  UNL d   1       1.272  -1.430   0.776  0.00  0.00    -0.047 A 
ATOM      6  C4  UNL d   1       0.052  -0.860   0.477  0.00  0.00    -0.004 A 
ENDROOT
TORSDOF 0
ENDMDL
