MODEL 1
REMARK minimizedAffinity -2.31040978
REMARK minimizedRMSD -1
REMARK  0 active torsions:
REMARK  status: ('A' for Active; 'I' for Inactive)
ROOT
ATOM      1  C   UNL d   1      -0.991  -0.460   2.440  0.00  0.00     0.172 C 
ATOM      2  N   UNL d   1       0.134  -0.504   1.536  0.00  0.00    -0.070 N 
ATOM      3  C1  UNL d   1       0.264   0.230   0.387  0.00  0.00    -0.004 A 
ATOM      4  C2  UNL d   1       1.473  -0.098  -0.188  0.00  0.00    -0.047 A 
ATOM      5  C3  UNL d   1       2.090  -1.062   0.643  0.00  0.00    -0.047 A 
ATOM      6  C4  UNL d   1       1.240  -1.296   1.703  0.00  0.00    -0.004 A 
ENDROOT
TORSDOF 0
ENDMDL
