MODEL 1
REMARK minimizedAffinity -2.36472631
REMARK minimizedRMSD -1
REMARK  0 active torsions:
REMARK  status: ('A' for Active; 'I' for Inactive)
ROOT
ATOM      1  C   UNL d   1       2.164  -1.418   0.726  0.00  0.00     0.172 C 
ATOM      2  N   UNL d   1       1.112  -0.478   0.418  0.00  0.00    -0.070 N 
ATOM      3  C1  UNL d   1      -0.196  -0.587   0.811  0.00  0.00    -0.004 A 
ATOM      4  C2  UNL d   1      -0.876   0.506   0.318  0.00  0.00    -0.047 A 
ATOM      5  C3  UNL d   1       0.054   1.298  -0.396  0.00  0.00    -0.047 A 
ATOM      6  C4  UNL d   1       1.277   0.665  -0.318  0.00  0.00    -0.004 A 
ENDROOT
TORSDOF 0
ENDMDL
