MODEL 1
REMARK minimizedAffinity -2.9298768
REMARK minimizedRMSD -1
REMARK  0 active torsions:
REMARK  status: ('A' for Active; 'I' for Inactive)
ROOT
ATOM      1  C   UNL d   1       1.588  -2.168   1.696  0.00  0.00     0.172 C 
ATOM      2  N   UNL d   1       0.517  -1.212   1.538  0.00  0.00    -0.070 N 
ATOM      3  C1  UNL d   1       0.407  -0.296   0.527  0.00  0.00    -0.004 A 
ATOM      4  C2  UNL d   1      -0.750   0.424   0.734  0.00  0.00    -0.047 A 
ATOM      5  C3  UNL d   1      -1.355  -0.075   1.911  0.00  0.00    -0.047 A 
ATOM      6  C4  UNL d   1      -0.550  -1.088   2.389  0.00  0.00    -0.004 A 
ENDROOT
TORSDOF 0
ENDMDL
