MODEL 1
REMARK minimizedAffinity -2.00721455
REMARK minimizedRMSD -1
REMARK  0 active torsions:
REMARK  status: ('A' for Active; 'I' for Inactive)
ROOT
ATOM      1  C   UNL d   1      -0.757   1.511  -0.749  0.00  0.00     0.172 C 
ATOM      2  N   UNL d   1       0.325   0.605  -0.441  0.00  0.00    -0.070 N 
ATOM      3  C1  UNL d   1       0.199  -0.605   0.187  0.00  0.00    -0.004 A 
ATOM      4  C2  UNL d   1       1.456  -1.159   0.292  0.00  0.00    -0.047 A 
ATOM      5  C3  UNL d   1       2.370  -0.249  -0.291  0.00  0.00    -0.047 A 
ATOM      6  C4  UNL d   1       1.643   0.834  -0.736  0.00  0.00    -0.004 A 
ENDROOT
TORSDOF 0
ENDMDL
