MODEL 1
REMARK minimizedAffinity -1.08518481
REMARK minimizedRMSD -1
REMARK  0 active torsions:
REMARK  status: ('A' for Active; 'I' for Inactive)
ROOT
ATOM      1  C   UNL d   1      -1.493   2.471  -2.477  0.00  0.00     0.172 C 
ATOM      2  N   UNL d   1      -0.758   1.620  -1.572  0.00  0.00    -0.070 N 
ATOM      3  C1  UNL d   1       0.497   1.118  -1.790  0.00  0.00    -0.004 A 
ATOM      4  C2  UNL d   1       0.844   0.356  -0.695  0.00  0.00    -0.047 A 
ATOM      5  C3  UNL d   1      -0.241   0.402   0.213  0.00  0.00    -0.047 A 
ATOM      6  C4  UNL d   1      -1.219   1.191  -0.356  0.00  0.00    -0.004 A 
ENDROOT
TORSDOF 0
ENDMDL
