MODEL 1
REMARK minimizedAffinity -3.82744193
REMARK minimizedRMSD -1
REMARK  0 active torsions:
REMARK  status: ('A' for Active; 'I' for Inactive)
ROOT
ATOM      1  C   UNL d   1      -0.627   1.107  -0.081  0.00  0.00     0.172 C 
ATOM      2  N   UNL d   1       0.220   0.025   0.363  0.00  0.00    -0.070 N 
ATOM      3  C1  UNL d   1       1.539  -0.144   0.032  0.00  0.00    -0.004 A 
ATOM      4  C2  UNL d   1       1.986  -1.289   0.655  0.00  0.00    -0.047 A 
ATOM      5  C3  UNL d   1       0.899  -1.828   1.383  0.00  0.00    -0.047 A 
ATOM      6  C4  UNL d   1      -0.181  -0.994   1.185  0.00  0.00    -0.004 A 
ENDROOT
TORSDOF 0
ENDMDL
