MODEL 1
REMARK minimizedAffinity -3.2294333
REMARK minimizedRMSD -1
REMARK  0 active torsions:
REMARK  status: ('A' for Active; 'I' for Inactive)
ROOT
ATOM      1  C   UNL d   1       1.187  -0.391  -0.342  0.00  0.00     0.172 C 
ATOM      2  N   UNL d   1      -0.062   0.094   0.198  0.00  0.00    -0.070 N 
ATOM      3  C1  UNL d   1      -0.758   1.182  -0.255  0.00  0.00    -0.004 A 
ATOM      4  C2  UNL d   1      -1.891   1.311   0.519  0.00  0.00    -0.047 A 
ATOM      5  C3  UNL d   1      -1.875   0.263   1.470  0.00  0.00    -0.047 A 
ATOM      6  C4  UNL d   1      -0.731  -0.475   1.249  0.00  0.00    -0.004 A 
ENDROOT
TORSDOF 0
ENDMDL
