MODEL 1
REMARK minimizedAffinity -2.62960696
REMARK minimizedRMSD -1
REMARK  0 active torsions:
REMARK  status: ('A' for Active; 'I' for Inactive)
ROOT
ATOM      1  C   UNL d   1      -0.388   3.700  -4.722  0.00  0.00     0.172 C 
ATOM      2  N   UNL d   1      -1.110   2.862  -3.795  0.00  0.00    -0.070 N 
ATOM      3  C1  UNL d   1      -2.222   2.119  -4.089  0.00  0.00    -0.004 A 
ATOM      4  C2  UNL d   1      -2.608   1.463  -2.941  0.00  0.00    -0.047 A 
ATOM      5  C3  UNL d   1      -1.696   1.824  -1.920  0.00  0.00    -0.047 A 
ATOM      6  C4  UNL d   1      -0.779   2.691  -2.476  0.00  0.00    -0.004 A 
ENDROOT
TORSDOF 0
ENDMDL
