MODEL 1
REMARK minimizedAffinity -2.83499551
REMARK minimizedRMSD -1
REMARK  0 active torsions:
REMARK  status: ('A' for Active; 'I' for Inactive)
ROOT
ATOM      1  C   UNL d   1      -0.402   0.927  -0.224  0.00  0.00     0.172 C 
ATOM      2  N   UNL d   1       0.443  -0.117   0.309  0.00  0.00    -0.070 N 
ATOM      3  C1  UNL d   1       0.227  -0.801   1.475  0.00  0.00    -0.004 A 
ATOM      4  C2  UNL d   1       1.253  -1.708   1.628  0.00  0.00    -0.047 A 
ATOM      5  C3  UNL d   1       2.116  -1.564   0.516  0.00  0.00    -0.047 A 
ATOM      6  C4  UNL d   1       1.591  -0.572  -0.285  0.00  0.00    -0.004 A 
ENDROOT
TORSDOF 0
ENDMDL
