MODEL 1
REMARK minimizedAffinity -1.68304896
REMARK minimizedRMSD -1
REMARK  0 active torsions:
REMARK  status: ('A' for Active; 'I' for Inactive)
ROOT
ATOM      1  C   UNL d   1      -2.334  -5.630  -4.620  0.00  0.00     0.172 C 
ATOM      2  N   UNL d   1      -0.906  -5.617  -4.837  0.00  0.00    -0.070 N 
ATOM      3  C1  UNL d   1       0.036  -5.225  -3.924  0.00  0.00    -0.004 A 
ATOM      4  C2  UNL d   1       1.275  -5.360  -4.512  0.00  0.00    -0.047 A 
ATOM      5  C3  UNL d   1       1.071  -5.848  -5.824  0.00  0.00    -0.047 A 
ATOM      6  C4  UNL d   1      -0.289  -5.998  -5.999  0.00  0.00    -0.004 A 
ENDROOT
TORSDOF 0
ENDMDL
