MODEL 1
REMARK minimizedAffinity -1.73289609
REMARK minimizedRMSD -1
REMARK  0 active torsions:
REMARK  status: ('A' for Active; 'I' for Inactive)
ROOT
ATOM      1  C   UNL d   1      -1.558  -0.178   0.706  0.00  0.00     0.172 C 
ATOM      2  N   UNL d   1      -0.126  -0.189   0.516  0.00  0.00    -0.070 N 
ATOM      3  C1  UNL d   1       0.727  -1.175   0.935  0.00  0.00    -0.004 A 
ATOM      4  C2  UNL d   1       2.004  -0.814   0.563  0.00  0.00    -0.047 A 
ATOM      5  C3  UNL d   1       1.915   0.432  -0.102  0.00  0.00    -0.047 A 
ATOM      6  C4  UNL d   1       0.585   0.796  -0.117  0.00  0.00    -0.004 A 
ENDROOT
TORSDOF 0
ENDMDL
