MODEL 1
REMARK minimizedAffinity 2.17786741
REMARK minimizedRMSD -1
REMARK  0 active torsions:
REMARK  status: ('A' for Active; 'I' for Inactive)
ROOT
ATOM      1  C   UNL d   1       0.347   0.171  -0.058  0.00  0.00     0.172 C 
ATOM      2  N   UNL d   1      -0.280  -0.364   1.128  0.00  0.00    -0.070 N 
ATOM      3  C1  UNL d   1      -1.610  -0.269   1.440  0.00  0.00    -0.004 A 
ATOM      4  C2  UNL d   1      -1.806  -0.904   2.648  0.00  0.00    -0.047 A 
ATOM      5  C3  UNL d   1      -0.550  -1.397   3.076  0.00  0.00    -0.047 A 
ATOM      6  C4  UNL d   1       0.377  -1.049   2.116  0.00  0.00    -0.004 A 
ENDROOT
TORSDOF 0
ENDMDL
