MODEL 1
REMARK minimizedAffinity -5.21497393
REMARK minimizedRMSD -1
REMARK  0 active torsions:
REMARK  status: ('A' for Active; 'I' for Inactive)
ROOT
ATOM      1  C   UNL d   1      -1.827   0.389  -0.137  0.00  0.00     0.078 C 
ATOM      2  C1  UNL d   1      -0.980   0.467   1.097  0.00  0.00    -0.077 A 
ATOM      3  C2  UNL d   1       0.413   0.334   1.027  0.00  0.00    -0.001 A 
ATOM      4  C3  UNL d   1       1.188   0.400   2.186  0.00  0.00     0.003 A 
ATOM      5  C4  UNL d   1       0.580   0.596   3.424  0.00  0.00    -0.005 A 
ATOM      6  C5  UNL d   1      -0.805   0.727   3.505  0.00  0.00     0.003 A 
ATOM      7  C6  UNL d   1      -1.582   0.662   2.347  0.00  0.00    -0.001 A 
ENDROOT
TORSDOF 0
ENDMDL
