MODEL 1
REMARK minimizedAffinity -4.88116503
REMARK minimizedRMSD -1
REMARK  0 active torsions:
REMARK  status: ('A' for Active; 'I' for Inactive)
ROOT
ATOM      1  C   UNL d   1       0.307  -0.127  -1.133  0.00  0.00     0.078 C 
ATOM      2  C1  UNL d   1       0.002  -0.104   0.336  0.00  0.00    -0.077 A 
ATOM      3  C2  UNL d   1       1.011  -0.309   1.285  0.00  0.00    -0.001 A 
ATOM      4  C3  UNL d   1       0.711  -0.295   2.648  0.00  0.00     0.003 A 
ATOM      5  C4  UNL d   1      -0.598  -0.077   3.074  0.00  0.00    -0.005 A 
ATOM      6  C5  UNL d   1      -1.609   0.126   2.137  0.00  0.00     0.003 A 
ATOM      7  C6  UNL d   1      -1.311   0.112   0.773  0.00  0.00    -0.001 A 
ENDROOT
TORSDOF 0
ENDMDL
