MODEL 1
REMARK minimizedAffinity -4.8552084
REMARK minimizedRMSD -1
REMARK  0 active torsions:
REMARK  status: ('A' for Active; 'I' for Inactive)
ROOT
ATOM      1  C   UNL d   1       0.253  -0.258  -1.269  0.00  0.00     0.078 C 
ATOM      2  C1  UNL d   1      -0.177   0.176   0.100  0.00  0.00    -0.077 A 
ATOM      3  C2  UNL d   1      -1.533   0.313   0.421  0.00  0.00    -0.001 A 
ATOM      4  C3  UNL d   1      -1.919   0.727   1.697  0.00  0.00     0.003 A 
ATOM      5  C4  UNL d   1      -0.954   1.010   2.662  0.00  0.00    -0.005 A 
ATOM      6  C5  UNL d   1       0.398   0.879   2.351  0.00  0.00     0.003 A 
ATOM      7  C6  UNL d   1       0.785   0.465   1.076  0.00  0.00    -0.001 A 
ENDROOT
TORSDOF 0
ENDMDL
