MODEL 1
REMARK minimizedAffinity -4.00387192
REMARK minimizedRMSD -1
REMARK  0 active torsions:
REMARK  status: ('A' for Active; 'I' for Inactive)
ROOT
ATOM      1  C   UNL d   1       2.145  -0.017   3.627  0.00  0.00     0.078 C 
ATOM      2  C1  UNL d   1       1.056   0.194   2.618  0.00  0.00    -0.077 A 
ATOM      3  C2  UNL d   1      -0.219   0.619   3.012  0.00  0.00    -0.001 A 
ATOM      4  C3  UNL d   1      -1.226   0.802   2.063  0.00  0.00     0.003 A 
ATOM      5  C4  UNL d   1      -0.969   0.563   0.714  0.00  0.00    -0.005 A 
ATOM      6  C5  UNL d   1       0.296   0.138   0.314  0.00  0.00     0.003 A 
ATOM      7  C6  UNL d   1       1.304  -0.046   1.261  0.00  0.00    -0.001 A 
ENDROOT
TORSDOF 0
ENDMDL
