MODEL 1
REMARK minimizedAffinity -0.136449635
REMARK minimizedRMSD -1
REMARK  0 active torsions:
REMARK  status: ('A' for Active; 'I' for Inactive)
ROOT
ATOM      1  C   UNL d   1       0.400   1.906   2.298  0.00  0.00     0.078 C 
ATOM      2  C1  UNL d   1       0.569   0.702   1.420  0.00  0.00    -0.077 A 
ATOM      3  C2  UNL d   1       1.457  -0.324   1.765  0.00  0.00    -0.001 A 
ATOM      4  C3  UNL d   1       1.612  -1.434   0.933  0.00  0.00     0.003 A 
ATOM      5  C4  UNL d   1       0.882  -1.528  -0.250  0.00  0.00    -0.005 A 
ATOM      6  C5  UNL d   1      -0.003  -0.511  -0.603  0.00  0.00     0.003 A 
ATOM      7  C6  UNL d   1      -0.158   0.600   0.227  0.00  0.00    -0.001 A 
ENDROOT
TORSDOF 0
ENDMDL
