MODEL 1
REMARK minimizedAffinity -4.71557951
REMARK minimizedRMSD -1
REMARK  0 active torsions:
REMARK  status: ('A' for Active; 'I' for Inactive)
ROOT
ATOM      1  C   UNL d   1      -1.653  -0.170  -0.112  0.00  0.00     0.078 C 
ATOM      2  C1  UNL d   1      -0.948  -0.175   1.211  0.00  0.00    -0.077 A 
ATOM      3  C2  UNL d   1       0.290  -0.811   1.367  0.00  0.00    -0.001 A 
ATOM      4  C3  UNL d   1       0.930  -0.816   2.607  0.00  0.00     0.003 A 
ATOM      5  C4  UNL d   1       0.340  -0.188   3.702  0.00  0.00    -0.005 A 
ATOM      6  C5  UNL d   1      -0.893   0.446   3.557  0.00  0.00     0.003 A 
ATOM      7  C6  UNL d   1      -1.534   0.452   2.318  0.00  0.00    -0.001 A 
ENDROOT
TORSDOF 0
ENDMDL
