MODEL 1
REMARK minimizedAffinity -4.1375885
REMARK minimizedRMSD -1
REMARK  0 active torsions:
REMARK  status: ('A' for Active; 'I' for Inactive)
ROOT
ATOM      1  C   UNL d   1       1.421   1.599   0.405  0.00  0.00     0.023 A 
ATOM      2  C1  UNL d   1       1.511   0.215   0.257  0.00  0.00     0.003 A 
ATOM      3  C2  UNL d   1       0.354  -0.546   0.075  0.00  0.00     0.048 A 
ATOM      4  C3  UNL d   1      -0.889   0.084   0.040  0.00  0.00     0.023 A 
ATOM      5  C4  UNL d   1      -0.984   1.469   0.187  0.00  0.00     0.048 A 
ATOM      6  C5  UNL d   1       0.175   2.226   0.370  0.00  0.00     0.003 A 
ATOM      7  I   UNL d   1      -2.612  -1.046  -0.232  0.00  0.00    -0.146 I 
ENDROOT
TORSDOF 0
ENDMDL
