MODEL 1
REMARK minimizedAffinity -4.34907103
REMARK minimizedRMSD -1
REMARK  0 active torsions:
REMARK  status: ('A' for Active; 'I' for Inactive)
ROOT
ATOM      1  C   UNL d   1      -3.335  -1.438  -0.101  0.00  0.00     0.023 A 
ATOM      2  C1  UNL d   1      -3.142  -0.183  -0.679  0.00  0.00     0.003 A 
ATOM      3  C2  UNL d   1      -1.871   0.396  -0.685  0.00  0.00     0.048 A 
ATOM      4  C3  UNL d   1      -0.798  -0.285  -0.112  0.00  0.00     0.023 A 
ATOM      5  C4  UNL d   1      -0.987  -1.541   0.467  0.00  0.00     0.048 A 
ATOM      6  C5  UNL d   1      -2.259  -2.116   0.471  0.00  0.00     0.003 A 
ATOM      7  I   UNL d   1       1.094   0.575  -0.119  0.00  0.00    -0.146 I 
ENDROOT
TORSDOF 0
ENDMDL
