MODEL 1
REMARK minimizedAffinity 1.00706494
REMARK minimizedRMSD -1
REMARK  0 active torsions:
REMARK  status: ('A' for Active; 'I' for Inactive)
ROOT
ATOM      1  C   UNL d   1       3.894   4.340   1.319  0.00  0.00     0.023 A 
ATOM      2  C1  UNL d   1       2.726   4.200   2.069  0.00  0.00     0.003 A 
ATOM      3  C2  UNL d   1       1.891   3.100   1.864  0.00  0.00     0.048 A 
ATOM      4  C3  UNL d   1       2.231   2.142   0.910  0.00  0.00     0.023 A 
ATOM      5  C4  UNL d   1       3.399   2.277   0.158  0.00  0.00     0.048 A 
ATOM      6  C5  UNL d   1       4.230   3.380   0.365  0.00  0.00     0.003 A 
ATOM      7  I   UNL d   1       0.990   0.503   0.604  0.00  0.00    -0.146 I 
ENDROOT
TORSDOF 0
ENDMDL
