MODEL 1
REMARK minimizedAffinity 0.924827933
REMARK minimizedRMSD -1
REMARK  0 active torsions:
REMARK  status: ('A' for Active; 'I' for Inactive)
ROOT
ATOM      1  C   UNL d   1      -0.624   0.054   0.866  0.00  0.00     0.023 A 
ATOM      2  C1  UNL d   1      -0.793   1.334   1.394  0.00  0.00     0.003 A 
ATOM      3  C2  UNL d   1       0.262   2.248   1.363  0.00  0.00     0.048 A 
ATOM      4  C3  UNL d   1       1.483   1.876   0.802  0.00  0.00     0.023 A 
ATOM      5  C4  UNL d   1       1.656   0.596   0.272  0.00  0.00     0.048 A 
ATOM      6  C5  UNL d   1       0.599  -0.315   0.306  0.00  0.00     0.003 A 
ATOM      7  I   UNL d   1       3.055   3.235   0.755  0.00  0.00    -0.146 I 
ENDROOT
TORSDOF 0
ENDMDL
