MODEL 1
REMARK minimizedAffinity -4.60097837
REMARK minimizedRMSD -1
REMARK  0 active torsions:
REMARK  status: ('A' for Active; 'I' for Inactive)
ROOT
ATOM      1  C   UNL d   1      -3.209  -2.185   0.168  0.00  0.00     0.023 A 
ATOM      2  C1  UNL d   1      -2.308  -2.545   1.170  0.00  0.00     0.003 A 
ATOM      3  C2  UNL d   1      -1.065  -1.914   1.253  0.00  0.00     0.048 A 
ATOM      4  C3  UNL d   1      -0.729  -0.924   0.330  0.00  0.00     0.023 A 
ATOM      5  C4  UNL d   1      -1.628  -0.561  -0.675  0.00  0.00     0.048 A 
ATOM      6  C5  UNL d   1      -2.869  -1.195  -0.754  0.00  0.00     0.003 A 
ATOM      7  I   UNL d   1       1.121   0.015   0.450  0.00  0.00    -0.146 I 
ENDROOT
TORSDOF 0
ENDMDL
