MODEL 1
REMARK minimizedAffinity -5.34962606
REMARK minimizedRMSD -1
REMARK  0 active torsions:
REMARK  status: ('A' for Active; 'I' for Inactive)
ROOT
ATOM      1  C   UNL d   1      -3.359  -2.167   0.384  0.00  0.00     0.023 A 
ATOM      2  C1  UNL d   1      -3.295  -0.993  -0.365  0.00  0.00     0.003 A 
ATOM      3  C2  UNL d   1      -2.100  -0.273  -0.437  0.00  0.00     0.048 A 
ATOM      4  C3  UNL d   1      -0.973  -0.735   0.243  0.00  0.00     0.023 A 
ATOM      5  C4  UNL d   1      -1.033  -1.910   0.993  0.00  0.00     0.048 A 
ATOM      6  C5  UNL d   1      -2.230  -2.626   1.063  0.00  0.00     0.003 A 
ATOM      7  I   UNL d   1       0.806   0.334   0.138  0.00  0.00    -0.146 I 
ENDROOT
TORSDOF 0
ENDMDL
