MODEL 1
REMARK minimizedAffinity 2.918859
REMARK minimizedRMSD -1
REMARK  0 active torsions:
REMARK  status: ('A' for Active; 'I' for Inactive)
ROOT
ATOM      1  C   UNL d   1       0.498  -0.736   3.008  0.00  0.00     0.023 A 
ATOM      2  C1  UNL d   1       0.655  -1.766   2.081  0.00  0.00     0.003 A 
ATOM      3  C2  UNL d   1       0.593  -1.492   0.713  0.00  0.00     0.048 A 
ATOM      4  C3  UNL d   1       0.374  -0.185   0.279  0.00  0.00     0.023 A 
ATOM      5  C4  UNL d   1       0.218   0.849   1.203  0.00  0.00     0.048 A 
ATOM      6  C5  UNL d   1       0.280   0.570   2.570  0.00  0.00     0.003 A 
ATOM      7  I   UNL d   1       0.282   0.225  -1.756  0.00  0.00    -0.146 I 
ENDROOT
TORSDOF 0
ENDMDL
