MODEL 1
REMARK minimizedAffinity -3.74893212
REMARK minimizedRMSD -1
REMARK  0 active torsions:
REMARK  status: ('A' for Active; 'I' for Inactive)
ROOT
ATOM      1  C   UNL d   1      -0.215  -0.657  -0.288  0.00  0.00     0.023 A 
ATOM      2  C1  UNL d   1       1.087  -0.936   0.128  0.00  0.00     0.003 A 
ATOM      3  C2  UNL d   1       1.896   0.087   0.629  0.00  0.00     0.048 A 
ATOM      4  C3  UNL d   1       1.396   1.386   0.711  0.00  0.00     0.023 A 
ATOM      5  C4  UNL d   1       0.094   1.670   0.296  0.00  0.00     0.048 A 
ATOM      6  C5  UNL d   1      -0.711   0.644  -0.204  0.00  0.00     0.003 A 
ATOM      7  I   UNL d   1       2.598   2.909   1.456  0.00  0.00    -0.146 I 
ENDROOT
TORSDOF 0
ENDMDL
