MODEL 1
REMARK minimizedAffinity -2.26907969
REMARK minimizedRMSD -1
REMARK  0 active torsions:
REMARK  status: ('A' for Active; 'I' for Inactive)
ROOT
ATOM      1  C   UNL d   1      -1.552  -0.200  -1.108  0.00  0.00     0.023 A 
ATOM      2  C1  UNL d   1      -0.971  -0.811   0.003  0.00  0.00     0.003 A 
ATOM      3  C2  UNL d   1       0.249  -0.346   0.499  0.00  0.00     0.048 A 
ATOM      4  C3  UNL d   1       0.881   0.731  -0.121  0.00  0.00     0.023 A 
ATOM      5  C4  UNL d   1       0.303   1.346  -1.232  0.00  0.00     0.048 A 
ATOM      6  C5  UNL d   1      -0.916   0.877  -1.725  0.00  0.00     0.003 A 
ATOM      7  I   UNL d   1       2.697   1.425   0.616  0.00  0.00    -0.146 I 
ENDROOT
TORSDOF 0
ENDMDL
