MODEL 1
REMARK minimizedAffinity -1.50217974
REMARK minimizedRMSD -1
REMARK  0 active torsions:
REMARK  status: ('A' for Active; 'I' for Inactive)
ROOT
ATOM      1  C   UNL d   1      -0.641  -0.620   2.255  0.00  0.00     0.023 A 
ATOM      2  C1  UNL d   1       0.459  -1.066   1.522  0.00  0.00     0.003 A 
ATOM      3  C2  UNL d   1       1.565  -0.232   1.344  0.00  0.00     0.048 A 
ATOM      4  C3  UNL d   1       1.565   1.046   1.903  0.00  0.00     0.023 A 
ATOM      5  C4  UNL d   1       0.466   1.495   2.638  0.00  0.00     0.048 A 
ATOM      6  C5  UNL d   1      -0.638   0.658   2.813  0.00  0.00     0.003 A 
ATOM      7  I   UNL d   1       3.210   2.288   1.640  0.00  0.00    -0.146 I 
ENDROOT
TORSDOF 0
ENDMDL
