MODEL 1
REMARK minimizedAffinity 6.88709736
REMARK minimizedRMSD -1
REMARK  0 active torsions:
REMARK  status: ('A' for Active; 'I' for Inactive)
ROOT
ATOM      1  C   UNL d   1       1.035  -0.734   3.266  0.00  0.00     0.023 A 
ATOM      2  C1  UNL d   1      -0.016   0.154   3.034  0.00  0.00     0.003 A 
ATOM      3  C2  UNL d   1      -0.862  -0.033   1.939  0.00  0.00     0.048 A 
ATOM      4  C3  UNL d   1      -0.653  -1.112   1.081  0.00  0.00     0.023 A 
ATOM      5  C4  UNL d   1       0.396  -2.004   1.309  0.00  0.00     0.048 A 
ATOM      6  C5  UNL d   1       1.241  -1.811   2.404  0.00  0.00     0.003 A 
ATOM      7  I   UNL d   1      -1.911  -1.394  -0.549  0.00  0.00    -0.146 I 
ENDROOT
TORSDOF 0
ENDMDL
