MODEL 1
REMARK minimizedAffinity -2.7337451
REMARK minimizedRMSD -1
REMARK  0 active torsions:
REMARK  status: ('A' for Active; 'I' for Inactive)
ROOT
ATOM      1  C   UNL d   1       3.115   1.686   1.301  0.00  0.00     0.023 A 
ATOM      2  C1  UNL d   1       2.004   2.527   1.241  0.00  0.00     0.003 A 
ATOM      3  C2  UNL d   1       0.832   2.094   0.618  0.00  0.00     0.048 A 
ATOM      4  C3  UNL d   1       0.777   0.818   0.059  0.00  0.00     0.023 A 
ATOM      5  C4  UNL d   1       1.887  -0.028   0.117  0.00  0.00     0.048 A 
ATOM      6  C5  UNL d   1       3.057   0.411   0.740  0.00  0.00     0.003 A 
ATOM      7  I   UNL d   1      -0.966   0.170  -0.869  0.00  0.00    -0.146 I 
ENDROOT
TORSDOF 0
ENDMDL
