MODEL 1
REMARK minimizedAffinity -0.893022299
REMARK minimizedRMSD -1
REMARK  0 active torsions:
REMARK  status: ('A' for Active; 'I' for Inactive)
ROOT
ATOM      1  C   UNL d   1      -0.942   0.506  -0.688  0.00  0.00     0.023 A 
ATOM      2  C1  UNL d   1      -0.981   1.836  -0.270  0.00  0.00     0.003 A 
ATOM      3  C2  UNL d   1       0.104   2.386   0.415  0.00  0.00     0.048 A 
ATOM      4  C3  UNL d   1       1.226   1.601   0.678  0.00  0.00     0.023 A 
ATOM      5  C4  UNL d   1       1.270   0.270   0.261  0.00  0.00     0.048 A 
ATOM      6  C5  UNL d   1       0.182  -0.276  -0.423  0.00  0.00     0.003 A 
ATOM      7  I   UNL d   1       2.842   2.417   1.698  0.00  0.00    -0.146 I 
ENDROOT
TORSDOF 0
ENDMDL
