MODEL 1
REMARK minimizedAffinity -3.79204059
REMARK minimizedRMSD -1
REMARK  0 active torsions:
REMARK  status: ('A' for Active; 'I' for Inactive)
ROOT
ATOM      1  C   UNL d   1      -2.276  -0.417  -1.446  0.00  0.00     0.023 A 
ATOM      2  C1  UNL d   1      -1.344   0.452  -2.014  0.00  0.00     0.003 A 
ATOM      3  C2  UNL d   1      -0.142   0.717  -1.355  0.00  0.00     0.048 A 
ATOM      4  C3  UNL d   1       0.122   0.109  -0.128  0.00  0.00     0.023 A 
ATOM      5  C4  UNL d   1      -0.807  -0.762   0.443  0.00  0.00     0.048 A 
ATOM      6  C5  UNL d   1      -2.008  -1.024  -0.219  0.00  0.00     0.003 A 
ATOM      7  I   UNL d   1       1.910   0.502   0.855  0.00  0.00    -0.146 I 
ENDROOT
TORSDOF 0
ENDMDL
