MODEL 1
REMARK minimizedAffinity 4.65573978
REMARK minimizedRMSD -1
REMARK  0 active torsions:
REMARK  status: ('A' for Active; 'I' for Inactive)
ROOT
ATOM      1  C4' PXY d   1      -1.929   5.594   5.993  0.00  0.00     0.077 C 
ATOM      2  C1' PXY d   1      -5.991   5.991   1.899  0.00  0.00     0.077 C 
ATOM      3  C1  PXY d   1      -4.934   5.892   2.981  0.00  0.00    -0.082 A 
ATOM      4  C2  PXY d   1      -3.655   5.856   2.645  0.00  0.00     0.003 A 
ATOM      5  C3  PXY d   1      -2.688   5.734   3.609  0.00  0.00     0.003 A 
ATOM      6  C4  PXY d   1      -3.030   5.703   4.934  0.00  0.00    -0.082 A 
ATOM      7  C5  PXY d   1      -4.333   5.750   5.286  0.00  0.00     0.003 A 
ATOM      8  C6  PXY d   1      -5.302   5.832   4.290  0.00  0.00     0.003 A 
ENDROOT
TORSDOF 0
ENDMDL
