MODEL 1
REMARK minimizedAffinity -1.23120987
REMARK minimizedRMSD -1
REMARK  0 active torsions:
REMARK  status: ('A' for Active; 'I' for Inactive)
ROOT
ATOM      1  C4' PXY d   1      -5.145   5.972   2.198  0.00  0.00     0.077 C 
ATOM      2  C1' PXY d   1      -0.756   5.976   5.959  0.00  0.00     0.077 C 
ATOM      3  C1  PXY d   1      -1.915   5.970   4.982  0.00  0.00    -0.082 A 
ATOM      4  C2  PXY d   1      -1.673   5.973   3.681  0.00  0.00     0.003 A 
ATOM      5  C3  PXY d   1      -2.709   5.999   2.783  0.00  0.00     0.003 A 
ATOM      6  C4  PXY d   1      -4.006   5.969   3.221  0.00  0.00    -0.082 A 
ATOM      7  C5  PXY d   1      -4.261   5.955   4.547  0.00  0.00     0.003 A 
ATOM      8  C6  PXY d   1      -3.195   5.970   5.442  0.00  0.00     0.003 A 
ENDROOT
TORSDOF 0
ENDMDL
