MODEL 1
REMARK minimizedAffinity -2.940593
REMARK minimizedRMSD -1
REMARK  0 active torsions:
REMARK  status: ('A' for Active; 'I' for Inactive)
ROOT
ATOM      1  C4' PXY d   1       1.226   1.755  -2.614  0.00  0.00     0.077 C 
ATOM      2  C1' PXY d   1       1.522  -3.908  -3.736  0.00  0.00     0.077 C 
ATOM      3  C1  PXY d   1       1.441  -2.425  -3.429  0.00  0.00    -0.082 A 
ATOM      4  C2  PXY d   1       1.191  -1.568  -4.406  0.00  0.00     0.003 A 
ATOM      5  C3  PXY d   1       1.147  -0.221  -4.152  0.00  0.00     0.003 A 
ATOM      6  C4  PXY d   1       1.307   0.249  -2.876  0.00  0.00    -0.082 A 
ATOM      7  C5  PXY d   1       1.551  -0.620  -1.872  0.00  0.00     0.003 A 
ATOM      8  C6  PXY d   1       1.634  -1.980  -2.158  0.00  0.00     0.003 A 
ENDROOT
TORSDOF 0
ENDMDL
