MODEL 1
REMARK minimizedAffinity 2.19172668
REMARK minimizedRMSD -1
REMARK  0 active torsions:
REMARK  status: ('A' for Active; 'I' for Inactive)
ROOT
ATOM      1  C4' PXY d   1      -1.953   5.999   5.996  0.00  0.00     0.077 C 
ATOM      2  C1' PXY d   1      -6.000   5.961   1.869  0.00  0.00     0.077 C 
ATOM      3  C1  PXY d   1      -4.947   5.976   2.960  0.00  0.00    -0.082 A 
ATOM      4  C2  PXY d   1      -3.665   5.980   2.631  0.00  0.00     0.003 A 
ATOM      5  C3  PXY d   1      -2.700   5.962   3.605  0.00  0.00     0.003 A 
ATOM      6  C4  PXY d   1      -3.050   5.993   4.928  0.00  0.00    -0.082 A 
ATOM      7  C5  PXY d   1      -4.356   5.999   5.271  0.00  0.00     0.003 A 
ATOM      8  C6  PXY d   1      -5.320   5.976   4.268  0.00  0.00     0.003 A 
ENDROOT
TORSDOF 0
ENDMDL
