MODEL 1
REMARK minimizedAffinity -2.69538093
REMARK minimizedRMSD -1
REMARK  0 active torsions:
REMARK  status: ('A' for Active; 'I' for Inactive)
ROOT
ATOM      1  C4' PXY d   1       4.845  -5.928   5.889  0.00  0.00     0.077 C 
ATOM      2  C1' PXY d   1       4.930  -0.160   5.515  0.00  0.00     0.077 C 
ATOM      3  C1  PXY d   1       4.895  -1.672   5.615  0.00  0.00    -0.082 A 
ATOM      4  C2  PXY d   1       5.996  -2.332   5.935  0.00  0.00     0.003 A 
ATOM      5  C3  PXY d   1       5.990  -3.702   5.999  0.00  0.00     0.003 A 
ATOM      6  C4  PXY d   1       4.831  -4.400   5.785  0.00  0.00    -0.082 A 
ATOM      7  C5  PXY d   1       3.701  -3.733   5.469  0.00  0.00     0.003 A 
ATOM      8  C6  PXY d   1       3.738  -2.345   5.369  0.00  0.00     0.003 A 
ENDROOT
TORSDOF 0
ENDMDL
