MODEL 1
REMARK minimizedAffinity 7.51443815
REMARK minimizedRMSD -1
REMARK  0 active torsions:
REMARK  status: ('A' for Active; 'I' for Inactive)
ROOT
ATOM      1  C4' PXY d   1      -2.295   5.515   1.039  0.00  0.00     0.077 C 
ATOM      2  C1' PXY d   1      -5.255   5.815   5.995  0.00  0.00     0.077 C 
ATOM      3  C1  PXY d   1      -4.469   5.743   4.701  0.00  0.00    -0.082 A 
ATOM      4  C2  PXY d   1      -5.108   5.563   3.556  0.00  0.00     0.003 A 
ATOM      5  C3  PXY d   1      -4.410   5.464   2.380  0.00  0.00     0.003 A 
ATOM      6  C4  PXY d   1      -3.048   5.603   2.369  0.00  0.00    -0.082 A 
ATOM      7  C5  PXY d   1      -2.390   5.798   3.531  0.00  0.00     0.003 A 
ATOM      8  C6  PXY d   1      -3.113   5.854   4.719  0.00  0.00     0.003 A 
ENDROOT
TORSDOF 0
ENDMDL
