MODEL 1
REMARK minimizedAffinity 7.25044775
REMARK minimizedRMSD -1
REMARK  0 active torsions:
REMARK  status: ('A' for Active; 'I' for Inactive)
ROOT
ATOM      1  C4' PXY d   1       3.865   2.993  -6.000  0.00  0.00     0.077 C 
ATOM      2  C1' PXY d   1       1.226   0.641  -1.425  0.00  0.00     0.077 C 
ATOM      3  C1  PXY d   1       1.930   1.255  -2.620  0.00  0.00    -0.082 A 
ATOM      4  C2  PXY d   1       1.301   2.156  -3.357  0.00  0.00     0.003 A 
ATOM      5  C3  PXY d   1       1.911   2.698  -4.459  0.00  0.00     0.003 A 
ATOM      6  C4  PXY d   1       3.197   2.353  -4.779  0.00  0.00    -0.082 A 
ATOM      7  C5  PXY d   1       3.849   1.442  -4.026  0.00  0.00     0.003 A 
ATOM      8  C6  PXY d   1       3.197   0.873  -2.935  0.00  0.00     0.003 A 
ENDROOT
TORSDOF 0
ENDMDL
