MODEL 1
REMARK minimizedAffinity 0.991329193
REMARK minimizedRMSD -1
REMARK  0 active torsions:
REMARK  status: ('A' for Active; 'I' for Inactive)
ROOT
ATOM      1  C4' PXY d   1       1.355   0.389  -1.479  0.00  0.00     0.077 C 
ATOM      2  C1' PXY d   1       3.694   3.129  -5.999  0.00  0.00     0.077 C 
ATOM      3  C1  PXY d   1       3.075   2.422  -4.810  0.00  0.00    -0.082 A 
ATOM      4  C2  PXY d   1       3.600   1.286  -4.378  0.00  0.00     0.003 A 
ATOM      5  C3  PXY d   1       3.034   0.617  -3.324  0.00  0.00     0.003 A 
ATOM      6  C4  PXY d   1       1.952   1.143  -2.671  0.00  0.00    -0.082 A 
ATOM      7  C5  PXY d   1       1.417   2.306  -3.098  0.00  0.00     0.003 A 
ATOM      8  C6  PXY d   1       1.981   2.949  -4.196  0.00  0.00     0.003 A 
ENDROOT
TORSDOF 0
ENDMDL
