MODEL 1
REMARK minimizedAffinity -0.445913643
REMARK minimizedRMSD -1
REMARK  0 active torsions:
REMARK  status: ('A' for Active; 'I' for Inactive)
ROOT
ATOM      1  C4' PXY d   1      -6.000   5.988   2.775  0.00  0.00     0.077 C 
ATOM      2  C1' PXY d   1      -1.202   5.971   5.999  0.00  0.00     0.077 C 
ATOM      3  C1  PXY d   1      -2.467   5.970   5.163  0.00  0.00    -0.082 A 
ATOM      4  C2  PXY d   1      -2.379   5.968   3.843  0.00  0.00     0.003 A 
ATOM      5  C3  PXY d   1      -3.512   5.999   3.072  0.00  0.00     0.003 A 
ATOM      6  C4  PXY d   1      -4.749   5.979   3.659  0.00  0.00    -0.082 A 
ATOM      7  C5  PXY d   1      -4.848   5.971   5.005  0.00  0.00     0.003 A 
ATOM      8  C6  PXY d   1      -3.685   5.980   5.770  0.00  0.00     0.003 A 
ENDROOT
TORSDOF 0
ENDMDL
