MODEL 1
REMARK minimizedAffinity 3.90730619
REMARK minimizedRMSD -1
REMARK  0 active torsions:
REMARK  status: ('A' for Active; 'I' for Inactive)
ROOT
ATOM      1  C4' PXY d   1       1.357  -0.272  -1.551  0.00  0.00     0.077 C 
ATOM      2  C1' PXY d   1       3.132   3.943  -5.085  0.00  0.00     0.077 C 
ATOM      3  C1  PXY d   1       2.660   2.846  -4.151  0.00  0.00    -0.082 A 
ATOM      4  C2  PXY d   1       3.355   1.725  -4.055  0.00  0.00     0.003 A 
ATOM      5  C3  PXY d   1       2.925   0.710  -3.239  0.00  0.00     0.003 A 
ATOM      6  C4  PXY d   1       1.801   0.866  -2.474  0.00  0.00    -0.082 A 
ATOM      7  C5  PXY d   1       1.092   2.011  -2.558  0.00  0.00     0.003 A 
ATOM      8  C6  PXY d   1       1.522   3.013  -3.423  0.00  0.00     0.003 A 
ENDROOT
TORSDOF 0
ENDMDL
