MODEL 1
REMARK minimizedAffinity 4.63665009
REMARK minimizedRMSD -1
REMARK  0 active torsions:
REMARK  status: ('A' for Active; 'I' for Inactive)
ROOT
ATOM      1  C4' PXY d   1      -4.855   4.924   6.000  0.00  0.00     0.077 C 
ATOM      2  C1' PXY d   1      -2.061   5.929   1.040  0.00  0.00     0.077 C 
ATOM      3  C1  PXY d   1      -2.806   5.666   2.334  0.00  0.00    -0.082 A 
ATOM      4  C2  PXY d   1      -2.250   6.000   3.488  0.00  0.00     0.003 A 
ATOM      5  C3  PXY d   1      -2.895   5.740   4.669  0.00  0.00     0.003 A 
ATOM      6  C4  PXY d   1      -4.145   5.180   4.668  0.00  0.00    -0.082 A 
ATOM      7  C5  PXY d   1      -4.723   4.846   3.495  0.00  0.00     0.003 A 
ATOM      8  C6  PXY d   1      -4.034   5.081   2.308  0.00  0.00     0.003 A 
ENDROOT
TORSDOF 0
ENDMDL
