MODEL 1
REMARK minimizedAffinity 7.10374498
REMARK minimizedRMSD -1
REMARK  0 active torsions:
REMARK  status: ('A' for Active; 'I' for Inactive)
ROOT
ATOM      1  C4' PXY d   1       6.000  -0.740   5.730  0.00  0.00     0.077 C 
ATOM      2  C1' PXY d   1       3.309   3.253   2.531  0.00  0.00     0.077 C 
ATOM      3  C1  PXY d   1       4.005   2.205   3.378  0.00  0.00    -0.082 A 
ATOM      4  C2  PXY d   1       5.325   2.116   3.355  0.00  0.00     0.003 A 
ATOM      5  C3  PXY d   1       5.968   1.154   4.090  0.00  0.00     0.003 A 
ATOM      6  C4  PXY d   1       5.256   0.309   4.898  0.00  0.00    -0.082 A 
ATOM      7  C5  PXY d   1       3.910   0.400   4.935  0.00  0.00     0.003 A 
ATOM      8  C6  PXY d   1       3.273   1.357   4.150  0.00  0.00     0.003 A 
ENDROOT
TORSDOF 0
ENDMDL
