MODEL 1
REMARK minimizedAffinity 0.0106877815
REMARK minimizedRMSD -1
REMARK  0 active torsions:
REMARK  status: ('A' for Active; 'I' for Inactive)
ROOT
ATOM      1  C4' PXY d   1       1.514   3.669  -2.070  0.00  0.00     0.077 C 
ATOM      2  C1' PXY d   1       1.943  -2.042  -1.285  0.00  0.00     0.077 C 
ATOM      3  C1  PXY d   1       1.840  -0.545  -1.501  0.00  0.00    -0.082 A 
ATOM      4  C2  PXY d   1       1.404   0.229  -0.520  0.00  0.00     0.003 A 
ATOM      5  C3  PXY d   1       1.274   1.581  -0.708  0.00  0.00     0.003 A 
ATOM      6  C4  PXY d   1       1.644   2.154  -1.895  0.00  0.00    -0.082 A 
ATOM      7  C5  PXY d   1       2.100   1.373  -2.897  0.00  0.00     0.003 A 
ATOM      8  C6  PXY d   1       2.186  -0.002  -2.700  0.00  0.00     0.003 A 
ENDROOT
TORSDOF 0
ENDMDL
