MODEL 1
REMARK minimizedAffinity -2.83522844
REMARK minimizedRMSD -1
REMARK  0 active torsions:
REMARK  status: ('A' for Active; 'I' for Inactive)
ROOT
ATOM      1  C4' PXY d   1       3.676  -6.000   6.000  0.00  0.00     0.077 C 
ATOM      2  C1' PXY d   1       5.770  -0.683   5.130  0.00  0.00     0.077 C 
ATOM      3  C1  PXY d   1       5.209  -2.072   5.359  0.00  0.00    -0.082 A 
ATOM      4  C2  PXY d   1       6.000  -3.030   5.815  0.00  0.00     0.003 A 
ATOM      5  C3  PXY d   1       5.517  -4.300   5.998  0.00  0.00     0.003 A 
ATOM      6  C4  PXY d   1       4.197  -4.580   5.762  0.00  0.00    -0.082 A 
ATOM      7  C5  PXY d   1       3.381  -3.605   5.307  0.00  0.00     0.003 A 
ATOM      8  C6  PXY d   1       3.901  -2.333   5.089  0.00  0.00     0.003 A 
ENDROOT
TORSDOF 0
ENDMDL
