MODEL 1
REMARK minimizedAffinity 0.876641691
REMARK minimizedRMSD -1
REMARK  0 active torsions:
REMARK  status: ('A' for Active; 'I' for Inactive)
ROOT
ATOM      1  C4' PXY d   1       1.820  -0.397  -1.629  0.00  0.00     0.077 C 
ATOM      2  C1' PXY d   1       1.493   3.874  -5.510  0.00  0.00     0.077 C 
ATOM      3  C1  PXY d   1       1.581   2.763  -4.483  0.00  0.00    -0.082 A 
ATOM      4  C2  PXY d   1       1.867   1.532  -4.875  0.00  0.00     0.003 A 
ATOM      5  C3  PXY d   1       1.919   0.509  -3.963  0.00  0.00     0.003 A 
ATOM      6  C4  PXY d   1       1.730   0.758  -2.630  0.00  0.00    -0.082 A 
ATOM      7  C5  PXY d   1       1.449   2.014  -2.221  0.00  0.00     0.003 A 
ATOM      8  C6  PXY d   1       1.360   3.030  -3.168  0.00  0.00     0.003 A 
ENDROOT
TORSDOF 0
ENDMDL
