MODEL 1
REMARK minimizedAffinity -0.14676784
REMARK minimizedRMSD -1
REMARK  0 active torsions:
REMARK  status: ('A' for Active; 'I' for Inactive)
ROOT
ATOM      1  C4' PXY d   1       5.232  -0.401   4.918  0.00  0.00     0.077 C 
ATOM      2  C1' PXY d   1       4.271  -5.998   5.998  0.00  0.00     0.077 C 
ATOM      3  C1  PXY d   1       4.533  -4.530   5.723  0.00  0.00    -0.082 A 
ATOM      4  C2  PXY d   1       3.565  -3.774   5.232  0.00  0.00     0.003 A 
ATOM      5  C3  PXY d   1       3.794  -2.452   4.947  0.00  0.00     0.003 A 
ATOM      6  C4  PXY d   1       5.010  -1.886   5.219  0.00  0.00    -0.082 A 
ATOM      7  C5  PXY d   1       5.999  -2.648   5.731  0.00  0.00     0.003 A 
ATOM      8  C6  PXY d   1       5.760  -3.997   5.974  0.00  0.00     0.003 A 
ENDROOT
TORSDOF 0
ENDMDL
