MODEL 1
REMARK minimizedAffinity 0.0185994245
REMARK minimizedRMSD -1
REMARK  0 active torsions:
REMARK  status: ('A' for Active; 'I' for Inactive)
ROOT
ATOM      1  C4' PXY d   1      -5.634   5.943   6.000  0.00  0.00     0.077 C 
ATOM      2  C1' PXY d   1      -2.069   5.999   1.450  0.00  0.00     0.077 C 
ATOM      3  C1  PXY d   1      -3.013   5.990   2.636  0.00  0.00    -0.082 A 
ATOM      4  C2  PXY d   1      -2.521   5.969   3.864  0.00  0.00     0.003 A 
ATOM      5  C3  PXY d   1      -3.361   5.928   4.947  0.00  0.00     0.003 A 
ATOM      6  C4  PXY d   1      -4.718   5.963   4.773  0.00  0.00    -0.082 A 
ATOM      7  C5  PXY d   1      -5.228   5.995   3.524  0.00  0.00     0.003 A 
ATOM      8  C6  PXY d   1      -4.359   5.995   2.436  0.00  0.00     0.003 A 
ENDROOT
TORSDOF 0
ENDMDL
