MODEL 1
REMARK minimizedAffinity -0.659297645
REMARK minimizedRMSD -1
REMARK  0 active torsions:
REMARK  status: ('A' for Active; 'I' for Inactive)
ROOT
ATOM      1  C4' PXY d   1       4.056  -5.993   6.000  0.00  0.00     0.077 C 
ATOM      2  C1' PXY d   1       5.360  -0.422   5.178  0.00  0.00     0.077 C 
ATOM      3  C1  PXY d   1       5.031  -1.886   5.391  0.00  0.00    -0.082 A 
ATOM      4  C2  PXY d   1       3.795  -2.314   5.191  0.00  0.00     0.003 A 
ATOM      5  C3  PXY d   1       3.472  -3.629   5.410  0.00  0.00     0.003 A 
ATOM      6  C4  PXY d   1       4.436  -4.525   5.787  0.00  0.00    -0.082 A 
ATOM      7  C5  PXY d   1       5.702  -4.098   5.983  0.00  0.00     0.003 A 
ATOM      8  C6  PXY d   1       6.000  -2.752   5.795  0.00  0.00     0.003 A 
ENDROOT
TORSDOF 0
ENDMDL
