MODEL 1
REMARK minimizedAffinity 0.00604010141
REMARK minimizedRMSD -1
REMARK  0 active torsions:
REMARK  status: ('A' for Active; 'I' for Inactive)
ROOT
ATOM      1  C4' PXY d   1       1.116   4.107  -5.446  0.00  0.00     0.077 C 
ATOM      2  C1' PXY d   1       1.320  -0.643  -2.158  0.00  0.00     0.077 C 
ATOM      3  C1  PXY d   1       1.261   0.609  -3.010  0.00  0.00    -0.082 A 
ATOM      4  C2  PXY d   1       1.309   0.506  -4.329  0.00  0.00     0.003 A 
ATOM      5  C3  PXY d   1       1.289   1.630  -5.114  0.00  0.00     0.003 A 
ATOM      6  C4  PXY d   1       1.164   2.869  -4.546  0.00  0.00    -0.082 A 
ATOM      7  C5  PXY d   1       1.103   2.983  -3.202  0.00  0.00     0.003 A 
ATOM      8  C6  PXY d   1       1.167   1.832  -2.421  0.00  0.00     0.003 A 
ENDROOT
TORSDOF 0
ENDMDL
