MODEL 1
REMARK minimizedAffinity 4.82158709
REMARK minimizedRMSD -1
REMARK  0 active torsions:
REMARK  status: ('A' for Active; 'I' for Inactive)
ROOT
ATOM      1  C4' PXY d   1      -4.710   5.977   5.988  0.00  0.00     0.077 C 
ATOM      2  C1' PXY d   1      -2.636   4.496   0.800  0.00  0.00     0.077 C 
ATOM      3  C1  PXY d   1      -3.186   4.895   2.155  0.00  0.00    -0.082 A 
ATOM      4  C2  PXY d   1      -2.551   4.522   3.254  0.00  0.00     0.003 A 
ATOM      5  C3  PXY d   1      -3.052   4.846   4.488  0.00  0.00     0.003 A 
ATOM      6  C4  PXY d   1      -4.186   5.605   4.598  0.00  0.00    -0.082 A 
ATOM      7  C5  PXY d   1      -4.834   5.999   3.481  0.00  0.00     0.003 A 
ATOM      8  C6  PXY d   1      -4.331   5.625   2.238  0.00  0.00     0.003 A 
ENDROOT
TORSDOF 0
ENDMDL
