MODEL 1
REMARK minimizedAffinity -3.68708181
REMARK minimizedRMSD -1
REMARK  1 active torsions:
REMARK  status: ('A' for Active; 'I' for Inactive)
REMARK    1  A    between atoms: C1_2  and  C2_3 
ROOT
ATOM      1  C2  UNL d   1       0.466  -0.672  -0.561  0.00  0.00    -0.073 A 
ATOM      2  C3  UNL d   1      -0.176  -0.972   0.646  0.00  0.00    -0.002 A 
ATOM      3  C4  UNL d   1      -0.947  -0.005   1.293  0.00  0.00     0.004 A 
ATOM      4  C5  UNL d   1      -1.090   1.267   0.738  0.00  0.00    -0.004 A 
ATOM      5  C6  UNL d   1      -0.465   1.581  -0.474  0.00  0.00    -0.075 A 
ATOM      6  C7  UNL d   1      -0.607   2.945  -1.083  0.00  0.00     0.076 C 
ATOM      7  C8  UNL d   1       0.309   0.606  -1.116  0.00  0.00     0.001 A 
ENDROOT
BRANCH   1   8
ATOM      8  C1  UNL d   1       1.294  -1.714  -1.267  0.00  0.00     0.053 C 
ATOM      9  C   UNL d   1       0.621  -2.215  -2.535  0.00  0.00     0.018 C 
ENDBRANCH   1   8
TORSDOF 1
ENDMDL
