MODEL 1
REMARK minimizedAffinity -3.19391847
REMARK minimizedRMSD -1
REMARK  1 active torsions:
REMARK  status: ('A' for Active; 'I' for Inactive)
REMARK    1  A    between atoms: C1_2  and  C2_3 
ROOT
ATOM      1  C2  UNL d   1      -0.283   0.689   0.150  0.00  0.00    -0.073 A 
ATOM      2  C3  UNL d   1       0.275   0.041  -0.957  0.00  0.00    -0.002 A 
ATOM      3  C4  UNL d   1       0.972  -1.157  -0.796  0.00  0.00     0.004 A 
ATOM      4  C5  UNL d   1       1.112  -1.723   0.471  0.00  0.00    -0.004 A 
ATOM      5  C6  UNL d   1       0.551  -1.096   1.589  0.00  0.00    -0.075 A 
ATOM      6  C7  UNL d   1       0.694  -1.691   2.959  0.00  0.00     0.076 C 
ATOM      7  C8  UNL d   1      -0.145   0.108   1.419  0.00  0.00     0.001 A 
ENDROOT
BRANCH   1   8
ATOM      8  C1  UNL d   1      -1.042   1.980  -0.020  0.00  0.00     0.053 C 
ATOM      9  C   UNL d   1      -1.941   2.274   1.171  0.00  0.00     0.018 C 
ENDBRANCH   1   8
TORSDOF 1
ENDMDL
