MODEL 1
REMARK minimizedAffinity -5.10797739
REMARK minimizedRMSD -1
REMARK  1 active torsions:
REMARK  status: ('A' for Active; 'I' for Inactive)
REMARK    1  A    between atoms: C1_2  and  C2_3 
ROOT
ATOM      1  C2  UNL d   1       0.331  -0.205  -0.227  0.00  0.00    -0.073 A 
ATOM      2  C3  UNL d   1       0.620  -0.875   0.967  0.00  0.00    -0.002 A 
ATOM      3  C4  UNL d   1      -0.052  -0.540   2.143  0.00  0.00     0.004 A 
ATOM      4  C5  UNL d   1      -1.023   0.461   2.136  0.00  0.00    -0.004 A 
ATOM      5  C6  UNL d   1      -1.334   1.134   0.950  0.00  0.00    -0.075 A 
ATOM      6  C7  UNL d   1      -2.374   2.215   0.927  0.00  0.00     0.076 C 
ATOM      7  C8  UNL d   1      -0.653   0.794  -0.226  0.00  0.00     0.001 A 
ENDROOT
BRANCH   1   8
ATOM      8  C1  UNL d   1       1.049  -0.568  -1.501  0.00  0.00     0.053 C 
ATOM      9  C   UNL d   1       0.858  -2.031  -1.867  0.00  0.00     0.018 C 
ENDBRANCH   1   8
TORSDOF 1
ENDMDL
