MODEL 1
REMARK minimizedAffinity -3.07645845
REMARK minimizedRMSD -1
REMARK  1 active torsions:
REMARK  status: ('A' for Active; 'I' for Inactive)
REMARK    1  A    between atoms: C1_2  and  C2_3 
ROOT
ATOM      1  C2  UNL d   1       0.287  -1.085  -0.060  0.00  0.00    -0.073 A 
ATOM      2  C3  UNL d   1      -0.183  -1.118   1.258  0.00  0.00    -0.002 A 
ATOM      3  C4  UNL d   1      -0.824  -0.006   1.805  0.00  0.00     0.004 A 
ATOM      4  C5  UNL d   1      -1.008   1.146   1.041  0.00  0.00    -0.004 A 
ATOM      5  C6  UNL d   1      -0.556   1.194  -0.282  0.00  0.00    -0.075 A 
ATOM      6  C7  UNL d   1      -0.745   2.426  -1.117  0.00  0.00     0.076 C 
ATOM      7  C8  UNL d   1       0.089   0.075  -0.824  0.00  0.00     0.001 A 
ENDROOT
BRANCH   1   8
ATOM      8  C1  UNL d   1       0.975  -2.285  -0.658  0.00  0.00     0.053 C 
ATOM      9  C   UNL d   1       0.119  -2.964  -1.715  0.00  0.00     0.018 C 
ENDBRANCH   1   8
TORSDOF 1
ENDMDL
