MODEL 1
REMARK minimizedAffinity -4.84106541
REMARK minimizedRMSD -1
REMARK  1 active torsions:
REMARK  status: ('A' for Active; 'I' for Inactive)
REMARK    1  A    between atoms: C1_2  and  C2_3 
ROOT
ATOM      1  C2  UNL d   1       0.171  -0.224  -0.333  0.00  0.00    -0.073 A 
ATOM      2  C3  UNL d   1       0.427  -0.856   0.889  0.00  0.00    -0.002 A 
ATOM      3  C4  UNL d   1      -0.116  -0.352   2.071  0.00  0.00     0.004 A 
ATOM      4  C5  UNL d   1      -0.924   0.784   2.044  0.00  0.00    -0.004 A 
ATOM      5  C6  UNL d   1      -1.201   1.424   0.832  0.00  0.00    -0.075 A 
ATOM      6  C7  UNL d   1      -2.067   2.648   0.785  0.00  0.00     0.076 C 
ATOM      7  C8  UNL d   1      -0.651   0.913  -0.351  0.00  0.00     0.001 A 
ENDROOT
BRANCH   1   8
ATOM      8  C1  UNL d   1       0.749  -0.769  -1.613  0.00  0.00     0.053 C 
ATOM      9  C   UNL d   1      -0.041  -1.958  -2.135  0.00  0.00     0.018 C 
ENDBRANCH   1   8
TORSDOF 1
ENDMDL
