MODEL 1
REMARK minimizedAffinity -3.23085165
REMARK minimizedRMSD -1
REMARK  1 active torsions:
REMARK  status: ('A' for Active; 'I' for Inactive)
REMARK    1  A    between atoms: C1_2  and  C2_3 
ROOT
ATOM      1  C2  UNL d   1       0.030  -0.322   0.193  0.00  0.00    -0.073 A 
ATOM      2  C3  UNL d   1      -0.413  -0.243   1.518  0.00  0.00    -0.002 A 
ATOM      3  C4  UNL d   1      -1.130   0.871   1.956  0.00  0.00     0.004 A 
ATOM      4  C5  UNL d   1      -1.418   1.913   1.074  0.00  0.00    -0.004 A 
ATOM      5  C6  UNL d   1      -0.994   1.846  -0.257  0.00  0.00    -0.075 A 
ATOM      6  C7  UNL d   1      -1.293   2.959  -1.219  0.00  0.00     0.076 C 
ATOM      7  C8  UNL d   1      -0.272   0.725  -0.689  0.00  0.00     0.001 A 
ENDROOT
BRANCH   1   8
ATOM      8  C1  UNL d   1       0.799  -1.526  -0.286  0.00  0.00     0.053 C 
ATOM      9  C   UNL d   1       0.261  -2.058  -1.605  0.00  0.00     0.018 C 
ENDBRANCH   1   8
TORSDOF 1
ENDMDL
