MODEL 1
REMARK minimizedAffinity -3.57656312
REMARK minimizedRMSD -1
REMARK  1 active torsions:
REMARK  status: ('A' for Active; 'I' for Inactive)
REMARK    1  A    between atoms: C1_2  and  C2_3 
ROOT
ATOM      1  C2  UNL d   1      -0.554   1.149   0.043  0.00  0.00    -0.073 A 
ATOM      2  C3  UNL d   1       0.031   2.061  -0.843  0.00  0.00    -0.002 A 
ATOM      3  C4  UNL d   1       1.036   1.646  -1.719  0.00  0.00     0.004 A 
ATOM      4  C5  UNL d   1       1.459   0.317  -1.723  0.00  0.00    -0.004 A 
ATOM      5  C6  UNL d   1       0.878  -0.611  -0.854  0.00  0.00    -0.075 A 
ATOM      6  C7  UNL d   1       1.324  -2.044  -0.844  0.00  0.00     0.076 C 
ATOM      7  C8  UNL d   1      -0.128  -0.187   0.025  0.00  0.00     0.001 A 
ENDROOT
BRANCH   1   8
ATOM      8  C1  UNL d   1      -1.644   1.590   0.986  0.00  0.00     0.053 C 
ATOM      9  C   UNL d   1      -1.096   1.965   2.354  0.00  0.00     0.018 C 
ENDBRANCH   1   8
TORSDOF 1
ENDMDL
