MODEL 1
REMARK minimizedAffinity 11.6630354
REMARK minimizedRMSD -1
REMARK  0 active torsions:
REMARK  status: ('A' for Active; 'I' for Inactive)
ROOT
ATOM      1  C   UNL d   1       2.169   2.982   0.796  0.00  0.00    -0.002 A 
ATOM      2  C1  UNL d   1       0.942   2.347   0.674  0.00  0.00     0.010 A 
ATOM      3  C2  UNL d   1       0.864   0.953   0.633  0.00  0.00     0.041 A 
ATOM      4  C3  UNL d   1       2.052   0.202   0.720  0.00  0.00    -0.075 A 
ATOM      5  S   UNL d   1       2.200  -1.516   0.692  0.00  0.00     0.015 SA
ATOM      6  C4  UNL d   1       3.896  -1.447   0.843  0.00  0.00     0.022 A 
ATOM      7  C5  UNL d   1       4.355  -0.153   0.914  0.00  0.00     0.026 A 
ATOM      8  C6  UNL d   1       3.300   0.818   0.845  0.00  0.00    -0.082 A 
ATOM      9  C7  UNL d   1       3.346   2.233   0.882  0.00  0.00     0.045 A 
ENDROOT
TORSDOF 0
ENDMDL
