MODEL 1
REMARK minimizedAffinity 7.21660423
REMARK minimizedRMSD -1
REMARK  0 active torsions:
REMARK  status: ('A' for Active; 'I' for Inactive)
ROOT
ATOM      1  C   UNL d   1      -4.886   1.869  -2.975  0.00  0.00    -0.002 A 
ATOM      2  C1  UNL d   1      -4.880   1.362  -1.683  0.00  0.00     0.010 A 
ATOM      3  C2  UNL d   1      -3.809   0.590  -1.228  0.00  0.00     0.041 A 
ATOM      4  C3  UNL d   1      -2.733   0.335  -2.101  0.00  0.00    -0.075 A 
ATOM      5  S   UNL d   1      -1.314  -0.584  -1.761  0.00  0.00     0.015 SA
ATOM      6  C4  UNL d   1      -0.682  -0.324  -3.322  0.00  0.00     0.022 A 
ATOM      7  C5  UNL d   1      -1.520   0.443  -4.097  0.00  0.00     0.026 A 
ATOM      8  C6  UNL d   1      -2.716   0.836  -3.406  0.00  0.00    -0.082 A 
ATOM      9  C7  UNL d   1      -3.816   1.614  -3.838  0.00  0.00     0.045 A 
ENDROOT
TORSDOF 0
ENDMDL
