MODEL 1
REMARK minimizedAffinity -4.10458279
REMARK minimizedRMSD -1
REMARK  1 active torsions:
REMARK  status: ('A' for Active; 'I' for Inactive)
REMARK    1  A    between atoms: C1_2  and  C2_3 
ROOT
ATOM      1  C2  UNL d   1       0.819   0.446   0.085  0.00  0.00    -0.073 A 
ATOM      2  C3  UNL d   1       1.933  -0.334   0.416  0.00  0.00    -0.002 A 
ATOM      3  C4  UNL d   1       3.071   0.258   0.963  0.00  0.00     0.004 A 
ATOM      4  C5  UNL d   1       3.107   1.634   1.191  0.00  0.00    -0.004 A 
ATOM      5  C6  UNL d   1       2.000   2.429   0.877  0.00  0.00    -0.075 A 
ATOM      6  C7  UNL d   1       2.022   3.911   1.114  0.00  0.00     0.076 C 
ATOM      7  C8  UNL d   1       0.861   1.827   0.326  0.00  0.00     0.001 A 
ENDROOT
BRANCH   1   8
ATOM      8  C1  UNL d   1      -0.415  -0.190  -0.500  0.00  0.00     0.053 C 
ATOM      9  C   UNL d   1      -1.268   0.814  -1.259  0.00  0.00     0.018 C 
ENDBRANCH   1   8
TORSDOF 1
ENDMDL
