MODEL 1
REMARK minimizedAffinity -4.00219059
REMARK minimizedRMSD -1
REMARK  1 active torsions:
REMARK  status: ('A' for Active; 'I' for Inactive)
REMARK    1  A    between atoms: C1_2  and  C2_3 
ROOT
ATOM      1  C2  UNL d   1       1.004   0.402  -0.125  0.00  0.00    -0.073 A 
ATOM      2  C3  UNL d   1       0.072   0.797  -1.091  0.00  0.00    -0.002 A 
ATOM      3  C4  UNL d   1      -1.129   0.102  -1.238  0.00  0.00     0.004 A 
ATOM      4  C5  UNL d   1      -1.413  -0.989  -0.417  0.00  0.00    -0.004 A 
ATOM      5  C6  UNL d   1      -0.500  -1.392   0.563  0.00  0.00    -0.075 A 
ATOM      6  C7  UNL d   1      -0.790  -2.565   1.453  0.00  0.00     0.076 C 
ATOM      7  C8  UNL d   1       0.705  -0.691   0.702  0.00  0.00     0.001 A 
ENDROOT
BRANCH   1   8
ATOM      8  C1  UNL d   1       2.300   1.153   0.042  0.00  0.00     0.053 C 
ATOM      9  C   UNL d   1       2.220   2.187   1.154  0.00  0.00     0.018 C 
ENDBRANCH   1   8
TORSDOF 1
ENDMDL
