MODEL 1
REMARK minimizedAffinity -3.79283404
REMARK minimizedRMSD -1
REMARK  1 active torsions:
REMARK  status: ('A' for Active; 'I' for Inactive)
REMARK    1  A    between atoms: C1_2  and  C2_3 
ROOT
ATOM      1  C2  UNL d   1       0.738   0.583   0.001  0.00  0.00    -0.073 A 
ATOM      2  C3  UNL d   1       1.818  -0.240   0.339  0.00  0.00    -0.002 A 
ATOM      3  C4  UNL d   1       2.936   0.292   0.983  0.00  0.00     0.004 A 
ATOM      4  C5  UNL d   1       2.982   1.649   1.302  0.00  0.00    -0.004 A 
ATOM      5  C6  UNL d   1       1.908   2.486   0.983  0.00  0.00    -0.075 A 
ATOM      6  C7  UNL d   1       1.943   3.948   1.318  0.00  0.00     0.076 C 
ATOM      7  C8  UNL d   1       0.790   1.945   0.334  0.00  0.00     0.001 A 
ENDROOT
BRANCH   1   8
ATOM      8  C1  UNL d   1      -0.474   0.012  -0.688  0.00  0.00     0.053 C 
ATOM      9  C   UNL d   1      -0.791   0.744  -1.983  0.00  0.00     0.018 C 
ENDBRANCH   1   8
TORSDOF 1
ENDMDL
