MODEL 1
REMARK minimizedAffinity -0.565468431
REMARK minimizedRMSD -1
REMARK  1 active torsions:
REMARK  status: ('A' for Active; 'I' for Inactive)
REMARK    1  A    between atoms: C1_2  and  C2_3 
ROOT
ATOM      1  C2  UNL d   1      -1.728  -1.489  -0.199  0.00  0.00    -0.073 A 
ATOM      2  C3  UNL d   1      -2.163  -1.075  -1.463  0.00  0.00    -0.002 A 
ATOM      3  C4  UNL d   1      -1.521  -0.024  -2.119  0.00  0.00     0.004 A 
ATOM      4  C5  UNL d   1      -0.436   0.618  -1.524  0.00  0.00    -0.004 A 
ATOM      5  C6  UNL d   1       0.021   0.211  -0.266  0.00  0.00    -0.075 A 
ATOM      6  C7  UNL d   1       1.187   0.892   0.390  0.00  0.00     0.076 C 
ATOM      7  C8  UNL d   1      -0.630  -0.844   0.388  0.00  0.00     0.001 A 
ENDROOT
BRANCH   1   8
ATOM      8  C1  UNL d   1      -2.413  -2.627   0.512  0.00  0.00     0.053 C 
ATOM      9  C   UNL d   1      -1.539  -3.229   1.600  0.00  0.00     0.018 C 
ENDBRANCH   1   8
TORSDOF 1
ENDMDL
