MODEL 1
REMARK minimizedAffinity -3.18414998
REMARK minimizedRMSD -1
REMARK  1 active torsions:
REMARK  status: ('A' for Active; 'I' for Inactive)
REMARK    1  A    between atoms: C1_2  and  C2_3 
ROOT
ATOM      1  C2  UNL d   1       1.058   1.002   0.328  0.00  0.00    -0.073 A 
ATOM      2  C3  UNL d   1       0.947   1.855   1.432  0.00  0.00    -0.002 A 
ATOM      3  C4  UNL d   1       1.917   2.830   1.670  0.00  0.00     0.004 A 
ATOM      4  C5  UNL d   1       3.002   2.967   0.804  0.00  0.00    -0.004 A 
ATOM      5  C6  UNL d   1       3.124   2.132  -0.312  0.00  0.00    -0.075 A 
ATOM      6  C7  UNL d   1       4.286   2.265  -1.252  0.00  0.00     0.076 C 
ATOM      7  C8  UNL d   1       2.147   1.154  -0.542  0.00  0.00     0.001 A 
ENDROOT
BRANCH   1   8
ATOM      8  C1  UNL d   1       0.010  -0.048   0.064  0.00  0.00     0.053 C 
ATOM      9  C   UNL d   1      -0.460  -0.033  -1.381  0.00  0.00     0.018 C 
ENDBRANCH   1   8
TORSDOF 1
ENDMDL
