MODEL 1
REMARK minimizedAffinity -3.64668107
REMARK minimizedRMSD -1
REMARK  1 active torsions:
REMARK  status: ('A' for Active; 'I' for Inactive)
REMARK    1  A    between atoms: C1_2  and  C2_3 
ROOT
ATOM      1  C2  UNL d   1       0.354  -0.078   0.035  0.00  0.00    -0.073 A 
ATOM      2  C3  UNL d   1      -0.048   0.750  -1.019  0.00  0.00    -0.002 A 
ATOM      3  C4  UNL d   1      -1.226   0.480  -1.717  0.00  0.00     0.004 A 
ATOM      4  C5  UNL d   1      -2.016  -0.614  -1.364  0.00  0.00    -0.004 A 
ATOM      5  C6  UNL d   1      -1.637  -1.446  -0.306  0.00  0.00    -0.075 A 
ATOM      6  C7  UNL d   1      -2.475  -2.628   0.084  0.00  0.00     0.076 C 
ATOM      7  C8  UNL d   1      -0.452  -1.170   0.388  0.00  0.00     0.001 A 
ENDROOT
BRANCH   1   8
ATOM      8  C1  UNL d   1       1.622   0.213   0.796  0.00  0.00     0.053 C 
ATOM      9  C   UNL d   1       2.235   1.544   0.394  0.00  0.00     0.018 C 
ENDBRANCH   1   8
TORSDOF 1
ENDMDL
