MODEL 1
REMARK minimizedAffinity -2.13081241
REMARK minimizedRMSD -1
REMARK  1 active torsions:
REMARK  status: ('A' for Active; 'I' for Inactive)
REMARK    1  A    between atoms: C1_2  and  C2_3 
ROOT
ATOM      1  C2  UNL d   1      -0.149  -0.241  -0.572  0.00  0.00    -0.073 A 
ATOM      2  C3  UNL d   1       0.325  -1.389   0.073  0.00  0.00    -0.002 A 
ATOM      3  C4  UNL d   1       1.445  -1.321   0.902  0.00  0.00     0.004 A 
ATOM      4  C5  UNL d   1       2.099  -0.104   1.099  0.00  0.00    -0.004 A 
ATOM      5  C6  UNL d   1       1.634   1.056   0.472  0.00  0.00    -0.075 A 
ATOM      6  C7  UNL d   1       2.328   2.372   0.673  0.00  0.00     0.076 C 
ATOM      7  C8  UNL d   1       0.510   0.979  -0.360  0.00  0.00     0.001 A 
ENDROOT
BRANCH   1   8
ATOM      8  C1  UNL d   1      -1.362  -0.309  -1.463  0.00  0.00     0.053 C 
ATOM      9  C   UNL d   1      -2.260  -1.485  -1.114  0.00  0.00     0.018 C 
ENDBRANCH   1   8
TORSDOF 1
ENDMDL
