MODEL 1
REMARK minimizedAffinity -3.44046092
REMARK minimizedRMSD -1
REMARK  1 active torsions:
REMARK  status: ('A' for Active; 'I' for Inactive)
REMARK    1  A    between atoms: C1_2  and  C2_3 
ROOT
ATOM      1  C2  UNL d   1       1.210   0.086   0.200  0.00  0.00    -0.073 A 
ATOM      2  C3  UNL d   1       0.361   0.704  -0.726  0.00  0.00    -0.002 A 
ATOM      3  C4  UNL d   1      -0.946   0.247  -0.899  0.00  0.00     0.004 A 
ATOM      4  C5  UNL d   1      -1.419  -0.827  -0.146  0.00  0.00    -0.004 A 
ATOM      5  C6  UNL d   1      -0.590  -1.451   0.792  0.00  0.00    -0.075 A 
ATOM      6  C7  UNL d   1      -1.084  -2.609   1.609  0.00  0.00     0.076 C 
ATOM      7  C8  UNL d   1       0.722  -0.988   0.959  0.00  0.00     0.001 A 
ENDROOT
BRANCH   1   8
ATOM      8  C1  UNL d   1       2.620   0.580   0.395  0.00  0.00     0.053 C 
ATOM      9  C   UNL d   1       2.663   1.881   1.182  0.00  0.00     0.018 C 
ENDBRANCH   1   8
TORSDOF 1
ENDMDL
