MODEL 1
REMARK minimizedAffinity -0.591644406
REMARK minimizedRMSD -1
REMARK  1 active torsions:
REMARK  status: ('A' for Active; 'I' for Inactive)
REMARK    1  A    between atoms: C1_2  and  C2_3 
ROOT
ATOM      1  C2  UNL d   1      -1.344  -1.911  -0.314  0.00  0.00    -0.073 A 
ATOM      2  C3  UNL d   1      -2.106  -1.439  -1.389  0.00  0.00    -0.002 A 
ATOM      3  C4  UNL d   1      -1.837  -0.189  -1.948  0.00  0.00     0.004 A 
ATOM      4  C5  UNL d   1      -0.801   0.597  -1.445  0.00  0.00    -0.004 A 
ATOM      5  C6  UNL d   1      -0.021   0.138  -0.379  0.00  0.00    -0.075 A 
ATOM      6  C7  UNL d   1       1.096   0.973   0.176  0.00  0.00     0.076 C 
ATOM      7  C8  UNL d   1      -0.299  -1.117   0.179  0.00  0.00     0.001 A 
ENDROOT
BRANCH   1   8
ATOM      8  C1  UNL d   1      -1.626  -3.263   0.289  0.00  0.00     0.053 C 
ATOM      9  C   UNL d   1      -0.972  -3.427   1.652  0.00  0.00     0.018 C 
ENDBRANCH   1   8
TORSDOF 1
ENDMDL
