MODEL 1
REMARK minimizedAffinity -3.61138511
REMARK minimizedRMSD -1
REMARK  1 active torsions:
REMARK  status: ('A' for Active; 'I' for Inactive)
REMARK    1  A    between atoms: C1_2  and  C2_3 
ROOT
ATOM      1  C2  UNL d   1       0.391   0.202  -0.323  0.00  0.00    -0.073 A 
ATOM      2  C3  UNL d   1      -0.293   1.119  -1.128  0.00  0.00    -0.002 A 
ATOM      3  C4  UNL d   1      -1.577   0.830  -1.591  0.00  0.00     0.004 A 
ATOM      4  C5  UNL d   1      -2.192  -0.373  -1.249  0.00  0.00    -0.004 A 
ATOM      5  C6  UNL d   1      -1.530  -1.298  -0.435  0.00  0.00    -0.075 A 
ATOM      6  C7  UNL d   1      -2.177  -2.598  -0.059  0.00  0.00     0.076 C 
ATOM      7  C8  UNL d   1      -0.239  -1.002   0.024  0.00  0.00     0.001 A 
ENDROOT
BRANCH   1   8
ATOM      8  C1  UNL d   1       1.776   0.512   0.185  0.00  0.00     0.053 C 
ATOM      9  C   UNL d   1       1.869   1.914   0.766  0.00  0.00     0.018 C 
ENDBRANCH   1   8
TORSDOF 1
ENDMDL
