MODEL 1
REMARK minimizedAffinity -0.489514261
REMARK minimizedRMSD -1
REMARK  1 active torsions:
REMARK  status: ('A' for Active; 'I' for Inactive)
REMARK    1  A    between atoms: C1_2  and  C2_3 
ROOT
ATOM      1  C2  UNL d   1      -2.268  -0.420  -1.123  0.00  0.00    -0.073 A 
ATOM      2  C3  UNL d   1      -3.299  -0.980  -0.360  0.00  0.00    -0.002 A 
ATOM      3  C4  UNL d   1      -3.008  -1.691   0.805  0.00  0.00     0.004 A 
ATOM      4  C5  UNL d   1      -1.686  -1.845   1.221  0.00  0.00    -0.004 A 
ATOM      5  C6  UNL d   1      -0.642  -1.283   0.479  0.00  0.00    -0.075 A 
ATOM      6  C7  UNL d   1       0.786  -1.441   0.912  0.00  0.00     0.076 C 
ATOM      7  C8  UNL d   1      -0.942  -0.572  -0.691  0.00  0.00     0.001 A 
ENDROOT
BRANCH   1   8
ATOM      8  C1  UNL d   1      -2.578   0.354  -2.378  0.00  0.00     0.053 C 
ATOM      9  C   UNL d   1      -1.422   1.250  -2.795  0.00  0.00     0.018 C 
ENDBRANCH   1   8
TORSDOF 1
ENDMDL
