MODEL 1
REMARK minimizedAffinity -3.96471572
REMARK minimizedRMSD -1
REMARK  1 active torsions:
REMARK  status: ('A' for Active; 'I' for Inactive)
REMARK    1  A    between atoms: C1_2  and  C2_3 
ROOT
ATOM      1  C2  UNL d   1       0.126   0.340  -0.547  0.00  0.00    -0.073 A 
ATOM      2  C3  UNL d   1       0.370  -0.788   0.244  0.00  0.00    -0.002 A 
ATOM      3  C4  UNL d   1       1.305  -0.734   1.279  0.00  0.00     0.004 A 
ATOM      4  C5  UNL d   1       1.999   0.448   1.537  0.00  0.00    -0.004 A 
ATOM      5  C6  UNL d   1       1.760   1.589   0.765  0.00  0.00    -0.075 A 
ATOM      6  C7  UNL d   1       2.500   2.868   1.029  0.00  0.00     0.076 C 
ATOM      7  C8  UNL d   1       0.822   1.527  -0.274  0.00  0.00     0.001 A 
ENDROOT
BRANCH   1   8
ATOM      8  C1  UNL d   1      -0.887   0.289  -1.662  0.00  0.00     0.053 C 
ATOM      9  C   UNL d   1      -2.042  -0.646  -1.340  0.00  0.00     0.018 C 
ENDBRANCH   1   8
TORSDOF 1
ENDMDL
