MODEL 1
REMARK minimizedAffinity -4.40058279
REMARK minimizedRMSD -1
REMARK  1 active torsions:
REMARK  status: ('A' for Active; 'I' for Inactive)
REMARK    1  A    between atoms: C1_2  and  C2_3 
ROOT
ATOM      1  C2  UNL d   1      -0.378   0.819  -0.541  0.00  0.00    -0.073 A 
ATOM      2  C3  UNL d   1       0.628  -0.142  -0.695  0.00  0.00    -0.002 A 
ATOM      3  C4  UNL d   1       1.902   0.081  -0.169  0.00  0.00     0.004 A 
ATOM      4  C5  UNL d   1       2.180   1.261   0.520  0.00  0.00    -0.004 A 
ATOM      5  C6  UNL d   1       1.185   2.228   0.695  0.00  0.00    -0.075 A 
ATOM      6  C7  UNL d   1       1.469   3.503   1.432  0.00  0.00     0.076 C 
ATOM      7  C8  UNL d   1      -0.091   1.998   0.162  0.00  0.00     0.001 A 
ENDROOT
BRANCH   1   8
ATOM      8  C1  UNL d   1      -1.756   0.580  -1.101  0.00  0.00     0.053 C 
ATOM      9  C   UNL d   1      -2.137  -0.891  -1.069  0.00  0.00     0.018 C 
ENDBRANCH   1   8
TORSDOF 1
ENDMDL
