MODEL 1
REMARK minimizedAffinity -0.687733114
REMARK minimizedRMSD -1
REMARK  1 active torsions:
REMARK  status: ('A' for Active; 'I' for Inactive)
REMARK    1  A    between atoms: C1_2  and  C2_3 
ROOT
ATOM      1  C2  UNL d   1       0.334   0.212  -0.024  0.00  0.00    -0.073 A 
ATOM      2  C3  UNL d   1       0.304   0.727  -1.325  0.00  0.00    -0.002 A 
ATOM      3  C4  UNL d   1      -0.765   0.437  -2.173  0.00  0.00     0.004 A 
ATOM      4  C5  UNL d   1      -1.818  -0.363  -1.728  0.00  0.00    -0.004 A 
ATOM      5  C6  UNL d   1      -1.812  -0.877  -0.427  0.00  0.00    -0.075 A 
ATOM      6  C7  UNL d   1      -2.936  -1.740   0.066  0.00  0.00     0.076 C 
ATOM      7  C8  UNL d   1      -0.733  -0.584   0.418  0.00  0.00     0.001 A 
ENDROOT
BRANCH   1   8
ATOM      8  C1  UNL d   1       1.483   0.527   0.898  0.00  0.00     0.053 C 
ATOM      9  C   UNL d   1       2.318   1.692   0.391  0.00  0.00     0.018 C 
ENDBRANCH   1   8
TORSDOF 1
ENDMDL
