MODEL 1
REMARK minimizedAffinity 0.340416074
REMARK minimizedRMSD -1
REMARK  0 active torsions:
REMARK  status: ('A' for Active; 'I' for Inactive)
ROOT
ATOM      1  C1  BNZ d   1       2.071   1.640  -0.094  0.00  0.00     0.000 A 
ATOM      2  C2  BNZ d   1       1.272   2.069  -1.120  0.00  0.00     0.000 A 
ATOM      3  C3  BNZ d   1       1.817   2.530  -2.286  0.00  0.00     0.000 A 
ATOM      4  C4  BNZ d   1       3.158   2.600  -2.409  0.00  0.00     0.000 A 
ATOM      5  C5  BNZ d   1       3.977   2.180  -1.379  0.00  0.00     0.000 A 
ATOM      6  C6  BNZ d   1       3.425   1.680  -0.222  0.00  0.00     0.000 A 
ENDROOT
TORSDOF 0
ENDMDL
