MODEL 1
REMARK minimizedAffinity 5.73722553
REMARK minimizedRMSD -1
REMARK  0 active torsions:
REMARK  status: ('A' for Active; 'I' for Inactive)
ROOT
ATOM      1  C1  BNZ d   1      -0.636  -3.760  -2.412  0.00  0.00     0.000 A 
ATOM      2  C2  BNZ d   1      -0.799  -4.983  -3.005  0.00  0.00     0.000 A 
ATOM      3  C3  BNZ d   1      -1.857  -5.222  -3.836  0.00  0.00     0.000 A 
ATOM      4  C4  BNZ d   1      -2.771  -4.251  -4.042  0.00  0.00     0.000 A 
ATOM      5  C5  BNZ d   1      -2.625  -3.016  -3.444  0.00  0.00     0.000 A 
ATOM      6  C6  BNZ d   1      -1.538  -2.766  -2.639  0.00  0.00     0.000 A 
ENDROOT
TORSDOF 0
ENDMDL
