MODEL 1
REMARK minimizedAffinity 4.44688559
REMARK minimizedRMSD -1
REMARK  0 active torsions:
REMARK  status: ('A' for Active; 'I' for Inactive)
ROOT
ATOM      1  C1  BNZ d   1      -4.535  -3.642   3.943  0.00  0.00     0.000 A 
ATOM      2  C2  BNZ d   1      -4.591  -3.657   5.311  0.00  0.00     0.000 A 
ATOM      3  C3  BNZ d   1      -4.666  -4.838   5.996  0.00  0.00     0.000 A 
ATOM      4  C4  BNZ d   1      -4.726  -5.998   5.311  0.00  0.00     0.000 A 
ATOM      5  C5  BNZ d   1      -4.680  -5.999   3.931  0.00  0.00     0.000 A 
ATOM      6  C6  BNZ d   1      -4.565  -4.811   3.247  0.00  0.00     0.000 A 
ENDROOT
TORSDOF 0
ENDMDL
