MODEL 1
REMARK minimizedAffinity 4.65109491
REMARK minimizedRMSD -1
REMARK  0 active torsions:
REMARK  status: ('A' for Active; 'I' for Inactive)
ROOT
ATOM      1  C1  BNZ d   1      -2.005  -1.590   1.099  0.00  0.00     0.000 A 
ATOM      2  C2  BNZ d   1      -1.354  -0.887   2.078  0.00  0.00     0.000 A 
ATOM      3  C3  BNZ d   1      -1.968   0.150   2.722  0.00  0.00     0.000 A 
ATOM      4  C4  BNZ d   1      -3.217   0.509   2.360  0.00  0.00     0.000 A 
ATOM      5  C5  BNZ d   1      -3.884  -0.184   1.368  0.00  0.00     0.000 A 
ATOM      6  C6  BNZ d   1      -3.276  -1.252   0.749  0.00  0.00     0.000 A 
ENDROOT
TORSDOF 0
ENDMDL
