MODEL 1
REMARK minimizedAffinity 11.9677038
REMARK minimizedRMSD -1
REMARK  0 active torsions:
REMARK  status: ('A' for Active; 'I' for Inactive)
ROOT
ATOM      1  C1  BNZ d   1       2.879   2.833  -3.143  0.00  0.00     0.000 A 
ATOM      2  C2  BNZ d   1       3.096   2.723  -4.490  0.00  0.00     0.000 A 
ATOM      3  C3  BNZ d   1       4.241   3.207  -5.057  0.00  0.00     0.000 A 
ATOM      4  C4  BNZ d   1       5.150   3.834  -4.283  0.00  0.00     0.000 A 
ATOM      5  C5  BNZ d   1       4.942   3.962  -2.924  0.00  0.00     0.000 A 
ATOM      6  C6  BNZ d   1       3.806   3.439  -2.351  0.00  0.00     0.000 A 
ENDROOT
TORSDOF 0
ENDMDL
