MODEL 1
REMARK minimizedAffinity 14.2998648
REMARK minimizedRMSD -1
REMARK  0 active torsions:
REMARK  status: ('A' for Active; 'I' for Inactive)
ROOT
ATOM      1  C1  BNZ d   1      -1.003   0.012   2.596  0.00  0.00     0.000 A 
ATOM      2  C2  BNZ d   1      -0.492  -1.126   2.030  0.00  0.00     0.000 A 
ATOM      3  C3  BNZ d   1      -1.228  -1.855   1.139  0.00  0.00     0.000 A 
ATOM      4  C4  BNZ d   1      -2.486  -1.469   0.844  0.00  0.00     0.000 A 
ATOM      5  C5  BNZ d   1      -3.018  -0.329   1.413  0.00  0.00     0.000 A 
ATOM      6  C6  BNZ d   1      -2.261   0.424   2.280  0.00  0.00     0.000 A 
ENDROOT
TORSDOF 0
ENDMDL
