MODEL 1
REMARK minimizedAffinity 5.91036463
REMARK minimizedRMSD -1
REMARK  0 active torsions:
REMARK  status: ('A' for Active; 'I' for Inactive)
ROOT
ATOM      1  C1  BNZ d   1      -2.622  -6.000  -4.560  0.00  0.00     0.000 A 
ATOM      2  C2  BNZ d   1      -2.636  -5.270  -3.402  0.00  0.00     0.000 A 
ATOM      3  C3  BNZ d   1      -1.552  -4.525  -3.031  0.00  0.00     0.000 A 
ATOM      4  C4  BNZ d   1      -0.442  -4.543  -3.796  0.00  0.00     0.000 A 
ATOM      5  C5  BNZ d   1      -0.408  -5.281  -4.962  0.00  0.00     0.000 A 
ATOM      6  C6  BNZ d   1      -1.515  -5.999  -5.353  0.00  0.00     0.000 A 
ENDROOT
TORSDOF 0
ENDMDL
