MODEL 1
REMARK minimizedAffinity 2.08769941
REMARK minimizedRMSD -1
REMARK  0 active torsions:
REMARK  status: ('A' for Active; 'I' for Inactive)
ROOT
ATOM      1  C1  BNZ d   1       0.383  -5.593  -4.254  0.00  0.00     0.000 A 
ATOM      2  C2  BNZ d   1       0.054  -5.999  -5.520  0.00  0.00     0.000 A 
ATOM      3  C3  BNZ d   1      -1.246  -5.995  -5.941  0.00  0.00     0.000 A 
ATOM      4  C4  BNZ d   1      -2.219  -5.624  -5.084  0.00  0.00     0.000 A 
ATOM      5  C5  BNZ d   1      -1.905  -5.221  -3.801  0.00  0.00     0.000 A 
ATOM      6  C6  BNZ d   1      -0.591  -5.189  -3.394  0.00  0.00     0.000 A 
ENDROOT
TORSDOF 0
ENDMDL
