MODEL 1
REMARK minimizedAffinity 6.8808465
REMARK minimizedRMSD -1
REMARK  0 active torsions:
REMARK  status: ('A' for Active; 'I' for Inactive)
ROOT
ATOM      1  C1  BNZ d   1      -3.191   0.306   2.363  0.00  0.00     0.000 A 
ATOM      2  C2  BNZ d   1      -3.307  -0.701   1.443  0.00  0.00     0.000 A 
ATOM      3  C3  BNZ d   1      -2.214  -1.423   1.052  0.00  0.00     0.000 A 
ATOM      4  C4  BNZ d   1      -1.001  -1.110   1.551  0.00  0.00     0.000 A 
ATOM      5  C5  BNZ d   1      -0.865  -0.091   2.473  0.00  0.00     0.000 A 
ATOM      6  C6  BNZ d   1      -1.974   0.608   2.893  0.00  0.00     0.000 A 
ENDROOT
TORSDOF 0
ENDMDL
