MODEL 1
REMARK minimizedAffinity 6.21775055
REMARK minimizedRMSD -1
REMARK  0 active torsions:
REMARK  status: ('A' for Active; 'I' for Inactive)
ROOT
ATOM      1  C1  BNZ d   1      -5.629  -4.492   1.930  0.00  0.00     0.000 A 
ATOM      2  C2  BNZ d   1      -5.997  -5.690   2.482  0.00  0.00     0.000 A 
ATOM      3  C3  BNZ d   1      -5.661  -6.000   3.770  0.00  0.00     0.000 A 
ATOM      4  C4  BNZ d   1      -4.924  -5.130   4.491  0.00  0.00     0.000 A 
ATOM      5  C5  BNZ d   1      -4.537  -3.922   3.946  0.00  0.00     0.000 A 
ATOM      6  C6  BNZ d   1      -4.910  -3.597   2.662  0.00  0.00     0.000 A 
ENDROOT
TORSDOF 0
ENDMDL
