MODEL 1
REMARK minimizedAffinity 4.40642452
REMARK minimizedRMSD -1
REMARK  0 active torsions:
REMARK  status: ('A' for Active; 'I' for Inactive)
ROOT
ATOM      1  C1  BNZ d   1      -1.452   0.274   3.306  0.00  0.00     0.000 A 
ATOM      2  C2  BNZ d   1      -1.128  -0.719   2.421  0.00  0.00     0.000 A 
ATOM      3  C3  BNZ d   1      -2.034  -1.158   1.497  0.00  0.00     0.000 A 
ATOM      4  C4  BNZ d   1      -3.276  -0.631   1.485  0.00  0.00     0.000 A 
ATOM      5  C5  BNZ d   1      -3.621   0.365   2.376  0.00  0.00     0.000 A 
ATOM      6  C6  BNZ d   1      -2.694   0.831   3.279  0.00  0.00     0.000 A 
ENDROOT
TORSDOF 0
ENDMDL
