MODEL 1
REMARK minimizedAffinity -0.183811501
REMARK minimizedRMSD -1
REMARK  0 active torsions:
REMARK  status: ('A' for Active; 'I' for Inactive)
ROOT
ATOM      1  C1  BNZ d   1      -4.936  -1.021   3.545  0.00  0.00     0.000 A 
ATOM      2  C2  BNZ d   1      -4.800  -1.324   4.874  0.00  0.00     0.000 A 
ATOM      3  C3  BNZ d   1      -4.768  -0.336   5.818  0.00  0.00     0.000 A 
ATOM      4  C4  BNZ d   1      -4.831   0.954   5.429  0.00  0.00     0.000 A 
ATOM      5  C5  BNZ d   1      -4.960   1.277   4.093  0.00  0.00     0.000 A 
ATOM      6  C6  BNZ d   1      -5.031   0.278   3.149  0.00  0.00     0.000 A 
ENDROOT
TORSDOF 0
ENDMDL
