MODEL 1
REMARK minimizedAffinity 0.12890099
REMARK minimizedRMSD -1
REMARK  0 active torsions:
REMARK  status: ('A' for Active; 'I' for Inactive)
ROOT
ATOM      1  C1  BNZ d   1      -5.622  -3.663   5.329  0.00  0.00     0.000 A 
ATOM      2  C2  BNZ d   1      -5.451  -3.682   3.970  0.00  0.00     0.000 A 
ATOM      3  C3  BNZ d   1      -5.564  -4.848   3.267  0.00  0.00     0.000 A 
ATOM      4  C4  BNZ d   1      -5.807  -6.000   3.926  0.00  0.00     0.000 A 
ATOM      5  C5  BNZ d   1      -5.972  -5.999   5.297  0.00  0.00     0.000 A 
ATOM      6  C6  BNZ d   1      -5.896  -4.817   5.997  0.00  0.00     0.000 A 
ENDROOT
TORSDOF 0
ENDMDL
