MODEL 1
REMARK minimizedAffinity 0.170454755
REMARK minimizedRMSD -1
REMARK  0 active torsions:
REMARK  status: ('A' for Active; 'I' for Inactive)
ROOT
ATOM      1  C1  BNZ d   1      -0.080   0.006   3.226  0.00  0.00     0.000 A 
ATOM      2  C2  BNZ d   1      -1.082   0.930   3.092  0.00  0.00     0.000 A 
ATOM      3  C3  BNZ d   1      -1.782   1.367   4.182  0.00  0.00     0.000 A 
ATOM      4  C4  BNZ d   1      -1.506   0.851   5.397  0.00  0.00     0.000 A 
ATOM      5  C5  BNZ d   1      -0.505  -0.087   5.547  0.00  0.00     0.000 A 
ATOM      6  C6  BNZ d   1       0.223  -0.496   4.454  0.00  0.00     0.000 A 
ENDROOT
TORSDOF 0
ENDMDL
