MODEL 1
REMARK minimizedAffinity 13.4688482
REMARK minimizedRMSD -1
REMARK  0 active torsions:
REMARK  status: ('A' for Active; 'I' for Inactive)
ROOT
ATOM      1  C1  BNZ d   1       3.350   1.930  -1.972  0.00  0.00     0.000 A 
ATOM      2  C2  BNZ d   1       3.148   2.730  -3.065  0.00  0.00     0.000 A 
ATOM      3  C3  BNZ d   1       1.886   2.978  -3.527  0.00  0.00     0.000 A 
ATOM      4  C4  BNZ d   1       0.832   2.395  -2.921  0.00  0.00     0.000 A 
ATOM      5  C5  BNZ d   1       1.019   1.579  -1.824  0.00  0.00     0.000 A 
ATOM      6  C6  BNZ d   1       2.288   1.363  -1.337  0.00  0.00     0.000 A 
ENDROOT
TORSDOF 0
ENDMDL
