MODEL 1
REMARK minimizedAffinity 7.39059877
REMARK minimizedRMSD -1
REMARK  0 active torsions:
REMARK  status: ('A' for Active; 'I' for Inactive)
ROOT
ATOM      1  C1  BNZ d   1      -5.627   1.894   0.029  0.00  0.00     0.000 A 
ATOM      2  C2  BNZ d   1      -5.620   1.295  -1.202  0.00  0.00     0.000 A 
ATOM      3  C3  BNZ d   1      -5.826  -0.050  -1.327  0.00  0.00     0.000 A 
ATOM      4  C4  BNZ d   1      -5.999  -0.800  -0.220  0.00  0.00     0.000 A 
ATOM      5  C5  BNZ d   1      -6.000  -0.212   1.029  0.00  0.00     0.000 A 
ATOM      6  C6  BNZ d   1      -5.831   1.148   1.149  0.00  0.00     0.000 A 
ENDROOT
TORSDOF 0
ENDMDL
