MODEL 1
REMARK minimizedAffinity 8.14887142
REMARK minimizedRMSD -1
REMARK  0 active torsions:
REMARK  status: ('A' for Active; 'I' for Inactive)
ROOT
ATOM      1  C   UNL d   1       0.525   1.344  -2.484  0.00  0.00     0.077 C 
ATOM      2  C1  UNL d   1       1.661   0.894  -1.613  0.00  0.00    -0.074 A 
ATOM      3  C2  UNL d   1       2.764   1.722  -1.385  0.00  0.00    -0.005 A 
ATOM      4  C3  UNL d   1       3.808   1.293  -0.566  0.00  0.00     0.006 A 
ATOM      5  C4  UNL d   1       3.759   0.034   0.033  0.00  0.00    -0.005 A 
ATOM      6  C5  UNL d   1       2.664  -0.808  -0.183  0.00  0.00    -0.074 A 
ATOM      7  C6  UNL d   1       2.591  -2.161   0.461  0.00  0.00     0.077 C 
ATOM      8  C7  UNL d   1       1.615  -0.367  -1.002  0.00  0.00    -0.001 A 
ENDROOT
TORSDOF 0
ENDMDL
