MODEL 1
REMARK minimizedAffinity 8.59332657
REMARK minimizedRMSD -1
REMARK  0 active torsions:
REMARK  status: ('A' for Active; 'I' for Inactive)
ROOT
ATOM      1  C   UNL d   1       1.763  -0.681   0.535  0.00  0.00     0.077 C 
ATOM      2  C1  UNL d   1       0.737  -1.237   1.476  0.00  0.00    -0.074 A 
ATOM      3  C2  UNL d   1      -0.275  -0.425   1.998  0.00  0.00    -0.005 A 
ATOM      4  C3  UNL d   1      -1.228  -0.958   2.865  0.00  0.00     0.006 A 
ATOM      5  C4  UNL d   1      -1.179  -2.307   3.219  0.00  0.00    -0.005 A 
ATOM      6  C5  UNL d   1      -0.175  -3.135   2.707  0.00  0.00    -0.074 A 
ATOM      7  C6  UNL d   1      -0.114  -4.589   3.069  0.00  0.00     0.077 C 
ATOM      8  C7  UNL d   1       0.775  -2.593   1.830  0.00  0.00    -0.001 A 
ENDROOT
TORSDOF 0
ENDMDL
