MODEL 1
REMARK minimizedAffinity -0.903454185
REMARK minimizedRMSD -1
REMARK  0 active torsions:
REMARK  status: ('A' for Active; 'I' for Inactive)
ROOT
ATOM      1  C   UNL d   1      -1.105  -4.198   3.488  0.00  0.00     0.077 C 
ATOM      2  C1  UNL d   1      -0.428  -3.190   2.607  0.00  0.00    -0.074 A 
ATOM      3  C2  UNL d   1       0.735  -3.518   1.903  0.00  0.00    -0.005 A 
ATOM      4  C3  UNL d   1       1.348  -2.573   1.080  0.00  0.00     0.006 A 
ATOM      5  C4  UNL d   1       0.806  -1.293   0.954  0.00  0.00    -0.005 A 
ATOM      6  C5  UNL d   1      -0.357  -0.948   1.651  0.00  0.00    -0.074 A 
ATOM      7  C6  UNL d   1      -0.958   0.420   1.519  0.00  0.00     0.077 C 
ATOM      8  C7  UNL d   1      -0.971  -1.905   2.470  0.00  0.00    -0.001 A 
ENDROOT
TORSDOF 0
ENDMDL
