MODEL 1
REMARK minimizedAffinity -0.527860641
REMARK minimizedRMSD -1
REMARK  0 active torsions:
REMARK  status: ('A' for Active; 'I' for Inactive)
ROOT
ATOM      1  C   UNL d   1      -1.659  -3.712   4.143  0.00  0.00     0.077 C 
ATOM      2  C1  UNL d   1      -0.826  -3.022   3.104  0.00  0.00    -0.074 A 
ATOM      3  C2  UNL d   1       0.304  -3.642   2.561  0.00  0.00    -0.005 A 
ATOM      4  C3  UNL d   1       1.063  -2.991   1.588  0.00  0.00     0.006 A 
ATOM      5  C4  UNL d   1       0.701  -1.717   1.150  0.00  0.00    -0.005 A 
ATOM      6  C5  UNL d   1      -0.426  -1.082   1.681  0.00  0.00    -0.074 A 
ATOM      7  C6  UNL d   1      -0.835   0.283   1.214  0.00  0.00     0.077 C 
ATOM      8  C7  UNL d   1      -1.188  -1.745   2.653  0.00  0.00    -0.001 A 
ENDROOT
TORSDOF 0
ENDMDL
