MODEL 1
REMARK minimizedAffinity -0.140438497
REMARK minimizedRMSD -1
REMARK  0 active torsions:
REMARK  status: ('A' for Active; 'I' for Inactive)
ROOT
ATOM      1  C   UNL d   1       2.445  -4.112   1.136  0.00  0.00     0.077 C 
ATOM      2  C1  UNL d   1       1.645  -2.845   1.195  0.00  0.00    -0.074 A 
ATOM      3  C2  UNL d   1       0.782  -2.587   2.265  0.00  0.00    -0.005 A 
ATOM      4  C3  UNL d   1       0.052  -1.400   2.311  0.00  0.00     0.006 A 
ATOM      5  C4  UNL d   1       0.176  -0.459   1.287  0.00  0.00    -0.005 A 
ATOM      6  C5  UNL d   1       1.034  -0.699   0.209  0.00  0.00    -0.074 A 
ATOM      7  C6  UNL d   1       1.186   0.306  -0.894  0.00  0.00     0.077 C 
ATOM      8  C7  UNL d   1       1.770  -1.891   0.174  0.00  0.00    -0.001 A 
ENDROOT
TORSDOF 0
ENDMDL
