MODEL 1
REMARK minimizedAffinity 7.29931736
REMARK minimizedRMSD -1
REMARK  0 active torsions:
REMARK  status: ('A' for Active; 'I' for Inactive)
ROOT
ATOM      1  C   UNL d   1      -2.109   2.921  -2.599  0.00  0.00     0.077 C 
ATOM      2  C1  UNL d   1      -3.471   2.496  -3.065  0.00  0.00    -0.074 A 
ATOM      3  C2  UNL d   1      -4.615   3.198  -2.673  0.00  0.00    -0.005 A 
ATOM      4  C3  UNL d   1      -5.874   2.797  -3.122  0.00  0.00     0.006 A 
ATOM      5  C4  UNL d   1      -6.000   1.693  -3.966  0.00  0.00    -0.005 A 
ATOM      6  C5  UNL d   1      -4.866   0.980  -4.369  0.00  0.00    -0.074 A 
ATOM      7  C6  UNL d   1      -4.984  -0.203  -5.283  0.00  0.00     0.077 C 
ATOM      8  C7  UNL d   1      -3.605   1.393  -3.919  0.00  0.00    -0.001 A 
ENDROOT
TORSDOF 0
ENDMDL
