MODEL 1
REMARK minimizedAffinity -2.06809855
REMARK minimizedRMSD -1
REMARK  0 active torsions:
REMARK  status: ('A' for Active; 'I' for Inactive)
ROOT
ATOM      1  C   UNL d   1      -0.307  -0.249  -0.849  0.00  0.00     0.077 C 
ATOM      2  C1  UNL d   1       0.032  -0.919   0.450  0.00  0.00    -0.074 A 
ATOM      3  C2  UNL d   1      -0.594  -0.536   1.641  0.00  0.00    -0.005 A 
ATOM      4  C3  UNL d   1      -0.276  -1.174   2.839  0.00  0.00     0.006 A 
ATOM      5  C4  UNL d   1       0.669  -2.201   2.860  0.00  0.00    -0.005 A 
ATOM      6  C5  UNL d   1       1.305  -2.598   1.679  0.00  0.00    -0.074 A 
ATOM      7  C6  UNL d   1       2.316  -3.706   1.681  0.00  0.00     0.077 C 
ATOM      8  C7  UNL d   1       0.975  -1.956   0.477  0.00  0.00    -0.001 A 
ENDROOT
TORSDOF 0
ENDMDL
