MODEL 1
REMARK minimizedAffinity -3.19501972
REMARK minimizedRMSD -1
REMARK  0 active torsions:
REMARK  status: ('A' for Active; 'I' for Inactive)
ROOT
ATOM      1  C   UNL d   1      -1.535  -1.564   3.429  0.00  0.00     0.077 C 
ATOM      2  C1  UNL d   1      -0.355  -1.972   2.598  0.00  0.00    -0.074 A 
ATOM      3  C2  UNL d   1       0.370  -3.129   2.898  0.00  0.00    -0.005 A 
ATOM      4  C3  UNL d   1       1.459  -3.501   2.110  0.00  0.00     0.006 A 
ATOM      5  C4  UNL d   1       1.834  -2.720   1.017  0.00  0.00    -0.005 A 
ATOM      6  C5  UNL d   1       1.121  -1.560   0.701  0.00  0.00    -0.074 A 
ATOM      7  C6  UNL d   1       1.504  -0.714  -0.478  0.00  0.00     0.077 C 
ATOM      8  C7  UNL d   1       0.023  -1.196   1.493  0.00  0.00    -0.001 A 
ENDROOT
TORSDOF 0
ENDMDL
