MODEL 1
REMARK minimizedAffinity 8.82410622
REMARK minimizedRMSD -1
REMARK  1 active torsions:
REMARK  status: ('A' for Active; 'I' for Inactive)
REMARK    1  A    between atoms: N_2  and  C1_3 
ROOT
ATOM      1  C1  UNL d   1       1.680   0.221   0.327  0.00  0.00     0.143 A 
ATOM      2  C2  UNL d   1       1.656   0.042   1.714  0.00  0.00    -0.057 A 
ATOM      3  C3  UNL d   1       0.578   0.492   2.486  0.00  0.00     0.033 A 
ATOM      4  C4  UNL d   1      -0.486   1.157   1.885  0.00  0.00    -0.042 A 
ATOM      5  C5  UNL d   1      -0.472   1.368   0.511  0.00  0.00     0.033 A 
ATOM      6  C6  UNL d   1       0.605   0.910  -0.255  0.00  0.00    -0.057 A 
ENDROOT
BRANCH   1   7
ATOM      7  N   UNL d   1       2.768  -0.116  -0.482  0.00  0.00    -0.732 N 
ATOM      8  C   UNL d   1       3.996   0.648  -0.422  0.00  0.00     0.284 C 
ATOM      9  H3  UNL d   1       2.907  -1.121  -0.548  0.00  0.00     0.395 HD
ENDBRANCH   1   7
TORSDOF 1
ENDMDL
