MODEL 1
REMARK minimizedAffinity 1.14469385
REMARK minimizedRMSD -1
REMARK  1 active torsions:
REMARK  status: ('A' for Active; 'I' for Inactive)
REMARK    1  A    between atoms: N_2  and  C1_3 
ROOT
ATOM      1  C1  UNL d   1      -4.750  -0.134  -4.818  0.00  0.00     0.143 A 
ATOM      2  C2  UNL d   1      -3.997  -0.515  -3.702  0.00  0.00    -0.057 A 
ATOM      3  C3  UNL d   1      -2.748   0.060  -3.438  0.00  0.00     0.033 A 
ATOM      4  C4  UNL d   1      -2.215   1.009  -4.305  0.00  0.00    -0.042 A 
ATOM      5  C5  UNL d   1      -2.934   1.384  -5.434  0.00  0.00     0.033 A 
ATOM      6  C6  UNL d   1      -4.184   0.811  -5.689  0.00  0.00    -0.057 A 
ENDROOT
BRANCH   1   7
ATOM      7  N   UNL d   1      -5.953  -0.739  -5.189  0.00  0.00    -0.732 N 
ATOM      8  C   UNL d   1      -6.000  -2.149  -5.513  0.00  0.00     0.284 C 
ATOM      9  H3  UNL d   1      -6.739  -0.415  -4.629  0.00  0.00     0.395 HD
ENDBRANCH   1   7
TORSDOF 1
ENDMDL
