MODEL 1
REMARK minimizedAffinity 5.94916725
REMARK minimizedRMSD -1
REMARK  1 active torsions:
REMARK  status: ('A' for Active; 'I' for Inactive)
REMARK    1  A    between atoms: N_2  and  C1_3 
ROOT
ATOM      1  C1  UNL d   1       0.829  -3.330  -0.584  0.00  0.00     0.143 A 
ATOM      2  C2  UNL d   1       1.066  -2.449  -1.645  0.00  0.00    -0.057 A 
ATOM      3  C3  UNL d   1       1.972  -1.389  -1.521  0.00  0.00     0.033 A 
ATOM      4  C4  UNL d   1       2.638  -1.173  -0.319  0.00  0.00    -0.042 A 
ATOM      5  C5  UNL d   1       2.400  -2.021   0.757  0.00  0.00     0.033 A 
ATOM      6  C6  UNL d   1       1.499  -3.082   0.624  0.00  0.00    -0.057 A 
ENDROOT
BRANCH   1   7
ATOM      7  N   UNL d   1      -0.132  -4.343  -0.614  0.00  0.00    -0.732 N 
ATOM      8  C   UNL d   1      -1.298  -4.228  -1.464  0.00  0.00     0.284 C 
ATOM      9  H3  UNL d   1       0.282  -5.272  -0.600  0.00  0.00     0.395 HD
ENDBRANCH   1   7
TORSDOF 1
ENDMDL
