MODEL 1
REMARK minimizedAffinity 1.91522336
REMARK minimizedRMSD -1
REMARK  1 active torsions:
REMARK  status: ('A' for Active; 'I' for Inactive)
REMARK    1  A    between atoms: N_2  and  C1_3 
ROOT
ATOM      1  C1  UNL d   1       2.436  -1.608  -0.700  0.00  0.00     0.143 A 
ATOM      2  C2  UNL d   1       3.505  -1.483  -1.595  0.00  0.00    -0.057 A 
ATOM      3  C3  UNL d   1       4.237  -0.293  -1.689  0.00  0.00     0.033 A 
ATOM      4  C4  UNL d   1       3.894   0.806  -0.909  0.00  0.00    -0.042 A 
ATOM      5  C5  UNL d   1       2.819   0.713  -0.031  0.00  0.00     0.033 A 
ATOM      6  C6  UNL d   1       2.096  -0.480   0.064  0.00  0.00    -0.057 A 
ENDROOT
BRANCH   1   7
ATOM      7  N   UNL d   1       1.608  -2.731  -0.630  0.00  0.00    -0.732 N 
ATOM      8  C   UNL d   1       0.295  -2.717  -1.237  0.00  0.00     0.284 C 
ATOM      9  H3  UNL d   1       2.120  -3.600  -0.765  0.00  0.00     0.395 HD
ENDBRANCH   1   7
TORSDOF 1
ENDMDL
