MODEL 1
REMARK minimizedAffinity 8.73726368
REMARK minimizedRMSD -1
REMARK  1 active torsions:
REMARK  status: ('A' for Active; 'I' for Inactive)
REMARK    1  A    between atoms: N_2  and  C1_3 
ROOT
ATOM      1  C1  UNL d   1       1.958   0.373   0.166  0.00  0.00     0.143 A 
ATOM      2  C2  UNL d   1       1.685   0.511   1.531  0.00  0.00    -0.057 A 
ATOM      3  C3  UNL d   1       0.416   0.894   1.983  0.00  0.00     0.033 A 
ATOM      4  C4  UNL d   1      -0.597   1.176   1.072  0.00  0.00    -0.042 A 
ATOM      5  C5  UNL d   1      -0.341   1.070  -0.290  0.00  0.00     0.033 A 
ATOM      6  C6  UNL d   1       0.926   0.680  -0.735  0.00  0.00    -0.057 A 
ENDROOT
BRANCH   1   7
ATOM      7  N   UNL d   1       3.226   0.092  -0.349  0.00  0.00    -0.732 N 
ATOM      8  C   UNL d   1       3.881   1.021  -1.244  0.00  0.00     0.284 C 
ATOM      9  H3  UNL d   1       3.844  -0.323   0.345  0.00  0.00     0.395 HD
ENDBRANCH   1   7
TORSDOF 1
ENDMDL
