MODEL 1
REMARK minimizedAffinity 4.81238937
REMARK minimizedRMSD -1
REMARK  1 active torsions:
REMARK  status: ('A' for Active; 'I' for Inactive)
REMARK    1  A    between atoms: N_2  and  C1_3 
ROOT
ATOM      1  C1  UNL d   1       3.827   0.457  -0.684  0.00  0.00     0.143 A 
ATOM      2  C2  UNL d   1       4.227   1.220  -1.786  0.00  0.00    -0.057 A 
ATOM      3  C3  UNL d   1       5.311   2.102  -1.704  0.00  0.00     0.033 A 
ATOM      4  C4  UNL d   1       5.999   2.258  -0.506  0.00  0.00    -0.042 A 
ATOM      5  C5  UNL d   1       5.604   1.529   0.610  0.00  0.00     0.033 A 
ATOM      6  C6  UNL d   1       4.525   0.645   0.520  0.00  0.00    -0.057 A 
ENDROOT
BRANCH   1   7
ATOM      7  N   UNL d   1       2.697  -0.364  -0.674  0.00  0.00    -0.732 N 
ATOM      8  C   UNL d   1       2.725  -1.650  -0.012  0.00  0.00     0.284 C 
ATOM      9  H3  UNL d   1       1.838   0.161  -0.527  0.00  0.00     0.395 HD
ENDBRANCH   1   7
TORSDOF 1
ENDMDL
