MODEL 1
REMARK minimizedAffinity 11.0103302
REMARK minimizedRMSD -1
REMARK  1 active torsions:
REMARK  status: ('A' for Active; 'I' for Inactive)
REMARK    1  A    between atoms: N_2  and  C1_3 
ROOT
ATOM      1  C1  UNL d   1       3.086   0.230  -0.937  0.00  0.00     0.143 A 
ATOM      2  C2  UNL d   1       3.757  -0.150   0.230  0.00  0.00    -0.057 A 
ATOM      3  C3  UNL d   1       5.118   0.127   0.408  0.00  0.00     0.033 A 
ATOM      4  C4  UNL d   1       5.841   0.765  -0.594  0.00  0.00    -0.042 A 
ATOM      5  C5  UNL d   1       5.201   1.129  -1.773  0.00  0.00     0.033 A 
ATOM      6  C6  UNL d   1       3.840   0.856  -1.942  0.00  0.00    -0.057 A 
ENDROOT
BRANCH   1   7
ATOM      7  N   UNL d   1       1.758  -0.104  -1.215  0.00  0.00    -0.732 N 
ATOM      8  C   UNL d   1       0.673   0.719  -0.724  0.00  0.00     0.284 C 
ATOM      9  H3  UNL d   1       1.632  -0.433  -2.169  0.00  0.00     0.395 HD
ENDBRANCH   1   7
TORSDOF 1
ENDMDL
