MODEL 1
REMARK minimizedAffinity 3.94825315
REMARK minimizedRMSD -1
REMARK  1 active torsions:
REMARK  status: ('A' for Active; 'I' for Inactive)
REMARK    1  A    between atoms: C1_2  and  C2_3 
ROOT
ATOM      1  C2  UNL d   1       0.908   4.511  -0.166  0.00  0.00    -0.077 A 
ATOM      2  C3  UNL d   1       0.367   3.512   0.655  0.00  0.00     0.002 A 
ATOM      3  C4  UNL d   1       0.970   3.198   1.875  0.00  0.00     0.002 A 
ATOM      4  C5  UNL d   1       2.113   3.880   2.286  0.00  0.00    -0.004 A 
ATOM      5  C6  UNL d   1       2.659   4.874   1.475  0.00  0.00     0.002 A 
ATOM      6  C7  UNL d   1       2.059   5.189   0.255  0.00  0.00     0.002 A 
ENDROOT
BRANCH   1   7
ATOM      7  C1  UNL d   1       0.231   4.886  -1.459  0.00  0.00     0.055 C 
ATOM      8  C   UNL d   1       1.234   5.408  -2.478  0.00  0.00     0.019 C 
ENDBRANCH   1   7
TORSDOF 1
ENDMDL
