MODEL 1
REMARK minimizedAffinity -2.64420676
REMARK minimizedRMSD -1
REMARK  1 active torsions:
REMARK  status: ('A' for Active; 'I' for Inactive)
REMARK    1  A    between atoms: C1_2  and  C2_3 
ROOT
ATOM      1  C2  UNL d   1      -4.792   2.428  -2.318  0.00  0.00    -0.077 A 
ATOM      2  C3  UNL d   1      -6.000   2.705  -2.973  0.00  0.00     0.002 A 
ATOM      3  C4  UNL d   1      -5.999   3.177  -4.287  0.00  0.00     0.002 A 
ATOM      4  C5  UNL d   1      -4.794   3.372  -4.958  0.00  0.00    -0.004 A 
ATOM      5  C6  UNL d   1      -3.587   3.101  -4.315  0.00  0.00     0.002 A 
ATOM      6  C7  UNL d   1      -3.586   2.630  -3.002  0.00  0.00     0.002 A 
ENDROOT
BRANCH   1   7
ATOM      7  C1  UNL d   1      -4.792   1.872  -0.918  0.00  0.00     0.055 C 
ATOM      8  C   UNL d   1      -3.754   0.770  -0.760  0.00  0.00     0.019 C 
ENDBRANCH   1   7
TORSDOF 1
ENDMDL
