MODEL 1
REMARK minimizedAffinity 4.49198484
REMARK minimizedRMSD -1
REMARK  1 active torsions:
REMARK  status: ('A' for Active; 'I' for Inactive)
REMARK    1  A    between atoms: C1_2  and  C2_3 
ROOT
ATOM      1  C2  UNL d   1       1.302  -2.443  -1.075  0.00  0.00    -0.077 A 
ATOM      2  C3  UNL d   1       1.693  -3.683  -0.551  0.00  0.00     0.002 A 
ATOM      3  C4  UNL d   1       0.830  -4.779  -0.611  0.00  0.00     0.002 A 
ATOM      4  C5  UNL d   1      -0.428  -4.647  -1.196  0.00  0.00    -0.004 A 
ATOM      5  C6  UNL d   1      -0.827  -3.417  -1.718  0.00  0.00     0.002 A 
ATOM      6  C7  UNL d   1       0.034  -2.320  -1.658  0.00  0.00     0.002 A 
ENDROOT
BRANCH   1   7
ATOM      7  C1  UNL d   1       2.250  -1.273  -1.056  0.00  0.00     0.055 C 
ATOM      8  C   UNL d   1       3.670  -1.716  -0.735  0.00  0.00     0.019 C 
ENDBRANCH   1   7
TORSDOF 1
ENDMDL
