MODEL 1
REMARK minimizedAffinity -1.52497101
REMARK minimizedRMSD -1
REMARK  1 active torsions:
REMARK  status: ('A' for Active; 'I' for Inactive)
REMARK    1  A    between atoms: C1_2  and  C2_3 
ROOT
ATOM      1  C2  UNL d   1      -4.039   2.953  -3.357  0.00  0.00    -0.077 A 
ATOM      2  C3  UNL d   1      -3.957   2.695  -4.732  0.00  0.00     0.002 A 
ATOM      3  C4  UNL d   1      -4.888   1.859  -5.351  0.00  0.00     0.002 A 
ATOM      4  C5  UNL d   1      -5.911   1.278  -4.603  0.00  0.00    -0.004 A 
ATOM      5  C6  UNL d   1      -6.000   1.528  -3.234  0.00  0.00     0.002 A 
ATOM      6  C7  UNL d   1      -5.069   2.362  -2.614  0.00  0.00     0.002 A 
ENDROOT
BRANCH   1   7
ATOM      7  C1  UNL d   1      -3.065   3.894  -2.697  0.00  0.00     0.055 C 
ATOM      8  C   UNL d   1      -2.017   3.134  -1.897  0.00  0.00     0.019 C 
ENDBRANCH   1   7
TORSDOF 1
ENDMDL
