MODEL 1
REMARK minimizedAffinity 6.85711908
REMARK minimizedRMSD -1
REMARK  1 active torsions:
REMARK  status: ('A' for Active; 'I' for Inactive)
REMARK    1  A    between atoms: C1_2  and  C2_3 
ROOT
ATOM      1  C2  UNL d   1       1.542  -3.696  -0.294  0.00  0.00    -0.077 A 
ATOM      2  C3  UNL d   1       0.583  -2.816  -0.815  0.00  0.00     0.002 A 
ATOM      3  C4  UNL d   1      -0.592  -3.310  -1.387  0.00  0.00     0.002 A 
ATOM      4  C5  UNL d   1      -0.819  -4.683  -1.440  0.00  0.00    -0.004 A 
ATOM      5  C6  UNL d   1       0.130  -5.567  -0.927  0.00  0.00     0.002 A 
ATOM      6  C7  UNL d   1       1.305  -5.075  -0.356  0.00  0.00     0.002 A 
ENDROOT
BRANCH   1   7
ATOM      7  C1  UNL d   1       2.787  -3.165   0.367  0.00  0.00     0.055 C 
ATOM      8  C   UNL d   1       2.994  -1.690   0.052  0.00  0.00     0.019 C 
ENDBRANCH   1   7
TORSDOF 1
ENDMDL
