MODEL 1
REMARK minimizedAffinity 1.44288766
REMARK minimizedRMSD -1
REMARK  1 active torsions:
REMARK  status: ('A' for Active; 'I' for Inactive)
REMARK    1  A    between atoms: C1_2  and  C2_3 
ROOT
ATOM      1  C2  UNL d   1       0.913  -2.419  -1.453  0.00  0.00    -0.077 A 
ATOM      2  C3  UNL d   1       1.432  -3.589  -0.881  0.00  0.00     0.002 A 
ATOM      3  C4  UNL d   1       0.798  -4.816  -1.085  0.00  0.00     0.002 A 
ATOM      4  C5  UNL d   1      -0.354  -4.886  -1.864  0.00  0.00    -0.004 A 
ATOM      5  C6  UNL d   1      -0.879  -3.727  -2.435  0.00  0.00     0.002 A 
ATOM      6  C7  UNL d   1      -0.248  -2.500  -2.231  0.00  0.00     0.002 A 
ENDROOT
BRANCH   1   7
ATOM      7  C1  UNL d   1       1.623  -1.102  -1.274  0.00  0.00     0.055 C 
ATOM      8  C   UNL d   1       0.772   0.057  -1.771  0.00  0.00     0.019 C 
ENDBRANCH   1   7
TORSDOF 1
ENDMDL
