MODEL 1
REMARK minimizedAffinity 3.51495528
REMARK minimizedRMSD -1
REMARK  1 active torsions:
REMARK  status: ('A' for Active; 'I' for Inactive)
REMARK    1  A    between atoms: C1_2  and  C2_3 
ROOT
ATOM      1  C2  UNL d   1      -5.212   3.381  -3.570  0.00  0.00    -0.077 A 
ATOM      2  C3  UNL d   1      -3.817   3.369  -3.706  0.00  0.00     0.002 A 
ATOM      3  C4  UNL d   1      -3.222   3.728  -4.917  0.00  0.00     0.002 A 
ATOM      4  C5  UNL d   1      -4.014   4.105  -5.999  0.00  0.00    -0.004 A 
ATOM      5  C6  UNL d   1      -5.403   4.118  -5.875  0.00  0.00     0.002 A 
ATOM      6  C7  UNL d   1      -5.999   3.758  -4.666  0.00  0.00     0.002 A 
ENDROOT
BRANCH   1   7
ATOM      7  C1  UNL d   1      -5.854   3.042  -2.250  0.00  0.00     0.055 C 
ATOM      8  C   UNL d   1      -5.630   1.581  -1.885  0.00  0.00     0.019 C 
ENDBRANCH   1   7
TORSDOF 1
ENDMDL
