MODEL 1
REMARK minimizedAffinity 2.90547109
REMARK minimizedRMSD -1
REMARK  0 active torsions:
REMARK  status: ('A' for Active; 'I' for Inactive)
ROOT
ATOM      1  C   UNL d   1       3.886  -1.037  -4.754  0.00  0.00     0.023 A 
ATOM      2  C1  UNL d   1       3.275  -0.477  -5.876  0.00  0.00     0.003 A 
ATOM      3  C2  UNL d   1       1.882  -0.413  -5.955  0.00  0.00     0.048 A 
ATOM      4  C3  UNL d   1       1.107  -0.910  -4.908  0.00  0.00     0.023 A 
ATOM      5  C4  UNL d   1       1.714  -1.470  -3.784  0.00  0.00     0.048 A 
ATOM      6  C5  UNL d   1       3.106  -1.533  -3.709  0.00  0.00     0.003 A 
ATOM      7  I   UNL d   1      -0.967  -0.816  -5.024  0.00  0.00    -0.146 I 
ENDROOT
TORSDOF 0
ENDMDL
