MODEL 1
REMARK minimizedAffinity 3.17176461
REMARK minimizedRMSD -1
REMARK  0 active torsions:
REMARK  status: ('A' for Active; 'I' for Inactive)
ROOT
ATOM      1  C   UNL d   1      -1.494  -2.227   2.806  0.00  0.00     0.023 A 
ATOM      2  C1  UNL d   1      -0.161  -2.546   3.065  0.00  0.00     0.003 A 
ATOM      3  C2  UNL d   1       0.834  -1.580   2.902  0.00  0.00     0.048 A 
ATOM      4  C3  UNL d   1       0.489  -0.296   2.480  0.00  0.00     0.023 A 
ATOM      5  C4  UNL d   1      -0.844   0.028   2.220  0.00  0.00     0.048 A 
ATOM      6  C5  UNL d   1      -1.835  -0.942   2.384  0.00  0.00     0.003 A 
ATOM      7  I   UNL d   1       1.968   1.143   2.236  0.00  0.00    -0.146 I 
ENDROOT
TORSDOF 0
ENDMDL
