MODEL 1
REMARK minimizedAffinity 5.81032896
REMARK minimizedRMSD -1
REMARK  0 active torsions:
REMARK  status: ('A' for Active; 'I' for Inactive)
ROOT
ATOM      1  C   UNL d   1       0.767  -6.000  -4.265  0.00  0.00     0.023 A 
ATOM      2  C1  UNL d   1       2.145  -5.902  -4.068  0.00  0.00     0.003 A 
ATOM      3  C2  UNL d   1       2.675  -4.825  -3.356  0.00  0.00     0.048 A 
ATOM      4  C3  UNL d   1       1.822  -3.848  -2.843  0.00  0.00     0.023 A 
ATOM      5  C4  UNL d   1       0.443  -3.942  -3.036  0.00  0.00     0.048 A 
ATOM      6  C5  UNL d   1      -0.083  -5.021  -3.750  0.00  0.00     0.003 A 
ATOM      7  I   UNL d   1       2.609  -2.243  -1.782  0.00  0.00    -0.146 I 
ENDROOT
TORSDOF 0
ENDMDL
