MODEL 1
REMARK minimizedAffinity 2.82180762
REMARK minimizedRMSD -1
REMARK  0 active torsions:
REMARK  status: ('A' for Active; 'I' for Inactive)
ROOT
ATOM      1  C   UNL d   1       3.708  -0.745  -4.834  0.00  0.00     0.023 A 
ATOM      2  C1  UNL d   1       3.020  -0.366  -5.987  0.00  0.00     0.003 A 
ATOM      3  C2  UNL d   1       1.624  -0.362  -5.999  0.00  0.00     0.048 A 
ATOM      4  C3  UNL d   1       0.922  -0.738  -4.855  0.00  0.00     0.023 A 
ATOM      5  C4  UNL d   1       1.605  -1.117  -3.699  0.00  0.00     0.048 A 
ATOM      6  C5  UNL d   1       3.001  -1.120  -3.691  0.00  0.00     0.003 A 
ATOM      7  I   UNL d   1      -1.157  -0.732  -4.870  0.00  0.00    -0.146 I 
ENDROOT
TORSDOF 0
ENDMDL
