MODEL 1
REMARK minimizedAffinity 0.24759835
REMARK minimizedRMSD -1
REMARK  0 active torsions:
REMARK  status: ('A' for Active; 'I' for Inactive)
ROOT
ATOM      1  C   UNL d   1      -0.202  -1.254  -4.479  0.00  0.00     0.023 A 
ATOM      2  C1  UNL d   1       0.809  -1.798  -3.688  0.00  0.00     0.003 A 
ATOM      3  C2  UNL d   1       2.147  -1.631  -4.051  0.00  0.00     0.048 A 
ATOM      4  C3  UNL d   1       2.467  -0.917  -5.205  0.00  0.00     0.023 A 
ATOM      5  C4  UNL d   1       1.458  -0.370  -5.999  0.00  0.00     0.048 A 
ATOM      6  C5  UNL d   1       0.121  -0.540  -5.633  0.00  0.00     0.003 A 
ATOM      7  I   UNL d   1       4.458  -0.666  -5.747  0.00  0.00    -0.146 I 
ENDROOT
TORSDOF 0
ENDMDL
