MODEL 1
REMARK minimizedAffinity 6.05473328
REMARK minimizedRMSD -1
REMARK  0 active torsions:
REMARK  status: ('A' for Active; 'I' for Inactive)
ROOT
ATOM      1  C   UNL d   1       3.378  -0.759  -4.889  0.00  0.00     0.023 A 
ATOM      2  C1  UNL d   1       2.637  -1.462  -3.939  0.00  0.00     0.003 A 
ATOM      3  C2  UNL d   1       1.242  -1.481  -4.015  0.00  0.00     0.048 A 
ATOM      4  C3  UNL d   1       0.596  -0.796  -5.043  0.00  0.00     0.023 A 
ATOM      5  C4  UNL d   1       1.334  -0.092  -5.996  0.00  0.00     0.048 A 
ATOM      6  C5  UNL d   1       2.728  -0.075  -5.916  0.00  0.00     0.003 A 
ATOM      7  I   UNL d   1      -1.479  -0.823  -5.158  0.00  0.00    -0.146 I 
ENDROOT
TORSDOF 0
ENDMDL
