MODEL 1
REMARK minimizedAffinity 14.5014153
REMARK minimizedRMSD -1
REMARK  0 active torsions:
REMARK  status: ('A' for Active; 'I' for Inactive)
ROOT
ATOM      1  N1  IND d   1       5.622   3.957   4.252  0.00  0.00    -0.196 N 
ATOM      2  C2  IND d   1       6.000   5.266   4.365  0.00  0.00     0.054 A 
ATOM      3  C3  IND d   1       5.458   6.000   3.368  0.00  0.00    -0.031 A 
ATOM      4  C4  IND d   1       3.838   5.279   1.501  0.00  0.00     0.051 A 
ATOM      5  C5  IND d   1       3.233   4.177   0.966  0.00  0.00    -0.031 A 
ATOM      6  C6  IND d   1       3.396   2.919   1.511  0.00  0.00     0.015 A 
ATOM      7  C7  IND d   1       4.162   2.719   2.624  0.00  0.00    -0.016 A 
ATOM      8  C8  IND d   1       4.783   3.835   3.166  0.00  0.00    -0.047 A 
ATOM      9  C9  IND d   1       4.657   5.107   2.592  0.00  0.00    -0.096 A 
ATOM     10  HN1 IND d   1       5.867   3.317   4.772  0.00  0.00     0.298 HD
ENDROOT
TORSDOF 0
ENDMDL
