MODEL 1
REMARK minimizedAffinity 9.96525574
REMARK minimizedRMSD -1
REMARK  0 active torsions:
REMARK  status: ('A' for Active; 'I' for Inactive)
ROOT
ATOM      1  N1  IND d   1       0.967  -1.431   3.015  0.00  0.00    -0.196 N 
ATOM      2  C2  IND d   1       0.474  -0.261   2.508  0.00  0.00     0.054 A 
ATOM      3  C3  IND d   1       1.011   0.797   3.157  0.00  0.00    -0.031 A 
ATOM      4  C4  IND d   1       2.793   0.844   5.014  0.00  0.00     0.051 A 
ATOM      5  C5  IND d   1       3.518   0.023   5.831  0.00  0.00    -0.031 A 
ATOM      6  C6  IND d   1       3.431  -1.351   5.749  0.00  0.00     0.015 A 
ATOM      7  C7  IND d   1       2.620  -1.960   4.833  0.00  0.00    -0.016 A 
ATOM      8  C8  IND d   1       1.876  -1.130   4.006  0.00  0.00    -0.047 A 
ATOM      9  C9  IND d   1       1.928   0.266   4.114  0.00  0.00    -0.096 A 
ATOM     10  HN1 IND d   1       0.747  -2.221   2.759  0.00  0.00     0.298 HD
ENDROOT
TORSDOF 0
ENDMDL
