MODEL 1
REMARK minimizedAffinity 6.91002607
REMARK minimizedRMSD -1
REMARK  0 active torsions:
REMARK  status: ('A' for Active; 'I' for Inactive)
ROOT
ATOM      1  N1  IND d   1      -0.941  -3.008  -3.170  0.00  0.00    -0.196 N 
ATOM      2  C2  IND d   1      -1.445  -2.465  -2.022  0.00  0.00     0.054 A 
ATOM      3  C3  IND d   1      -0.994  -1.200  -1.863  0.00  0.00    -0.031 A 
ATOM      4  C4  IND d   1       0.497   0.212  -3.415  0.00  0.00     0.051 A 
ATOM      5  C5  IND d   1       1.234   0.135  -4.564  0.00  0.00    -0.031 A 
ATOM      6  C6  IND d   1       1.282  -1.015  -5.323  0.00  0.00     0.015 A 
ATOM      7  C7  IND d   1       0.583  -2.134  -4.967  0.00  0.00    -0.016 A 
ATOM      8  C8  IND d   1      -0.160  -2.062  -3.798  0.00  0.00    -0.047 A 
ATOM      9  C9  IND d   1      -0.179  -0.911  -3.000  0.00  0.00    -0.096 A 
ATOM     10  HN1 IND d   1      -1.087  -3.807  -3.453  0.00  0.00     0.298 HD
ENDROOT
TORSDOF 0
ENDMDL
