MODEL 1
REMARK minimizedAffinity 8.41974926
REMARK minimizedRMSD -1
REMARK  0 active torsions:
REMARK  status: ('A' for Active; 'I' for Inactive)
ROOT
ATOM      1  N1  IND d   1      -4.288   2.259   0.309  0.00  0.00    -0.196 N 
ATOM      2  C2  IND d   1      -4.953   1.983  -0.854  0.00  0.00     0.054 A 
ATOM      3  C3  IND d   1      -4.702   0.714  -1.249  0.00  0.00    -0.031 A 
ATOM      4  C4  IND d   1      -3.312  -1.116  -0.088  0.00  0.00     0.051 A 
ATOM      5  C5  IND d   1      -2.485  -1.326   0.980  0.00  0.00    -0.031 A 
ATOM      6  C6  IND d   1      -2.214  -0.333   1.899  0.00  0.00     0.015 A 
ATOM      7  C7  IND d   1      -2.771   0.910   1.789  0.00  0.00    -0.016 A 
ATOM      8  C8  IND d   1      -3.605   1.129   0.703  0.00  0.00    -0.047 A 
ATOM      9  C9  IND d   1      -3.851   0.138  -0.256  0.00  0.00    -0.096 A 
ATOM     10  HN1 IND d   1      -4.296   3.012   0.724  0.00  0.00     0.298 HD
ENDROOT
TORSDOF 0
ENDMDL
