MODEL 1
REMARK minimizedAffinity 10.4620619
REMARK minimizedRMSD -1
REMARK  0 active torsions:
REMARK  status: ('A' for Active; 'I' for Inactive)
ROOT
ATOM      1  N1  IND d   1      -2.219  -3.993  -2.049  0.00  0.00    -0.196 N 
ATOM      2  C2  IND d   1      -2.071  -2.636  -2.114  0.00  0.00     0.054 A 
ATOM      3  C3  IND d   1      -1.889  -2.243  -3.395  0.00  0.00    -0.031 A 
ATOM      4  C4  IND d   1      -1.901  -3.646  -5.553  0.00  0.00     0.051 A 
ATOM      5  C5  IND d   1      -1.964  -4.936  -5.999  0.00  0.00    -0.031 A 
ATOM      6  C6  IND d   1      -2.120  -6.000  -5.133  0.00  0.00     0.015 A 
ATOM      7  C7  IND d   1      -2.232  -5.810  -3.785  0.00  0.00    -0.016 A 
ATOM      8  C8  IND d   1      -2.162  -4.502  -3.328  0.00  0.00    -0.047 A 
ATOM      9  C9  IND d   1      -1.961  -3.422  -4.198  0.00  0.00    -0.096 A 
ATOM     10  HN1 IND d   1      -2.329  -4.452  -1.331  0.00  0.00     0.298 HD
ENDROOT
TORSDOF 0
ENDMDL
