MODEL 1
REMARK minimizedAffinity -3.5447948
REMARK minimizedRMSD -1
REMARK  0 active torsions:
REMARK  status: ('A' for Active; 'I' for Inactive)
ROOT
ATOM      1  C1  DEN d   1      -2.143  -1.216  -0.341  0.00  0.00     0.130 A 
ATOM      2  C2  DEN d   1      -1.331  -2.037  -1.235  0.00  0.00    -0.031 A 
ATOM      3  C3  DEN d   1       0.084  -1.664  -1.039  0.00  0.00     0.027 A 
ATOM      4  C4  DEN d   1       1.093   0.093   0.558  0.00  0.00     0.027 A 
ATOM      5  C5  DEN d   1       0.799   1.048   1.506  0.00  0.00    -0.003 A 
ATOM      6  C6  DEN d   1      -0.487   1.337   1.877  0.00  0.00     0.001 A 
ATOM      7  C7  DEN d   1      -1.526   0.632   1.329  0.00  0.00     0.017 A 
ATOM      8  C8  DEN d   1      -1.239  -0.328   0.367  0.00  0.00    -0.094 A 
ATOM      9  C9  DEN d   1       0.069  -0.614   0.015  0.00  0.00    -0.072 A 
ENDROOT
TORSDOF 0
ENDMDL
