MODEL 1
REMARK minimizedAffinity -2.53722978
REMARK minimizedRMSD -1
REMARK  0 active torsions:
REMARK  status: ('A' for Active; 'I' for Inactive)
ROOT
ATOM      1  C1  DEN d   1      -1.010   1.311   1.649  0.00  0.00     0.130 A 
ATOM      2  C2  DEN d   1      -0.026   2.125   2.358  0.00  0.00    -0.031 A 
ATOM      3  C3  DEN d   1       1.317   1.732   1.886  0.00  0.00     0.027 A 
ATOM      4  C4  DEN d   1       1.964  -0.045   0.132  0.00  0.00     0.027 A 
ATOM      5  C5  DEN d   1       1.475  -0.999  -0.732  0.00  0.00    -0.003 A 
ATOM      6  C6  DEN d   1       0.137  -1.272  -0.838  0.00  0.00     0.001 A 
ATOM      7  C7  DEN d   1      -0.763  -0.551  -0.098  0.00  0.00     0.017 A 
ATOM      8  C8  DEN d   1      -0.277   0.408   0.780  0.00  0.00    -0.094 A 
ATOM      9  C9  DEN d   1       1.079   0.678   0.863  0.00  0.00    -0.072 A 
ENDROOT
TORSDOF 0
ENDMDL
