MODEL 1
REMARK minimizedAffinity -4.30253553
REMARK minimizedRMSD -1
REMARK  0 active torsions:
REMARK  status: ('A' for Active; 'I' for Inactive)
ROOT
ATOM      1  C1  DEN d   1      -1.058   0.156   1.189  0.00  0.00     0.130 A 
ATOM      2  C2  DEN d   1      -0.998  -0.691   0.001  0.00  0.00    -0.031 A 
ATOM      3  C3  DEN d   1       0.373  -0.615  -0.544  0.00  0.00     0.027 A 
ATOM      4  C4  DEN d   1       2.397   0.720   0.335  0.00  0.00     0.027 A 
ATOM      5  C5  DEN d   1       2.829   1.593   1.308  0.00  0.00    -0.003 A 
ATOM      6  C6  DEN d   1       1.993   2.072   2.282  0.00  0.00     0.001 A 
ATOM      7  C7  DEN d   1       0.693   1.643   2.332  0.00  0.00     0.017 A 
ATOM      8  C8  DEN d   1       0.248   0.769   1.349  0.00  0.00    -0.094 A 
ATOM      9  C9  DEN d   1       1.112   0.287   0.380  0.00  0.00    -0.072 A 
ENDROOT
TORSDOF 0
ENDMDL
