MODEL 1
REMARK minimizedAffinity -2.64840913
REMARK minimizedRMSD -1
REMARK  0 active torsions:
REMARK  status: ('A' for Active; 'I' for Inactive)
ROOT
ATOM      1  C1  DEN d   1      -2.998  -0.927  -2.327  0.00  0.00     0.130 A 
ATOM      2  C2  DEN d   1      -2.868  -1.937  -3.373  0.00  0.00    -0.031 A 
ATOM      3  C3  DEN d   1      -1.536  -2.562  -3.242  0.00  0.00     0.027 A 
ATOM      4  C4  DEN d   1       0.326  -2.067  -1.527  0.00  0.00     0.027 A 
ATOM      5  C5  DEN d   1       0.682  -1.285  -0.451  0.00  0.00    -0.003 A 
ATOM      6  C6  DEN d   1      -0.143  -0.313   0.049  0.00  0.00     0.001 A 
ATOM      7  C7  DEN d   1      -1.385  -0.129  -0.498  0.00  0.00     0.017 A 
ATOM      8  C8  DEN d   1      -1.748  -0.909  -1.588  0.00  0.00    -0.094 A 
ATOM      9  C9  DEN d   1      -0.905  -1.895  -2.072  0.00  0.00    -0.072 A 
ENDROOT
TORSDOF 0
ENDMDL
