MODEL 1
REMARK minimizedAffinity -4.57834768
REMARK minimizedRMSD -1
REMARK  0 active torsions:
REMARK  status: ('A' for Active; 'I' for Inactive)
ROOT
ATOM      1  C1  DEN d   1       2.839   0.347  -0.141  0.00  0.00     0.130 A 
ATOM      2  C2  DEN d   1       3.464   1.463   0.564  0.00  0.00    -0.031 A 
ATOM      3  C3  DEN d   1       2.442   2.090   1.425  0.00  0.00     0.027 A 
ATOM      4  C4  DEN d   1      -0.035   1.442   1.739  0.00  0.00     0.027 A 
ATOM      5  C5  DEN d   1      -1.026   0.570   1.344  0.00  0.00    -0.003 A 
ATOM      6  C6  DEN d   1      -0.809  -0.407   0.409  0.00  0.00     0.001 A 
ATOM      7  C7  DEN d   1       0.441  -0.566  -0.130  0.00  0.00     0.017 A 
ATOM      8  C8  DEN d   1       1.443   0.314   0.258  0.00  0.00    -0.094 A 
ATOM      9  C9  DEN d   1       1.207   1.288   1.214  0.00  0.00    -0.072 A 
ENDROOT
TORSDOF 0
ENDMDL
