MODEL 1
REMARK minimizedAffinity -4.64710569
REMARK minimizedRMSD -1
REMARK  0 active torsions:
REMARK  status: ('A' for Active; 'I' for Inactive)
ROOT
ATOM      1  C1  DEN d   1       0.173   0.620  -1.062  0.00  0.00     0.130 A 
ATOM      2  C2  DEN d   1       0.744  -0.208  -0.004  0.00  0.00    -0.031 A 
ATOM      3  C3  DEN d   1       0.043  -1.507  -0.012  0.00  0.00     0.027 A 
ATOM      4  C4  DEN d   1      -1.860  -2.314  -1.556  0.00  0.00     0.027 A 
ATOM      5  C5  DEN d   1      -2.685  -1.959  -2.599  0.00  0.00    -0.003 A 
ATOM      6  C6  DEN d   1      -2.640  -0.718  -3.176  0.00  0.00     0.001 A 
ATOM      7  C7  DEN d   1      -1.719   0.199  -2.743  0.00  0.00     0.017 A 
ATOM      8  C8  DEN d   1      -0.888  -0.149  -1.687  0.00  0.00    -0.094 A 
ATOM      9  C9  DEN d   1      -0.941  -1.413  -1.124  0.00  0.00    -0.072 A 
ENDROOT
TORSDOF 0
ENDMDL
