MODEL 1
REMARK minimizedAffinity -1.92708838
REMARK minimizedRMSD -1
REMARK  0 active torsions:
REMARK  status: ('A' for Active; 'I' for Inactive)
ROOT
ATOM      1  C1  DEN d   1      -1.853  -0.986  -0.102  0.00  0.00     0.130 A 
ATOM      2  C2  DEN d   1      -1.188  -1.666  -1.210  0.00  0.00    -0.031 A 
ATOM      3  C3  DEN d   1       0.206  -1.182  -1.273  0.00  0.00     0.027 A 
ATOM      4  C4  DEN d   1       1.394   0.541   0.233  0.00  0.00     0.027 A 
ATOM      5  C5  DEN d   1       1.236   1.397   1.300  0.00  0.00    -0.003 A 
ATOM      6  C6  DEN d   1       0.039   1.543   1.949  0.00  0.00     0.001 A 
ATOM      7  C7  DEN d   1      -1.038   0.787   1.564  0.00  0.00     0.017 A 
ATOM      8  C8  DEN d   1      -0.888  -0.072   0.483  0.00  0.00    -0.094 A 
ATOM      9  C9  DEN d   1       0.334  -0.214  -0.151  0.00  0.00    -0.072 A 
ENDROOT
TORSDOF 0
ENDMDL
