MODEL 1
REMARK minimizedAffinity -3.7224946
REMARK minimizedRMSD -1
REMARK  0 active torsions:
REMARK  status: ('A' for Active; 'I' for Inactive)
ROOT
ATOM      1  C1  DEN d   1       2.675  -0.307  -0.273  0.00  0.00     0.130 A 
ATOM      2  C2  DEN d   1       3.646   0.599   0.334  0.00  0.00    -0.031 A 
ATOM      3  C3  DEN d   1       2.928   1.463   1.292  0.00  0.00     0.027 A 
ATOM      4  C4  DEN d   1       0.420   1.483   1.895  0.00  0.00     0.027 A 
ATOM      5  C5  DEN d   1      -0.802   0.905   1.632  0.00  0.00    -0.003 A 
ATOM      6  C6  DEN d   1      -0.956  -0.086   0.698  0.00  0.00     0.001 A 
ATOM      7  C7  DEN d   1       0.139  -0.561   0.026  0.00  0.00     0.017 A 
ATOM      8  C8  DEN d   1       1.374   0.022   0.280  0.00  0.00    -0.094 A 
ATOM      9  C9  DEN d   1       1.510   1.014   1.236  0.00  0.00    -0.072 A 
ENDROOT
TORSDOF 0
ENDMDL
