MODEL 1
REMARK minimizedAffinity 0.937817276
REMARK minimizedRMSD -1
REMARK  0 active torsions:
REMARK  status: ('A' for Active; 'I' for Inactive)
ROOT
ATOM      1  C1  DEN d   1       0.408  -0.131  -0.997  0.00  0.00     0.130 A 
ATOM      2  C2  DEN d   1       0.158  -0.095   0.441  0.00  0.00    -0.031 A 
ATOM      3  C3  DEN d   1      -1.103  -0.818   0.703  0.00  0.00     0.027 A 
ATOM      4  C4  DEN d   1      -2.679  -1.989  -0.969  0.00  0.00     0.027 A 
ATOM      5  C5  DEN d   1      -2.891  -2.276  -2.300  0.00  0.00    -0.003 A 
ATOM      6  C6  DEN d   1      -2.043  -1.843  -3.284  0.00  0.00     0.001 A 
ATOM      7  C7  DEN d   1      -0.918  -1.136  -2.949  0.00  0.00     0.017 A 
ATOM      8  C8  DEN d   1      -0.702  -0.837  -1.611  0.00  0.00    -0.094 A 
ATOM      9  C9  DEN d   1      -1.564  -1.294  -0.629  0.00  0.00    -0.072 A 
ENDROOT
TORSDOF 0
ENDMDL
