MODEL 1
REMARK minimizedAffinity 1.22888291
REMARK minimizedRMSD -1
REMARK  0 active torsions:
REMARK  status: ('A' for Active; 'I' for Inactive)
ROOT
ATOM      1  C1  DEN d   1      -0.027  -0.830  -0.702  0.00  0.00     0.130 A 
ATOM      2  C2  DEN d   1      -1.433  -0.818  -0.306  0.00  0.00    -0.031 A 
ATOM      3  C3  DEN d   1      -1.572   0.081   0.857  0.00  0.00     0.027 A 
ATOM      4  C4  DEN d   1       0.242   1.453   2.073  0.00  0.00     0.027 A 
ATOM      5  C5  DEN d   1       1.585   1.758   2.108  0.00  0.00    -0.003 A 
ATOM      6  C6  DEN d   1       2.483   1.200   1.237  0.00  0.00     0.001 A 
ATOM      7  C7  DEN d   1       2.041   0.341   0.264  0.00  0.00     0.017 A 
ATOM      8  C8  DEN d   1       0.690   0.024   0.228  0.00  0.00    -0.094 A 
ATOM      9  C9  DEN d   1      -0.204   0.608   1.110  0.00  0.00    -0.072 A 
ENDROOT
TORSDOF 0
ENDMDL
