MODEL 1
REMARK minimizedAffinity -1.48229861
REMARK minimizedRMSD -1
REMARK  0 active torsions:
REMARK  status: ('A' for Active; 'I' for Inactive)
ROOT
ATOM      1  C1  DEN d   1      -2.729  -0.458  -2.093  0.00  0.00     0.130 A 
ATOM      2  C2  DEN d   1      -2.338  -1.714  -2.728  0.00  0.00    -0.031 A 
ATOM      3  C3  DEN d   1      -1.182  -2.259  -1.989  0.00  0.00     0.027 A 
ATOM      4  C4  DEN d   1       0.033  -1.288   0.069  0.00  0.00     0.027 A 
ATOM      5  C5  DEN d   1       0.070  -0.236   0.958  0.00  0.00    -0.003 A 
ATOM      6  C6  DEN d   1      -0.794   0.824   0.872  0.00  0.00     0.001 A 
ATOM      7  C7  DEN d   1      -1.762   0.833  -0.097  0.00  0.00     0.017 A 
ATOM      8  C8  DEN d   1      -1.802  -0.221  -1.001  0.00  0.00    -0.094 A 
ATOM      9  C9  DEN d   1      -0.927  -1.288  -0.890  0.00  0.00    -0.072 A 
ENDROOT
TORSDOF 0
ENDMDL
