MODEL 1
REMARK minimizedAffinity -2.51357174
REMARK minimizedRMSD -1
REMARK  0 active torsions:
REMARK  status: ('A' for Active; 'I' for Inactive)
ROOT
ATOM      1  C1  DEN d   1       0.816  -0.182  -1.393  0.00  0.00     0.130 A 
ATOM      2  C2  DEN d   1       0.570  -0.205   0.046  0.00  0.00    -0.031 A 
ATOM      3  C3  DEN d   1      -0.779  -0.763   0.269  0.00  0.00     0.027 A 
ATOM      4  C4  DEN d   1      -2.499  -1.593  -1.465  0.00  0.00     0.027 A 
ATOM      5  C5  DEN d   1      -2.746  -1.761  -2.809  0.00  0.00    -0.003 A 
ATOM      6  C6  DEN d   1      -1.844  -1.386  -3.770  0.00  0.00     0.001 A 
ATOM      7  C7  DEN d   1      -0.633  -0.865  -3.397  0.00  0.00     0.017 A 
ATOM      8  C8  DEN d   1      -0.380  -0.686  -2.044  0.00  0.00    -0.094 A 
ATOM      9  C9  DEN d   1      -1.300  -1.083  -1.088  0.00  0.00    -0.072 A 
ENDROOT
TORSDOF 0
ENDMDL
