MODEL 1
REMARK minimizedAffinity -2.06504655
REMARK minimizedRMSD -1
REMARK  0 active torsions:
REMARK  status: ('A' for Active; 'I' for Inactive)
ROOT
ATOM      1  C1  DEN d   1       1.091  -1.404  -0.197  0.00  0.00     0.130 A 
ATOM      2  C2  DEN d   1      -0.177  -1.823  -0.789  0.00  0.00    -0.031 A 
ATOM      3  C3  DEN d   1      -1.213  -0.854  -0.380  0.00  0.00     0.027 A 
ATOM      4  C4  DEN d   1      -0.978   1.246   1.099  0.00  0.00     0.027 A 
ATOM      5  C5  DEN d   1      -0.099   2.005   1.840  0.00  0.00    -0.003 A 
ATOM      6  C6  DEN d   1       1.220   1.664   1.981  0.00  0.00     0.001 A 
ATOM      7  C7  DEN d   1       1.709   0.559   1.334  0.00  0.00     0.017 A 
ATOM      8  C8  DEN d   1       0.827  -0.214   0.591  0.00  0.00    -0.094 A 
ATOM      9  C9  DEN d   1      -0.500   0.154   0.451  0.00  0.00    -0.072 A 
ENDROOT
TORSDOF 0
ENDMDL
