MODEL 1
REMARK minimizedAffinity -0.910030603
REMARK minimizedRMSD -1
REMARK  0 active torsions:
REMARK  status: ('A' for Active; 'I' for Inactive)
ROOT
ATOM      1  C1  DEN d   1       0.767  -0.625  -0.993  0.00  0.00     0.130 A 
ATOM      2  C2  DEN d   1      -0.262  -1.644  -0.806  0.00  0.00    -0.031 A 
ATOM      3  C3  DEN d   1      -1.041  -1.290   0.399  0.00  0.00     0.027 A 
ATOM      4  C4  DEN d   1      -0.757   0.728   1.979  0.00  0.00     0.027 A 
ATOM      5  C5  DEN d   1      -0.012   1.859   2.234  0.00  0.00    -0.003 A 
ATOM      6  C6  DEN d   1       1.056   2.219   1.457  0.00  0.00     0.001 A 
ATOM      7  C7  DEN d   1       1.383   1.466   0.360  0.00  0.00     0.017 A 
ATOM      8  C8  DEN d   1       0.642   0.321   0.101  0.00  0.00    -0.094 A 
ATOM      9  C9  DEN d   1      -0.443  -0.020   0.891  0.00  0.00    -0.072 A 
ENDROOT
TORSDOF 0
ENDMDL
