MODEL 1
REMARK minimizedAffinity 9.69566059
REMARK minimizedRMSD -1
REMARK  0 active torsions:
REMARK  status: ('A' for Active; 'I' for Inactive)
ROOT
ATOM      1  C4' PXY d   1      -0.377  -5.997   2.983  0.00  0.00     0.077 C 
ATOM      2  C1' PXY d   1      -2.301  -1.650  -0.306  0.00  0.00     0.077 C 
ATOM      3  C1  PXY d   1      -1.799  -2.798   0.546  0.00  0.00    -0.082 A 
ATOM      4  C2  PXY d   1      -1.842  -2.701   1.865  0.00  0.00     0.003 A 
ATOM      5  C3  PXY d   1      -1.362  -3.717   2.652  0.00  0.00     0.003 A 
ATOM      6  C4  PXY d   1      -0.882  -4.866   2.082  0.00  0.00    -0.082 A 
ATOM      7  C5  PXY d   1      -0.845  -4.977   0.738  0.00  0.00     0.003 A 
ATOM      8  C6  PXY d   1      -1.299  -3.918  -0.043  0.00  0.00     0.003 A 
ENDROOT
TORSDOF 0
ENDMDL
