MODEL 1
REMARK minimizedAffinity 1.98540235
REMARK minimizedRMSD -1
REMARK  0 active torsions:
REMARK  status: ('A' for Active; 'I' for Inactive)
ROOT
ATOM      1  C4' PXY d   1      -1.878  -2.250   3.925  0.00  0.00     0.077 C 
ATOM      2  C1' PXY d   1      -0.375  -5.630  -0.517  0.00  0.00     0.077 C 
ATOM      3  C1  PXY d   1      -0.766  -4.733   0.641  0.00  0.00    -0.082 A 
ATOM      4  C2  PXY d   1      -0.744  -5.210   1.875  0.00  0.00     0.003 A 
ATOM      5  C3  PXY d   1      -1.125  -4.423   2.931  0.00  0.00     0.003 A 
ATOM      6  C4  PXY d   1      -1.482  -3.117   2.727  0.00  0.00    -0.082 A 
ATOM      7  C5  PXY d   1      -1.497  -2.619   1.472  0.00  0.00     0.003 A 
ATOM      8  C6  PXY d   1      -1.146  -3.447   0.410  0.00  0.00     0.003 A 
ENDROOT
TORSDOF 0
ENDMDL
