MODEL 1
REMARK minimizedAffinity 16.349247
REMARK minimizedRMSD -1
REMARK  0 active torsions:
REMARK  status: ('A' for Active; 'I' for Inactive)
ROOT
ATOM      1  C4' PXY d   1      -1.610  -6.000   4.611  0.00  0.00     0.077 C 
ATOM      2  C1' PXY d   1      -0.661  -3.463  -0.496  0.00  0.00     0.077 C 
ATOM      3  C1  PXY d   1      -0.908  -4.140   0.838  0.00  0.00    -0.082 A 
ATOM      4  C2  PXY d   1      -1.627  -3.523   1.762  0.00  0.00     0.003 A 
ATOM      5  C3  PXY d   1      -1.833  -4.107   2.985  0.00  0.00     0.003 A 
ATOM      6  C4  PXY d   1      -1.343  -5.359   3.247  0.00  0.00    -0.082 A 
ATOM      7  C5  PXY d   1      -0.618  -5.999   2.306  0.00  0.00     0.003 A 
ATOM      8  C6  PXY d   1      -0.385  -5.372   1.085  0.00  0.00     0.003 A 
ENDROOT
TORSDOF 0
ENDMDL
