MODEL 1
REMARK minimizedAffinity 4.70910645
REMARK minimizedRMSD -1
REMARK  0 active torsions:
REMARK  status: ('A' for Active; 'I' for Inactive)
ROOT
ATOM      1  C4' PXY d   1      -2.376  -0.892   0.028  0.00  0.00     0.077 C 
ATOM      2  C1' PXY d   1      -0.452  -6.000   1.931  0.00  0.00     0.077 C 
ATOM      3  C1  PXY d   1      -0.966  -4.661   1.441  0.00  0.00    -0.082 A 
ATOM      4  C2  PXY d   1      -0.673  -4.256   0.216  0.00  0.00     0.003 A 
ATOM      5  C3  PXY d   1      -1.103  -3.034  -0.233  0.00  0.00     0.003 A 
ATOM      6  C4  PXY d   1      -1.886  -2.241   0.562  0.00  0.00    -0.082 A 
ATOM      7  C5  PXY d   1      -2.199  -2.651   1.809  0.00  0.00     0.003 A 
ATOM      8  C6  PXY d   1      -1.718  -3.877   2.260  0.00  0.00     0.003 A 
ENDROOT
TORSDOF 0
ENDMDL
