MODEL 1
REMARK minimizedAffinity 11.8922052
REMARK minimizedRMSD -1
REMARK  0 active torsions:
REMARK  status: ('A' for Active; 'I' for Inactive)
ROOT
ATOM      1  C4' PXY d   1      -2.420  -1.159   0.160  0.00  0.00     0.077 C 
ATOM      2  C1' PXY d   1       0.011  -6.000   2.178  0.00  0.00     0.077 C 
ATOM      3  C1  PXY d   1      -0.635  -4.730   1.659  0.00  0.00    -0.082 A 
ATOM      4  C2  PXY d   1      -0.570  -4.444   0.369  0.00  0.00     0.003 A 
ATOM      5  C3  PXY d   1      -1.121  -3.284  -0.113  0.00  0.00     0.003 A 
ATOM      6  C4  PXY d   1      -1.791  -2.435   0.727  0.00  0.00    -0.082 A 
ATOM      7  C5  PXY d   1      -1.870  -2.725   2.042  0.00  0.00     0.003 A 
ATOM      8  C6  PXY d   1      -1.269  -3.887   2.518  0.00  0.00     0.003 A 
ENDROOT
TORSDOF 0
ENDMDL
