MODEL 1
REMARK minimizedAffinity 11.8961411
REMARK minimizedRMSD -1
REMARK  0 active torsions:
REMARK  status: ('A' for Active; 'I' for Inactive)
ROOT
ATOM      1  C4' PXY d   1      -5.961   6.000   1.706  0.00  0.00     0.077 C 
ATOM      2  C1' PXY d   1      -3.833   1.704  -1.523  0.00  0.00     0.077 C 
ATOM      3  C1  PXY d   1      -4.385   2.826  -0.666  0.00  0.00    -0.082 A 
ATOM      4  C2  PXY d   1      -5.504   3.434  -1.025  0.00  0.00     0.003 A 
ATOM      5  C3  PXY d   1      -6.000   4.471  -0.278  0.00  0.00     0.003 A 
ATOM      6  C4  PXY d   1      -5.372   4.856   0.876  0.00  0.00    -0.082 A 
ATOM      7  C5  PXY d   1      -4.236   4.234   1.255  0.00  0.00     0.003 A 
ATOM      8  C6  PXY d   1      -3.727   3.210   0.461  0.00  0.00     0.003 A 
ENDROOT
TORSDOF 0
ENDMDL
