MODEL 1
REMARK minimizedAffinity 10.3347187
REMARK minimizedRMSD -1
REMARK  0 active torsions:
REMARK  status: ('A' for Active; 'I' for Inactive)
ROOT
ATOM      1  C4' PXY d   1      -0.417  -1.878  -1.897  0.00  0.00     0.077 C 
ATOM      2  C1' PXY d   1      -0.779  -6.000   2.139  0.00  0.00     0.077 C 
ATOM      3  C1  PXY d   1      -0.694  -4.913   1.086  0.00  0.00    -0.082 A 
ATOM      4  C2  PXY d   1      -0.127  -5.175  -0.080  0.00  0.00     0.003 A 
ATOM      5  C3  PXY d   1      -0.013  -4.194  -1.032  0.00  0.00     0.003 A 
ATOM      6  C4  PXY d   1      -0.533  -2.947  -0.807  0.00  0.00    -0.082 A 
ATOM      7  C5  PXY d   1      -1.122  -2.675   0.376  0.00  0.00     0.003 A 
ATOM      8  C6  PXY d   1      -1.191  -3.673   1.345  0.00  0.00     0.003 A 
ENDROOT
TORSDOF 0
ENDMDL
