MODEL 1
REMARK minimizedAffinity 6.48847818
REMARK minimizedRMSD -1
REMARK  0 active torsions:
REMARK  status: ('A' for Active; 'I' for Inactive)
ROOT
ATOM      1  C4' PXY d   1      -2.367  -1.331  -2.051  0.00  0.00     0.077 C 
ATOM      2  C1' PXY d   1      -0.619  -4.939   2.113  0.00  0.00     0.077 C 
ATOM      3  C1  PXY d   1      -1.084  -3.986   1.030  0.00  0.00    -0.082 A 
ATOM      4  C2  PXY d   1      -1.175  -4.410  -0.220  0.00  0.00     0.003 A 
ATOM      5  C3  PXY d   1      -1.563  -3.552  -1.217  0.00  0.00     0.003 A 
ATOM      6  C4  PXY d   1      -1.912  -2.261  -0.923  0.00  0.00    -0.082 A 
ATOM      7  C5  PXY d   1      -1.832  -1.824   0.351  0.00  0.00     0.003 A 
ATOM      8  C6  PXY d   1      -1.397  -2.699   1.342  0.00  0.00     0.003 A 
ENDROOT
TORSDOF 0
ENDMDL
