MODEL 1
REMARK minimizedAffinity 15.0259409
REMARK minimizedRMSD -1
REMARK  0 active torsions:
REMARK  status: ('A' for Active; 'I' for Inactive)
ROOT
ATOM      1  C4' PXY d   1       0.952  -1.040  -3.078  0.00  0.00     0.077 C 
ATOM      2  C1' PXY d   1       3.722   2.819   0.216  0.00  0.00     0.077 C 
ATOM      3  C1  PXY d   1       3.004   1.809  -0.658  0.00  0.00    -0.082 A 
ATOM      4  C2  PXY d   1       1.733   1.528  -0.423  0.00  0.00     0.003 A 
ATOM      5  C3  PXY d   1       1.077   0.593  -1.183  0.00  0.00     0.003 A 
ATOM      6  C4  PXY d   1       1.714  -0.020  -2.228  0.00  0.00    -0.082 A 
ATOM      7  C5  PXY d   1       3.008   0.269  -2.481  0.00  0.00     0.003 A 
ATOM      8  C6  PXY d   1       3.668   1.190  -1.672  0.00  0.00     0.003 A 
ENDROOT
TORSDOF 0
ENDMDL
