MODEL 1
REMARK minimizedAffinity 10.4998655
REMARK minimizedRMSD -1
REMARK  0 active torsions:
REMARK  status: ('A' for Active; 'I' for Inactive)
ROOT
ATOM      1  C4' PXY d   1      -5.999   2.378   6.000  0.00  0.00     0.077 C 
ATOM      2  C1' PXY d   1      -1.773  -1.467   5.119  0.00  0.00     0.077 C 
ATOM      3  C1  PXY d   1      -2.889  -0.465   5.343  0.00  0.00    -0.082 A 
ATOM      4  C2  PXY d   1      -2.594   0.776   5.692  0.00  0.00     0.003 A 
ATOM      5  C3  PXY d   1      -3.592   1.686   5.929  0.00  0.00     0.003 A 
ATOM      6  C4  PXY d   1      -4.904   1.336   5.755  0.00  0.00    -0.082 A 
ATOM      7  C5  PXY d   1      -5.213   0.074   5.387  0.00  0.00     0.003 A 
ATOM      8  C6  PXY d   1      -4.187  -0.846   5.192  0.00  0.00     0.003 A 
ENDROOT
TORSDOF 0
ENDMDL
