MODEL 1
REMARK minimizedAffinity 12.4041395
REMARK minimizedRMSD -1
REMARK  0 active torsions:
REMARK  status: ('A' for Active; 'I' for Inactive)
ROOT
ATOM      1  C4' PXY d   1      -0.897  -6.000  -1.126  0.00  0.00     0.077 C 
ATOM      2  C1' PXY d   1      -0.417  -0.727  -3.446  0.00  0.00     0.077 C 
ATOM      3  C1  PXY d   1      -0.536  -2.106  -2.827  0.00  0.00    -0.082 A 
ATOM      4  C2  PXY d   1      -0.769  -3.152  -3.602  0.00  0.00     0.003 A 
ATOM      5  C3  PXY d   1      -0.911  -4.402  -3.056  0.00  0.00     0.003 A 
ATOM      6  C4  PXY d   1      -0.760  -4.590  -1.708  0.00  0.00    -0.082 A 
ATOM      7  C5  PXY d   1      -0.512  -3.529  -0.912  0.00  0.00     0.003 A 
ATOM      8  C6  PXY d   1      -0.412  -2.263  -1.481  0.00  0.00     0.003 A 
ENDROOT
TORSDOF 0
ENDMDL
