MODEL 1
REMARK minimizedAffinity 15.2087326
REMARK minimizedRMSD -1
REMARK  0 active torsions:
REMARK  status: ('A' for Active; 'I' for Inactive)
ROOT
ATOM      1  C4' PXY d   1      -4.507   1.144   5.998  0.00  0.00     0.077 C 
ATOM      2  C1' PXY d   1      -2.620  -4.233   5.027  0.00  0.00     0.077 C 
ATOM      3  C1  PXY d   1      -3.128  -2.827   5.280  0.00  0.00    -0.082 A 
ATOM      4  C2  PXY d   1      -2.342  -1.793   5.026  0.00  0.00     0.003 A 
ATOM      5  C3  PXY d   1      -2.773  -0.516   5.280  0.00  0.00     0.003 A 
ATOM      6  C4  PXY d   1      -4.040  -0.293   5.748  0.00  0.00    -0.082 A 
ATOM      7  C5  PXY d   1      -4.851  -1.342   6.000  0.00  0.00     0.003 A 
ATOM      8  C6  PXY d   1      -4.380  -2.632   5.775  0.00  0.00     0.003 A 
ENDROOT
TORSDOF 0
ENDMDL
