MODEL 1
REMARK minimizedAffinity 9.8745575
REMARK minimizedRMSD -1
REMARK  0 active torsions:
REMARK  status: ('A' for Active; 'I' for Inactive)
ROOT
ATOM      1  C4' PXY d   1      -1.380  -1.904  -3.323  0.00  0.00     0.077 C 
ATOM      2  C1' PXY d   1      -0.375  -4.694   1.639  0.00  0.00     0.077 C 
ATOM      3  C1  PXY d   1      -0.646  -3.953   0.344  0.00  0.00    -0.082 A 
ATOM      4  C2  PXY d   1      -0.555  -4.597  -0.809  0.00  0.00     0.003 A 
ATOM      5  C3  PXY d   1      -0.766  -3.935  -1.991  0.00  0.00     0.003 A 
ATOM      6  C4  PXY d   1      -1.125  -2.613  -1.991  0.00  0.00    -0.082 A 
ATOM      7  C5  PXY d   1      -1.230  -1.953  -0.818  0.00  0.00     0.003 A 
ATOM      8  C6  PXY d   1      -0.972  -2.632   0.368  0.00  0.00     0.003 A 
ENDROOT
TORSDOF 0
ENDMDL
