MODEL 1
REMARK minimizedAffinity 17.1684284
REMARK minimizedRMSD -1
REMARK  0 active torsions:
REMARK  status: ('A' for Active; 'I' for Inactive)
ROOT
ATOM      1  C4' PXY d   1      -1.793   1.794   1.976  0.00  0.00     0.077 C 
ATOM      2  C1' PXY d   1      -1.713  -2.994   5.214  0.00  0.00     0.077 C 
ATOM      3  C1  PXY d   1      -1.727  -1.745   4.355  0.00  0.00    -0.082 A 
ATOM      4  C2  PXY d   1      -1.851  -0.559   4.928  0.00  0.00     0.003 A 
ATOM      5  C3  PXY d   1      -1.898   0.579   4.165  0.00  0.00     0.003 A 
ATOM      6  C4  PXY d   1      -1.764   0.506   2.804  0.00  0.00    -0.082 A 
ATOM      7  C5  PXY d   1      -1.627  -0.699   2.212  0.00  0.00     0.003 A 
ATOM      8  C6  PXY d   1      -1.623  -1.845   3.002  0.00  0.00     0.003 A 
ENDROOT
TORSDOF 0
ENDMDL
