MODEL 1
REMARK minimizedAffinity 3.06740665
REMARK minimizedRMSD -1
REMARK  0 active torsions:
REMARK  status: ('A' for Active; 'I' for Inactive)
ROOT
ATOM      1  C4' PXY d   1      -3.452   1.400   5.994  0.00  0.00     0.077 C 
ATOM      2  C1' PXY d   1      -1.914  -4.172   5.985  0.00  0.00     0.077 C 
ATOM      3  C1  PXY d   1      -2.306  -2.708   5.993  0.00  0.00    -0.082 A 
ATOM      4  C2  PXY d   1      -3.586  -2.373   6.000  0.00  0.00     0.003 A 
ATOM      5  C3  PXY d   1      -3.958  -1.054   5.974  0.00  0.00     0.003 A 
ATOM      6  C4  PXY d   1      -3.010  -0.066   5.996  0.00  0.00    -0.082 A 
ATOM      7  C5  PXY d   1      -1.702  -0.399   6.000  0.00  0.00     0.003 A 
ATOM      8  C6  PXY d   1      -1.345  -1.744   5.984  0.00  0.00     0.003 A 
ENDROOT
TORSDOF 0
ENDMDL
