MODEL 1
REMARK minimizedAffinity 5.38146877
REMARK minimizedRMSD -1
REMARK  0 active torsions:
REMARK  status: ('A' for Active; 'I' for Inactive)
ROOT
ATOM      1  C4' PXY d   1      -6.000   6.000  -5.181  0.00  0.00     0.077 C 
ATOM      2  C1' PXY d   1      -1.099   2.939  -5.012  0.00  0.00     0.077 C 
ATOM      3  C1  PXY d   1      -2.383   3.745  -5.044  0.00  0.00    -0.082 A 
ATOM      4  C2  PXY d   1      -3.315   3.455  -5.936  0.00  0.00     0.003 A 
ATOM      5  C3  PXY d   1      -4.468   4.194  -6.000  0.00  0.00     0.003 A 
ATOM      6  C4  PXY d   1      -4.692   5.207  -5.106  0.00  0.00    -0.082 A 
ATOM      7  C5  PXY d   1      -3.750   5.502  -4.185  0.00  0.00     0.003 A 
ATOM      8  C6  PXY d   1      -2.569   4.766  -4.164  0.00  0.00     0.003 A 
ENDROOT
TORSDOF 0
ENDMDL
