MODEL 1
REMARK minimizedAffinity 21.2369633
REMARK minimizedRMSD -1
REMARK  0 active torsions:
REMARK  status: ('A' for Active; 'I' for Inactive)
ROOT
ATOM      1  C4' PXY d   1       2.350  -0.104  -1.841  0.00  0.00     0.077 C 
ATOM      2  C1' PXY d   1       4.710   4.757   0.211  0.00  0.00     0.077 C 
ATOM      3  C1  PXY d   1       4.098   3.484  -0.339  0.00  0.00    -0.082 A 
ATOM      4  C2  PXY d   1       2.938   3.058   0.135  0.00  0.00     0.003 A 
ATOM      5  C3  PXY d   1       2.386   1.892  -0.327  0.00  0.00     0.003 A 
ATOM      6  C4  PXY d   1       3.001   1.181  -1.323  0.00  0.00    -0.082 A 
ATOM      7  C5  PXY d   1       4.179   1.614  -1.819  0.00  0.00     0.003 A 
ATOM      8  C6  PXY d   1       4.743   2.779  -1.307  0.00  0.00     0.003 A 
ENDROOT
TORSDOF 0
ENDMDL
