MODEL 1
REMARK minimizedAffinity 9.96758842
REMARK minimizedRMSD -1
REMARK  0 active torsions:
REMARK  status: ('A' for Active; 'I' for Inactive)
ROOT
ATOM      1  C4' PXY d   1      -2.297  -4.187   5.021  0.00  0.00     0.077 C 
ATOM      2  C1' PXY d   1      -4.104   1.221   5.966  0.00  0.00     0.077 C 
ATOM      3  C1  PXY d   1      -3.621  -0.193   5.711  0.00  0.00    -0.082 A 
ATOM      4  C2  PXY d   1      -4.468  -1.203   5.817  0.00  0.00     0.003 A 
ATOM      5  C3  PXY d   1      -4.040  -2.491   5.621  0.00  0.00     0.003 A 
ATOM      6  C4  PXY d   1      -2.743  -2.743   5.260  0.00  0.00    -0.082 A 
ATOM      7  C5  PXY d   1      -1.875  -1.716   5.139  0.00  0.00     0.003 A 
ATOM      8  C6  PXY d   1      -2.320  -0.420   5.383  0.00  0.00     0.003 A 
ENDROOT
TORSDOF 0
ENDMDL
