MODEL 1
REMARK minimizedAffinity 10.7718954
REMARK minimizedRMSD -1
REMARK  0 active torsions:
REMARK  status: ('A' for Active; 'I' for Inactive)
ROOT
ATOM      1  C4' PXY d   1       3.742   3.941  -0.376  0.00  0.00     0.077 C 
ATOM      2  C1' PXY d   1       5.945   0.109   3.349  0.00  0.00     0.077 C 
ATOM      3  C1  PXY d   1       5.355   1.112   2.377  0.00  0.00    -0.082 A 
ATOM      4  C2  PXY d   1       6.000   1.393   1.256  0.00  0.00     0.003 A 
ATOM      5  C3  PXY d   1       5.497   2.321   0.381  0.00  0.00     0.003 A 
ATOM      6  C4  PXY d   1       4.295   2.928   0.630  0.00  0.00    -0.082 A 
ATOM      7  C5  PXY d   1       3.626   2.638   1.766  0.00  0.00     0.003 A 
ATOM      8  C6  PXY d   1       4.174   1.724   2.661  0.00  0.00     0.003 A 
ENDROOT
TORSDOF 0
ENDMDL
