MODEL 1
REMARK minimizedAffinity 8.0581007
REMARK minimizedRMSD -1
REMARK  0 active torsions:
REMARK  status: ('A' for Active; 'I' for Inactive)
ROOT
ATOM      1  C4' PXY d   1      -4.224   5.771  -2.810  0.00  0.00     0.077 C 
ATOM      2  C1' PXY d   1      -5.879   3.924   2.411  0.00  0.00     0.077 C 
ATOM      3  C1  PXY d   1      -5.457   4.415   1.041  0.00  0.00    -0.082 A 
ATOM      4  C2  PXY d   1      -4.553   3.736   0.353  0.00  0.00     0.003 A 
ATOM      5  C3  PXY d   1      -4.135   4.183  -0.874  0.00  0.00     0.003 A 
ATOM      6  C4  PXY d   1      -4.688   5.308  -1.427  0.00  0.00    -0.082 A 
ATOM      7  C5  PXY d   1      -5.618   6.000  -0.736  0.00  0.00     0.003 A 
ATOM      8  C6  PXY d   1      -5.998   5.552   0.526  0.00  0.00     0.003 A 
ENDROOT
TORSDOF 0
ENDMDL
