MODEL 1
REMARK minimizedAffinity 5.31536198
REMARK minimizedRMSD -1
REMARK  0 active torsions:
REMARK  status: ('A' for Active; 'I' for Inactive)
ROOT
ATOM      1  C   UNL d   1      -3.357   2.274  -1.654  0.00  0.00     0.124 A 
ATOM      2  C1  UNL d   1      -4.320   1.289  -1.823  0.00  0.00     0.062 A 
ATOM      3  C2  UNL d   1      -5.076   0.856  -0.737  0.00  0.00     0.162 A 
ATOM      4  C3  UNL d   1      -4.872   1.408   0.528  0.00  0.00    -0.034 A 
ATOM      5  C4  UNL d   1      -3.901   2.398   0.689  0.00  0.00     0.162 A 
ATOM      6  C5  UNL d   1      -3.148   2.827  -0.399  0.00  0.00     0.062 A 
ATOM      7  F   UNL d   1      -2.218   3.779  -0.234  0.00  0.00    -0.097 F 
ATOM      8  F1  UNL d   1      -3.679   2.950   1.891  0.00  0.00    -0.096 F 
ATOM      9  I   UNL d   1      -6.000   0.764   2.154  0.00  0.00    -0.060 I 
ATOM     10  F2  UNL d   1      -6.000  -0.097  -0.929  0.00  0.00    -0.096 F 
ATOM     11  F3  UNL d   1      -4.523   0.752  -3.034  0.00  0.00    -0.097 F 
ATOM     12  F4  UNL d   1      -2.631   2.688  -2.700  0.00  0.00    -0.092 F 
ENDROOT
TORSDOF 0
ENDMDL
