MODEL 1
REMARK minimizedAffinity 8.14263058
REMARK minimizedRMSD -1
REMARK  0 active torsions:
REMARK  status: ('A' for Active; 'I' for Inactive)
ROOT
ATOM      1  C   UNL d   1      -2.393   0.441  -1.689  0.00  0.00     0.124 A 
ATOM      2  C1  UNL d   1      -3.441   0.942  -2.449  0.00  0.00     0.062 A 
ATOM      3  C2  UNL d   1      -4.301   1.895  -1.912  0.00  0.00     0.162 A 
ATOM      4  C3  UNL d   1      -4.118   2.355  -0.608  0.00  0.00    -0.034 A 
ATOM      5  C4  UNL d   1      -3.062   1.845   0.151  0.00  0.00     0.162 A 
ATOM      6  C5  UNL d   1      -2.205   0.893  -0.390  0.00  0.00     0.062 A 
ATOM      7  F   UNL d   1      -1.193   0.409   0.346  0.00  0.00    -0.097 F 
ATOM      8  F1  UNL d   1      -2.857   2.265   1.408  0.00  0.00    -0.096 F 
ATOM      9  I   UNL d   1      -5.403   3.780   0.198  0.00  0.00    -0.060 I 
ATOM     10  F2  UNL d   1      -5.305   2.362  -2.669  0.00  0.00    -0.096 F 
ATOM     11  F3  UNL d   1      -3.625   0.507  -3.703  0.00  0.00    -0.097 F 
ATOM     12  F4  UNL d   1      -1.567  -0.477  -2.207  0.00  0.00    -0.092 F 
ENDROOT
TORSDOF 0
ENDMDL
