MODEL 1
REMARK minimizedAffinity 15.9345894
REMARK minimizedRMSD -1
REMARK  0 active torsions:
REMARK  status: ('A' for Active; 'I' for Inactive)
ROOT
ATOM      1  C   UNL d   1       1.183  -2.625   3.374  0.00  0.00     0.124 A 
ATOM      2  C1  UNL d   1       1.842  -1.743   2.529  0.00  0.00     0.062 A 
ATOM      3  C2  UNL d   1       3.217  -1.848   2.341  0.00  0.00     0.162 A 
ATOM      4  C3  UNL d   1       3.944  -2.840   3.001  0.00  0.00    -0.034 A 
ATOM      5  C4  UNL d   1       3.274  -3.722   3.850  0.00  0.00     0.162 A 
ATOM      6  C5  UNL d   1       1.900  -3.613   4.034  0.00  0.00     0.062 A 
ATOM      7  F   UNL d   1       1.265  -4.466   4.852  0.00  0.00    -0.097 F 
ATOM      8  F1  UNL d   1       3.942  -4.687   4.500  0.00  0.00    -0.096 F 
ATOM      9  I   UNL d   1       6.000  -3.000   2.723  0.00  0.00    -0.060 I 
ATOM     10  F2  UNL d   1       3.827  -0.982   1.518  0.00  0.00    -0.096 F 
ATOM     11  F3  UNL d   1       1.152  -0.787   1.891  0.00  0.00    -0.097 F 
ATOM     12  F4  UNL d   1      -0.140  -2.521   3.554  0.00  0.00    -0.092 F 
ENDROOT
TORSDOF 0
ENDMDL
