MODEL 1
REMARK minimizedAffinity 20.2587395
REMARK minimizedRMSD -1
REMARK  0 active torsions:
REMARK  status: ('A' for Active; 'I' for Inactive)
ROOT
ATOM      1  C   UNL d   1       2.048  -2.402   3.075  0.00  0.00     0.124 A 
ATOM      2  C1  UNL d   1       2.406  -3.723   2.844  0.00  0.00     0.062 A 
ATOM      3  C2  UNL d   1       1.934  -4.732   3.678  0.00  0.00     0.162 A 
ATOM      4  C3  UNL d   1       1.097  -4.425   4.751  0.00  0.00    -0.034 A 
ATOM      5  C4  UNL d   1       0.742  -3.094   4.977  0.00  0.00     0.162 A 
ATOM      6  C5  UNL d   1       1.216  -2.089   4.141  0.00  0.00     0.062 A 
ATOM      7  F   UNL d   1       0.869  -0.813   4.366  0.00  0.00    -0.097 F 
ATOM      8  F1  UNL d   1      -0.061  -2.763   5.999  0.00  0.00    -0.096 F 
ATOM      9  I   UNL d   1       0.388  -5.931   6.000  0.00  0.00    -0.060 I 
ATOM     10  F2  UNL d   1       2.296  -6.000   3.431  0.00  0.00    -0.096 F 
ATOM     11  F3  UNL d   1       3.210  -4.028   1.816  0.00  0.00    -0.097 F 
ATOM     12  F4  UNL d   1       2.505  -1.433   2.272  0.00  0.00    -0.092 F 
ENDROOT
TORSDOF 0
ENDMDL
