MODEL 1
REMARK minimizedAffinity 9.01125813
REMARK minimizedRMSD -1
REMARK  0 active torsions:
REMARK  status: ('A' for Active; 'I' for Inactive)
ROOT
ATOM      1  C   UNL d   1       2.369  -5.820  -1.407  0.00  0.00     0.124 A 
ATOM      2  C1  UNL d   1       3.688  -5.805  -0.977  0.00  0.00     0.062 A 
ATOM      3  C2  UNL d   1       4.727  -5.840  -1.903  0.00  0.00     0.162 A 
ATOM      4  C3  UNL d   1       4.450  -5.889  -3.269  0.00  0.00    -0.034 A 
ATOM      5  C4  UNL d   1       3.120  -5.905  -3.694  0.00  0.00     0.162 A 
ATOM      6  C5  UNL d   1       2.086  -5.870  -2.764  0.00  0.00     0.062 A 
ATOM      7  F   UNL d   1       0.811  -5.885  -3.181  0.00  0.00    -0.097 F 
ATOM      8  F1  UNL d   1       2.818  -5.953  -5.000  0.00  0.00    -0.096 F 
ATOM      9  I   UNL d   1       5.999  -5.942  -4.657  0.00  0.00    -0.060 I 
ATOM     10  F2  UNL d   1       5.992  -5.824  -1.459  0.00  0.00    -0.096 F 
ATOM     11  F3  UNL d   1       3.964  -5.757   0.335  0.00  0.00    -0.097 F 
ATOM     12  F4  UNL d   1       1.371  -5.787  -0.513  0.00  0.00    -0.092 F 
ENDROOT
TORSDOF 0
ENDMDL
