MODEL 1
REMARK minimizedAffinity 12.7451162
REMARK minimizedRMSD -1
REMARK  0 active torsions:
REMARK  status: ('A' for Active; 'I' for Inactive)
ROOT
ATOM      1  C   UNL d   1       1.166  -3.113   3.574  0.00  0.00     0.124 A 
ATOM      2  C1  UNL d   1       1.800  -4.062   4.364  0.00  0.00     0.062 A 
ATOM      3  C2  UNL d   1       3.180  -4.015   4.543  0.00  0.00     0.162 A 
ATOM      4  C3  UNL d   1       3.935  -3.014   3.931  0.00  0.00    -0.034 A 
ATOM      5  C4  UNL d   1       3.290  -2.064   3.137  0.00  0.00     0.162 A 
ATOM      6  C5  UNL d   1       1.911  -2.115   2.962  0.00  0.00     0.062 A 
ATOM      7  F   UNL d   1       1.300  -1.198   2.198  0.00  0.00    -0.097 F 
ATOM      8  F1  UNL d   1       3.986  -1.089   2.534  0.00  0.00    -0.096 F 
ATOM      9  I   UNL d   1       5.998  -2.941   4.196  0.00  0.00    -0.060 I 
ATOM     10  F2  UNL d   1       3.766  -4.945   5.311  0.00  0.00    -0.096 F 
ATOM     11  F3  UNL d   1       1.083  -5.028   4.956  0.00  0.00    -0.097 F 
ATOM     12  F4  UNL d   1      -0.161  -3.161   3.403  0.00  0.00    -0.092 F 
ENDROOT
TORSDOF 0
ENDMDL
