MODEL 1
REMARK minimizedAffinity 20.4937878
REMARK minimizedRMSD -1
REMARK  0 active torsions:
REMARK  status: ('A' for Active; 'I' for Inactive)
ROOT
ATOM      1  C   UNL d   1      -2.977   0.621  -2.867  0.00  0.00     0.124 A 
ATOM      2  C1  UNL d   1      -3.000  -0.728  -2.539  0.00  0.00     0.062 A 
ATOM      3  C2  UNL d   1      -3.633  -1.641  -3.377  0.00  0.00     0.162 A 
ATOM      4  C3  UNL d   1      -4.248  -1.210  -4.552  0.00  0.00    -0.034 A 
ATOM      5  C4  UNL d   1      -4.222   0.148  -4.875  0.00  0.00     0.162 A 
ATOM      6  C5  UNL d   1      -3.588   1.057  -4.034  0.00  0.00     0.062 A 
ATOM      7  F   UNL d   1      -3.567   2.360  -4.352  0.00  0.00    -0.097 F 
ATOM      8  F1  UNL d   1      -4.803   0.598  -5.997  0.00  0.00    -0.096 F 
ATOM      9  I   UNL d   1      -5.195  -2.573  -5.808  0.00  0.00    -0.060 I 
ATOM     10  F2  UNL d   1      -3.639  -2.938  -3.035  0.00  0.00    -0.096 F 
ATOM     11  F3  UNL d   1      -2.411  -1.152  -1.411  0.00  0.00    -0.097 F 
ATOM     12  F4  UNL d   1      -2.368   1.498  -2.058  0.00  0.00    -0.092 F 
ENDROOT
TORSDOF 0
ENDMDL
