MODEL 1
REMARK minimizedAffinity 19.4185314
REMARK minimizedRMSD -1
REMARK  0 active torsions:
REMARK  status: ('A' for Active; 'I' for Inactive)
ROOT
ATOM      1  C   UNL d   1      -2.772  -0.206  -1.795  0.00  0.00     0.124 A 
ATOM      2  C1  UNL d   1      -3.288  -0.900  -2.881  0.00  0.00     0.062 A 
ATOM      3  C2  UNL d   1      -3.396  -2.287  -2.838  0.00  0.00     0.162 A 
ATOM      4  C3  UNL d   1      -2.989  -2.990  -1.704  0.00  0.00    -0.034 A 
ATOM      5  C4  UNL d   1      -2.471  -2.285  -0.616  0.00  0.00     0.162 A 
ATOM      6  C5  UNL d   1      -2.364  -0.899  -0.664  0.00  0.00     0.062 A 
ATOM      7  F   UNL d   1      -1.866  -0.230   0.387  0.00  0.00    -0.097 F 
ATOM      8  F1  UNL d   1      -2.070  -2.929   0.490  0.00  0.00    -0.096 F 
ATOM      9  I   UNL d   1      -3.149  -5.064  -1.636  0.00  0.00    -0.060 I 
ATOM     10  F2  UNL d   1      -3.898  -2.931  -3.902  0.00  0.00    -0.096 F 
ATOM     11  F3  UNL d   1      -3.681  -0.233  -3.975  0.00  0.00    -0.097 F 
ATOM     12  F4  UNL d   1      -2.668   1.128  -1.839  0.00  0.00    -0.092 F 
ENDROOT
TORSDOF 0
ENDMDL
