MODEL 1
REMARK minimizedAffinity 9.26694775
REMARK minimizedRMSD -1
REMARK  0 active torsions:
REMARK  status: ('A' for Active; 'I' for Inactive)
ROOT
ATOM      1  C   UNL d   1       1.827  -4.259   3.987  0.00  0.00     0.124 A 
ATOM      2  C1  UNL d   1       2.685  -3.580   4.841  0.00  0.00     0.062 A 
ATOM      3  C2  UNL d   1       2.906  -2.216   4.674  0.00  0.00     0.162 A 
ATOM      4  C3  UNL d   1       2.266  -1.520   3.648  0.00  0.00    -0.034 A 
ATOM      5  C4  UNL d   1       1.405  -2.210   2.792  0.00  0.00     0.162 A 
ATOM      6  C5  UNL d   1       1.187  -3.573   2.964  0.00  0.00     0.062 A 
ATOM      7  F   UNL d   1       0.358  -4.226   2.137  0.00  0.00    -0.097 F 
ATOM      8  F1  UNL d   1       0.773  -1.571   1.796  0.00  0.00    -0.096 F 
ATOM      9  I   UNL d   1       2.593   0.519   3.395  0.00  0.00    -0.060 I 
ATOM     10  F2  UNL d   1       3.740  -1.587   5.514  0.00  0.00    -0.096 F 
ATOM     11  F3  UNL d   1       3.304  -4.241   5.830  0.00  0.00    -0.097 F 
ATOM     12  F4  UNL d   1       1.617  -5.571   4.150  0.00  0.00    -0.092 F 
ENDROOT
TORSDOF 0
ENDMDL
