MODEL 1
REMARK minimizedAffinity 5.39897442
REMARK minimizedRMSD -1
REMARK  2 active torsions:
REMARK  status: ('A' for Active; 'I' for Inactive)
REMARK    1  A    between atoms: C2'_3  and  C1'_4 
REMARK    2  A    between atoms: C1'_4  and  C1_5 
ROOT
ATOM      1  C1  I4B d   1       0.812  -1.992   1.155  0.00  0.00    -0.075 A 
ATOM      2  C2  I4B d   1       2.000  -1.476   0.699  0.00  0.00     0.003 A 
ATOM      3  C3  I4B d   1       2.941  -2.316   0.055  0.00  0.00     0.002 A 
ATOM      4  C4  I4B d   1       2.677  -3.665  -0.066  0.00  0.00    -0.004 A 
ATOM      5  C5  I4B d   1       1.463  -4.182   0.377  0.00  0.00     0.002 A 
ATOM      6  C6  I4B d   1       0.519  -3.338   0.981  0.00  0.00     0.003 A 
ENDROOT
BRANCH   1   7
ATOM      7  C1' I4B d   1      -0.144  -1.084   1.861  0.00  0.00     0.060 C 
BRANCH   7   8
ATOM      8  C2' I4B d   1       0.588  -0.446   3.023  0.00  0.00    -0.013 C 
ATOM      9  C4' I4B d   1      -0.376   0.047   4.070  0.00  0.00     0.013 C 
ATOM     10  C3' I4B d   1       1.530  -1.465   3.592  0.00  0.00     0.013 C 
ENDBRANCH   7   8
ENDBRANCH   1   7
TORSDOF 2
ENDMDL
