MODEL 1
REMARK minimizedAffinity -1.09016001
REMARK minimizedRMSD -1
REMARK  2 active torsions:
REMARK  status: ('A' for Active; 'I' for Inactive)
REMARK    1  A    between atoms: C2'_3  and  C1'_4 
REMARK    2  A    between atoms: C1'_4  and  C1_5 
ROOT
ATOM      1  C1  I4B d   1       1.287  -1.672   0.406  0.00  0.00    -0.075 A 
ATOM      2  C2  I4B d   1       1.442  -0.811   1.463  0.00  0.00     0.003 A 
ATOM      3  C3  I4B d   1       0.372   0.024   1.865  0.00  0.00     0.002 A 
ATOM      4  C4  I4B d   1      -0.812   0.001   1.156  0.00  0.00    -0.004 A 
ATOM      5  C5  I4B d   1      -0.976  -0.890   0.099  0.00  0.00     0.002 A 
ATOM      6  C6  I4B d   1       0.076  -1.741  -0.271  0.00  0.00     0.003 A 
ENDROOT
BRANCH   1   7
ATOM      7  C1' I4B d   1       2.449  -2.516  -0.013  0.00  0.00     0.060 C 
BRANCH   7   8
ATOM      8  C2' I4B d   1       2.041  -3.969   0.115  0.00  0.00    -0.013 C 
ATOM      9  C4' I4B d   1       1.182  -4.399  -1.045  0.00  0.00     0.013 C 
ATOM     10  C3' I4B d   1       3.290  -4.795   0.199  0.00  0.00     0.013 C 
ENDBRANCH   7   8
ENDBRANCH   1   7
TORSDOF 2
ENDMDL
