MODEL 1
REMARK minimizedAffinity 4.70583582
REMARK minimizedRMSD -1
REMARK  2 active torsions:
REMARK  status: ('A' for Active; 'I' for Inactive)
REMARK    1  A    between atoms: C2'_3  and  C1'_4 
REMARK    2  A    between atoms: C1'_4  and  C1_5 
ROOT
ATOM      1  C1  I4B d   1       1.850  -3.861  -0.128  0.00  0.00    -0.075 A 
ATOM      2  C2  I4B d   1       2.149  -2.883   0.788  0.00  0.00     0.003 A 
ATOM      3  C3  I4B d   1       1.192  -1.888   1.105  0.00  0.00     0.002 A 
ATOM      4  C4  I4B d   1      -0.022  -1.879   0.450  0.00  0.00    -0.004 A 
ATOM      5  C5  I4B d   1      -0.331  -2.884  -0.461  0.00  0.00     0.002 A 
ATOM      6  C6  I4B d   1       0.606  -3.889  -0.744  0.00  0.00     0.003 A 
ENDROOT
BRANCH   1   7
ATOM      7  C1' I4B d   1       2.896  -4.877  -0.464  0.00  0.00     0.060 C 
BRANCH   7   8
ATOM      8  C2' I4B d   1       4.044  -4.704   0.509  0.00  0.00    -0.013 C 
ATOM      9  C4' I4B d   1       4.784  -6.000   0.715  0.00  0.00     0.013 C 
ATOM     10  C3' I4B d   1       4.953  -3.641  -0.031  0.00  0.00     0.013 C 
ENDBRANCH   7   8
ENDBRANCH   1   7
TORSDOF 2
ENDMDL
