MODEL 1
REMARK minimizedAffinity 0.844549477
REMARK minimizedRMSD -1
REMARK  2 active torsions:
REMARK  status: ('A' for Active; 'I' for Inactive)
REMARK    1  A    between atoms: C2'_3  and  C1'_4 
REMARK    2  A    between atoms: C1'_4  and  C1_5 
ROOT
ATOM      1  C1  I4B d   1       0.866  -1.423   0.588  0.00  0.00    -0.075 A 
ATOM      2  C2  I4B d   1      -0.390  -1.752   0.142  0.00  0.00     0.003 A 
ATOM      3  C3  I4B d   1      -1.507  -0.965   0.514  0.00  0.00     0.002 A 
ATOM      4  C4  I4B d   1      -1.332   0.104   1.368  0.00  0.00    -0.004 A 
ATOM      5  C5  I4B d   1      -0.055   0.449   1.801  0.00  0.00     0.002 A 
ATOM      6  C6  I4B d   1       1.053  -0.311   1.399  0.00  0.00     0.003 A 
ENDROOT
BRANCH   1   7
ATOM      7  C1' I4B d   1       2.019  -2.295   0.203  0.00  0.00     0.060 C 
BRANCH   7   8
ATOM      8  C2' I4B d   1       1.585  -3.738   0.360  0.00  0.00    -0.013 C 
ATOM      9  C4' I4B d   1       2.730  -4.682   0.101  0.00  0.00     0.013 C 
ATOM     10  C3' I4B d   1       1.044  -3.911   1.748  0.00  0.00     0.013 C 
ENDBRANCH   7   8
ENDBRANCH   1   7
TORSDOF 2
ENDMDL
