MODEL 1
REMARK minimizedAffinity 3.42356944
REMARK minimizedRMSD -1
REMARK  2 active torsions:
REMARK  status: ('A' for Active; 'I' for Inactive)
REMARK    1  A    between atoms: C2'_3  and  C1'_4 
REMARK    2  A    between atoms: C1'_4  and  C1_5 
ROOT
ATOM      1  C1  I4B d   1       1.526  -1.194   0.730  0.00  0.00    -0.075 A 
ATOM      2  C2  I4B d   1       2.160  -2.400   0.566  0.00  0.00     0.003 A 
ATOM      3  C3  I4B d   1       1.416  -3.604   0.575  0.00  0.00     0.002 A 
ATOM      4  C4  I4B d   1       0.055  -3.560   0.802  0.00  0.00    -0.004 A 
ATOM      5  C5  I4B d   1      -0.589  -2.335   0.946  0.00  0.00     0.002 A 
ATOM      6  C6  I4B d   1       0.149  -1.143   0.898  0.00  0.00     0.003 A 
ENDROOT
BRANCH   1   7
ATOM      7  C1' I4B d   1       2.348   0.056   0.748  0.00  0.00     0.060 C 
BRANCH   7   8
ATOM      8  C2' I4B d   1       2.900   0.232   2.148  0.00  0.00    -0.013 C 
ATOM      9  C4' I4B d   1       4.143  -0.593   2.351  0.00  0.00     0.013 C 
ATOM     10  C3' I4B d   1       3.179   1.691   2.355  0.00  0.00     0.013 C 
ENDBRANCH   7   8
ENDBRANCH   1   7
TORSDOF 2
ENDMDL
