MODEL 1
REMARK minimizedAffinity 3.92524648
REMARK minimizedRMSD -1
REMARK  2 active torsions:
REMARK  status: ('A' for Active; 'I' for Inactive)
REMARK    1  A    between atoms: C2'_3  and  C1'_4 
REMARK    2  A    between atoms: C1'_4  and  C1_5 
ROOT
ATOM      1  C1  I4B d   1       3.166  -4.231   0.170  0.00  0.00    -0.075 A 
ATOM      2  C2  I4B d   1       1.806  -4.172   0.340  0.00  0.00     0.003 A 
ATOM      3  C3  I4B d   1       1.133  -2.928   0.276  0.00  0.00     0.002 A 
ATOM      4  C4  I4B d   1       1.861  -1.770   0.091  0.00  0.00    -0.004 A 
ATOM      5  C5  I4B d   1       3.237  -1.834  -0.105  0.00  0.00     0.002 A 
ATOM      6  C6  I4B d   1       3.893  -3.074  -0.078  0.00  0.00     0.003 A 
ENDROOT
BRANCH   1   7
ATOM      7  C1' I4B d   1       3.849  -5.558   0.276  0.00  0.00     0.060 C 
BRANCH   7   8
ATOM      8  C2' I4B d   1       5.345  -5.316   0.253  0.00  0.00    -0.013 C 
ATOM      9  C4' I4B d   1       5.999  -5.829   1.509  0.00  0.00     0.013 C 
ATOM     10  C3' I4B d   1       5.904  -5.991  -0.964  0.00  0.00     0.013 C 
ENDBRANCH   7   8
ENDBRANCH   1   7
TORSDOF 2
ENDMDL
