MODEL 1
REMARK minimizedAffinity -1.61045563
REMARK minimizedRMSD -1
REMARK  2 active torsions:
REMARK  status: ('A' for Active; 'I' for Inactive)
REMARK    1  A    between atoms: C2'_3  and  C1'_4 
REMARK    2  A    between atoms: C1'_4  and  C1_5 
ROOT
ATOM      1  C1  I4B d   1       1.407  -1.527   0.501  0.00  0.00    -0.075 A 
ATOM      2  C2  I4B d   1       2.744  -1.414   0.212  0.00  0.00     0.003 A 
ATOM      3  C3  I4B d   1       3.501  -2.562  -0.124  0.00  0.00     0.002 A 
ATOM      4  C4  I4B d   1       2.896  -3.803  -0.109  0.00  0.00    -0.004 A 
ATOM      5  C5  I4B d   1       1.535  -3.913   0.161  0.00  0.00     0.002 A 
ATOM      6  C6  I4B d   1       0.782  -2.766   0.456  0.00  0.00     0.003 A 
ENDROOT
BRANCH   1   7
ATOM      7  C1' I4B d   1       0.646  -0.297   0.883  0.00  0.00     0.060 C 
BRANCH   7   8
ATOM      8  C2' I4B d   1      -0.548  -0.726   1.712  0.00  0.00    -0.013 C 
ATOM      9  C4' I4B d   1      -0.917   0.327   2.723  0.00  0.00     0.013 C 
ATOM     10  C3' I4B d   1      -1.687  -1.000   0.775  0.00  0.00     0.013 C 
ENDBRANCH   7   8
ENDBRANCH   1   7
TORSDOF 2
ENDMDL
