MODEL 1
REMARK minimizedAffinity -0.750393748
REMARK minimizedRMSD -1
REMARK  2 active torsions:
REMARK  status: ('A' for Active; 'I' for Inactive)
REMARK    1  A    between atoms: C2'_3  and  C1'_4 
REMARK    2  A    between atoms: C1'_4  and  C1_5 
ROOT
ATOM      1  C1  I4B d   1       0.899  -2.328   0.395  0.00  0.00    -0.075 A 
ATOM      2  C2  I4B d   1      -0.439  -2.140   0.152  0.00  0.00     0.003 A 
ATOM      3  C3  I4B d   1      -1.115  -1.028   0.710  0.00  0.00     0.002 A 
ATOM      4  C4  I4B d   1      -0.432  -0.163   1.540  0.00  0.00    -0.004 A 
ATOM      5  C5  I4B d   1       0.930  -0.342   1.766  0.00  0.00     0.002 A 
ATOM      6  C6  I4B d   1       1.603  -1.424   1.181  0.00  0.00     0.003 A 
ENDROOT
BRANCH   1   7
ATOM      7  C1' I4B d   1       1.575  -3.531  -0.183  0.00  0.00     0.060 C 
BRANCH   7   8
ATOM      8  C2' I4B d   1       2.968  -3.613   0.409  0.00  0.00    -0.013 C 
ATOM      9  C4' I4B d   1       3.712  -4.814  -0.113  0.00  0.00     0.013 C 
ATOM     10  C3' I4B d   1       3.689  -2.341   0.074  0.00  0.00     0.013 C 
ENDBRANCH   7   8
ENDBRANCH   1   7
TORSDOF 2
ENDMDL
