MODEL 1
REMARK minimizedAffinity 2.54360914
REMARK minimizedRMSD -1
REMARK  2 active torsions:
REMARK  status: ('A' for Active; 'I' for Inactive)
REMARK    1  A    between atoms: C2'_3  and  C1'_4 
REMARK    2  A    between atoms: C1'_4  and  C1_5 
ROOT
ATOM      1  C1  I4B d   1       2.621  -3.916  -0.072  0.00  0.00    -0.075 A 
ATOM      2  C2  I4B d   1       3.150  -2.661   0.100  0.00  0.00     0.003 A 
ATOM      3  C3  I4B d   1       2.298  -1.556   0.340  0.00  0.00     0.002 A 
ATOM      4  C4  I4B d   1       0.931  -1.740   0.349  0.00  0.00    -0.004 A 
ATOM      5  C5  I4B d   1       0.397  -3.017   0.197  0.00  0.00     0.002 A 
ATOM      6  C6  I4B d   1       1.248  -4.114  -0.003  0.00  0.00     0.003 A 
ENDROOT
BRANCH   1   7
ATOM      7  C1' I4B d   1       3.547  -5.056  -0.356  0.00  0.00     0.060 C 
BRANCH   7   8
ATOM      8  C2' I4B d   1       4.884  -4.741   0.283  0.00  0.00    -0.013 C 
ATOM      9  C4' I4B d   1       5.580  -5.997   0.738  0.00  0.00     0.013 C 
ATOM     10  C3' I4B d   1       5.713  -3.997  -0.722  0.00  0.00     0.013 C 
ENDBRANCH   7   8
ENDBRANCH   1   7
TORSDOF 2
ENDMDL
