MODEL 1
REMARK minimizedAffinity 1.61826992
REMARK minimizedRMSD -1
REMARK  2 active torsions:
REMARK  status: ('A' for Active; 'I' for Inactive)
REMARK    1  A    between atoms: C2'_3  and  C1'_4 
REMARK    2  A    between atoms: C1'_4  and  C1_5 
ROOT
ATOM      1  C1  I4B d   1       2.102   3.428  -4.559  0.00  0.00    -0.075 A 
ATOM      2  C2  I4B d   1       3.329   3.227  -3.979  0.00  0.00     0.003 A 
ATOM      3  C3  I4B d   1       3.781   1.914  -3.703  0.00  0.00     0.002 A 
ATOM      4  C4  I4B d   1       2.956   0.841  -3.974  0.00  0.00    -0.004 A 
ATOM      5  C5  I4B d   1       1.722   1.045  -4.583  0.00  0.00     0.002 A 
ATOM      6  C6  I4B d   1       1.296   2.346  -4.889  0.00  0.00     0.003 A 
ENDROOT
BRANCH   1   7
ATOM      7  C1' I4B d   1       1.643   4.830  -4.808  0.00  0.00     0.060 C 
BRANCH   7   8
ATOM      8  C2' I4B d   1       0.128   4.831  -4.813  0.00  0.00    -0.013 C 
ATOM      9  C4' I4B d   1      -0.423   5.137  -3.445  0.00  0.00     0.013 C 
ATOM     10  C3' I4B d   1      -0.331   5.843  -5.820  0.00  0.00     0.013 C 
ENDBRANCH   7   8
ENDBRANCH   1   7
TORSDOF 2
ENDMDL
