MODEL 1
REMARK minimizedAffinity 4.52047539
REMARK minimizedRMSD -1
REMARK  2 active torsions:
REMARK  status: ('A' for Active; 'I' for Inactive)
REMARK    1  A    between atoms: C2'_3  and  C1'_4 
REMARK    2  A    between atoms: C1'_4  and  C1_5 
ROOT
ATOM      1  C1  I4B d   1       1.996  -0.480  -0.630  0.00  0.00    -0.075 A 
ATOM      2  C2  I4B d   1       2.182  -0.148   0.689  0.00  0.00     0.003 A 
ATOM      3  C3  I4B d   1       1.211  -0.504   1.656  0.00  0.00     0.002 A 
ATOM      4  C4  I4B d   1       0.055  -1.141   1.257  0.00  0.00    -0.004 A 
ATOM      5  C5  I4B d   1      -0.121  -1.497  -0.077  0.00  0.00     0.002 A 
ATOM      6  C6  I4B d   1       0.861  -1.176  -1.025  0.00  0.00     0.003 A 
ENDROOT
BRANCH   1   7
ATOM      7  C1' I4B d   1       3.026  -0.061  -1.631  0.00  0.00     0.060 C 
BRANCH   7   8
ATOM      8  C2' I4B d   1       2.304   0.527  -2.826  0.00  0.00    -0.013 C 
ATOM      9  C4' I4B d   1       3.036   1.725  -3.371  0.00  0.00     0.013 C 
ATOM     10  C3' I4B d   1       2.176  -0.547  -3.864  0.00  0.00     0.013 C 
ENDBRANCH   7   8
ENDBRANCH   1   7
TORSDOF 2
ENDMDL
