MODEL 1
REMARK minimizedAffinity 14.3451338
REMARK minimizedRMSD -1
REMARK  0 active torsions:
REMARK  status: ('A' for Active; 'I' for Inactive)
ROOT
ATOM      1  C   UNL d   1      -2.802  -1.054   0.817  0.00  0.00     0.023 A 
ATOM      2  C1  UNL d   1      -2.161  -0.053   1.546  0.00  0.00     0.003 A 
ATOM      3  C2  UNL d   1      -0.863  -0.255   2.021  0.00  0.00     0.048 A 
ATOM      4  C3  UNL d   1      -0.212  -1.461   1.762  0.00  0.00     0.023 A 
ATOM      5  C4  UNL d   1      -0.850  -2.465   1.032  0.00  0.00     0.048 A 
ATOM      6  C5  UNL d   1      -2.148  -2.259   0.560  0.00  0.00     0.003 A 
ATOM      7  I   UNL d   1       1.719  -1.764   2.467  0.00  0.00    -0.146 I 
ENDROOT
TORSDOF 0
ENDMDL
