MODEL 1
REMARK minimizedAffinity 8.6829834
REMARK minimizedRMSD -1
REMARK  0 active torsions:
REMARK  status: ('A' for Active; 'I' for Inactive)
ROOT
ATOM      1  C   UNL d   1      -2.322  -6.000  -5.999  0.00  0.00     0.023 A 
ATOM      2  C1  UNL d   1      -1.151  -5.241  -5.996  0.00  0.00     0.003 A 
ATOM      3  C2  UNL d   1      -0.814  -4.479  -4.875  0.00  0.00     0.048 A 
ATOM      4  C3  UNL d   1      -1.651  -4.482  -3.760  0.00  0.00     0.023 A 
ATOM      5  C4  UNL d   1      -2.823  -5.240  -3.758  0.00  0.00     0.048 A 
ATOM      6  C5  UNL d   1      -3.157  -6.000  -4.881  0.00  0.00     0.003 A 
ATOM      7  I   UNL d   1      -1.151  -3.349  -2.091  0.00  0.00    -0.146 I 
ENDROOT
TORSDOF 0
ENDMDL
