MODEL 1
REMARK minimizedAffinity 13.9858837
REMARK minimizedRMSD -1
REMARK  0 active torsions:
REMARK  status: ('A' for Active; 'I' for Inactive)
ROOT
ATOM      1  C   UNL d   1       1.837   2.094  -2.627  0.00  0.00     0.023 A 
ATOM      2  C1  UNL d   1       2.564   1.878  -1.456  0.00  0.00     0.003 A 
ATOM      3  C2  UNL d   1       3.759   2.566  -1.237  0.00  0.00     0.048 A 
ATOM      4  C3  UNL d   1       4.221   3.470  -2.194  0.00  0.00     0.023 A 
ATOM      5  C4  UNL d   1       3.497   3.690  -3.366  0.00  0.00     0.048 A 
ATOM      6  C5  UNL d   1       2.303   2.999  -3.581  0.00  0.00     0.003 A 
ATOM      7  I   UNL d   1       6.000   4.495  -1.871  0.00  0.00    -0.146 I 
ENDROOT
TORSDOF 0
ENDMDL
