MODEL 1
REMARK minimizedAffinity 4.14872885
REMARK minimizedRMSD -1
REMARK  0 active torsions:
REMARK  status: ('A' for Active; 'I' for Inactive)
ROOT
ATOM      1  C   UNL d   1      -0.448  -1.354   2.013  0.00  0.00     0.023 A 
ATOM      2  C1  UNL d   1      -1.568  -2.175   1.888  0.00  0.00     0.003 A 
ATOM      3  C2  UNL d   1      -2.761  -1.659   1.377  0.00  0.00     0.048 A 
ATOM      4  C3  UNL d   1      -2.825  -0.320   0.990  0.00  0.00     0.023 A 
ATOM      5  C4  UNL d   1      -1.705   0.505   1.113  0.00  0.00     0.048 A 
ATOM      6  C5  UNL d   1      -0.516  -0.016   1.626  0.00  0.00     0.003 A 
ATOM      7  I   UNL d   1      -4.598   0.451   0.228  0.00  0.00    -0.146 I 
ENDROOT
TORSDOF 0
ENDMDL
