MODEL 1
REMARK minimizedAffinity 2.61382484
REMARK minimizedRMSD -1
REMARK  0 active torsions:
REMARK  status: ('A' for Active; 'I' for Inactive)
ROOT
ATOM      1  C   UNL d   1      -3.318   0.239   1.733  0.00  0.00     0.023 A 
ATOM      2  C1  UNL d   1      -4.612   0.718   1.531  0.00  0.00     0.003 A 
ATOM      3  C2  UNL d   1      -5.295   1.348   2.574  0.00  0.00     0.048 A 
ATOM      4  C3  UNL d   1      -4.678   1.496   3.815  0.00  0.00     0.023 A 
ATOM      5  C4  UNL d   1      -3.382   1.019   4.021  0.00  0.00     0.048 A 
ATOM      6  C5  UNL d   1      -2.703   0.389   2.977  0.00  0.00     0.003 A 
ATOM      7  I   UNL d   1      -5.692   2.434   5.368  0.00  0.00    -0.146 I 
ENDROOT
TORSDOF 0
ENDMDL
