MODEL 1
REMARK minimizedAffinity 11.7336836
REMARK minimizedRMSD -1
REMARK  0 active torsions:
REMARK  status: ('A' for Active; 'I' for Inactive)
ROOT
ATOM      1  C   UNL d   1       2.957   1.641  -1.837  0.00  0.00     0.023 A 
ATOM      2  C1  UNL d   1       3.258   2.601  -2.803  0.00  0.00     0.003 A 
ATOM      3  C2  UNL d   1       2.640   3.852  -2.762  0.00  0.00     0.048 A 
ATOM      4  C3  UNL d   1       1.722   4.137  -1.752  0.00  0.00     0.023 A 
ATOM      5  C4  UNL d   1       1.418   3.180  -0.783  0.00  0.00     0.048 A 
ATOM      6  C5  UNL d   1       2.038   1.930  -0.828  0.00  0.00     0.003 A 
ATOM      7  I   UNL d   1       0.801   5.999  -1.690  0.00  0.00    -0.146 I 
ENDROOT
TORSDOF 0
ENDMDL
