MODEL 1
REMARK minimizedAffinity 9.53839588
REMARK minimizedRMSD -1
REMARK  0 active torsions:
REMARK  status: ('A' for Active; 'I' for Inactive)
ROOT
ATOM      1  C   UNL d   1       4.190   3.593  -4.516  0.00  0.00     0.023 A 
ATOM      2  C1  UNL d   1       3.395   3.742  -3.379  0.00  0.00     0.003 A 
ATOM      3  C2  UNL d   1       3.887   4.428  -2.267  0.00  0.00     0.048 A 
ATOM      4  C3  UNL d   1       5.174   4.964  -2.299  0.00  0.00     0.023 A 
ATOM      5  C4  UNL d   1       5.972   4.818  -3.434  0.00  0.00     0.048 A 
ATOM      6  C5  UNL d   1       5.476   4.131  -4.544  0.00  0.00     0.003 A 
ATOM      7  I   UNL d   1       5.909   5.986  -0.645  0.00  0.00    -0.146 I 
ENDROOT
TORSDOF 0
ENDMDL
