MODEL 1
REMARK minimizedAffinity 15.4020452
REMARK minimizedRMSD -1
REMARK  0 active torsions:
REMARK  status: ('A' for Active; 'I' for Inactive)
ROOT
ATOM      1  C   UNL d   1       2.548   1.977  -1.707  0.00  0.00     0.023 A 
ATOM      2  C1  UNL d   1       1.187   1.975  -1.403  0.00  0.00     0.003 A 
ATOM      3  C2  UNL d   1       0.297   2.726  -2.174  0.00  0.00     0.048 A 
ATOM      4  C3  UNL d   1       0.775   3.476  -3.248  0.00  0.00     0.023 A 
ATOM      5  C4  UNL d   1       2.137   3.480  -3.556  0.00  0.00     0.048 A 
ATOM      6  C5  UNL d   1       3.023   2.729  -2.782  0.00  0.00     0.003 A 
ATOM      7  I   UNL d   1      -0.547   4.594  -4.397  0.00  0.00    -0.146 I 
ENDROOT
TORSDOF 0
ENDMDL
