MODEL 1
REMARK minimizedAffinity 15.4332027
REMARK minimizedRMSD -1
REMARK  0 active torsions:
REMARK  status: ('A' for Active; 'I' for Inactive)
ROOT
ATOM      1  C   UNL d   1      -0.832  -3.471   0.840  0.00  0.00     0.023 A 
ATOM      2  C1  UNL d   1      -2.167  -3.070   0.818  0.00  0.00     0.003 A 
ATOM      3  C2  UNL d   1      -2.557  -1.898   1.470  0.00  0.00     0.048 A 
ATOM      4  C3  UNL d   1      -1.605  -1.132   2.142  0.00  0.00     0.023 A 
ATOM      5  C4  UNL d   1      -0.267  -1.529   2.166  0.00  0.00     0.048 A 
ATOM      6  C5  UNL d   1       0.117  -2.702   1.513  0.00  0.00     0.003 A 
ATOM      7  I   UNL d   1      -2.181   0.613   3.113  0.00  0.00    -0.146 I 
ENDROOT
TORSDOF 0
ENDMDL
