MODEL 1
REMARK minimizedAffinity 11.043314
REMARK minimizedRMSD -1
REMARK  0 active torsions:
REMARK  status: ('A' for Active; 'I' for Inactive)
ROOT
ATOM      1  C   UNL d   1      -2.773  -1.777   1.601  0.00  0.00     0.023 A 
ATOM      2  C1  UNL d   1      -2.311  -0.860   2.544  0.00  0.00     0.003 A 
ATOM      3  C2  UNL d   1      -1.014  -0.969   3.050  0.00  0.00     0.048 A 
ATOM      4  C3  UNL d   1      -0.183  -1.998   2.607  0.00  0.00     0.023 A 
ATOM      5  C4  UNL d   1      -0.641  -2.918   1.662  0.00  0.00     0.048 A 
ATOM      6  C5  UNL d   1      -1.939  -2.805   1.160  0.00  0.00     0.003 A 
ATOM      7  I   UNL d   1       1.748  -2.163   3.357  0.00  0.00    -0.146 I 
ENDROOT
TORSDOF 0
ENDMDL
