MODEL 1
REMARK minimizedAffinity 14.9199123
REMARK minimizedRMSD -1
REMARK  0 active torsions:
REMARK  status: ('A' for Active; 'I' for Inactive)
ROOT
ATOM      1  C   UNL d   1      -2.857  -3.193   1.008  0.00  0.00     0.023 A 
ATOM      2  C1  UNL d   1      -1.840  -4.132   0.831  0.00  0.00     0.003 A 
ATOM      3  C2  UNL d   1      -0.595  -3.935   1.432  0.00  0.00     0.048 A 
ATOM      4  C3  UNL d   1      -0.373  -2.799   2.209  0.00  0.00     0.023 A 
ATOM      5  C4  UNL d   1      -1.388  -1.858   2.390  0.00  0.00     0.048 A 
ATOM      6  C5  UNL d   1      -2.632  -2.058   1.787  0.00  0.00     0.003 A 
ATOM      7  I   UNL d   1       1.479  -2.504   3.104  0.00  0.00    -0.146 I 
ENDROOT
TORSDOF 0
ENDMDL
