MODEL 1
REMARK minimizedAffinity 4.60965347
REMARK minimizedRMSD -1
REMARK  0 active torsions:
REMARK  status: ('A' for Active; 'I' for Inactive)
ROOT
ATOM      1  C   UNL d   1       3.507   0.001  -3.373  0.00  0.00     0.023 A 
ATOM      2  C1  UNL d   1       4.854   0.015  -3.734  0.00  0.00     0.003 A 
ATOM      3  C2  UNL d   1       5.571   1.213  -3.717  0.00  0.00     0.048 A 
ATOM      4  C3  UNL d   1       4.935   2.394  -3.336  0.00  0.00     0.023 A 
ATOM      5  C4  UNL d   1       3.587   2.385  -2.973  0.00  0.00     0.048 A 
ATOM      6  C5  UNL d   1       2.874   1.185  -2.993  0.00  0.00     0.003 A 
ATOM      7  I   UNL d   1       6.000   4.178  -3.309  0.00  0.00    -0.146 I 
ENDROOT
TORSDOF 0
ENDMDL
