MODEL 1
REMARK minimizedAffinity -4.1740427
REMARK minimizedRMSD -1
REMARK  0 active torsions:
REMARK  status: ('A' for Active; 'I' for Inactive)
ROOT
ATOM      1  C4' PXY d   1      -1.230  -0.183   1.606  0.00  0.00     0.077 C 
ATOM      2  C1' PXY d   1       1.865  -0.484  -3.267  0.00  0.00     0.077 C 
ATOM      3  C1  PXY d   1       1.047  -0.416  -1.992  0.00  0.00    -0.082 A 
ATOM      4  C2  PXY d   1       0.805   0.757  -1.432  0.00  0.00     0.003 A 
ATOM      5  C3  PXY d   1       0.095   0.834  -0.262  0.00  0.00     0.003 A 
ATOM      6  C4  PXY d   1      -0.418  -0.298   0.313  0.00  0.00    -0.082 A 
ATOM      7  C5  PXY d   1      -0.184  -1.499  -0.258  0.00  0.00     0.003 A 
ATOM      8  C6  PXY d   1       0.574  -1.559  -1.424  0.00  0.00     0.003 A 
ENDROOT
TORSDOF 0
ENDMDL
