MODEL 1
REMARK minimizedAffinity -2.42028713
REMARK minimizedRMSD -1
REMARK  0 active torsions:
REMARK  status: ('A' for Active; 'I' for Inactive)
ROOT
ATOM      1  C4' PXY d   1      -1.098  -1.121   1.195  0.00  0.00     0.077 C 
ATOM      2  C1' PXY d   1      -3.478   3.246   4.141  0.00  0.00     0.077 C 
ATOM      3  C1  PXY d   1      -2.842   2.107   3.370  0.00  0.00    -0.082 A 
ATOM      4  C2  PXY d   1      -3.572   1.407   2.516  0.00  0.00     0.003 A 
ATOM      5  C3  PXY d   1      -3.021   0.353   1.834  0.00  0.00     0.003 A 
ATOM      6  C4  PXY d   1      -1.696   0.045   1.988  0.00  0.00    -0.082 A 
ATOM      7  C5  PXY d   1      -0.942   0.760   2.849  0.00  0.00     0.003 A 
ATOM      8  C6  PXY d   1      -1.530   1.801   3.562  0.00  0.00     0.003 A 
ENDROOT
TORSDOF 0
ENDMDL
