MODEL 1
REMARK minimizedAffinity -4.01767683
REMARK minimizedRMSD -1
REMARK  0 active torsions:
REMARK  status: ('A' for Active; 'I' for Inactive)
ROOT
ATOM      1  C4' PXY d   1       2.731   0.467  -1.875  0.00  0.00     0.077 C 
ATOM      2  C1' PXY d   1      -2.262  -0.131   0.977  0.00  0.00     0.077 C 
ATOM      3  C1  PXY d   1      -0.956   0.016   0.221  0.00  0.00    -0.082 A 
ATOM      4  C2  PXY d   1       0.089   0.561   0.821  0.00  0.00     0.003 A 
ATOM      5  C3  PXY d   1       1.268   0.731   0.142  0.00  0.00     0.003 A 
ATOM      6  C4  PXY d   1       1.395   0.290  -1.148  0.00  0.00    -0.082 A 
ATOM      7  C5  PXY d   1       0.336  -0.277  -1.764  0.00  0.00     0.003 A 
ATOM      8  C6  PXY d   1      -0.865  -0.403  -1.071  0.00  0.00     0.003 A 
ENDROOT
TORSDOF 0
ENDMDL
