MODEL 1
REMARK minimizedAffinity -2.49002147
REMARK minimizedRMSD -1
REMARK  0 active torsions:
REMARK  status: ('A' for Active; 'I' for Inactive)
ROOT
ATOM      1  C4' PXY d   1       0.334   0.541  -1.175  0.00  0.00     0.077 C 
ATOM      2  C1' PXY d   1       2.034   1.962   4.164  0.00  0.00     0.077 C 
ATOM      3  C1  PXY d   1       1.583   1.578   2.769  0.00  0.00    -0.082 A 
ATOM      4  C2  PXY d   1       2.213   2.077   1.717  0.00  0.00     0.003 A 
ATOM      5  C3  PXY d   1       1.798   1.766   0.448  0.00  0.00     0.003 A 
ATOM      6  C4  PXY d   1       0.761   0.894   0.253  0.00  0.00    -0.082 A 
ATOM      7  C5  PXY d   1       0.120   0.372   1.320  0.00  0.00     0.003 A 
ATOM      8  C6  PXY d   1       0.530   0.733   2.600  0.00  0.00     0.003 A 
ENDROOT
TORSDOF 0
ENDMDL
