MODEL 1
REMARK minimizedAffinity -1.51123416
REMARK minimizedRMSD -1
REMARK  0 active torsions:
REMARK  status: ('A' for Active; 'I' for Inactive)
ROOT
ATOM      1  C4' PXY d   1      -0.907  -0.589   0.687  0.00  0.00     0.077 C 
ATOM      2  C1' PXY d   1      -3.719   2.941   4.299  0.00  0.00     0.077 C 
ATOM      3  C1  PXY d   1      -2.993   2.011   3.347  0.00  0.00    -0.082 A 
ATOM      4  C2  PXY d   1      -1.749   1.646   3.612  0.00  0.00     0.003 A 
ATOM      5  C3  PXY d   1      -1.067   0.831   2.745  0.00  0.00     0.003 A 
ATOM      6  C4  PXY d   1      -1.682   0.341   1.624  0.00  0.00    -0.082 A 
ATOM      7  C5  PXY d   1      -2.955   0.700   1.354  0.00  0.00     0.003 A 
ATOM      8  C6  PXY d   1      -3.616   1.562   2.224  0.00  0.00     0.003 A 
ENDROOT
TORSDOF 0
ENDMDL
