MODEL 1
REMARK minimizedAffinity -4.79495049
REMARK minimizedRMSD -1
REMARK  0 active torsions:
REMARK  status: ('A' for Active; 'I' for Inactive)
ROOT
ATOM      1  C4' PXY d   1       2.171  -0.027  -2.836  0.00  0.00     0.077 C 
ATOM      2  C1' PXY d   1      -1.180   0.429   1.852  0.00  0.00     0.077 C 
ATOM      3  C1  PXY d   1      -0.300   0.297   0.624  0.00  0.00    -0.082 A 
ATOM      4  C2  PXY d   1       0.431   1.326   0.229  0.00  0.00     0.003 A 
ATOM      5  C3  PXY d   1       1.207   1.234  -0.897  0.00  0.00     0.003 A 
ATOM      6  C4  PXY d   1       1.276   0.059  -1.597  0.00  0.00    -0.082 A 
ATOM      7  C5  PXY d   1       0.541  -1.000  -1.194  0.00  0.00     0.003 A 
ATOM      8  C6  PXY d   1      -0.272  -0.873  -0.071  0.00  0.00     0.003 A 
ENDROOT
TORSDOF 0
ENDMDL
