MODEL 1
REMARK minimizedAffinity 6.53682566
REMARK minimizedRMSD -1
REMARK  0 active torsions:
REMARK  status: ('A' for Active; 'I' for Inactive)
ROOT
ATOM      1  C4' PXY d   1       0.463  -1.602  -0.729  0.00  0.00     0.077 C 
ATOM      2  C1' PXY d   1      -4.175   0.871   1.677  0.00  0.00     0.077 C 
ATOM      3  C1  PXY d   1      -2.953   0.235   1.045  0.00  0.00    -0.082 A 
ATOM      4  C2  PXY d   1      -3.054  -0.961   0.486  0.00  0.00     0.003 A 
ATOM      5  C3  PXY d   1      -1.952  -1.565  -0.063  0.00  0.00     0.003 A 
ATOM      6  C4  PXY d   1      -0.746  -0.917  -0.087  0.00  0.00    -0.082 A 
ATOM      7  C5  PXY d   1      -0.638   0.307   0.472  0.00  0.00     0.003 A 
ATOM      8  C6  PXY d   1      -1.759   0.886   1.060  0.00  0.00     0.003 A 
ENDROOT
TORSDOF 0
ENDMDL
