MODEL 1
REMARK minimizedAffinity -2.56248641
REMARK minimizedRMSD -1
REMARK  0 active torsions:
REMARK  status: ('A' for Active; 'I' for Inactive)
ROOT
ATOM      1  C4' PXY d   1      -2.014  -0.313   1.570  0.00  0.00     0.077 C 
ATOM      2  C1' PXY d   1       2.394  -0.182  -2.167  0.00  0.00     0.077 C 
ATOM      3  C1  PXY d   1       1.246  -0.211  -1.178  0.00  0.00    -0.082 A 
ATOM      4  C2  PXY d   1       0.293  -1.120  -1.308  0.00  0.00     0.003 A 
ATOM      5  C3  PXY d   1      -0.769  -1.140  -0.441  0.00  0.00     0.003 A 
ATOM      6  C4  PXY d   1      -0.831  -0.253   0.600  0.00  0.00    -0.082 A 
ATOM      7  C5  PXY d   1       0.142   0.671   0.746  0.00  0.00     0.003 A 
ATOM      8  C6  PXY d   1       1.191   0.701  -0.169  0.00  0.00     0.003 A 
ENDROOT
TORSDOF 0
ENDMDL
