MODEL 1
REMARK minimizedAffinity -2.12001181
REMARK minimizedRMSD -1
REMARK  0 active torsions:
REMARK  status: ('A' for Active; 'I' for Inactive)
ROOT
ATOM      1  C4' PXY d   1       2.141  -0.045  -2.988  0.00  0.00     0.077 C 
ATOM      2  C1' PXY d   1      -1.326  -1.218   1.486  0.00  0.00     0.077 C 
ATOM      3  C1  PXY d   1      -0.413  -0.923   0.313  0.00  0.00    -0.082 A 
ATOM      4  C2  PXY d   1      -0.030   0.322   0.079  0.00  0.00     0.003 A 
ATOM      5  C3  PXY d   1       0.770   0.611  -0.996  0.00  0.00     0.003 A 
ATOM      6  C4  PXY d   1       1.227  -0.391  -1.809  0.00  0.00    -0.082 A 
ATOM      7  C5  PXY d   1       0.850  -1.665  -1.571  0.00  0.00     0.003 A 
ATOM      8  C6  PXY d   1       0.004  -1.933  -0.499  0.00  0.00     0.003 A 
ENDROOT
TORSDOF 0
ENDMDL
