MODEL 1
REMARK minimizedAffinity -1.67110074
REMARK minimizedRMSD -1
REMARK  0 active torsions:
REMARK  status: ('A' for Active; 'I' for Inactive)
ROOT
ATOM      1  C4' PXY d   1      -0.782  -0.691   0.837  0.00  0.00     0.077 C 
ATOM      2  C1' PXY d   1       2.655   3.271   3.267  0.00  0.00     0.077 C 
ATOM      3  C1  PXY d   1       1.751   2.240   2.619  0.00  0.00    -0.082 A 
ATOM      4  C2  PXY d   1       1.159   1.326   3.370  0.00  0.00     0.003 A 
ATOM      5  C3  PXY d   1       0.364   0.366   2.798  0.00  0.00     0.003 A 
ATOM      6  C4  PXY d   1       0.131   0.375   1.448  0.00  0.00    -0.082 A 
ATOM      7  C5  PXY d   1       0.723   1.311   0.677  0.00  0.00     0.003 A 
ATOM      8  C6  PXY d   1       1.559   2.251   1.272  0.00  0.00     0.003 A 
ENDROOT
TORSDOF 0
ENDMDL
