MODEL 1
REMARK minimizedAffinity -2.16799974
REMARK minimizedRMSD -1
REMARK  0 active torsions:
REMARK  status: ('A' for Active; 'I' for Inactive)
ROOT
ATOM      1  C4' PXY d   1      -0.423  -0.504  -1.151  0.00  0.00     0.077 C 
ATOM      2  C1' PXY d   1       2.237   2.192   3.216  0.00  0.00     0.077 C 
ATOM      3  C1  PXY d   1       1.536   1.476   2.079  0.00  0.00    -0.082 A 
ATOM      4  C2  PXY d   1       1.917   1.698   0.831  0.00  0.00     0.003 A 
ATOM      5  C3  PXY d   1       1.272   1.083  -0.211  0.00  0.00     0.003 A 
ATOM      6  C4  PXY d   1       0.263   0.190   0.029  0.00  0.00    -0.082 A 
ATOM      7  C5  PXY d   1      -0.125  -0.051   1.299  0.00  0.00     0.003 A 
ATOM      8  C6  PXY d   1       0.515   0.615   2.341  0.00  0.00     0.003 A 
ENDROOT
TORSDOF 0
ENDMDL
