MODEL 1
REMARK minimizedAffinity -0.00588385388
REMARK minimizedRMSD -1
REMARK  0 active torsions:
REMARK  status: ('A' for Active; 'I' for Inactive)
ROOT
ATOM      1  C4' PXY d   1      -4.838  -1.779   2.227  0.00  0.00     0.077 C 
ATOM      2  C1' PXY d   1      -0.037   0.925   0.479  0.00  0.00     0.077 C 
ATOM      3  C1  PXY d   1      -1.300   0.227   0.944  0.00  0.00    -0.082 A 
ATOM      4  C2  PXY d   1      -1.335  -1.095   0.997  0.00  0.00     0.003 A 
ATOM      5  C3  PXY d   1      -2.479  -1.744   1.384  0.00  0.00     0.003 A 
ATOM      6  C4  PXY d   1      -3.582  -1.031   1.772  0.00  0.00    -0.082 A 
ATOM      7  C5  PXY d   1      -3.551   0.318   1.731  0.00  0.00     0.003 A 
ATOM      8  C6  PXY d   1      -2.393   0.957   1.296  0.00  0.00     0.003 A 
ENDROOT
TORSDOF 0
ENDMDL
