MODEL 1
REMARK minimizedAffinity 2.49931931
REMARK minimizedRMSD -1
REMARK  0 active torsions:
REMARK  status: ('A' for Active; 'I' for Inactive)
ROOT
ATOM      1  C4' PXY d   1      -1.105  -0.339   0.875  0.00  0.00     0.077 C 
ATOM      2  C1' PXY d   1       2.850   3.056   3.374  0.00  0.00     0.077 C 
ATOM      3  C1  PXY d   1       1.813   2.157   2.729  0.00  0.00    -0.082 A 
ATOM      4  C2  PXY d   1       1.672   2.161   1.413  0.00  0.00     0.003 A 
ATOM      5  C3  PXY d   1       0.717   1.379   0.816  0.00  0.00     0.003 A 
ATOM      6  C4  PXY d   1      -0.065   0.544   1.568  0.00  0.00    -0.082 A 
ATOM      7  C5  PXY d   1       0.081   0.526   2.910  0.00  0.00     0.003 A 
ATOM      8  C6  PXY d   1       1.027   1.359   3.501  0.00  0.00     0.003 A 
ENDROOT
TORSDOF 0
ENDMDL
