MODEL 1
REMARK minimizedAffinity -2.19035602
REMARK minimizedRMSD -1
REMARK  0 active torsions:
REMARK  status: ('A' for Active; 'I' for Inactive)
ROOT
ATOM      1  C4' PXY d   1      -1.956  -0.258   1.550  0.00  0.00     0.077 C 
ATOM      2  C1' PXY d   1       2.039  -0.172  -2.627  0.00  0.00     0.077 C 
ATOM      3  C1  PXY d   1       0.986  -0.205  -1.537  0.00  0.00    -0.082 A 
ATOM      4  C2  PXY d   1       0.686   0.906  -0.884  0.00  0.00     0.003 A 
ATOM      5  C3  PXY d   1      -0.241   0.887   0.127  0.00  0.00     0.003 A 
ATOM      6  C4  PXY d   1      -0.906  -0.269   0.436  0.00  0.00    -0.082 A 
ATOM      7  C5  PXY d   1      -0.613  -1.404  -0.234  0.00  0.00     0.003 A 
ATOM      8  C6  PXY d   1       0.361  -1.373  -1.228  0.00  0.00     0.003 A 
ENDROOT
TORSDOF 0
ENDMDL
