MODEL 1
REMARK minimizedAffinity -5.47773409
REMARK minimizedRMSD -1
REMARK  0 active torsions:
REMARK  status: ('A' for Active; 'I' for Inactive)
ROOT
ATOM      1  C4' PXY d   1      -3.719   0.078   1.481  0.00  0.00     0.077 C 
ATOM      2  C1' PXY d   1       1.514   1.396   3.553  0.00  0.00     0.077 C 
ATOM      3  C1  PXY d   1       0.137   1.054   3.021  0.00  0.00    -0.082 A 
ATOM      4  C2  PXY d   1       0.015   0.185   2.030  0.00  0.00     0.003 A 
ATOM      5  C3  PXY d   1      -1.221  -0.111   1.516  0.00  0.00     0.003 A 
ATOM      6  C4  PXY d   1      -2.348   0.447   2.056  0.00  0.00    -0.082 A 
ATOM      7  C5  PXY d   1      -2.233   1.326   3.074  0.00  0.00     0.003 A 
ATOM      8  C6  PXY d   1      -0.967   1.645   3.555  0.00  0.00     0.003 A 
ENDROOT
TORSDOF 0
ENDMDL
