MODEL 1
REMARK minimizedAffinity -1.32241797
REMARK minimizedRMSD -1
REMARK  0 active torsions:
REMARK  status: ('A' for Active; 'I' for Inactive)
ROOT
ATOM      1  C4' PXY d   1       1.762   1.113   3.086  0.00  0.00     0.077 C 
ATOM      2  C1' PXY d   1      -3.728   0.293   1.472  0.00  0.00     0.077 C 
ATOM      3  C1  PXY d   1      -2.285   0.498   1.888  0.00  0.00    -0.082 A 
ATOM      4  C2  PXY d   1      -2.013   1.098   3.035  0.00  0.00     0.003 A 
ATOM      5  C3  PXY d   1      -0.714   1.320   3.412  0.00  0.00     0.003 A 
ATOM      6  C4  PXY d   1       0.319   0.876   2.630  0.00  0.00    -0.082 A 
ATOM      7  C5  PXY d   1       0.051   0.253   1.463  0.00  0.00     0.003 A 
ATOM      8  C6  PXY d   1      -1.275   0.074   1.080  0.00  0.00     0.003 A 
ENDROOT
TORSDOF 0
ENDMDL
