MODEL 1
REMARK minimizedAffinity -4.27492285
REMARK minimizedRMSD -1
REMARK  0 active torsions:
REMARK  status: ('A' for Active; 'I' for Inactive)
ROOT
ATOM      1  C4' PXY d   1      -0.574  -0.250   0.465  0.00  0.00     0.077 C 
ATOM      2  C1' PXY d   1       2.831   3.583   3.136  0.00  0.00     0.077 C 
ATOM      3  C1  PXY d   1       1.938   2.570   2.446  0.00  0.00    -0.082 A 
ATOM      4  C2  PXY d   1       1.885   2.538   1.125  0.00  0.00     0.003 A 
ATOM      5  C3  PXY d   1       1.059   1.650   0.485  0.00  0.00     0.003 A 
ATOM      6  C4  PXY d   1       0.320   0.750   1.204  0.00  0.00    -0.082 A 
ATOM      7  C5  PXY d   1       0.377   0.769   2.553  0.00  0.00     0.003 A 
ATOM      8  C6  PXY d   1       1.190   1.706   3.184  0.00  0.00     0.003 A 
ENDROOT
TORSDOF 0
ENDMDL
