MODEL 1
REMARK minimizedAffinity -5.19308519
REMARK minimizedRMSD -1
REMARK  0 active torsions:
REMARK  status: ('A' for Active; 'I' for Inactive)
ROOT
ATOM      1  C4' PXY d   1       2.075  -0.295  -3.384  0.00  0.00     0.077 C 
ATOM      2  C1' PXY d   1      -0.608   0.421   1.686  0.00  0.00     0.077 C 
ATOM      3  C1  PXY d   1       0.097   0.246   0.355  0.00  0.00    -0.082 A 
ATOM      4  C2  PXY d   1      -0.085  -0.864  -0.340  0.00  0.00     0.003 A 
ATOM      5  C3  PXY d   1       0.569  -1.052  -1.531  0.00  0.00     0.003 A 
ATOM      6  C4  PXY d   1       1.376  -0.071  -2.040  0.00  0.00    -0.082 A 
ATOM      7  C5  PXY d   1       1.559   1.069  -1.341  0.00  0.00     0.003 A 
ATOM      8  C6  PXY d   1       0.918   1.224  -0.115  0.00  0.00     0.003 A 
ENDROOT
TORSDOF 0
ENDMDL
