MODEL 1
REMARK minimizedAffinity -2.30219769
REMARK minimizedRMSD -1
REMARK  0 active torsions:
REMARK  status: ('A' for Active; 'I' for Inactive)
ROOT
ATOM      1  C4' PXY d   1       0.520  -2.173  -1.962  0.00  0.00     0.077 C 
ATOM      2  C1' PXY d   1       1.920   2.970   0.275  0.00  0.00     0.077 C 
ATOM      3  C1  PXY d   1       1.546   1.618  -0.301  0.00  0.00    -0.082 A 
ATOM      4  C2  PXY d   1       2.286   1.089  -1.262  0.00  0.00     0.003 A 
ATOM      5  C3  PXY d   1       1.944  -0.118  -1.816  0.00  0.00     0.003 A 
ATOM      6  C4  PXY d   1       0.865  -0.815  -1.345  0.00  0.00    -0.082 A 
ATOM      7  C5  PXY d   1       0.111  -0.287  -0.357  0.00  0.00     0.003 A 
ATOM      8  C6  PXY d   1       0.451   0.958   0.163  0.00  0.00     0.003 A 
ENDROOT
TORSDOF 0
ENDMDL
