MODEL 1
REMARK minimizedAffinity -4.18308878
REMARK minimizedRMSD -1
REMARK  0 active torsions:
REMARK  status: ('A' for Active; 'I' for Inactive)
ROOT
ATOM      1  C   UNL d   1      -0.221   0.861   3.565  0.00  0.00    -0.002 A 
ATOM      2  C1  UNL d   1       1.098   0.577   3.240  0.00  0.00     0.010 A 
ATOM      3  C2  UNL d   1       1.450   0.239   1.931  0.00  0.00     0.041 A 
ATOM      4  C3  UNL d   1       0.444   0.192   0.946  0.00  0.00    -0.075 A 
ATOM      5  S   UNL d   1       0.641  -0.197  -0.722  0.00  0.00     0.015 SA
ATOM      6  C4  UNL d   1      -1.020   0.005  -1.043  0.00  0.00     0.022 A 
ATOM      7  C5  UNL d   1      -1.723   0.360   0.084  0.00  0.00     0.026 A 
ATOM      8  C6  UNL d   1      -0.891   0.474   1.249  0.00  0.00    -0.082 A 
ATOM      9  C7  UNL d   1      -1.216   0.813   2.584  0.00  0.00     0.045 A 
ENDROOT
TORSDOF 0
ENDMDL
