MODEL 1
REMARK minimizedAffinity -3.74290633
REMARK minimizedRMSD -1
REMARK  0 active torsions:
REMARK  status: ('A' for Active; 'I' for Inactive)
ROOT
ATOM      1  C   UNL d   1       2.338  -1.480   0.504  0.00  0.00    -0.002 A 
ATOM      2  C1  UNL d   1       1.503  -1.416  -0.603  0.00  0.00     0.010 A 
ATOM      3  C2  UNL d   1       0.355  -0.622  -0.580  0.00  0.00     0.041 A 
ATOM      4  C3  UNL d   1       0.058   0.115   0.583  0.00  0.00    -0.075 A 
ATOM      5  S   UNL d   1      -1.292   1.156   0.838  0.00  0.00     0.015 SA
ATOM      6  C4  UNL d   1      -0.792   1.540   2.421  0.00  0.00     0.022 A 
ATOM      7  C5  UNL d   1       0.375   0.899   2.763  0.00  0.00     0.026 A 
ATOM      8  C6  UNL d   1       0.885   0.067   1.709  0.00  0.00    -0.082 A 
ATOM      9  C7  UNL d   1       2.041  -0.748   1.656  0.00  0.00     0.045 A 
ENDROOT
TORSDOF 0
ENDMDL
