MODEL 1
REMARK minimizedAffinity -0.425883949
REMARK minimizedRMSD -1
REMARK  0 active torsions:
REMARK  status: ('A' for Active; 'I' for Inactive)
ROOT
ATOM      1  C   UNL d   1       0.602  -0.157   3.801  0.00  0.00    -0.002 A 
ATOM      2  C1  UNL d   1       1.724  -0.586   3.106  0.00  0.00     0.010 A 
ATOM      3  C2  UNL d   1       1.700  -0.692   1.714  0.00  0.00     0.041 A 
ATOM      4  C3  UNL d   1       0.519  -0.356   1.025  0.00  0.00    -0.075 A 
ATOM      5  S   UNL d   1       0.258  -0.408  -0.678  0.00  0.00     0.015 SA
ATOM      6  C4  UNL d   1      -1.349   0.139  -0.524  0.00  0.00     0.022 A 
ATOM      7  C5  UNL d   1      -1.695   0.360   0.788  0.00  0.00     0.026 A 
ATOM      8  C6  UNL d   1      -0.624   0.080   1.702  0.00  0.00    -0.082 A 
ATOM      9  C7  UNL d   1      -0.568   0.177   3.113  0.00  0.00     0.045 A 
ENDROOT
TORSDOF 0
ENDMDL
