MODEL 1
REMARK minimizedAffinity -5.03238678
REMARK minimizedRMSD -1
REMARK  0 active torsions:
REMARK  status: ('A' for Active; 'I' for Inactive)
ROOT
ATOM      1  C   UNL d   1      -0.444   1.512   3.508  0.00  0.00    -0.002 A 
ATOM      2  C1  UNL d   1       0.821   1.016   3.788  0.00  0.00     0.010 A 
ATOM      3  C2  UNL d   1       1.476   0.185   2.877  0.00  0.00     0.041 A 
ATOM      4  C3  UNL d   1       0.832  -0.140   1.666  0.00  0.00    -0.075 A 
ATOM      5  S   UNL d   1       1.442  -1.139   0.401  0.00  0.00     0.015 SA
ATOM      6  C4  UNL d   1       0.038  -0.930  -0.542  0.00  0.00     0.022 A 
ATOM      7  C5  UNL d   1      -0.884  -0.121   0.078  0.00  0.00     0.026 A 
ATOM      8  C6  UNL d   1      -0.441   0.348   1.361  0.00  0.00    -0.082 A 
ATOM      9  C7  UNL d   1      -1.080   1.187   2.306  0.00  0.00     0.045 A 
ENDROOT
TORSDOF 0
ENDMDL
