MODEL 1
REMARK minimizedAffinity -3.20069098
REMARK minimizedRMSD -1
REMARK  0 active torsions:
REMARK  status: ('A' for Active; 'I' for Inactive)
ROOT
ATOM      1  C   UNL d   1      -0.247   0.548   3.809  0.00  0.00    -0.002 A 
ATOM      2  C1  UNL d   1      -1.431   0.449   3.091  0.00  0.00     0.010 A 
ATOM      3  C2  UNL d   1      -1.414   0.401   1.696  0.00  0.00     0.041 A 
ATOM      4  C3  UNL d   1      -0.175   0.453   1.027  0.00  0.00    -0.075 A 
ATOM      5  S   UNL d   1       0.090   0.409  -0.676  0.00  0.00     0.015 SA
ATOM      6  C4  UNL d   1       1.781   0.520  -0.491  0.00  0.00     0.022 A 
ATOM      7  C5  UNL d   1       2.151   0.590   0.831  0.00  0.00     0.026 A 
ATOM      8  C6  UNL d   1       1.031   0.553   1.728  0.00  0.00    -0.082 A 
ATOM      9  C7  UNL d   1       0.980   0.600   3.142  0.00  0.00     0.045 A 
ENDROOT
TORSDOF 0
ENDMDL
