MODEL 1
REMARK minimizedAffinity -3.66481209
REMARK minimizedRMSD -1
REMARK  0 active torsions:
REMARK  status: ('A' for Active; 'I' for Inactive)
ROOT
ATOM      1  C   UNL d   1       5.215   1.525   4.633  0.00  0.00    -0.002 A 
ATOM      2  C1  UNL d   1       5.433   2.240   5.802  0.00  0.00     0.010 A 
ATOM      3  C2  UNL d   1       5.679   3.614   5.759  0.00  0.00     0.041 A 
ATOM      4  C3  UNL d   1       5.700   4.264   4.510  0.00  0.00    -0.075 A 
ATOM      5  S   UNL d   1       5.980   5.939   4.214  0.00  0.00     0.015 SA
ATOM      6  C4  UNL d   1       5.815   5.745   2.528  0.00  0.00     0.022 A 
ATOM      7  C5  UNL d   1       5.553   4.441   2.182  0.00  0.00     0.026 A 
ATOM      8  C6  UNL d   1       5.482   3.565   3.318  0.00  0.00    -0.082 A 
ATOM      9  C7  UNL d   1       5.236   2.173   3.395  0.00  0.00     0.045 A 
ENDROOT
TORSDOF 0
ENDMDL
