MODEL 1
REMARK minimizedAffinity 5.29457712
REMARK minimizedRMSD -1
REMARK  2 active torsions:
REMARK  status: ('A' for Active; 'I' for Inactive)
REMARK    1  A    between atoms: C2'_3  and  C1'_4 
REMARK    2  A    between atoms: C1'_4  and  C1_5 
ROOT
ATOM      1  C1  I4B d   1       5.440   0.966   3.804  0.00  0.00    -0.075 A 
ATOM      2  C2  I4B d   1       5.912   0.316   4.917  0.00  0.00     0.003 A 
ATOM      3  C3  I4B d   1       5.382  -0.944   5.285  0.00  0.00     0.002 A 
ATOM      4  C4  I4B d   1       4.353  -1.490   4.545  0.00  0.00    -0.004 A 
ATOM      5  C5  I4B d   1       3.891  -0.840   3.404  0.00  0.00     0.002 A 
ATOM      6  C6  I4B d   1       4.446   0.390   3.024  0.00  0.00     0.003 A 
ENDROOT
BRANCH   1   7
ATOM      7  C1' I4B d   1       6.000   2.311   3.464  0.00  0.00     0.060 C 
BRANCH   7   8
ATOM      8  C2' I4B d   1       4.848   3.293   3.397  0.00  0.00    -0.013 C 
ATOM      9  C4' I4B d   1       5.340   4.715   3.452  0.00  0.00     0.013 C 
ATOM     10  C3' I4B d   1       4.089   3.031   2.130  0.00  0.00     0.013 C 
ENDBRANCH   7   8
ENDBRANCH   1   7
TORSDOF 2
ENDMDL
