MODEL 1
REMARK minimizedAffinity -1.82949328
REMARK minimizedRMSD -1
REMARK  2 active torsions:
REMARK  status: ('A' for Active; 'I' for Inactive)
REMARK    1  A    between atoms: C2'_3  and  C1'_4 
REMARK    2  A    between atoms: C1'_4  and  C1_5 
ROOT
ATOM      1  C1  I4B d   1       3.437   1.206  -4.739  0.00  0.00    -0.075 A 
ATOM      2  C2  I4B d   1       4.498   0.401  -4.407  0.00  0.00     0.003 A 
ATOM      3  C3  I4B d   1       5.806   0.733  -4.835  0.00  0.00     0.002 A 
ATOM      4  C4  I4B d   1       5.999   1.845  -5.630  0.00  0.00    -0.004 A 
ATOM      5  C5  I4B d   1       4.926   2.673  -5.946  0.00  0.00     0.002 A 
ATOM      6  C6  I4B d   1       3.638   2.359  -5.487  0.00  0.00     0.003 A 
ENDROOT
BRANCH   1   7
ATOM      7  C1' I4B d   1       2.064   0.807  -4.298  0.00  0.00     0.060 C 
BRANCH   7   8
ATOM      8  C2' I4B d   1       1.806   1.441  -2.946  0.00  0.00    -0.013 C 
ATOM      9  C4' I4B d   1       0.330   1.545  -2.665  0.00  0.00     0.013 C 
ATOM     10  C3' I4B d   1       2.498   0.610  -1.906  0.00  0.00     0.013 C 
ENDBRANCH   7   8
ENDBRANCH   1   7
TORSDOF 2
ENDMDL
