MODEL 1
REMARK minimizedAffinity 5.05473518
REMARK minimizedRMSD -1
REMARK  2 active torsions:
REMARK  status: ('A' for Active; 'I' for Inactive)
REMARK    1  A    between atoms: C2'_3  and  C1'_4 
REMARK    2  A    between atoms: C1'_4  and  C1_5 
ROOT
ATOM      1  C1  I4B d   1      -2.431  -0.274   0.382  0.00  0.00    -0.075 A 
ATOM      2  C2  I4B d   1      -2.029   0.953  -0.083  0.00  0.00     0.003 A 
ATOM      3  C3  I4B d   1      -1.028   1.045  -1.080  0.00  0.00     0.002 A 
ATOM      4  C4  I4B d   1      -0.425  -0.106  -1.545  0.00  0.00    -0.004 A 
ATOM      5  C5  I4B d   1      -0.850  -1.351  -1.090  0.00  0.00     0.002 A 
ATOM      6  C6  I4B d   1      -1.868  -1.436  -0.129  0.00  0.00     0.003 A 
ENDROOT
BRANCH   1   7
ATOM      7  C1' I4B d   1      -3.467  -0.332   1.459  0.00  0.00     0.060 C 
BRANCH   7   8
ATOM      8  C2' I4B d   1      -2.757  -0.562   2.778  0.00  0.00    -0.013 C 
ATOM      9  C4' I4B d   1      -2.628   0.720   3.558  0.00  0.00     0.013 C 
ATOM     10  C3' I4B d   1      -3.532  -1.588   3.548  0.00  0.00     0.013 C 
ENDBRANCH   7   8
ENDBRANCH   1   7
TORSDOF 2
ENDMDL
