MODEL 1
REMARK minimizedAffinity -1.78157234
REMARK minimizedRMSD -1
REMARK  2 active torsions:
REMARK  status: ('A' for Active; 'I' for Inactive)
REMARK    1  A    between atoms: C2'_3  and  C1'_4 
REMARK    2  A    between atoms: C1'_4  and  C1_5 
ROOT
ATOM      1  C1  I4B d   1      -2.755  -0.564   1.336  0.00  0.00    -0.075 A 
ATOM      2  C2  I4B d   1      -3.349  -1.012   2.489  0.00  0.00     0.003 A 
ATOM      3  C3  I4B d   1      -3.449  -0.162   3.617  0.00  0.00     0.002 A 
ATOM      4  C4  I4B d   1      -2.900   1.103   3.564  0.00  0.00    -0.004 A 
ATOM      5  C5  I4B d   1      -2.319   1.564   2.386  0.00  0.00     0.002 A 
ATOM      6  C6  I4B d   1      -2.257   0.730   1.261  0.00  0.00     0.003 A 
ENDROOT
BRANCH   1   7
ATOM      7  C1' I4B d   1      -2.637  -1.500   0.175  0.00  0.00     0.060 C 
BRANCH   7   8
ATOM      8  C2' I4B d   1      -1.255  -2.118   0.212  0.00  0.00    -0.013 C 
ATOM      9  C4' I4B d   1      -1.331  -3.620   0.300  0.00  0.00     0.013 C 
ATOM     10  C3' I4B d   1      -0.520  -1.685  -1.021  0.00  0.00     0.013 C 
ENDBRANCH   7   8
ENDBRANCH   1   7
TORSDOF 2
ENDMDL
