MODEL 1
REMARK minimizedAffinity 3.23364472
REMARK minimizedRMSD -1
REMARK  2 active torsions:
REMARK  status: ('A' for Active; 'I' for Inactive)
REMARK    1  A    between atoms: C2'_3  and  C1'_4 
REMARK    2  A    between atoms: C1'_4  and  C1_5 
ROOT
ATOM      1  C1  I4B d   1      -2.237   0.455   0.477  0.00  0.00    -0.075 A 
ATOM      2  C2  I4B d   1      -2.036   1.391   1.460  0.00  0.00     0.003 A 
ATOM      3  C3  I4B d   1      -2.466   1.137   2.785  0.00  0.00     0.002 A 
ATOM      4  C4  I4B d   1      -3.134  -0.036   3.070  0.00  0.00    -0.004 A 
ATOM      5  C5  I4B d   1      -3.317  -0.994   2.077  0.00  0.00     0.002 A 
ATOM      6  C6  I4B d   1      -2.855  -0.753   0.775  0.00  0.00     0.003 A 
ENDROOT
BRANCH   1   7
ATOM      7  C1' I4B d   1      -1.800   0.769  -0.919  0.00  0.00     0.060 C 
BRANCH   7   8
ATOM      8  C2' I4B d   1      -0.372   0.288  -1.080  0.00  0.00    -0.013 C 
ATOM      9  C4' I4B d   1      -0.322  -1.049  -1.770  0.00  0.00     0.013 C 
ATOM     10  C3' I4B d   1       0.381   1.327  -1.856  0.00  0.00     0.013 C 
ENDBRANCH   7   8
ENDBRANCH   1   7
TORSDOF 2
ENDMDL
