MODEL 1
REMARK minimizedAffinity 9.18797112
REMARK minimizedRMSD -1
REMARK  2 active torsions:
REMARK  status: ('A' for Active; 'I' for Inactive)
REMARK    1  A    between atoms: C2'_3  and  C1'_4 
REMARK    2  A    between atoms: C1'_4  and  C1_5 
ROOT
ATOM      1  C1  I4B d   1       5.111   1.566   3.275  0.00  0.00    -0.075 A 
ATOM      2  C2  I4B d   1       5.827   2.656   3.704  0.00  0.00     0.003 A 
ATOM      3  C3  I4B d   1       5.422   3.963   3.340  0.00  0.00     0.002 A 
ATOM      4  C4  I4B d   1       4.332   4.130   2.511  0.00  0.00    -0.004 A 
ATOM      5  C5  I4B d   1       3.594   3.026   2.096  0.00  0.00     0.002 A 
ATOM      6  C6  I4B d   1       3.978   1.736   2.490  0.00  0.00     0.003 A 
ENDROOT
BRANCH   1   7
ATOM      7  C1' I4B d   1       5.586   0.198   3.651  0.00  0.00     0.060 C 
BRANCH   7   8
ATOM      8  C2' I4B d   1       5.239  -0.033   5.107  0.00  0.00    -0.013 C 
ATOM      9  C4' I4B d   1       5.935   0.961   5.999  0.00  0.00     0.013 C 
ATOM     10  C3' I4B d   1       3.749   0.064   5.249  0.00  0.00     0.013 C 
ENDBRANCH   7   8
ENDBRANCH   1   7
TORSDOF 2
ENDMDL
