MODEL 1
REMARK minimizedAffinity 13.4503098
REMARK minimizedRMSD -1
REMARK  2 active torsions:
REMARK  status: ('A' for Active; 'I' for Inactive)
REMARK    1  A    between atoms: C2'_3  and  C1'_4 
REMARK    2  A    between atoms: C1'_4  and  C1_5 
ROOT
ATOM      1  C1  I4B d   1      -3.329  -5.640  -0.244  0.00  0.00    -0.075 A 
ATOM      2  C2  I4B d   1      -2.976  -5.835   1.068  0.00  0.00     0.003 A 
ATOM      3  C3  I4B d   1      -3.976  -5.999   2.058  0.00  0.00     0.002 A 
ATOM      4  C4  I4B d   1      -5.306  -5.910   1.702  0.00  0.00    -0.004 A 
ATOM      5  C5  I4B d   1      -5.662  -5.735   0.368  0.00  0.00     0.002 A 
ATOM      6  C6  I4B d   1      -4.667  -5.611  -0.613  0.00  0.00     0.003 A 
ENDROOT
BRANCH   1   7
ATOM      7  C1' I4B d   1      -2.248  -5.437  -1.258  0.00  0.00     0.060 C 
BRANCH   7   8
ATOM      8  C2' I4B d   1      -1.893  -3.965  -1.275  0.00  0.00    -0.013 C 
ATOM      9  C4' I4B d   1      -1.747  -3.423   0.123  0.00  0.00     0.013 C 
ATOM     10  C3' I4B d   1      -0.622  -3.804  -2.054  0.00  0.00     0.013 C 
ENDBRANCH   7   8
ENDBRANCH   1   7
TORSDOF 2
ENDMDL
