MODEL 1
REMARK minimizedAffinity 8.15900612
REMARK minimizedRMSD -1
REMARK  2 active torsions:
REMARK  status: ('A' for Active; 'I' for Inactive)
REMARK    1  A    between atoms: C2'_3  and  C1'_4 
REMARK    2  A    between atoms: C1'_4  and  C1_5 
ROOT
ATOM      1  C1  I4B d   1      -3.367   0.070   1.520  0.00  0.00    -0.075 A 
ATOM      2  C2  I4B d   1      -4.276  -0.912   1.827  0.00  0.00     0.003 A 
ATOM      3  C3  I4B d   1      -4.458  -1.320   3.170  0.00  0.00     0.002 A 
ATOM      4  C4  I4B d   1      -3.680  -0.760   4.163  0.00  0.00    -0.004 A 
ATOM      5  C5  I4B d   1      -2.775   0.251   3.853  0.00  0.00     0.002 A 
ATOM      6  C6  I4B d   1      -2.626   0.678   2.525  0.00  0.00     0.003 A 
ENDROOT
BRANCH   1   7
ATOM      7  C1' I4B d   1      -3.176   0.453   0.087  0.00  0.00     0.060 C 
BRANCH   7   8
ATOM      8  C2' I4B d   1      -2.526   1.821   0.053  0.00  0.00    -0.013 C 
ATOM      9  C4' I4B d   1      -1.249   1.798  -0.746  0.00  0.00     0.013 C 
ATOM     10  C3' I4B d   1      -3.512   2.789  -0.531  0.00  0.00     0.013 C 
ENDBRANCH   7   8
ENDBRANCH   1   7
TORSDOF 2
ENDMDL
