MODEL 1
REMARK minimizedAffinity 6.38308811
REMARK minimizedRMSD -1
REMARK  2 active torsions:
REMARK  status: ('A' for Active; 'I' for Inactive)
REMARK    1  A    between atoms: C2'_3  and  C1'_4 
REMARK    2  A    between atoms: C1'_4  and  C1_5 
ROOT
ATOM      1  C1  I4B d   1      -3.425   0.444   1.121  0.00  0.00    -0.075 A 
ATOM      2  C2  I4B d   1      -3.091   1.650   1.685  0.00  0.00     0.003 A 
ATOM      3  C3  I4B d   1      -2.726   1.722   3.051  0.00  0.00     0.002 A 
ATOM      4  C4  I4B d   1      -2.756   0.579   3.824  0.00  0.00    -0.004 A 
ATOM      5  C5  I4B d   1      -3.072  -0.647   3.245  0.00  0.00     0.002 A 
ATOM      6  C6  I4B d   1      -3.397  -0.718   1.882  0.00  0.00     0.003 A 
ENDROOT
BRANCH   1   7
ATOM      7  C1' I4B d   1      -3.837   0.409  -0.316  0.00  0.00     0.060 C 
BRANCH   7   8
ATOM      8  C2' I4B d   1      -5.349   0.322  -0.366  0.00  0.00    -0.013 C 
ATOM      9  C4' I4B d   1      -5.982   1.653  -0.061  0.00  0.00     0.013 C 
ATOM     10  C3' I4B d   1      -5.740  -0.165  -1.730  0.00  0.00     0.013 C 
ENDBRANCH   7   8
ENDBRANCH   1   7
TORSDOF 2
ENDMDL
