MODEL 1
REMARK minimizedAffinity 2.34610152
REMARK minimizedRMSD -1
REMARK  2 active torsions:
REMARK  status: ('A' for Active; 'I' for Inactive)
REMARK    1  A    between atoms: C2'_3  and  C1'_4 
REMARK    2  A    between atoms: C1'_4  and  C1_5 
ROOT
ATOM      1  C1  I4B d   1      -2.381   2.266  -0.094  0.00  0.00    -0.075 A 
ATOM      2  C2  I4B d   1      -2.470   2.481   1.258  0.00  0.00     0.003 A 
ATOM      3  C3  I4B d   1      -3.217   3.576   1.758  0.00  0.00     0.002 A 
ATOM      4  C4  I4B d   1      -3.811   4.453   0.874  0.00  0.00    -0.004 A 
ATOM      5  C5  I4B d   1      -3.738   4.220  -0.496  0.00  0.00     0.002 A 
ATOM      6  C6  I4B d   1      -3.029   3.113  -0.984  0.00  0.00     0.003 A 
ENDROOT
BRANCH   1   7
ATOM      7  C1' I4B d   1      -1.557   1.119  -0.589  0.00  0.00     0.060 C 
BRANCH   7   8
ATOM      8  C2' I4B d   1      -0.417   1.684  -1.412  0.00  0.00    -0.013 C 
ATOM      9  C4' I4B d   1       0.483   2.552  -0.573  0.00  0.00     0.013 C 
ATOM     10  C3' I4B d   1       0.339   0.533  -2.006  0.00  0.00     0.013 C 
ENDBRANCH   7   8
ENDBRANCH   1   7
TORSDOF 2
ENDMDL
