MODEL 1
REMARK minimizedAffinity 3.00353122
REMARK minimizedRMSD -1
REMARK  2 active torsions:
REMARK  status: ('A' for Active; 'I' for Inactive)
REMARK    1  A    between atoms: C2'_3  and  C1'_4 
REMARK    2  A    between atoms: C1'_4  and  C1_5 
ROOT
ATOM      1  C1  I4B d   1      -3.812  -0.771   0.932  0.00  0.00    -0.075 A 
ATOM      2  C2  I4B d   1      -3.361  -0.781  -0.364  0.00  0.00     0.003 A 
ATOM      3  C3  I4B d   1      -4.233  -0.431  -1.424  0.00  0.00     0.002 A 
ATOM      4  C4  I4B d   1      -5.550  -0.128  -1.149  0.00  0.00    -0.004 A 
ATOM      5  C5  I4B d   1      -5.999  -0.095   0.168  0.00  0.00     0.002 A 
ATOM      6  C6  I4B d   1      -5.122  -0.407   1.217  0.00  0.00     0.003 A 
ENDROOT
BRANCH   1   7
ATOM      7  C1' I4B d   1      -2.874  -1.178   2.024  0.00  0.00     0.060 C 
BRANCH   7   8
ATOM      8  C2' I4B d   1      -3.395  -0.603   3.326  0.00  0.00    -0.013 C 
ATOM      9  C4' I4B d   1      -4.090  -1.657   4.147  0.00  0.00     0.013 C 
ATOM     10  C3' I4B d   1      -2.234  -0.015   4.070  0.00  0.00     0.013 C 
ENDBRANCH   7   8
ENDBRANCH   1   7
TORSDOF 2
ENDMDL
