MODEL 1
REMARK minimizedAffinity -4.84598351
REMARK minimizedRMSD -1
REMARK  0 active torsions:
REMARK  status: ('A' for Active; 'I' for Inactive)
ROOT
ATOM      1  O1  BZF d   1      -1.154  -0.492   2.229  0.00  0.00    -0.204 OA
ATOM      2  C2  BZF d   1      -0.675  -1.205   3.311  0.00  0.00     0.174 A 
ATOM      3  C3  BZF d   1       0.501  -1.794   3.013  0.00  0.00    -0.012 A 
ATOM      4  C3A BZF d   1       0.820  -1.350   1.691  0.00  0.00    -0.107 A 
ATOM      5  C4  BZF d   1       1.873  -1.580   0.852  0.00  0.00     0.055 A 
ATOM      6  C5  BZF d   1       1.845  -1.056  -0.402  0.00  0.00    -0.016 A 
ATOM      7  C6  BZF d   1       0.780  -0.302  -0.850  0.00  0.00     0.022 A 
ATOM      8  C7  BZF d   1      -0.284  -0.043  -0.052  0.00  0.00     0.029 A 
ATOM      9  C7A BZF d   1      -0.244  -0.544   1.226  0.00  0.00     0.058 A 
ENDROOT
TORSDOF 0
ENDMDL
