MODEL 1
REMARK minimizedAffinity 0.63697958
REMARK minimizedRMSD -1
REMARK  0 active torsions:
REMARK  status: ('A' for Active; 'I' for Inactive)
ROOT
ATOM      1  O1  BZF d   1      -1.144   1.059   0.427  0.00  0.00    -0.204 OA
ATOM      2  C2  BZF d   1      -1.387   1.529  -0.849  0.00  0.00     0.174 A 
ATOM      3  C3  BZF d   1      -0.453   1.077  -1.711  0.00  0.00    -0.012 A 
ATOM      4  C3A BZF d   1       0.376   0.200  -0.942  0.00  0.00    -0.107 A 
ATOM      5  C4  BZF d   1       1.466  -0.566  -1.243  0.00  0.00     0.055 A 
ATOM      6  C5  BZF d   1       2.087  -1.250  -0.247  0.00  0.00    -0.016 A 
ATOM      7  C6  BZF d   1       1.650  -1.188   1.059  0.00  0.00     0.022 A 
ATOM      8  C7  BZF d   1       0.569  -0.447   1.406  0.00  0.00     0.029 A 
ATOM      9  C7A BZF d   1      -0.081   0.220   0.396  0.00  0.00     0.058 A 
ENDROOT
TORSDOF 0
ENDMDL
