MODEL 1
REMARK minimizedAffinity -4.99453974
REMARK minimizedRMSD -1
REMARK  0 active torsions:
REMARK  status: ('A' for Active; 'I' for Inactive)
ROOT
ATOM      1  O1  BZF d   1      -0.834   0.558  -3.420  0.00  0.00    -0.204 OA
ATOM      2  C2  BZF d   1      -1.931   1.359  -3.162  0.00  0.00     0.174 A 
ATOM      3  C3  BZF d   1      -2.046   1.600  -1.840  0.00  0.00    -0.012 A 
ATOM      4  C3A BZF d   1      -0.901   0.983  -1.243  0.00  0.00    -0.107 A 
ATOM      5  C4  BZF d   1      -0.447   0.892   0.041  0.00  0.00     0.055 A 
ATOM      6  C5  BZF d   1       0.667   0.157   0.297  0.00  0.00    -0.016 A 
ATOM      7  C6  BZF d   1       1.347  -0.504  -0.705  0.00  0.00     0.022 A 
ATOM      8  C7  BZF d   1       0.937  -0.438  -1.996  0.00  0.00     0.029 A 
ATOM      9  C7A BZF d   1      -0.169   0.331  -2.262  0.00  0.00     0.058 A 
ENDROOT
TORSDOF 0
ENDMDL
