MODEL 1
REMARK minimizedAffinity 0.0155123863
REMARK minimizedRMSD -1
REMARK  0 active torsions:
REMARK  status: ('A' for Active; 'I' for Inactive)
ROOT
ATOM      1  O1  BZF d   1      -1.007   0.210   0.555  0.00  0.00    -0.204 OA
ATOM      2  C2  BZF d   1      -0.410   0.596  -0.630  0.00  0.00     0.174 A 
ATOM      3  C3  BZF d   1       0.867   0.163  -0.685  0.00  0.00    -0.012 A 
ATOM      4  C3A BZF d   1       1.051  -0.615   0.501  0.00  0.00    -0.107 A 
ATOM      5  C4  BZF d   1       2.106  -1.321   1.007  0.00  0.00     0.055 A 
ATOM      6  C5  BZF d   1       1.983  -1.910   2.225  0.00  0.00    -0.016 A 
ATOM      7  C6  BZF d   1       0.825  -1.809   2.967  0.00  0.00     0.022 A 
ATOM      8  C7  BZF d   1      -0.250  -1.124   2.505  0.00  0.00     0.029 A 
ATOM      9  C7A BZF d   1      -0.141  -0.556   1.260  0.00  0.00     0.058 A 
ENDROOT
TORSDOF 0
ENDMDL
