MODEL 1
REMARK minimizedAffinity -4.45514059
REMARK minimizedRMSD -1
REMARK  0 active torsions:
REMARK  status: ('A' for Active; 'I' for Inactive)
ROOT
ATOM      1  O1  BZF d   1      -1.866   1.780  -1.507  0.00  0.00    -0.204 OA
ATOM      2  C2  BZF d   1      -2.321   1.283  -2.714  0.00  0.00     0.174 A 
ATOM      3  C3  BZF d   1      -1.568   0.238  -3.115  0.00  0.00    -0.012 A 
ATOM      4  C3A BZF d   1      -0.639   0.013  -2.051  0.00  0.00    -0.107 A 
ATOM      5  C4  BZF d   1       0.359  -0.898  -1.853  0.00  0.00     0.055 A 
ATOM      6  C5  BZF d   1       1.130  -0.801  -0.738  0.00  0.00    -0.016 A 
ATOM      7  C6  BZF d   1       0.935   0.196   0.195  0.00  0.00     0.022 A 
ATOM      8  C7  BZF d   1      -0.045   1.119   0.045  0.00  0.00     0.029 A 
ATOM      9  C7A BZF d   1      -0.848   1.004  -1.064  0.00  0.00     0.058 A 
ENDROOT
TORSDOF 0
ENDMDL
