MODEL 1
REMARK minimizedAffinity -3.41408539
REMARK minimizedRMSD -1
REMARK  0 active torsions:
REMARK  status: ('A' for Active; 'I' for Inactive)
ROOT
ATOM      1  O1  BZF d   1      -1.099   0.473   0.540  0.00  0.00    -0.204 OA
ATOM      2  C2  BZF d   1      -0.505   0.790  -0.666  0.00  0.00     0.174 A 
ATOM      3  C3  BZF d   1       0.722   0.238  -0.756  0.00  0.00    -0.012 A 
ATOM      4  C3A BZF d   1       0.870  -0.545   0.433  0.00  0.00    -0.107 A 
ATOM      5  C4  BZF d   1       1.868  -1.343   0.913  0.00  0.00     0.055 A 
ATOM      6  C5  BZF d   1       1.729  -1.908   2.141  0.00  0.00    -0.016 A 
ATOM      7  C6  BZF d   1       0.610  -1.692   2.918  0.00  0.00     0.022 A 
ATOM      8  C7  BZF d   1      -0.409  -0.912   2.482  0.00  0.00     0.029 A 
ATOM      9  C7A BZF d   1      -0.287  -0.366   1.227  0.00  0.00     0.058 A 
ENDROOT
TORSDOF 0
ENDMDL
