MODEL 1
REMARK minimizedAffinity -1.89258099
REMARK minimizedRMSD -1
REMARK  0 active torsions:
REMARK  status: ('A' for Active; 'I' for Inactive)
ROOT
ATOM      1  O1  BZF d   1      -0.059  -0.609  -1.150  0.00  0.00    -0.204 OA
ATOM      2  C2  BZF d   1       0.518  -0.230   0.047  0.00  0.00     0.174 A 
ATOM      3  C3  BZF d   1       0.115   1.006   0.403  0.00  0.00    -0.012 A 
ATOM      4  C3A BZF d   1      -0.842   1.390  -0.590  0.00  0.00    -0.107 A 
ATOM      5  C4  BZF d   1      -1.607   2.506  -0.774  0.00  0.00     0.055 A 
ATOM      6  C5  BZF d   1      -2.385   2.598  -1.885  0.00  0.00    -0.016 A 
ATOM      7  C6  BZF d   1      -2.418   1.596  -2.832  0.00  0.00     0.022 A 
ATOM      8  C7  BZF d   1      -1.680   0.468  -2.691  0.00  0.00     0.029 A 
ATOM      9  C7A BZF d   1      -0.918   0.358  -1.553  0.00  0.00     0.058 A 
ENDROOT
TORSDOF 0
ENDMDL
