MODEL 1
REMARK minimizedAffinity -2.57665062
REMARK minimizedRMSD -1
REMARK  0 active torsions:
REMARK  status: ('A' for Active; 'I' for Inactive)
ROOT
ATOM      1  O1  BZF d   1      -0.907   1.210   0.088  0.00  0.00    -0.204 OA
ATOM      2  C2  BZF d   1      -0.992   1.913  -1.098  0.00  0.00     0.174 A 
ATOM      3  C3  BZF d   1       0.020   1.579  -1.925  0.00  0.00    -0.012 A 
ATOM      4  C3A BZF d   1       0.731   0.539  -1.248  0.00  0.00    -0.107 A 
ATOM      5  C4  BZF d   1       1.826  -0.212  -1.569  0.00  0.00     0.055 A 
ATOM      6  C5  BZF d   1       2.312  -1.094  -0.657  0.00  0.00    -0.016 A 
ATOM      7  C6  BZF d   1       1.733  -1.247   0.586  0.00  0.00     0.022 A 
ATOM      8  C7  BZF d   1       0.642  -0.528   0.947  0.00  0.00     0.029 A 
ATOM      9  C7A BZF d   1       0.129   0.340   0.015  0.00  0.00     0.058 A 
ENDROOT
TORSDOF 0
ENDMDL
