MODEL 1
REMARK minimizedAffinity -3.52026033
REMARK minimizedRMSD -1
REMARK  0 active torsions:
REMARK  status: ('A' for Active; 'I' for Inactive)
ROOT
ATOM      1  O1  BZF d   1      -1.016  -0.718   2.578  0.00  0.00    -0.204 OA
ATOM      2  C2  BZF d   1      -0.472  -1.546   3.541  0.00  0.00     0.174 A 
ATOM      3  C3  BZF d   1       0.757  -1.964   3.173  0.00  0.00    -0.012 A 
ATOM      4  C3A BZF d   1       1.033  -1.285   1.945  0.00  0.00    -0.107 A 
ATOM      5  C4  BZF d   1       2.105  -1.275   1.098  0.00  0.00     0.055 A 
ATOM      6  C5  BZF d   1       2.029  -0.561  -0.055  0.00  0.00    -0.016 A 
ATOM      7  C6  BZF d   1       0.896   0.149  -0.396  0.00  0.00     0.022 A 
ATOM      8  C7  BZF d   1      -0.190   0.174   0.414  0.00  0.00     0.029 A 
ATOM      9  C7A BZF d   1      -0.104  -0.520   1.596  0.00  0.00     0.058 A 
ENDROOT
TORSDOF 0
ENDMDL
