MODEL 1
REMARK minimizedAffinity -0.648115277
REMARK minimizedRMSD -1
REMARK  0 active torsions:
REMARK  status: ('A' for Active; 'I' for Inactive)
ROOT
ATOM      1  O1  BZF d   1       0.322  -1.346   2.547  0.00  0.00    -0.204 OA
ATOM      2  C2  BZF d   1      -0.992  -1.120   2.907  0.00  0.00     0.174 A 
ATOM      3  C3  BZF d   1      -1.614  -0.352   1.989  0.00  0.00    -0.012 A 
ATOM      4  C3A BZF d   1      -0.652  -0.158   0.947  0.00  0.00    -0.107 A 
ATOM      5  C4  BZF d   1      -0.682   0.505  -0.247  0.00  0.00     0.055 A 
ATOM      6  C5  BZF d   1       0.449   0.563  -0.998  0.00  0.00    -0.016 A 
ATOM      7  C6  BZF d   1       1.626  -0.025  -0.585  0.00  0.00     0.022 A 
ATOM      8  C7  BZF d   1       1.703  -0.699   0.589  0.00  0.00     0.029 A 
ATOM      9  C7A BZF d   1       0.553  -0.787   1.335  0.00  0.00     0.058 A 
ENDROOT
TORSDOF 0
ENDMDL
