MODEL 1
REMARK minimizedAffinity -0.475277364
REMARK minimizedRMSD -1
REMARK  0 active torsions:
REMARK  status: ('A' for Active; 'I' for Inactive)
ROOT
ATOM      1  O1  BZF d   1      -1.004   1.500   0.082  0.00  0.00    -0.204 OA
ATOM      2  C2  BZF d   1      -1.624   1.762  -1.125  0.00  0.00     0.174 A 
ATOM      3  C3  BZF d   1      -0.994   1.126  -2.134  0.00  0.00    -0.012 A 
ATOM      4  C3A BZF d   1       0.030   0.348  -1.507  0.00  0.00    -0.107 A 
ATOM      5  C4  BZF d   1       0.979  -0.511  -1.982  0.00  0.00     0.055 A 
ATOM      6  C5  BZF d   1       1.875  -1.051  -1.115  0.00  0.00    -0.016 A 
ATOM      7  C6  BZF d   1       1.854  -0.750   0.231  0.00  0.00     0.022 A 
ATOM      8  C7  BZF d   1       0.929   0.093   0.750  0.00  0.00     0.029 A 
ATOM      9  C7A BZF d   1       0.002   0.615  -0.119  0.00  0.00     0.058 A 
ENDROOT
TORSDOF 0
ENDMDL
