MODEL 1
REMARK minimizedAffinity -1.9263767
REMARK minimizedRMSD -1
REMARK  0 active torsions:
REMARK  status: ('A' for Active; 'I' for Inactive)
ROOT
ATOM      1  O1  BZF d   1      -0.932   0.564   0.819  0.00  0.00    -0.204 OA
ATOM      2  C2  BZF d   1      -0.443   0.969  -0.408  0.00  0.00     0.174 A 
ATOM      3  C3  BZF d   1       0.768   0.425  -0.643  0.00  0.00    -0.012 A 
ATOM      4  C3A BZF d   1       1.013  -0.444   0.467  0.00  0.00    -0.107 A 
ATOM      5  C4  BZF d   1       2.044  -1.276   0.799  0.00  0.00     0.055 A 
ATOM      6  C5  BZF d   1       2.008  -1.929   1.990  0.00  0.00    -0.016 A 
ATOM      7  C6  BZF d   1       0.961  -1.770   2.874  0.00  0.00     0.022 A 
ATOM      8  C7  BZF d   1      -0.087  -0.960   2.587  0.00  0.00     0.029 A 
ATOM      9  C7A BZF d   1      -0.069  -0.323   1.369  0.00  0.00     0.058 A 
ENDROOT
TORSDOF 0
ENDMDL
