MODEL 1
REMARK minimizedAffinity 15.1956053
REMARK minimizedRMSD -1
REMARK  0 active torsions:
REMARK  status: ('A' for Active; 'I' for Inactive)
ROOT
ATOM      1  O1  BZF d   1      -2.470   2.141  -3.200  0.00  0.00    -0.204 OA
ATOM      2  C2  BZF d   1      -1.286   2.819  -3.419  0.00  0.00     0.174 A 
ATOM      3  C3  BZF d   1      -0.557   2.886  -2.286  0.00  0.00    -0.012 A 
ATOM      4  C3A BZF d   1      -1.292   2.128  -1.320  0.00  0.00    -0.107 A 
ATOM      5  C4  BZF d   1      -1.072   1.813  -0.010  0.00  0.00     0.055 A 
ATOM      6  C5  BZF d   1      -2.020   1.117   0.670  0.00  0.00    -0.016 A 
ATOM      7  C6  BZF d   1      -3.201   0.725   0.074  0.00  0.00     0.022 A 
ATOM      8  C7  BZF d   1      -3.462   1.010  -1.225  0.00  0.00     0.029 A 
ATOM      9  C7A BZF d   1      -2.491   1.685  -1.925  0.00  0.00     0.058 A 
ENDROOT
TORSDOF 0
ENDMDL
