MODEL 1
REMARK minimizedAffinity 6.58501387
REMARK minimizedRMSD -1
REMARK  1 active torsions:
REMARK  status: ('A' for Active; 'I' for Inactive)
REMARK    1  A    between atoms: C1_2  and  C2_3 
ROOT
ATOM      1  C2  UNL d   1      -2.383  -2.048  -0.159  0.00  0.00    -0.073 A 
ATOM      2  C3  UNL d   1      -3.685  -1.535  -0.112  0.00  0.00    -0.002 A 
ATOM      3  C4  UNL d   1      -4.026  -0.408  -0.860  0.00  0.00     0.004 A 
ATOM      4  C5  UNL d   1      -3.073   0.214  -1.667  0.00  0.00    -0.004 A 
ATOM      5  C6  UNL d   1      -1.770  -0.291  -1.737  0.00  0.00    -0.075 A 
ATOM      6  C7  UNL d   1      -0.733   0.367  -2.598  0.00  0.00     0.076 C 
ATOM      7  C8  UNL d   1      -1.435  -1.422  -0.980  0.00  0.00     0.001 A 
ENDROOT
BRANCH   1   8
ATOM      8  C1  UNL d   1      -2.012  -3.269   0.642  0.00  0.00     0.053 C 
ATOM      9  C   UNL d   1      -0.512  -3.367   0.870  0.00  0.00     0.018 C 
ENDBRANCH   1   8
TORSDOF 1
ENDMDL
