MODEL 1
REMARK minimizedAffinity 6.45607805
REMARK minimizedRMSD -1
REMARK  1 active torsions:
REMARK  status: ('A' for Active; 'I' for Inactive)
REMARK    1  A    between atoms: C1_2  and  C2_3 
ROOT
ATOM      1  C2  UNL d   1       1.996  -2.000   4.692  0.00  0.00    -0.073 A 
ATOM      2  C3  UNL d   1       1.526  -1.551   3.452  0.00  0.00    -0.002 A 
ATOM      3  C4  UNL d   1       2.371  -1.534   2.342  0.00  0.00     0.004 A 
ATOM      4  C5  UNL d   1       3.691  -1.971   2.459  0.00  0.00    -0.004 A 
ATOM      5  C6  UNL d   1       4.176  -2.433   3.686  0.00  0.00    -0.075 A 
ATOM      6  C7  UNL d   1       5.593  -2.904   3.828  0.00  0.00     0.076 C 
ATOM      7  C8  UNL d   1       3.321  -2.445   4.797  0.00  0.00     0.001 A 
ENDROOT
BRANCH   1   8
ATOM      8  C1  UNL d   1       1.084  -2.026   5.892  0.00  0.00     0.053 C 
ATOM      9  C   UNL d   1      -0.381  -1.926   5.497  0.00  0.00     0.018 C 
ENDBRANCH   1   8
TORSDOF 1
ENDMDL
