MODEL 1
REMARK minimizedAffinity 9.03671455
REMARK minimizedRMSD -1
REMARK  1 active torsions:
REMARK  status: ('A' for Active; 'I' for Inactive)
REMARK    1  A    between atoms: C1_2  and  C2_3 
ROOT
ATOM      1  C2  UNL d   1       1.574  -4.793   0.290  0.00  0.00    -0.073 A 
ATOM      2  C3  UNL d   1       0.917  -5.945   0.739  0.00  0.00    -0.002 A 
ATOM      3  C4  UNL d   1      -0.477  -5.985   0.795  0.00  0.00     0.004 A 
ATOM      4  C5  UNL d   1      -1.227  -4.879   0.396  0.00  0.00    -0.004 A 
ATOM      5  C6  UNL d   1      -0.590  -3.723  -0.067  0.00  0.00    -0.075 A 
ATOM      6  C7  UNL d   1      -1.382  -2.524  -0.497  0.00  0.00     0.076 C 
ATOM      7  C8  UNL d   1       0.810  -3.690  -0.117  0.00  0.00     0.001 A 
ENDROOT
BRANCH   1   8
ATOM      8  C1  UNL d   1       3.078  -4.748   0.223  0.00  0.00     0.053 C 
ATOM      9  C   UNL d   1       3.720  -5.839   1.065  0.00  0.00     0.018 C 
ENDBRANCH   1   8
TORSDOF 1
ENDMDL
