MODEL 1
REMARK minimizedAffinity 9.38234711
REMARK minimizedRMSD -1
REMARK  1 active torsions:
REMARK  status: ('A' for Active; 'I' for Inactive)
REMARK    1  A    between atoms: C1_2  and  C2_3 
ROOT
ATOM      1  C2  UNL d   1      -2.505  -3.290   0.235  0.00  0.00    -0.073 A 
ATOM      2  C3  UNL d   1      -1.736  -2.344  -0.451  0.00  0.00    -0.002 A 
ATOM      3  C4  UNL d   1      -0.380  -2.575  -0.688  0.00  0.00     0.004 A 
ATOM      4  C5  UNL d   1       0.217  -3.756  -0.248  0.00  0.00    -0.004 A 
ATOM      5  C6  UNL d   1      -0.537  -4.719   0.429  0.00  0.00    -0.075 A 
ATOM      6  C7  UNL d   1       0.091  -5.994   0.910  0.00  0.00     0.076 C 
ATOM      7  C8  UNL d   1      -1.898  -4.479   0.665  0.00  0.00     0.001 A 
ENDROOT
BRANCH   1   8
ATOM      8  C1  UNL d   1      -3.971  -3.048   0.487  0.00  0.00     0.053 C 
ATOM      9  C   UNL d   1      -4.608  -2.212  -0.612  0.00  0.00     0.018 C 
ENDBRANCH   1   8
TORSDOF 1
ENDMDL
