MODEL 1
REMARK minimizedAffinity 7.92537832
REMARK minimizedRMSD -1
REMARK  1 active torsions:
REMARK  status: ('A' for Active; 'I' for Inactive)
REMARK    1  A    between atoms: C1_2  and  C2_3 
ROOT
ATOM      1  C2  UNL d   1       0.242   1.381   0.623  0.00  0.00    -0.073 A 
ATOM      2  C3  UNL d   1      -0.114   2.314   1.603  0.00  0.00    -0.002 A 
ATOM      3  C4  UNL d   1       0.328   2.159   2.918  0.00  0.00     0.004 A 
ATOM      4  C5  UNL d   1       1.134   1.075   3.264  0.00  0.00    -0.004 A 
ATOM      5  C6  UNL d   1       1.511   0.139   2.296  0.00  0.00    -0.075 A 
ATOM      6  C7  UNL d   1       2.376  -1.034   2.652  0.00  0.00     0.076 C 
ATOM      7  C8  UNL d   1       1.061   0.300   0.979  0.00  0.00     0.001 A 
ENDROOT
BRANCH   1   8
ATOM      8  C1  UNL d   1      -0.228   1.548  -0.799  0.00  0.00     0.053 C 
ATOM      9  C   UNL d   1      -0.106   2.987  -1.274  0.00  0.00     0.018 C 
ENDBRANCH   1   8
TORSDOF 1
ENDMDL
