MODEL 1
REMARK minimizedAffinity -2.95230532
REMARK minimizedRMSD -1
REMARK  0 active torsions:
REMARK  status: ('A' for Active; 'I' for Inactive)
ROOT
ATOM      1  C   UNL d   1       0.707  -0.339  -0.436  0.00  0.00     0.172 C 
ATOM      2  N   UNL d   1      -0.242   0.369   0.391  0.00  0.00    -0.070 N 
ATOM      3  C1  UNL d   1      -0.058   0.709   1.705  0.00  0.00    -0.004 A 
ATOM      4  C2  UNL d   1      -1.189   1.372   2.131  0.00  0.00    -0.047 A 
ATOM      5  C3  UNL d   1      -2.083   1.432   1.036  0.00  0.00    -0.047 A 
ATOM      6  C4  UNL d   1      -1.471   0.804  -0.028  0.00  0.00    -0.004 A 
ENDROOT
TORSDOF 0
ENDMDL
