MODEL 1
REMARK minimizedAffinity -4.01561308
REMARK minimizedRMSD -1
REMARK  0 active torsions:
REMARK  status: ('A' for Active; 'I' for Inactive)
ROOT
ATOM      1  C   UNL d   1      -0.080   0.056  -0.017  0.00  0.00     0.172 C 
ATOM      2  N   UNL d   1      -0.836   1.258   0.247  0.00  0.00    -0.070 N 
ATOM      3  C1  UNL d   1      -1.837   1.384   1.172  0.00  0.00    -0.004 A 
ATOM      4  C2  UNL d   1      -2.302   2.680   1.117  0.00  0.00    -0.047 A 
ATOM      5  C3  UNL d   1      -1.555   3.356   0.123  0.00  0.00    -0.047 A 
ATOM      6  C4  UNL d   1      -0.654   2.452  -0.399  0.00  0.00    -0.004 A 
ENDROOT
TORSDOF 0
ENDMDL
