MODEL 1
REMARK minimizedAffinity -3.38441348
REMARK minimizedRMSD -1
REMARK  0 active torsions:
REMARK  status: ('A' for Active; 'I' for Inactive)
ROOT
ATOM      1  C   UNL d   1       0.406  -1.006  -0.650  0.00  0.00     0.172 C 
ATOM      2  N   UNL d   1      -0.280  -0.096   0.238  0.00  0.00    -0.070 N 
ATOM      3  C1  UNL d   1      -1.412   0.612  -0.064  0.00  0.00    -0.004 A 
ATOM      4  C2  UNL d   1      -1.750   1.360   1.044  0.00  0.00    -0.047 A 
ATOM      5  C3  UNL d   1      -0.786   1.092   2.045  0.00  0.00    -0.047 A 
ATOM      6  C4  UNL d   1       0.112   0.188   1.519  0.00  0.00    -0.004 A 
ENDROOT
TORSDOF 0
ENDMDL
