MODEL 1
REMARK minimizedAffinity -2.92753386
REMARK minimizedRMSD -1
REMARK  0 active torsions:
REMARK  status: ('A' for Active; 'I' for Inactive)
ROOT
ATOM      1  C   UNL d   1       1.091  -0.561  -0.455  0.00  0.00     0.172 C 
ATOM      2  N   UNL d   1       0.097   0.111   0.349  0.00  0.00    -0.070 N 
ATOM      3  C1  UNL d   1      -0.823   1.015  -0.110  0.00  0.00    -0.004 A 
ATOM      4  C2  UNL d   1      -1.586   1.423   0.963  0.00  0.00    -0.047 A 
ATOM      5  C3  UNL d   1      -1.107   0.742   2.106  0.00  0.00    -0.047 A 
ATOM      6  C4  UNL d   1      -0.065  -0.064   1.698  0.00  0.00    -0.004 A 
ENDROOT
TORSDOF 0
ENDMDL
