MODEL 1
REMARK minimizedAffinity -3.15260959
REMARK minimizedRMSD -1
REMARK  0 active torsions:
REMARK  status: ('A' for Active; 'I' for Inactive)
ROOT
ATOM      1  C   UNL d   1       0.006   3.298  -0.709  0.00  0.00     0.172 C 
ATOM      2  N   UNL d   1      -0.608   2.327   0.166  0.00  0.00    -0.070 N 
ATOM      3  C1  UNL d   1      -0.548   0.967   0.016  0.00  0.00    -0.004 A 
ATOM      4  C2  UNL d   1      -1.256   0.397   1.052  0.00  0.00    -0.047 A 
ATOM      5  C3  UNL d   1      -1.759   1.450   1.852  0.00  0.00    -0.047 A 
ATOM      6  C4  UNL d   1      -1.343   2.634   1.281  0.00  0.00    -0.004 A 
ENDROOT
TORSDOF 0
ENDMDL
