MODEL 1
REMARK minimizedAffinity -3.98387289
REMARK minimizedRMSD -1
REMARK  0 active torsions:
REMARK  status: ('A' for Active; 'I' for Inactive)
ROOT
ATOM      1  C   UNL d   1       0.718   0.088  -0.685  0.00  0.00     0.172 C 
ATOM      2  N   UNL d   1      -0.068   1.173  -0.146  0.00  0.00    -0.070 N 
ATOM      3  C1  UNL d   1      -0.137   2.440  -0.661  0.00  0.00    -0.004 A 
ATOM      4  C2  UNL d   1      -0.990   3.173   0.136  0.00  0.00    -0.047 A 
ATOM      5  C3  UNL d   1      -1.449   2.317   1.165  0.00  0.00    -0.047 A 
ATOM      6  C4  UNL d   1      -0.862   1.085   0.966  0.00  0.00    -0.004 A 
ENDROOT
TORSDOF 0
ENDMDL
