MODEL 1
REMARK minimizedAffinity -3.88044858
REMARK minimizedRMSD -1
REMARK  0 active torsions:
REMARK  status: ('A' for Active; 'I' for Inactive)
ROOT
ATOM      1  C   UNL d   1       0.260  -0.001  -0.061  0.00  0.00     0.172 C 
ATOM      2  N   UNL d   1      -0.392   1.265   0.178  0.00  0.00    -0.070 N 
ATOM      3  C1  UNL d   1      -1.293   1.524   1.176  0.00  0.00    -0.004 A 
ATOM      4  C2  UNL d   1      -1.680   2.842   1.064  0.00  0.00    -0.047 A 
ATOM      5  C3  UNL d   1      -0.988   3.394  -0.040  0.00  0.00    -0.047 A 
ATOM      6  C4  UNL d   1      -0.198   2.397  -0.570  0.00  0.00    -0.004 A 
ENDROOT
TORSDOF 0
ENDMDL
