MODEL 1
REMARK minimizedAffinity -2.76213217
REMARK minimizedRMSD -1
REMARK  0 active torsions:
REMARK  status: ('A' for Active; 'I' for Inactive)
ROOT
ATOM      1  C   UNL d   1       0.151   0.091  -1.451  0.00  0.00     0.172 C 
ATOM      2  N   UNL d   1       0.109  -1.295  -1.853  0.00  0.00    -0.070 N 
ATOM      3  C1  UNL d   1       0.121  -1.753  -3.144  0.00  0.00    -0.004 A 
ATOM      4  C2  UNL d   1       0.070  -3.130  -3.104  0.00  0.00    -0.047 A 
ATOM      5  C3  UNL d   1       0.025  -3.513  -1.742  0.00  0.00    -0.047 A 
ATOM      6  C4  UNL d   1       0.050  -2.357  -0.990  0.00  0.00    -0.004 A 
ENDROOT
TORSDOF 0
ENDMDL
