MODEL 1
REMARK minimizedAffinity -3.12313104
REMARK minimizedRMSD -1
REMARK  0 active torsions:
REMARK  status: ('A' for Active; 'I' for Inactive)
ROOT
ATOM      1  C   UNL d   1       0.731  -0.693  -0.404  0.00  0.00     0.172 C 
ATOM      2  N   UNL d   1      -0.230   0.170   0.242  0.00  0.00    -0.070 N 
ATOM      3  C1  UNL d   1      -0.823   1.268  -0.322  0.00  0.00    -0.004 A 
ATOM      4  C2  UNL d   1      -1.674   1.815   0.614  0.00  0.00    -0.047 A 
ATOM      5  C3  UNL d   1      -1.589   1.019   1.781  0.00  0.00    -0.047 A 
ATOM      6  C4  UNL d   1      -0.688   0.007   1.523  0.00  0.00    -0.004 A 
ENDROOT
TORSDOF 0
ENDMDL
