MODEL 1
REMARK minimizedAffinity -3.71440101
REMARK minimizedRMSD -1
REMARK  0 active torsions:
REMARK  status: ('A' for Active; 'I' for Inactive)
ROOT
ATOM      1  C   UNL d   1      -0.664   0.106   1.443  0.00  0.00     0.172 C 
ATOM      2  N   UNL d   1      -1.018   1.437   1.006  0.00  0.00    -0.070 N 
ATOM      3  C1  UNL d   1      -0.604   2.032  -0.155  0.00  0.00    -0.004 A 
ATOM      4  C2  UNL d   1      -1.157   3.293  -0.203  0.00  0.00    -0.047 A 
ATOM      5  C3  UNL d   1      -1.930   3.462   0.971  0.00  0.00    -0.047 A 
ATOM      6  C4  UNL d   1      -1.826   2.297   1.701  0.00  0.00    -0.004 A 
ENDROOT
TORSDOF 0
ENDMDL
