MODEL 1
REMARK minimizedAffinity -3.62848425
REMARK minimizedRMSD -1
REMARK  0 active torsions:
REMARK  status: ('A' for Active; 'I' for Inactive)
ROOT
ATOM      1  C   UNL d   1       0.753  -0.094  -0.461  0.00  0.00     0.172 C 
ATOM      2  N   UNL d   1      -0.174   0.791   0.205  0.00  0.00    -0.070 N 
ATOM      3  C1  UNL d   1      -1.043   1.649  -0.414  0.00  0.00    -0.004 A 
ATOM      4  C2  UNL d   1      -1.750   2.313   0.566  0.00  0.00    -0.047 A 
ATOM      5  C3  UNL d   1      -1.289   1.837   1.817  0.00  0.00    -0.047 A 
ATOM      6  C4  UNL d   1      -0.314   0.896   1.564  0.00  0.00    -0.004 A 
ENDROOT
TORSDOF 0
ENDMDL
