MODEL 1
REMARK minimizedAffinity -3.68019819
REMARK minimizedRMSD -1
REMARK  0 active torsions:
REMARK  status: ('A' for Active; 'I' for Inactive)
ROOT
ATOM      1  C   UNL d   1       1.071  -0.500  -1.033  0.00  0.00     0.172 C 
ATOM      2  N   UNL d   1       0.668  -1.865  -1.280  0.00  0.00    -0.070 N 
ATOM      3  C1  UNL d   1       0.265  -2.372  -2.486  0.00  0.00    -0.004 A 
ATOM      4  C2  UNL d   1      -0.032  -3.706  -2.305  0.00  0.00    -0.047 A 
ATOM      5  C3  UNL d   1       0.200  -4.010  -0.943  0.00  0.00    -0.047 A 
ATOM      6  C4  UNL d   1       0.633  -2.853  -0.331  0.00  0.00    -0.004 A 
ENDROOT
TORSDOF 0
ENDMDL
