MODEL 1
REMARK minimizedAffinity -4.05935192
REMARK minimizedRMSD -1
REMARK  0 active torsions:
REMARK  status: ('A' for Active; 'I' for Inactive)
ROOT
ATOM      1  C   UNL d   1       0.803  -0.038  -0.293  0.00  0.00     0.172 C 
ATOM      2  N   UNL d   1      -0.277   0.674   0.348  0.00  0.00    -0.070 N 
ATOM      3  C1  UNL d   1      -1.100   1.587  -0.256  0.00  0.00    -0.004 A 
ATOM      4  C2  UNL d   1      -1.996   2.037   0.690  0.00  0.00    -0.047 A 
ATOM      5  C3  UNL d   1      -1.700   1.373   1.904  0.00  0.00    -0.047 A 
ATOM      6  C4  UNL d   1      -0.631   0.536   1.664  0.00  0.00    -0.004 A 
ENDROOT
TORSDOF 0
ENDMDL
