MODEL 1
REMARK minimizedAffinity -3.65562606
REMARK minimizedRMSD -1
REMARK  0 active torsions:
REMARK  status: ('A' for Active; 'I' for Inactive)
ROOT
ATOM      1  C   UNL d   1      -0.462  -0.147   1.596  0.00  0.00     0.172 C 
ATOM      2  N   UNL d   1      -0.955   1.055   0.966  0.00  0.00    -0.070 N 
ATOM      3  C1  UNL d   1      -1.680   2.040   1.582  0.00  0.00    -0.004 A 
ATOM      4  C2  UNL d   1      -1.956   3.011   0.643  0.00  0.00    -0.047 A 
ATOM      5  C3  UNL d   1      -1.378   2.595  -0.579  0.00  0.00    -0.047 A 
ATOM      6  C4  UNL d   1      -0.765   1.381  -0.351  0.00  0.00    -0.004 A 
ENDROOT
TORSDOF 0
ENDMDL
