MODEL 1
REMARK minimizedAffinity -3.03327227
REMARK minimizedRMSD -1
REMARK  0 active torsions:
REMARK  status: ('A' for Active; 'I' for Inactive)
ROOT
ATOM      1  C   UNL d   1      -1.339   2.083   0.911  0.00  0.00     0.172 C 
ATOM      2  N   UNL d   1      -0.521   1.163   0.156  0.00  0.00    -0.070 N 
ATOM      3  C1  UNL d   1      -0.201  -0.114   0.533  0.00  0.00    -0.004 A 
ATOM      4  C2  UNL d   1       0.592  -0.659  -0.454  0.00  0.00    -0.047 A 
ATOM      5  C3  UNL d   1       0.756   0.326  -1.458  0.00  0.00    -0.047 A 
ATOM      6  C4  UNL d   1       0.056   1.443  -1.054  0.00  0.00    -0.004 A 
ENDROOT
TORSDOF 0
ENDMDL
