MODEL 1
REMARK minimizedAffinity -1.62211156
REMARK minimizedRMSD -1
REMARK  0 active torsions:
REMARK  status: ('A' for Active; 'I' for Inactive)
ROOT
ATOM      1  C   UNL d   1       0.300   1.695  -0.620  0.00  0.00     0.172 C 
ATOM      2  N   UNL d   1      -0.159   0.873   0.475  0.00  0.00    -0.070 N 
ATOM      3  C1  UNL d   1       0.237  -0.413   0.728  0.00  0.00    -0.004 A 
ATOM      4  C2  UNL d   1      -0.426  -0.845   1.856  0.00  0.00    -0.047 A 
ATOM      5  C3  UNL d   1      -1.251   0.218   2.296  0.00  0.00    -0.047 A 
ATOM      6  C4  UNL d   1      -1.066   1.269   1.422  0.00  0.00    -0.004 A 
ENDROOT
TORSDOF 0
ENDMDL
