MODEL 1
REMARK minimizedAffinity -1.87655985
REMARK minimizedRMSD -1
REMARK  0 active torsions:
REMARK  status: ('A' for Active; 'I' for Inactive)
ROOT
ATOM      1  C   UNL d   1       0.237  -0.483  -0.747  0.00  0.00     0.078 C 
ATOM      2  C1  UNL d   1      -1.124  -1.104  -0.640  0.00  0.00    -0.077 A 
ATOM      3  C2  UNL d   1      -1.464  -2.231  -1.398  0.00  0.00    -0.001 A 
ATOM      4  C3  UNL d   1      -2.738  -2.793  -1.296  0.00  0.00     0.003 A 
ATOM      5  C4  UNL d   1      -3.683  -2.232  -0.438  0.00  0.00    -0.005 A 
ATOM      6  C5  UNL d   1      -3.355  -1.109   0.318  0.00  0.00     0.003 A 
ATOM      7  C6  UNL d   1      -2.081  -0.546   0.217  0.00  0.00    -0.001 A 
ENDROOT
TORSDOF 0
ENDMDL
