MODEL 1
REMARK minimizedAffinity -3.90768123
REMARK minimizedRMSD -1
REMARK  0 active torsions:
REMARK  status: ('A' for Active; 'I' for Inactive)
ROOT
ATOM      1  C   UNL d   1       0.175  -0.868  -0.749  0.00  0.00     0.078 C 
ATOM      2  C1  UNL d   1      -1.213  -1.407  -0.579  0.00  0.00    -0.077 A 
ATOM      3  C2  UNL d   1      -1.716  -2.391  -1.439  0.00  0.00    -0.001 A 
ATOM      4  C3  UNL d   1      -3.014  -2.877  -1.274  0.00  0.00     0.003 A 
ATOM      5  C4  UNL d   1      -3.821  -2.383  -0.251  0.00  0.00    -0.005 A 
ATOM      6  C5  UNL d   1      -3.331  -1.402   0.608  0.00  0.00     0.003 A 
ATOM      7  C6  UNL d   1      -2.033  -0.916   0.445  0.00  0.00    -0.001 A 
ENDROOT
TORSDOF 0
ENDMDL
