MODEL 1
REMARK minimizedAffinity -3.93330264
REMARK minimizedRMSD -1
REMARK  0 active torsions:
REMARK  status: ('A' for Active; 'I' for Inactive)
ROOT
ATOM      1  C   UNL d   1      -5.015   5.379   2.063  0.00  0.00     0.078 C 
ATOM      2  C1  UNL d   1      -4.990   4.466   3.252  0.00  0.00    -0.077 A 
ATOM      3  C2  UNL d   1      -5.994   3.510   3.448  0.00  0.00    -0.001 A 
ATOM      4  C3  UNL d   1      -5.963   2.672   4.565  0.00  0.00     0.003 A 
ATOM      5  C4  UNL d   1      -4.931   2.784   5.494  0.00  0.00    -0.005 A 
ATOM      6  C5  UNL d   1      -3.929   3.733   5.309  0.00  0.00     0.003 A 
ATOM      7  C6  UNL d   1      -3.958   4.571   4.193  0.00  0.00    -0.001 A 
ENDROOT
TORSDOF 0
ENDMDL
