MODEL 1
REMARK minimizedAffinity -1.85855269
REMARK minimizedRMSD -1
REMARK  0 active torsions:
REMARK  status: ('A' for Active; 'I' for Inactive)
ROOT
ATOM      1  C   UNL d   1      -3.012   0.208   0.820  0.00  0.00     0.078 C 
ATOM      2  C1  UNL d   1      -2.456  -0.895  -0.030  0.00  0.00    -0.077 A 
ATOM      3  C2  UNL d   1      -2.841  -2.226   0.173  0.00  0.00    -0.001 A 
ATOM      4  C3  UNL d   1      -2.309  -3.244  -0.619  0.00  0.00     0.003 A 
ATOM      5  C4  UNL d   1      -1.387  -2.942  -1.620  0.00  0.00    -0.005 A 
ATOM      6  C5  UNL d   1      -0.996  -1.621  -1.828  0.00  0.00     0.003 A 
ATOM      7  C6  UNL d   1      -1.527  -0.602  -1.036  0.00  0.00    -0.001 A 
ENDROOT
TORSDOF 0
ENDMDL
