MODEL 1
REMARK minimizedAffinity 1.24338102
REMARK minimizedRMSD -1
REMARK  0 active torsions:
REMARK  status: ('A' for Active; 'I' for Inactive)
ROOT
ATOM      1  C   UNL d   1      -0.116  -0.689  -1.058  0.00  0.00     0.078 C 
ATOM      2  C1  UNL d   1      -1.258  -1.616  -0.768  0.00  0.00    -0.077 A 
ATOM      3  C2  UNL d   1      -2.360  -1.189  -0.017  0.00  0.00    -0.001 A 
ATOM      4  C3  UNL d   1      -3.412  -2.065   0.253  0.00  0.00     0.003 A 
ATOM      5  C4  UNL d   1      -3.372  -3.375  -0.223  0.00  0.00    -0.005 A 
ATOM      6  C5  UNL d   1      -2.278  -3.809  -0.969  0.00  0.00     0.003 A 
ATOM      7  C6  UNL d   1      -1.225  -2.934  -1.240  0.00  0.00    -0.001 A 
ENDROOT
TORSDOF 0
ENDMDL
