MODEL 1
REMARK minimizedAffinity -4.320467
REMARK minimizedRMSD -1
REMARK  0 active torsions:
REMARK  status: ('A' for Active; 'I' for Inactive)
ROOT
ATOM      1  C   UNL d   1      -5.196   4.980   2.132  0.00  0.00     0.078 C 
ATOM      2  C1  UNL d   1      -5.209   4.312   3.474  0.00  0.00    -0.077 A 
ATOM      3  C2  UNL d   1      -4.831   2.972   3.616  0.00  0.00    -0.001 A 
ATOM      4  C3  UNL d   1      -4.857   2.360   4.870  0.00  0.00     0.003 A 
ATOM      5  C4  UNL d   1      -5.261   3.081   5.992  0.00  0.00    -0.005 A 
ATOM      6  C5  UNL d   1      -5.641   4.415   5.861  0.00  0.00     0.003 A 
ATOM      7  C6  UNL d   1      -5.616   5.028   4.607  0.00  0.00    -0.001 A 
ENDROOT
TORSDOF 0
ENDMDL
