MODEL 1
REMARK minimizedAffinity 0.786633074
REMARK minimizedRMSD -1
REMARK  0 active torsions:
REMARK  status: ('A' for Active; 'I' for Inactive)
ROOT
ATOM      1  C   UNL d   1       0.292  -0.321  -1.054  0.00  0.00     0.078 C 
ATOM      2  C1  UNL d   1      -1.033  -0.929  -0.704  0.00  0.00    -0.077 A 
ATOM      3  C2  UNL d   1      -1.576  -1.966  -1.472  0.00  0.00    -0.001 A 
ATOM      4  C3  UNL d   1      -2.815  -2.517  -1.140  0.00  0.00     0.003 A 
ATOM      5  C4  UNL d   1      -3.522  -2.035  -0.040  0.00  0.00    -0.005 A 
ATOM      6  C5  UNL d   1      -2.991  -1.002   0.729  0.00  0.00     0.003 A 
ATOM      7  C6  UNL d   1      -1.752  -0.450   0.398  0.00  0.00    -0.001 A 
ENDROOT
TORSDOF 0
ENDMDL
