MODEL 1
REMARK minimizedAffinity -4.00084877
REMARK minimizedRMSD -1
REMARK  0 active torsions:
REMARK  status: ('A' for Active; 'I' for Inactive)
ROOT
ATOM      1  C   UNL d   1      -5.216   4.364   1.424  0.00  0.00     0.078 C 
ATOM      2  C1  UNL d   1      -4.981   4.177   2.893  0.00  0.00    -0.077 A 
ATOM      3  C2  UNL d   1      -3.858   4.730   3.520  0.00  0.00    -0.001 A 
ATOM      4  C3  UNL d   1      -3.647   4.539   4.887  0.00  0.00     0.003 A 
ATOM      5  C4  UNL d   1      -4.554   3.794   5.637  0.00  0.00    -0.005 A 
ATOM      6  C5  UNL d   1      -5.674   3.238   5.022  0.00  0.00     0.003 A 
ATOM      7  C6  UNL d   1      -5.886   3.428   3.655  0.00  0.00    -0.001 A 
ENDROOT
TORSDOF 0
ENDMDL
