MODEL 1
REMARK minimizedAffinity -1.72212076
REMARK minimizedRMSD -1
REMARK  0 active torsions:
REMARK  status: ('A' for Active; 'I' for Inactive)
ROOT
ATOM      1  C   UNL d   1      -5.438   3.443   5.513  0.00  0.00     0.078 C 
ATOM      2  C1  UNL d   1      -5.439   4.074   4.153  0.00  0.00    -0.077 A 
ATOM      3  C2  UNL d   1      -4.874   3.418   3.053  0.00  0.00    -0.001 A 
ATOM      4  C3  UNL d   1      -4.874   4.022   1.795  0.00  0.00     0.003 A 
ATOM      5  C4  UNL d   1      -5.436   5.286   1.625  0.00  0.00    -0.005 A 
ATOM      6  C5  UNL d   1      -5.999   5.948   2.714  0.00  0.00     0.003 A 
ATOM      7  C6  UNL d   1      -6.000   5.345   3.973  0.00  0.00    -0.001 A 
ENDROOT
TORSDOF 0
ENDMDL
