MODEL 1
REMARK minimizedAffinity -2.01010227
REMARK minimizedRMSD -1
REMARK  0 active torsions:
REMARK  status: ('A' for Active; 'I' for Inactive)
ROOT
ATOM      1  C   UNL d   1      -5.612   5.823   0.011  0.00  0.00     0.078 C 
ATOM      2  C1  UNL d   1      -5.595   5.241   1.392  0.00  0.00    -0.077 A 
ATOM      3  C2  UNL d   1      -5.999   5.997   2.499  0.00  0.00    -0.001 A 
ATOM      4  C3  UNL d   1      -5.969   5.444   3.781  0.00  0.00     0.003 A 
ATOM      5  C4  UNL d   1      -5.533   4.134   3.968  0.00  0.00    -0.005 A 
ATOM      6  C5  UNL d   1      -5.126   3.375   2.872  0.00  0.00     0.003 A 
ATOM      7  C6  UNL d   1      -5.156   3.925   1.590  0.00  0.00    -0.001 A 
ENDROOT
TORSDOF 0
ENDMDL
