MODEL 1
REMARK minimizedAffinity -2.95522118
REMARK minimizedRMSD -1
REMARK  0 active torsions:
REMARK  status: ('A' for Active; 'I' for Inactive)
ROOT
ATOM      1  C   UNL d   1      -5.261   4.542   1.740  0.00  0.00     0.078 C 
ATOM      2  C1  UNL d   1      -5.506   4.623   3.217  0.00  0.00    -0.077 A 
ATOM      3  C2  UNL d   1      -5.499   3.471   4.013  0.00  0.00    -0.001 A 
ATOM      4  C3  UNL d   1      -5.739   3.561   5.385  0.00  0.00     0.003 A 
ATOM      5  C4  UNL d   1      -5.989   4.799   5.973  0.00  0.00    -0.005 A 
ATOM      6  C5  UNL d   1      -6.000   5.950   5.188  0.00  0.00     0.003 A 
ATOM      7  C6  UNL d   1      -5.760   5.863   3.816  0.00  0.00    -0.001 A 
ENDROOT
TORSDOF 0
ENDMDL
