MODEL 1
REMARK minimizedAffinity -2.93892694
REMARK minimizedRMSD -1
REMARK  0 active torsions:
REMARK  status: ('A' for Active; 'I' for Inactive)
ROOT
ATOM      1  C   UNL d   1      -5.422   5.300   1.824  0.00  0.00     0.078 C 
ATOM      2  C1  UNL d   1      -5.437   4.253   2.898  0.00  0.00    -0.077 A 
ATOM      3  C2  UNL d   1      -5.996   4.517   4.154  0.00  0.00    -0.001 A 
ATOM      4  C3  UNL d   1      -5.995   3.536   5.148  0.00  0.00     0.003 A 
ATOM      5  C4  UNL d   1      -5.434   2.286   4.896  0.00  0.00    -0.005 A 
ATOM      6  C5  UNL d   1      -4.873   2.015   3.649  0.00  0.00     0.003 A 
ATOM      7  C6  UNL d   1      -4.873   2.994   2.655  0.00  0.00    -0.001 A 
ENDROOT
TORSDOF 0
ENDMDL
