MODEL 1
REMARK minimizedAffinity -3.50271082
REMARK minimizedRMSD -1
REMARK  0 active torsions:
REMARK  status: ('A' for Active; 'I' for Inactive)
ROOT
ATOM      1  C   UNL d   1      -4.505   3.165   4.776  0.00  0.00     0.078 C 
ATOM      2  C1  UNL d   1      -4.902   3.935   3.551  0.00  0.00    -0.077 A 
ATOM      3  C2  UNL d   1      -5.646   3.332   2.530  0.00  0.00    -0.001 A 
ATOM      4  C3  UNL d   1      -6.000   4.057   1.391  0.00  0.00     0.003 A 
ATOM      5  C4  UNL d   1      -5.613   5.390   1.263  0.00  0.00    -0.005 A 
ATOM      6  C5  UNL d   1      -4.870   5.998   2.273  0.00  0.00     0.003 A 
ATOM      7  C6  UNL d   1      -4.515   5.273   3.412  0.00  0.00    -0.001 A 
ENDROOT
TORSDOF 0
ENDMDL
