MODEL 1
REMARK minimizedAffinity -3.25991583
REMARK minimizedRMSD -1
REMARK  0 active torsions:
REMARK  status: ('A' for Active; 'I' for Inactive)
ROOT
ATOM      1  C   UNL d   1      -5.428   5.604   1.100  0.00  0.00     0.078 C 
ATOM      2  C1  UNL d   1      -5.439   5.180   2.538  0.00  0.00    -0.077 A 
ATOM      3  C2  UNL d   1      -4.890   5.997   3.535  0.00  0.00    -0.001 A 
ATOM      4  C3  UNL d   1      -4.899   5.585   4.868  0.00  0.00     0.003 A 
ATOM      5  C4  UNL d   1      -5.453   4.355   5.218  0.00  0.00    -0.005 A 
ATOM      6  C5  UNL d   1      -6.000   3.535   4.233  0.00  0.00     0.003 A 
ATOM      7  C6  UNL d   1      -5.992   3.945   2.899  0.00  0.00    -0.001 A 
ENDROOT
TORSDOF 0
ENDMDL
