MODEL 1
REMARK minimizedAffinity -5.3278141
REMARK minimizedRMSD -1
REMARK  1 active torsions:
REMARK  status: ('A' for Active; 'I' for Inactive)
REMARK    1  A    between atoms: C3_4  and  O_7 
ROOT
ATOM      1  C   UNL d   1      -0.835  -0.380  -0.419  0.00  0.00    -0.033 A 
ATOM      2  C1  UNL d   1       0.400   0.066   0.057  0.00  0.00     0.039 A 
ATOM      3  C2  UNL d   1       0.477   0.747   1.273  0.00  0.00    -0.080 A 
ATOM      4  C3  UNL d   1      -0.686   0.974   2.004  0.00  0.00     0.150 A 
ATOM      5  C4  UNL d   1      -1.919   0.529   1.538  0.00  0.00    -0.007 A 
ATOM      6  C5  UNL d   1      -1.994  -0.149   0.322  0.00  0.00     0.039 A 
ENDROOT
BRANCH   4   7
ATOM      7  O   UNL d   1      -0.661   1.638   3.194  0.00  0.00    -0.526 OA
ATOM      8  H5  UNL d   1       0.254   1.910   3.376  0.00  0.00     0.418 HD
ENDBRANCH   4   7
TORSDOF 1
ENDMDL
