MODEL 1
REMARK minimizedAffinity -3.67027164
REMARK minimizedRMSD -1
REMARK  1 active torsions:
REMARK  status: ('A' for Active; 'I' for Inactive)
REMARK    1  A    between atoms: C3_4  and  O_7 
ROOT
ATOM      1  C   UNL d   1      -1.484  -0.062   0.613  0.00  0.00    -0.033 A 
ATOM      2  C1  UNL d   1      -2.385  -0.355   1.639  0.00  0.00     0.039 A 
ATOM      3  C2  UNL d   1      -2.312   0.331   2.852  0.00  0.00    -0.080 A 
ATOM      4  C3  UNL d   1      -1.336   1.308   3.027  0.00  0.00     0.150 A 
ATOM      5  C4  UNL d   1      -0.438   1.609   2.008  0.00  0.00    -0.007 A 
ATOM      6  C5  UNL d   1      -0.511   0.921   0.798  0.00  0.00     0.039 A 
ENDROOT
BRANCH   4   7
ATOM      7  O   UNL d   1      -1.223   2.002   4.195  0.00  0.00    -0.526 OA
ATOM      8  H5  UNL d   1      -1.891   1.668   4.817  0.00  0.00     0.418 HD
ENDBRANCH   4   7
TORSDOF 1
ENDMDL
