MODEL 1
REMARK minimizedAffinity -3.86849284
REMARK minimizedRMSD -1
REMARK  1 active torsions:
REMARK  status: ('A' for Active; 'I' for Inactive)
REMARK    1  A    between atoms: C3_4  and  O_7 
ROOT
ATOM      1  C   UNL d   1      -0.424  -0.823  -3.003  0.00  0.00    -0.033 A 
ATOM      2  C1  UNL d   1       0.523  -0.912  -1.981  0.00  0.00     0.039 A 
ATOM      3  C2  UNL d   1       1.623  -0.052  -1.969  0.00  0.00    -0.080 A 
ATOM      4  C3  UNL d   1       1.762   0.893  -2.982  0.00  0.00     0.150 A 
ATOM      5  C4  UNL d   1       0.820   0.990  -4.000  0.00  0.00    -0.007 A 
ATOM      6  C5  UNL d   1      -0.276   0.129  -4.011  0.00  0.00     0.039 A 
ENDROOT
BRANCH   4   7
ATOM      7  O   UNL d   1       2.821   1.751  -3.015  0.00  0.00    -0.526 OA
ATOM      8  H5  UNL d   1       3.405   1.549  -2.264  0.00  0.00     0.418 HD
ENDBRANCH   4   7
TORSDOF 1
ENDMDL
