MODEL 1
REMARK minimizedAffinity -0.300441951
REMARK minimizedRMSD -1
REMARK  1 active torsions:
REMARK  status: ('A' for Active; 'I' for Inactive)
REMARK    1  A    between atoms: C3_4  and  O_7 
ROOT
ATOM      1  C   UNL d   1       0.386  -0.548   0.323  0.00  0.00    -0.033 A 
ATOM      2  C1  UNL d   1       0.222  -1.426  -0.750  0.00  0.00     0.039 A 
ATOM      3  C2  UNL d   1       0.510  -1.004  -2.050  0.00  0.00    -0.080 A 
ATOM      4  C3  UNL d   1       0.961   0.296  -2.262  0.00  0.00     0.150 A 
ATOM      5  C4  UNL d   1       1.130   1.174  -1.197  0.00  0.00    -0.007 A 
ATOM      6  C5  UNL d   1       0.841   0.752   0.100  0.00  0.00     0.039 A 
ENDROOT
BRANCH   4   7
ATOM      7  O   UNL d   1       1.251   0.754  -3.513  0.00  0.00    -0.526 OA
ATOM      8  H5  UNL d   1       1.060   0.047  -4.151  0.00  0.00     0.418 HD
ENDBRANCH   4   7
TORSDOF 1
ENDMDL
