MODEL 1
REMARK minimizedAffinity -4.11479521
REMARK minimizedRMSD -1
REMARK  1 active torsions:
REMARK  status: ('A' for Active; 'I' for Inactive)
REMARK    1  A    between atoms: C3_4  and  O_7 
ROOT
ATOM      1  C   UNL d   1      -1.107   1.271   2.773  0.00  0.00    -0.033 A 
ATOM      2  C1  UNL d   1       0.085   1.675   2.169  0.00  0.00     0.039 A 
ATOM      3  C2  UNL d   1       0.380   1.273   0.865  0.00  0.00    -0.080 A 
ATOM      4  C3  UNL d   1      -0.524   0.469   0.176  0.00  0.00     0.150 A 
ATOM      5  C4  UNL d   1      -1.715   0.066   0.771  0.00  0.00    -0.007 A 
ATOM      6  C5  UNL d   1      -2.008   0.467   2.074  0.00  0.00     0.039 A 
ENDROOT
BRANCH   4   7
ATOM      7  O   UNL d   1      -0.277   0.048  -1.097  0.00  0.00    -0.526 OA
ATOM      8  H5  UNL d   1       0.595   0.380  -1.367  0.00  0.00     0.418 HD
ENDBRANCH   4   7
TORSDOF 1
ENDMDL
