MODEL 1
REMARK minimizedAffinity -3.09848046
REMARK minimizedRMSD -1
REMARK  1 active torsions:
REMARK  status: ('A' for Active; 'I' for Inactive)
REMARK    1  A    between atoms: C3_4  and  O_7 
ROOT
ATOM      1  C   UNL d   1       0.955   0.163  -4.185  0.00  0.00    -0.033 A 
ATOM      2  C1  UNL d   1       1.573   1.166  -3.435  0.00  0.00     0.039 A 
ATOM      3  C2  UNL d   1       1.523   1.129  -2.041  0.00  0.00    -0.080 A 
ATOM      4  C3  UNL d   1       0.853   0.085  -1.408  0.00  0.00     0.150 A 
ATOM      5  C4  UNL d   1       0.239  -0.919  -2.149  0.00  0.00    -0.007 A 
ATOM      6  C5  UNL d   1       0.289  -0.880  -3.541  0.00  0.00     0.039 A 
ENDROOT
BRANCH   4   7
ATOM      7  O   UNL d   1       0.773   0.009  -0.050  0.00  0.00    -0.526 OA
ATOM      8  H5  UNL d   1       1.218   0.786   0.329  0.00  0.00     0.418 HD
ENDBRANCH   4   7
TORSDOF 1
ENDMDL
