MODEL 1
REMARK minimizedAffinity -3.26515603
REMARK minimizedRMSD -1
REMARK  1 active torsions:
REMARK  status: ('A' for Active; 'I' for Inactive)
REMARK    1  A    between atoms: C3_4  and  O_7 
ROOT
ATOM      1  C   UNL d   1       1.776   0.387  -5.046  0.00  0.00    -0.033 A 
ATOM      2  C1  UNL d   1       0.720  -0.520  -5.148  0.00  0.00     0.039 A 
ATOM      3  C2  UNL d   1       0.070  -0.970  -3.997  0.00  0.00    -0.080 A 
ATOM      4  C3  UNL d   1       0.484  -0.504  -2.752  0.00  0.00     0.150 A 
ATOM      5  C4  UNL d   1       1.533   0.403  -2.643  0.00  0.00    -0.007 A 
ATOM      6  C5  UNL d   1       2.182   0.850  -3.793  0.00  0.00     0.039 A 
ENDROOT
BRANCH   4   7
ATOM      7  O   UNL d   1      -0.117  -0.918  -1.601  0.00  0.00    -0.526 OA
ATOM      8  H5  UNL d   1      -0.805  -1.566  -1.828  0.00  0.00     0.418 HD
ENDBRANCH   4   7
TORSDOF 1
ENDMDL
