MODEL 1
REMARK minimizedAffinity -3.93608236
REMARK minimizedRMSD -1
REMARK  1 active torsions:
REMARK  status: ('A' for Active; 'I' for Inactive)
REMARK    1  A    between atoms: C3_4  and  O_7 
ROOT
ATOM      1  C   UNL d   1       1.153   0.060  -3.978  0.00  0.00    -0.033 A 
ATOM      2  C1  UNL d   1       1.816  -0.736  -3.042  0.00  0.00     0.039 A 
ATOM      3  C2  UNL d   1       1.347  -0.811  -1.729  0.00  0.00    -0.080 A 
ATOM      4  C3  UNL d   1       0.215  -0.088  -1.366  0.00  0.00     0.150 A 
ATOM      5  C4  UNL d   1      -0.453   0.705  -2.294  0.00  0.00    -0.007 A 
ATOM      6  C5  UNL d   1       0.017   0.779  -3.604  0.00  0.00     0.039 A 
ENDROOT
BRANCH   4   7
ATOM      7  O   UNL d   1      -0.278  -0.126  -0.095  0.00  0.00    -0.526 OA
ATOM      8  H5  UNL d   1       0.302  -0.690   0.443  0.00  0.00     0.418 HD
ENDBRANCH   4   7
TORSDOF 1
ENDMDL
