MODEL 1
REMARK minimizedAffinity 0.907385886
REMARK minimizedRMSD -1
REMARK  1 active torsions:
REMARK  status: ('A' for Active; 'I' for Inactive)
REMARK    1  A    between atoms: C1_2  and  C2_3 
ROOT
ATOM      1  C2  UNL d   1       0.842   0.733  -2.617  0.00  0.00    -0.076 A 
ATOM      2  C3  UNL d   1      -0.047  -0.258  -3.069  0.00  0.00     0.004 A 
ATOM      3  C4  UNL d   1      -0.219  -0.501  -4.431  0.00  0.00    -0.003 A 
ATOM      4  C5  UNL d   1       0.496   0.243  -5.363  0.00  0.00     0.000 A 
ATOM      5  C6  UNL d   1       1.395   1.218  -4.932  0.00  0.00     0.000 A 
ATOM      6  C7  UNL d   1       1.592   1.465  -3.563  0.00  0.00    -0.073 A 
ATOM      7  C8  UNL d   1       2.570   2.532  -3.154  0.00  0.00     0.078 C 
ENDROOT
BRANCH   1   8
ATOM      8  C1  UNL d   1       0.966   0.971  -1.129  0.00  0.00     0.053 C 
ATOM      9  C   UNL d   1       0.022   0.096  -0.319  0.00  0.00     0.018 C 
ENDBRANCH   1   8
TORSDOF 1
ENDMDL
