MODEL 1
REMARK minimizedAffinity 2.52285528
REMARK minimizedRMSD -1
REMARK  1 active torsions:
REMARK  status: ('A' for Active; 'I' for Inactive)
REMARK    1  A    between atoms: C1_2  and  C2_3 
ROOT
ATOM      1  C2  UNL d   1       0.734   0.327   0.108  0.00  0.00    -0.076 A 
ATOM      2  C3  UNL d   1       0.149   1.485   0.649  0.00  0.00     0.004 A 
ATOM      3  C4  UNL d   1       0.648   2.064   1.814  0.00  0.00    -0.003 A 
ATOM      4  C5  UNL d   1       1.741   1.495   2.458  0.00  0.00     0.000 A 
ATOM      5  C6  UNL d   1       2.345   0.356   1.926  0.00  0.00     0.000 A 
ATOM      6  C7  UNL d   1       1.864  -0.231   0.743  0.00  0.00    -0.073 A 
ATOM      7  C8  UNL d   1       2.550  -1.463   0.218  0.00  0.00     0.078 C 
ENDROOT
BRANCH   1   8
ATOM      8  C1  UNL d   1       0.132  -0.273  -1.143  0.00  0.00     0.053 C 
ATOM      9  C   UNL d   1      -1.275  -0.802  -0.916  0.00  0.00     0.018 C 
ENDBRANCH   1   8
TORSDOF 1
ENDMDL
