MODEL 1
REMARK minimizedAffinity -2.2310009
REMARK minimizedRMSD -1
REMARK  1 active torsions:
REMARK  status: ('A' for Active; 'I' for Inactive)
REMARK    1  A    between atoms: C1_2  and  C2_3 
ROOT
ATOM      1  C2  UNL d   1       0.067  -0.381  -0.191  0.00  0.00    -0.076 A 
ATOM      2  C3  UNL d   1       1.084  -0.060   0.726  0.00  0.00     0.004 A 
ATOM      3  C4  UNL d   1       0.793   0.598   1.919  0.00  0.00    -0.003 A 
ATOM      4  C5  UNL d   1      -0.521   0.945   2.217  0.00  0.00     0.000 A 
ATOM      5  C6  UNL d   1      -1.544   0.619   1.328  0.00  0.00     0.000 A 
ATOM      6  C7  UNL d   1      -1.270  -0.059   0.127  0.00  0.00    -0.073 A 
ATOM      7  C8  UNL d   1      -2.411  -0.380  -0.798  0.00  0.00     0.078 C 
ENDROOT
BRANCH   1   8
ATOM      8  C1  UNL d   1       0.447  -1.070  -1.482  0.00  0.00     0.053 C 
ATOM      9  C   UNL d   1       0.951  -0.097  -2.536  0.00  0.00     0.018 C 
ENDBRANCH   1   8
TORSDOF 1
ENDMDL
