MODEL 1
REMARK minimizedAffinity -4.50463629
REMARK minimizedRMSD -1
REMARK  1 active torsions:
REMARK  status: ('A' for Active; 'I' for Inactive)
REMARK    1  A    between atoms: C1_2  and  C2_3 
ROOT
ATOM      1  C2  UNL d   1       0.296   0.049   0.813  0.00  0.00    -0.076 A 
ATOM      2  C3  UNL d   1      -1.087   0.189   0.606  0.00  0.00     0.004 A 
ATOM      3  C4  UNL d   1      -1.880   0.896   1.508  0.00  0.00    -0.003 A 
ATOM      4  C5  UNL d   1      -1.303   1.476   2.632  0.00  0.00     0.000 A 
ATOM      5  C6  UNL d   1       0.070   1.363   2.845  0.00  0.00     0.000 A 
ATOM      6  C7  UNL d   1       0.887   0.667   1.937  0.00  0.00    -0.073 A 
ATOM      7  C8  UNL d   1       2.361   0.571   2.219  0.00  0.00     0.078 C 
ENDROOT
BRANCH   1   8
ATOM      8  C1  UNL d   1       1.101  -0.752  -0.185  0.00  0.00     0.053 C 
ATOM      9  C   UNL d   1       0.799  -0.363  -1.623  0.00  0.00     0.018 C 
ENDBRANCH   1   8
TORSDOF 1
ENDMDL
