MODEL 1
REMARK minimizedAffinity -3.38476872
REMARK minimizedRMSD -1
REMARK  1 active torsions:
REMARK  status: ('A' for Active; 'I' for Inactive)
REMARK    1  A    between atoms: C3_4  and  O_7 
ROOT
ATOM      1  C   UNL d   1       0.018   0.598  -0.379  0.00  0.00    -0.033 A 
ATOM      2  C1  UNL d   1      -1.342   0.415  -0.121  0.00  0.00     0.039 A 
ATOM      3  C2  UNL d   1      -1.770   0.067   1.161  0.00  0.00    -0.080 A 
ATOM      4  C3  UNL d   1      -0.831  -0.092   2.176  0.00  0.00     0.150 A 
ATOM      5  C4  UNL d   1       0.525   0.093   1.927  0.00  0.00    -0.007 A 
ATOM      6  C5  UNL d   1       0.951   0.439   0.645  0.00  0.00     0.039 A 
ENDROOT
BRANCH   4   7
ATOM      7  O   UNL d   1      -1.200  -0.436   3.442  0.00  0.00    -0.526 OA
ATOM      8  H5  UNL d   1      -2.164  -0.558   3.459  0.00  0.00     0.418 HD
ENDBRANCH   4   7
TORSDOF 1
ENDMDL
