MODEL 1
REMARK minimizedAffinity -4.48311043
REMARK minimizedRMSD -1
REMARK  1 active torsions:
REMARK  status: ('A' for Active; 'I' for Inactive)
REMARK    1  A    between atoms: C3_4  and  O_7 
ROOT
ATOM      1  C   UNL d   1      -0.652   0.844  -0.916  0.00  0.00    -0.033 A 
ATOM      2  C1  UNL d   1       0.499   0.795  -0.128  0.00  0.00     0.039 A 
ATOM      3  C2  UNL d   1       0.420   0.372   1.200  0.00  0.00    -0.080 A 
ATOM      4  C3  UNL d   1      -0.813  -0.001   1.727  0.00  0.00     0.150 A 
ATOM      5  C4  UNL d   1      -1.964   0.042   0.946  0.00  0.00    -0.007 A 
ATOM      6  C5  UNL d   1      -1.884   0.466  -0.379  0.00  0.00     0.039 A 
ENDROOT
BRANCH   4   7
ATOM      7  O   UNL d   1      -0.940  -0.416   3.019  0.00  0.00    -0.526 OA
ATOM      8  H5  UNL d   1      -0.068  -0.367   3.445  0.00  0.00     0.418 HD
ENDBRANCH   4   7
TORSDOF 1
ENDMDL
