MODEL 1
REMARK minimizedAffinity -3.9458313
REMARK minimizedRMSD -1
REMARK  1 active torsions:
REMARK  status: ('A' for Active; 'I' for Inactive)
REMARK    1  A    between atoms: C3_4  and  O_7 
ROOT
ATOM      1  C   UNL d   1       0.010   0.370   0.019  0.00  0.00    -0.033 A 
ATOM      2  C1  UNL d   1      -1.354   0.110   0.170  0.00  0.00     0.039 A 
ATOM      3  C2  UNL d   1      -1.872  -0.202   1.429  0.00  0.00    -0.080 A 
ATOM      4  C3  UNL d   1      -1.017  -0.249   2.527  0.00  0.00     0.150 A 
ATOM      5  C4  UNL d   1       0.342   0.013   2.384  0.00  0.00    -0.007 A 
ATOM      6  C5  UNL d   1       0.857   0.323   1.126  0.00  0.00     0.039 A 
ENDROOT
BRANCH   4   7
ATOM      7  O   UNL d   1      -1.476  -0.553   3.774  0.00  0.00    -0.526 OA
ATOM      8  H5  UNL d   1      -2.428  -0.738   3.715  0.00  0.00     0.418 HD
ENDBRANCH   4   7
TORSDOF 1
ENDMDL
