MODEL 1
REMARK minimizedAffinity -1.26289237
REMARK minimizedRMSD -1
REMARK  1 active torsions:
REMARK  status: ('A' for Active; 'I' for Inactive)
REMARK    1  A    between atoms: C3_4  and  O_7 
ROOT
ATOM      1  C   UNL d   1      -0.168   0.469   1.537  0.00  0.00    -0.033 A 
ATOM      2  C1  UNL d   1      -1.235   0.442   0.637  0.00  0.00     0.039 A 
ATOM      3  C2  UNL d   1      -0.993   0.484  -0.737  0.00  0.00    -0.080 A 
ATOM      4  C3  UNL d   1       0.319   0.553  -1.198  0.00  0.00     0.150 A 
ATOM      5  C4  UNL d   1       1.387   0.577  -0.307  0.00  0.00    -0.007 A 
ATOM      6  C5  UNL d   1       1.143   0.535   1.065  0.00  0.00     0.039 A 
ENDROOT
BRANCH   4   7
ATOM      7  O   UNL d   1       0.605   0.601  -2.530  0.00  0.00    -0.526 OA
ATOM      8  H5  UNL d   1      -0.232   0.606  -3.025  0.00  0.00     0.418 HD
ENDBRANCH   4   7
TORSDOF 1
ENDMDL
