MODEL 1
REMARK minimizedAffinity -3.2041328
REMARK minimizedRMSD -1
REMARK  1 active torsions:
REMARK  status: ('A' for Active; 'I' for Inactive)
REMARK    1  A    between atoms: C3_4  and  O_7 
ROOT
ATOM      1  C   UNL d   1       0.009  -0.222   1.739  0.00  0.00    -0.033 A 
ATOM      2  C1  UNL d   1       1.138   0.116   0.991  0.00  0.00     0.039 A 
ATOM      3  C2  UNL d   1       1.039   0.278  -0.392  0.00  0.00    -0.080 A 
ATOM      4  C3  UNL d   1      -0.194   0.101  -1.014  0.00  0.00     0.150 A 
ATOM      5  C4  UNL d   1      -1.324  -0.232  -0.275  0.00  0.00    -0.007 A 
ATOM      6  C5  UNL d   1      -1.223  -0.395   1.106  0.00  0.00     0.039 A 
ENDROOT
BRANCH   4   7
ATOM      7  O   UNL d   1      -0.339   0.244  -2.362  0.00  0.00    -0.526 OA
ATOM      8  H5  UNL d   1       0.531   0.446  -2.746  0.00  0.00     0.418 HD
ENDBRANCH   4   7
TORSDOF 1
ENDMDL
