MODEL 1
REMARK minimizedAffinity -5.21008062
REMARK minimizedRMSD -1
REMARK  1 active torsions:
REMARK  status: ('A' for Active; 'I' for Inactive)
REMARK    1  A    between atoms: C3_4  and  O_7 
ROOT
ATOM      1  C   UNL d   1      -0.684  -0.825   2.921  0.00  0.00    -0.033 A 
ATOM      2  C1  UNL d   1       0.521  -0.185   2.624  0.00  0.00     0.039 A 
ATOM      3  C2  UNL d   1       0.758   0.298   1.336  0.00  0.00    -0.080 A 
ATOM      4  C3  UNL d   1      -0.217   0.137   0.355  0.00  0.00     0.150 A 
ATOM      5  C4  UNL d   1      -1.421  -0.496   0.645  0.00  0.00    -0.007 A 
ATOM      6  C5  UNL d   1      -1.656  -0.979   1.932  0.00  0.00     0.039 A 
ENDROOT
BRANCH   4   7
ATOM      7  O   UNL d   1      -0.029   0.587  -0.917  0.00  0.00    -0.526 OA
ATOM      8  H5  UNL d   1       0.860   0.977  -0.978  0.00  0.00     0.418 HD
ENDBRANCH   4   7
TORSDOF 1
ENDMDL
