MODEL 1
REMARK minimizedAffinity -4.05043268
REMARK minimizedRMSD -1
REMARK  1 active torsions:
REMARK  status: ('A' for Active; 'I' for Inactive)
REMARK    1  A    between atoms: C3_4  and  O_7 
ROOT
ATOM      1  C   UNL d   1       0.362  -0.032  -0.359  0.00  0.00    -0.033 A 
ATOM      2  C1  UNL d   1      -0.991  -0.058  -0.014  0.00  0.00     0.039 A 
ATOM      3  C2  UNL d   1      -1.374  -0.361   1.294  0.00  0.00    -0.080 A 
ATOM      4  C3  UNL d   1      -0.396  -0.635   2.247  0.00  0.00     0.150 A 
ATOM      5  C4  UNL d   1       0.954  -0.608   1.911  0.00  0.00    -0.007 A 
ATOM      6  C5  UNL d   1       1.334  -0.306   0.604  0.00  0.00     0.039 A 
ENDROOT
BRANCH   4   7
ATOM      7  O   UNL d   1      -0.721  -0.941   3.535  0.00  0.00    -0.526 OA
ATOM      8  H5  UNL d   1      -1.690  -0.951   3.613  0.00  0.00     0.418 HD
ENDBRANCH   4   7
TORSDOF 1
ENDMDL
