MODEL 1
REMARK minimizedAffinity -3.28150773
REMARK minimizedRMSD -1
REMARK  1 active torsions:
REMARK  status: ('A' for Active; 'I' for Inactive)
REMARK    1  A    between atoms: C3_4  and  O_7 
ROOT
ATOM      1  C   UNL d   1      -1.441  -0.402   2.445  0.00  0.00    -0.033 A 
ATOM      2  C1  UNL d   1      -0.069  -0.493   2.204  0.00  0.00     0.039 A 
ATOM      3  C2  UNL d   1       0.438  -0.220   0.932  0.00  0.00    -0.080 A 
ATOM      4  C3  UNL d   1      -0.437   0.144  -0.089  0.00  0.00     0.150 A 
ATOM      5  C4  UNL d   1      -1.805   0.240   0.146  0.00  0.00    -0.007 A 
ATOM      6  C5  UNL d   1      -2.309  -0.034   1.417  0.00  0.00     0.039 A 
ENDROOT
BRANCH   4   7
ATOM      7  O   UNL d   1       0.010   0.415  -1.348  0.00  0.00    -0.526 OA
ATOM      8  H5  UNL d   1       0.972   0.280  -1.368  0.00  0.00     0.418 HD
ENDBRANCH   4   7
TORSDOF 1
ENDMDL
