MODEL 1
REMARK minimizedAffinity -4.75984526
REMARK minimizedRMSD -1
REMARK  1 active torsions:
REMARK  status: ('A' for Active; 'I' for Inactive)
REMARK    1  A    between atoms: C3_4  and  O_7 
ROOT
ATOM      1  C   UNL d   1       0.651   0.233   0.840  0.00  0.00    -0.033 A 
ATOM      2  C1  UNL d   1       1.034   0.524   2.150  0.00  0.00     0.039 A 
ATOM      3  C2  UNL d   1       0.231   0.125   3.220  0.00  0.00    -0.080 A 
ATOM      4  C3  UNL d   1      -0.952  -0.564   2.966  0.00  0.00     0.150 A 
ATOM      5  C4  UNL d   1      -1.339  -0.860   1.663  0.00  0.00    -0.007 A 
ATOM      6  C5  UNL d   1      -0.535  -0.461   0.596  0.00  0.00     0.039 A 
ENDROOT
BRANCH   4   7
ATOM      7  O   UNL d   1      -1.772  -0.969   3.977  0.00  0.00    -0.526 OA
ATOM      8  H5  UNL d   1      -1.392  -0.669   4.820  0.00  0.00     0.418 HD
ENDBRANCH   4   7
TORSDOF 1
ENDMDL
