MODEL 1
REMARK minimizedAffinity -1.94361603
REMARK minimizedRMSD -1
REMARK  1 active torsions:
REMARK  status: ('A' for Active; 'I' for Inactive)
REMARK    1  A    between atoms: C3_4  and  O_7 
ROOT
ATOM      1  C   UNL d   1       0.309  -0.324   2.897  0.00  0.00    -0.033 A 
ATOM      2  C1  UNL d   1       1.412   0.246   2.258  0.00  0.00     0.039 A 
ATOM      3  C2  UNL d   1       1.393   0.450   0.877  0.00  0.00    -0.080 A 
ATOM      4  C3  UNL d   1       0.267   0.081   0.147  0.00  0.00     0.150 A 
ATOM      5  C4  UNL d   1      -0.837  -0.484   0.777  0.00  0.00    -0.007 A 
ATOM      6  C5  UNL d   1      -0.817  -0.688   2.156  0.00  0.00     0.039 A 
ENDROOT
BRANCH   4   7
ATOM      7  O   UNL d   1       0.204   0.256  -1.203  0.00  0.00    -0.526 OA
ATOM      8  H5  UNL d   1       1.049   0.629  -1.505  0.00  0.00     0.418 HD
ENDBRANCH   4   7
TORSDOF 1
ENDMDL
