MODEL 1
REMARK minimizedAffinity -4.0254941
REMARK minimizedRMSD -1
REMARK  1 active torsions:
REMARK  status: ('A' for Active; 'I' for Inactive)
REMARK    1  A    between atoms: C3_4  and  O_7 
ROOT
ATOM      1  C   UNL d   1      -1.747  -0.403   1.576  0.00  0.00    -0.033 A 
ATOM      2  C1  UNL d   1      -0.885  -0.220   2.658  0.00  0.00     0.039 A 
ATOM      3  C2  UNL d   1       0.444   0.150   2.440  0.00  0.00    -0.080 A 
ATOM      4  C3  UNL d   1       0.897   0.334   1.137  0.00  0.00     0.150 A 
ATOM      5  C4  UNL d   1       0.042   0.157   0.054  0.00  0.00    -0.007 A 
ATOM      6  C5  UNL d   1      -1.284  -0.214   0.273  0.00  0.00     0.039 A 
ENDROOT
BRANCH   4   7
ATOM      7  O   UNL d   1       2.186   0.690   0.874  0.00  0.00    -0.526 OA
ATOM      8  H5  UNL d   1       2.667   0.749   1.717  0.00  0.00     0.418 HD
ENDBRANCH   4   7
TORSDOF 1
ENDMDL
