MODEL 1
REMARK minimizedAffinity -4.59946299
REMARK minimizedRMSD -1
REMARK  1 active torsions:
REMARK  status: ('A' for Active; 'I' for Inactive)
REMARK    1  A    between atoms: C3_4  and  O_7 
ROOT
ATOM      1  C   UNL d   1      -2.114  -0.405   2.080  0.00  0.00    -0.033 A 
ATOM      2  C1  UNL d   1      -1.014  -0.159   2.904  0.00  0.00     0.039 A 
ATOM      3  C2  UNL d   1       0.217   0.187   2.344  0.00  0.00    -0.080 A 
ATOM      4  C3  UNL d   1       0.335   0.285   0.960  0.00  0.00     0.150 A 
ATOM      5  C4  UNL d   1      -0.758   0.045   0.133  0.00  0.00    -0.007 A 
ATOM      6  C5  UNL d   1      -1.986  -0.301   0.695  0.00  0.00     0.039 A 
ENDROOT
BRANCH   4   7
ATOM      7  O   UNL d   1       1.517   0.615   0.367  0.00  0.00    -0.526 OA
ATOM      8  H5  UNL d   1       2.190   0.723   1.060  0.00  0.00     0.418 HD
ENDBRANCH   4   7
TORSDOF 1
ENDMDL
