MODEL 1
REMARK minimizedAffinity -2.74188972
REMARK minimizedRMSD -1
REMARK  1 active torsions:
REMARK  status: ('A' for Active; 'I' for Inactive)
REMARK    1  A    between atoms: C3_4  and  O_7 
ROOT
ATOM      1  C   UNL d   1       0.654   0.172   0.672  0.00  0.00    -0.033 A 
ATOM      2  C1  UNL d   1      -0.639  -0.313   0.469  0.00  0.00     0.039 A 
ATOM      3  C2  UNL d   1      -1.398  -0.759   1.552  0.00  0.00    -0.080 A 
ATOM      4  C3  UNL d   1      -0.853  -0.713   2.833  0.00  0.00     0.150 A 
ATOM      5  C4  UNL d   1       0.434  -0.228   3.043  0.00  0.00    -0.007 A 
ATOM      6  C5  UNL d   1       1.190   0.216   1.959  0.00  0.00     0.039 A 
ENDROOT
BRANCH   4   7
ATOM      7  O   UNL d   1      -1.553  -1.142   3.921  0.00  0.00    -0.526 OA
ATOM      8  H5  UNL d   1      -2.415  -1.477   3.620  0.00  0.00     0.418 HD
ENDBRANCH   4   7
TORSDOF 1
ENDMDL
