MODEL 1
REMARK minimizedAffinity -2.45130563
REMARK minimizedRMSD -1
REMARK  1 active torsions:
REMARK  status: ('A' for Active; 'I' for Inactive)
REMARK    1  A    between atoms: C3_4  and  O_7 
ROOT
ATOM      1  C   UNL d   1      -0.692   0.468  -1.153  0.00  0.00    -0.033 A 
ATOM      2  C1  UNL d   1       0.606   0.654  -0.675  0.00  0.00     0.039 A 
ATOM      3  C2  UNL d   1       0.853   0.650   0.699  0.00  0.00    -0.080 A 
ATOM      4  C3  UNL d   1      -0.205   0.459   1.583  0.00  0.00     0.150 A 
ATOM      5  C4  UNL d   1      -1.501   0.270   1.113  0.00  0.00    -0.007 A 
ATOM      6  C5  UNL d   1      -1.746   0.275  -0.259  0.00  0.00     0.039 A 
ENDROOT
BRANCH   4   7
ATOM      7  O   UNL d   1      -0.014   0.452   2.933  0.00  0.00    -0.526 OA
ATOM      8  H5  UNL d   1       0.925   0.624   3.112  0.00  0.00     0.418 HD
ENDBRANCH   4   7
TORSDOF 1
ENDMDL
