MODEL 1
REMARK minimizedAffinity -4.00468779
REMARK minimizedRMSD -1
REMARK  1 active torsions:
REMARK  status: ('A' for Active; 'I' for Inactive)
REMARK    1  A    between atoms: C3_4  and  O_7 
ROOT
ATOM      1  C   UNL d   1       0.260   0.714  -0.876  0.00  0.00    -0.033 A 
ATOM      2  C1  UNL d   1       1.438   0.513  -0.155  0.00  0.00     0.039 A 
ATOM      3  C2  UNL d   1       1.382   0.062   1.166  0.00  0.00    -0.080 A 
ATOM      4  C3  UNL d   1       0.144  -0.183   1.752  0.00  0.00     0.150 A 
ATOM      5  C4  UNL d   1      -1.034   0.012   1.038  0.00  0.00    -0.007 A 
ATOM      6  C5  UNL d   1      -0.976   0.462  -0.280  0.00  0.00     0.039 A 
ENDROOT
BRANCH   4   7
ATOM      7  O   UNL d   1       0.039  -0.619   3.040  0.00  0.00    -0.526 OA
ATOM      8  H5  UNL d   1       0.932  -0.681   3.417  0.00  0.00     0.418 HD
ENDBRANCH   4   7
TORSDOF 1
ENDMDL
