MODEL 1
REMARK minimizedAffinity -4.10438251
REMARK minimizedRMSD -1
REMARK  1 active torsions:
REMARK  status: ('A' for Active; 'I' for Inactive)
REMARK    1  A    between atoms: C3_4  and  O_7 
ROOT
ATOM      1  C   UNL d   1      -0.280  -0.366   3.012  0.00  0.00    -0.033 A 
ATOM      2  C1  UNL d   1       0.852   0.310   2.553  0.00  0.00     0.039 A 
ATOM      3  C2  UNL d   1       1.038   0.513   1.184  0.00  0.00    -0.080 A 
ATOM      4  C3  UNL d   1       0.087   0.036   0.287  0.00  0.00     0.150 A 
ATOM      5  C4  UNL d   1      -1.045  -0.635   0.738  0.00  0.00    -0.007 A 
ATOM      6  C5  UNL d   1      -1.229  -0.838   2.105  0.00  0.00     0.039 A 
ENDROOT
BRANCH   4   7
ATOM      7  O   UNL d   1       0.228   0.206  -1.059  0.00  0.00    -0.526 OA
ATOM      8  H5  UNL d   1       1.070   0.661  -1.225  0.00  0.00     0.418 HD
ENDBRANCH   4   7
TORSDOF 1
ENDMDL
