MODEL 1
REMARK minimizedAffinity -3.80741811
REMARK minimizedRMSD -1
REMARK  1 active torsions:
REMARK  status: ('A' for Active; 'I' for Inactive)
REMARK    1  A    between atoms: C3_4  and  O_7 
ROOT
ATOM      1  C   UNL d   1       0.268  -0.167   2.787  0.00  0.00    -0.033 A 
ATOM      2  C1  UNL d   1       1.367   0.204   2.011  0.00  0.00     0.039 A 
ATOM      3  C2  UNL d   1       1.211   0.438   0.643  0.00  0.00    -0.080 A 
ATOM      4  C3  UNL d   1      -0.048   0.300   0.065  0.00  0.00     0.150 A 
ATOM      5  C4  UNL d   1      -1.148  -0.065   0.834  0.00  0.00    -0.007 A 
ATOM      6  C5  UNL d   1      -0.991  -0.299   2.199  0.00  0.00     0.039 A 
ENDROOT
BRANCH   4   7
ATOM      7  O   UNL d   1      -0.248   0.514  -1.266  0.00  0.00    -0.526 OA
ATOM      8  H5  UNL d   1       0.606   0.731  -1.675  0.00  0.00     0.418 HD
ENDBRANCH   4   7
TORSDOF 1
ENDMDL
