MODEL 1
REMARK minimizedAffinity -1.53445482
REMARK minimizedRMSD -1
REMARK  1 active torsions:
REMARK  status: ('A' for Active; 'I' for Inactive)
REMARK    1  A    between atoms: C3_4  and  O_7 
ROOT
ATOM      1  C   UNL d   1       0.225  -1.508   1.413  0.00  0.00    -0.033 A 
ATOM      2  C1  UNL d   1      -1.131  -1.813   1.280  0.00  0.00     0.039 A 
ATOM      3  C2  UNL d   1      -1.931  -1.079   0.402  0.00  0.00    -0.080 A 
ATOM      4  C3  UNL d   1      -1.364  -0.044  -0.336  0.00  0.00     0.150 A 
ATOM      5  C4  UNL d   1      -0.013   0.263  -0.211  0.00  0.00    -0.007 A 
ATOM      6  C5  UNL d   1       0.784  -0.471   0.666  0.00  0.00     0.039 A 
ENDROOT
BRANCH   4   7
ATOM      7  O   UNL d   1      -2.105   0.704  -1.202  0.00  0.00    -0.526 OA
ATOM      8  H5  UNL d   1      -3.026   0.397  -1.162  0.00  0.00     0.418 HD
ENDBRANCH   4   7
TORSDOF 1
ENDMDL
