MODEL 1
REMARK minimizedAffinity 11.7730503
REMARK minimizedRMSD -1
REMARK  3 active torsions:
REMARK  status: ('A' for Active; 'I' for Inactive)
REMARK    1  A    between atoms: C3'_2  and  C2'_3 
REMARK    2  A    between atoms: C2'_3  and  C1'_4 
REMARK    3  A    between atoms: C1'_4  and  C1_5 
ROOT
ATOM      1  C1  N4B d   1       0.667  -3.322  -1.919  0.00  0.00    -0.075 A 
ATOM      2  C2  N4B d   1       0.753  -1.927  -2.124  0.00  0.00     0.002 A 
ATOM      3  C3  N4B d   1       1.831  -1.227  -1.641  0.00  0.00     0.002 A 
ATOM      4  C4  N4B d   1       2.822  -1.895  -0.936  0.00  0.00    -0.004 A 
ATOM      5  C5  N4B d   1       2.744  -3.246  -0.764  0.00  0.00     0.002 A 
ATOM      6  C6  N4B d   1       1.668  -3.962  -1.248  0.00  0.00     0.002 A 
ENDROOT
BRANCH   1   7
ATOM      7  C1' N4B d   1      -0.535  -4.115  -2.354  0.00  0.00     0.057 C 
BRANCH   7   8
ATOM      8  C2' N4B d   1      -0.107  -5.135  -3.405  0.00  0.00     0.009 C 
BRANCH   8   9
ATOM      9  C3' N4B d   1      -1.272  -5.993  -3.871  0.00  0.00     0.004 C 
ATOM     10  C4' N4B d   1      -1.707  -5.670  -5.269  0.00  0.00     0.003 C 
ENDBRANCH   8   9
ENDBRANCH   7   8
ENDBRANCH   1   7
TORSDOF 3
ENDMDL
