MODEL 1
REMARK minimizedAffinity 14.1058254
REMARK minimizedRMSD -1
REMARK  3 active torsions:
REMARK  status: ('A' for Active; 'I' for Inactive)
REMARK    1  A    between atoms: C3'_2  and  C2'_3 
REMARK    2  A    between atoms: C2'_3  and  C1'_4 
REMARK    3  A    between atoms: C1'_4  and  C1_5 
ROOT
ATOM      1  C1  N4B d   1       2.557  -3.711  -0.745  0.00  0.00    -0.075 A 
ATOM      2  C2  N4B d   1       2.006  -5.004  -0.884  0.00  0.00     0.002 A 
ATOM      3  C3  N4B d   1       2.735  -5.999  -1.489  0.00  0.00     0.002 A 
ATOM      4  C4  N4B d   1       4.003  -5.721  -1.977  0.00  0.00    -0.004 A 
ATOM      5  C5  N4B d   1       4.537  -4.477  -1.816  0.00  0.00     0.002 A 
ATOM      6  C6  N4B d   1       3.818  -3.468  -1.207  0.00  0.00     0.002 A 
ENDROOT
BRANCH   1   7
ATOM      7  C1' N4B d   1       1.766  -2.569  -0.168  0.00  0.00     0.057 C 
BRANCH   7   8
ATOM      8  C2' N4B d   1       1.868  -1.367  -1.103  0.00  0.00     0.009 C 
BRANCH   8   9
ATOM      9  C3' N4B d   1       2.202  -0.090  -0.351  0.00  0.00     0.004 C 
ATOM     10  C4' N4B d   1       2.222   1.118  -1.240  0.00  0.00     0.003 C 
ENDBRANCH   8   9
ENDBRANCH   7   8
ENDBRANCH   1   7
TORSDOF 3
ENDMDL
