MODEL 1
REMARK minimizedAffinity 3.67280579
REMARK minimizedRMSD -1
REMARK  3 active torsions:
REMARK  status: ('A' for Active; 'I' for Inactive)
REMARK    1  A    between atoms: C3'_2  and  C2'_3 
REMARK    2  A    between atoms: C2'_3  and  C1'_4 
REMARK    3  A    between atoms: C1'_4  and  C1_5 
ROOT
ATOM      1  C1  N4B d   1       1.229  -1.398  -1.304  0.00  0.00    -0.075 A 
ATOM      2  C2  N4B d   1       0.941  -0.451  -2.311  0.00  0.00     0.002 A 
ATOM      3  C3  N4B d   1       1.724   0.669  -2.445  0.00  0.00     0.002 A 
ATOM      4  C4  N4B d   1       2.785   0.872  -1.575  0.00  0.00    -0.004 A 
ATOM      5  C5  N4B d   1       3.072  -0.060  -0.621  0.00  0.00     0.002 A 
ATOM      6  C6  N4B d   1       2.296  -1.192  -0.477  0.00  0.00     0.002 A 
ENDROOT
BRANCH   1   7
ATOM      7  C1' N4B d   1       0.349  -2.594  -1.063  0.00  0.00     0.057 C 
BRANCH   7   8
ATOM      8  C2' N4B d   1      -0.490  -2.857  -2.310  0.00  0.00     0.009 C 
BRANCH   8   9
ATOM      9  C3' N4B d   1      -1.977  -2.874  -2.001  0.00  0.00     0.004 C 
ATOM     10  C4' N4B d   1      -2.727  -1.777  -2.696  0.00  0.00     0.003 C 
ENDBRANCH   8   9
ENDBRANCH   7   8
ENDBRANCH   1   7
TORSDOF 3
ENDMDL
