MODEL 1
REMARK minimizedAffinity 10.6404161
REMARK minimizedRMSD -1
REMARK  3 active torsions:
REMARK  status: ('A' for Active; 'I' for Inactive)
REMARK    1  A    between atoms: C3'_2  and  C2'_3 
REMARK    2  A    between atoms: C2'_3  and  C1'_4 
REMARK    3  A    between atoms: C1'_4  and  C1_5 
ROOT
ATOM      1  C1  N4B d   1       0.993  -1.867  -2.578  0.00  0.00    -0.075 A 
ATOM      2  C2  N4B d   1      -0.006  -2.714  -3.106  0.00  0.00     0.002 A 
ATOM      3  C3  N4B d   1      -0.346  -3.870  -2.446  0.00  0.00     0.002 A 
ATOM      4  C4  N4B d   1       0.310  -4.207  -1.271  0.00  0.00    -0.004 A 
ATOM      5  C5  N4B d   1       1.256  -3.371  -0.755  0.00  0.00     0.002 A 
ATOM      6  C6  N4B d   1       1.605  -2.204  -1.405  0.00  0.00     0.002 A 
ENDROOT
BRANCH   1   7
ATOM      7  C1' N4B d   1       1.458  -0.637  -3.308  0.00  0.00     0.057 C 
BRANCH   7   8
ATOM      8  C2' N4B d   1       1.847   0.432  -2.291  0.00  0.00     0.009 C 
BRANCH   8   9
ATOM      9  C3' N4B d   1       1.452   1.824  -2.751  0.00  0.00     0.004 C 
ATOM     10  C4' N4B d   1       0.294   1.815  -3.704  0.00  0.00     0.003 C 
ENDBRANCH   8   9
ENDBRANCH   7   8
ENDBRANCH   1   7
TORSDOF 3
ENDMDL
