MODEL 1
REMARK minimizedAffinity 2.67747831
REMARK minimizedRMSD -1
REMARK  3 active torsions:
REMARK  status: ('A' for Active; 'I' for Inactive)
REMARK    1  A    between atoms: C3'_2  and  C2'_3 
REMARK    2  A    between atoms: C2'_3  and  C1'_4 
REMARK    3  A    between atoms: C1'_4  and  C1_5 
ROOT
ATOM      1  C1  N4B d   1       2.065   1.478   3.097  0.00  0.00    -0.075 A 
ATOM      2  C2  N4B d   1       1.474   0.381   3.762  0.00  0.00     0.002 A 
ATOM      3  C3  N4B d   1       1.496   0.317   5.134  0.00  0.00     0.002 A 
ATOM      4  C4  N4B d   1       2.116   1.324   5.858  0.00  0.00    -0.004 A 
ATOM      5  C5  N4B d   1       2.661   2.393   5.209  0.00  0.00     0.002 A 
ATOM      6  C6  N4B d   1       2.643   2.473   3.831  0.00  0.00     0.002 A 
ENDROOT
BRANCH   1   7
ATOM      7  C1' N4B d   1       2.141   1.549   1.597  0.00  0.00     0.057 C 
BRANCH   7   8
ATOM      8  C2' N4B d   1       3.464   2.193   1.193  0.00  0.00     0.009 C 
BRANCH   8   9
ATOM      9  C3' N4B d   1       4.145   1.434   0.067  0.00  0.00     0.004 C 
ATOM     10  C4' N4B d   1       3.202   1.066  -1.039  0.00  0.00     0.003 C 
ENDBRANCH   8   9
ENDBRANCH   7   8
ENDBRANCH   1   7
TORSDOF 3
ENDMDL
