MODEL 1
REMARK minimizedAffinity 15.4174862
REMARK minimizedRMSD -1
REMARK  3 active torsions:
REMARK  status: ('A' for Active; 'I' for Inactive)
REMARK    1  A    between atoms: C3'_2  and  C2'_3 
REMARK    2  A    between atoms: C2'_3  and  C1'_4 
REMARK    3  A    between atoms: C1'_4  and  C1_5 
ROOT
ATOM      1  C1  N4B d   1      -1.244  -3.737  -2.180  0.00  0.00    -0.075 A 
ATOM      2  C2  N4B d   1      -2.439  -3.430  -2.867  0.00  0.00     0.002 A 
ATOM      3  C3  N4B d   1      -2.856  -2.126  -2.972  0.00  0.00     0.002 A 
ATOM      4  C4  N4B d   1      -2.107  -1.118  -2.383  0.00  0.00    -0.004 A 
ATOM      5  C5  N4B d   1      -0.941  -1.419  -1.742  0.00  0.00     0.002 A 
ATOM      6  C6  N4B d   1      -0.508  -2.726  -1.633  0.00  0.00     0.002 A 
ENDROOT
BRANCH   1   7
ATOM      7  C1' N4B d   1      -0.793  -5.156  -1.965  0.00  0.00     0.057 C 
BRANCH   7   8
ATOM      8  C2' N4B d   1      -1.984  -5.998  -1.520  0.00  0.00     0.009 C 
BRANCH   8   9
ATOM      9  C3' N4B d   1      -2.444  -5.636  -0.118  0.00  0.00     0.004 C 
ATOM     10  C4' N4B d   1      -3.892  -5.248  -0.064  0.00  0.00     0.003 C 
ENDBRANCH   8   9
ENDBRANCH   7   8
ENDBRANCH   1   7
TORSDOF 3
ENDMDL
