MODEL 1
REMARK minimizedAffinity 3.24180079
REMARK minimizedRMSD -1
REMARK  3 active torsions:
REMARK  status: ('A' for Active; 'I' for Inactive)
REMARK    1  A    between atoms: C3'_2  and  C2'_3 
REMARK    2  A    between atoms: C2'_3  and  C1'_4 
REMARK    3  A    between atoms: C1'_4  and  C1_5 
ROOT
ATOM      1  C1  N4B d   1       1.678  -0.935  -2.604  0.00  0.00    -0.075 A 
ATOM      2  C2  N4B d   1       1.356   0.351  -3.091  0.00  0.00     0.002 A 
ATOM      3  C3  N4B d   1       2.005   1.455  -2.595  0.00  0.00     0.002 A 
ATOM      4  C4  N4B d   1       2.962   1.301  -1.603  0.00  0.00    -0.004 A 
ATOM      5  C5  N4B d   1       3.286   0.053  -1.157  0.00  0.00     0.002 A 
ATOM      6  C6  N4B d   1       2.644  -1.066  -1.649  0.00  0.00     0.002 A 
ENDROOT
BRANCH   1   7
ATOM      7  C1' N4B d   1       0.935  -2.163  -3.054  0.00  0.00     0.057 C 
BRANCH   7   8
ATOM      8  C2' N4B d   1       0.067  -2.671  -1.906  0.00  0.00     0.009 C 
BRANCH   8   9
ATOM      9  C3' N4B d   1      -1.302  -3.122  -2.386  0.00  0.00     0.004 C 
ATOM     10  C4' N4B d   1      -2.229  -1.975  -2.656  0.00  0.00     0.003 C 
ENDBRANCH   8   9
ENDBRANCH   7   8
ENDBRANCH   1   7
TORSDOF 3
ENDMDL
