MODEL 1
REMARK minimizedAffinity 10.9790535
REMARK minimizedRMSD -1
REMARK  3 active torsions:
REMARK  status: ('A' for Active; 'I' for Inactive)
REMARK    1  A    between atoms: C3'_2  and  C2'_3 
REMARK    2  A    between atoms: C2'_3  and  C1'_4 
REMARK    3  A    between atoms: C1'_4  and  C1_5 
ROOT
ATOM      1  C1  N4B d   1      -0.230  -2.706  -1.809  0.00  0.00    -0.075 A 
ATOM      2  C2  N4B d   1      -0.534  -4.071  -2.002  0.00  0.00     0.002 A 
ATOM      3  C3  N4B d   1      -1.784  -4.442  -2.432  0.00  0.00     0.002 A 
ATOM      4  C4  N4B d   1      -2.749  -3.471  -2.656  0.00  0.00    -0.004 A 
ATOM      5  C5  N4B d   1      -2.440  -2.153  -2.492  0.00  0.00     0.002 A 
ATOM      6  C6  N4B d   1      -1.186  -1.765  -2.064  0.00  0.00     0.002 A 
ENDROOT
BRANCH   1   7
ATOM      7  C1' N4B d   1       1.096  -2.257  -1.258  0.00  0.00     0.057 C 
BRANCH   7   8
ATOM      8  C2' N4B d   1       1.465  -0.911  -1.875  0.00  0.00     0.009 C 
BRANCH   8   9
ATOM      9  C3' N4B d   1       2.326  -0.076  -0.943  0.00  0.00     0.004 C 
ATOM     10  C4' N4B d   1       2.512   1.331  -1.427  0.00  0.00     0.003 C 
ENDBRANCH   8   9
ENDBRANCH   7   8
ENDBRANCH   1   7
TORSDOF 3
ENDMDL
