MODEL 1
REMARK minimizedAffinity 2.09537268
REMARK minimizedRMSD -1
REMARK  3 active torsions:
REMARK  status: ('A' for Active; 'I' for Inactive)
REMARK    1  A    between atoms: C3'_2  and  C2'_3 
REMARK    2  A    between atoms: C2'_3  and  C1'_4 
REMARK    3  A    between atoms: C1'_4  and  C1_5 
ROOT
ATOM      1  C1  N4B d   1      -0.375  -3.098  -2.069  0.00  0.00    -0.075 A 
ATOM      2  C2  N4B d   1      -0.432  -4.299  -2.810  0.00  0.00     0.002 A 
ATOM      3  C3  N4B d   1      -1.482  -4.529  -3.665  0.00  0.00     0.002 A 
ATOM      4  C4  N4B d   1      -2.492  -3.585  -3.780  0.00  0.00    -0.004 A 
ATOM      5  C5  N4B d   1      -2.416  -2.417  -3.080  0.00  0.00     0.002 A 
ATOM      6  C6  N4B d   1      -1.364  -2.171  -2.220  0.00  0.00     0.002 A 
ENDROOT
BRANCH   1   7
ATOM      7  C1' N4B d   1       0.709  -2.840  -1.058  0.00  0.00     0.057 C 
BRANCH   7   8
ATOM      8  C2' N4B d   1       1.779  -1.952  -1.686  0.00  0.00     0.009 C 
BRANCH   8   9
ATOM      9  C3' N4B d   1       2.877  -1.600  -0.698  0.00  0.00     0.004 C 
ATOM     10  C4' N4B d   1       2.968  -0.127  -0.431  0.00  0.00     0.003 C 
ENDBRANCH   8   9
ENDBRANCH   7   8
ENDBRANCH   1   7
TORSDOF 3
ENDMDL
