MODEL 1
REMARK minimizedAffinity 15.3988838
REMARK minimizedRMSD -1
REMARK  3 active torsions:
REMARK  status: ('A' for Active; 'I' for Inactive)
REMARK    1  A    between atoms: C3'_2  and  C2'_3 
REMARK    2  A    between atoms: C2'_3  and  C1'_4 
REMARK    3  A    between atoms: C1'_4  and  C1_5 
ROOT
ATOM      1  C1  N4B d   1       1.408   0.973   1.524  0.00  0.00    -0.075 A 
ATOM      2  C2  N4B d   1       1.916   0.294   0.395  0.00  0.00     0.002 A 
ATOM      3  C3  N4B d   1       2.929   0.853  -0.344  0.00  0.00     0.002 A 
ATOM      4  C4  N4B d   1       3.436   2.093   0.015  0.00  0.00    -0.004 A 
ATOM      5  C5  N4B d   1       2.958   2.730   1.122  0.00  0.00     0.002 A 
ATOM      6  C6  N4B d   1       1.943   2.178   1.876  0.00  0.00     0.002 A 
ENDROOT
BRANCH   1   7
ATOM      7  C1' N4B d   1       0.243   0.441   2.313  0.00  0.00     0.057 C 
BRANCH   7   8
ATOM      8  C2' N4B d   1       0.752  -0.145   3.626  0.00  0.00     0.009 C 
BRANCH   8   9
ATOM      9  C3' N4B d   1       0.023  -1.425   3.997  0.00  0.00     0.004 C 
ATOM     10  C4' N4B d   1      -0.828  -1.274   5.222  0.00  0.00     0.003 C 
ENDBRANCH   8   9
ENDBRANCH   7   8
ENDBRANCH   1   7
TORSDOF 3
ENDMDL
