MODEL 1
REMARK minimizedAffinity -0.237854406
REMARK minimizedRMSD -1
REMARK  0 active torsions:
REMARK  status: ('A' for Active; 'I' for Inactive)
ROOT
ATOM      1  C2' OXE d   1      -1.043   0.438   0.391  0.00  0.00     0.078 C 
ATOM      2  C1' OXE d   1      -0.339  -1.443  -1.571  0.00  0.00     0.078 C 
ATOM      3  C1  OXE d   1       0.709  -1.058  -0.558  0.00  0.00    -0.078 A 
ATOM      4  C2  OXE d   1       0.371  -0.103   0.370  0.00  0.00    -0.078 A 
ATOM      5  C3  OXE d   1       1.283   0.249   1.362  0.00  0.00     0.003 A 
ATOM      6  C4  OXE d   1       2.591  -0.248   1.330  0.00  0.00    -0.002 A 
ATOM      7  C5  OXE d   1       2.969  -1.193   0.369  0.00  0.00    -0.002 A 
ATOM      8  C6  OXE d   1       2.029  -1.639  -0.554  0.00  0.00     0.003 A 
ENDROOT
TORSDOF 0
ENDMDL
