MODEL 1
REMARK minimizedAffinity -3.89326096
REMARK minimizedRMSD -1
REMARK  0 active torsions:
REMARK  status: ('A' for Active; 'I' for Inactive)
ROOT
ATOM      1  C2' OXE d   1      -0.085  -1.957  -1.710  0.00  0.00     0.078 C 
ATOM      2  C1' OXE d   1      -0.894   0.144  -0.034  0.00  0.00     0.078 C 
ATOM      3  C1  OXE d   1       0.487  -0.427   0.170  0.00  0.00    -0.078 A 
ATOM      4  C2  OXE d   1       0.857  -1.486  -0.623  0.00  0.00    -0.078 A 
ATOM      5  C3  OXE d   1       2.140  -2.014  -0.514  0.00  0.00     0.003 A 
ATOM      6  C4  OXE d   1       3.002  -1.579   0.501  0.00  0.00    -0.002 A 
ATOM      7  C5  OXE d   1       2.630  -0.528   1.346  0.00  0.00    -0.002 A 
ATOM      8  C6  OXE d   1       1.395   0.086   1.166  0.00  0.00     0.003 A 
ENDROOT
TORSDOF 0
ENDMDL
