MODEL 1
REMARK minimizedAffinity -2.85866117
REMARK minimizedRMSD -1
REMARK  0 active torsions:
REMARK  status: ('A' for Active; 'I' for Inactive)
ROOT
ATOM      1  C2' OXE d   1       0.042  -2.014  -0.372  0.00  0.00     0.078 C 
ATOM      2  C1' OXE d   1       2.261  -1.488   1.266  0.00  0.00     0.078 C 
ATOM      3  C1  OXE d   1       1.443  -0.313   0.790  0.00  0.00    -0.078 A 
ATOM      4  C2  OXE d   1       0.387  -0.576  -0.049  0.00  0.00    -0.078 A 
ATOM      5  C3  OXE d   1      -0.432   0.466  -0.473  0.00  0.00     0.003 A 
ATOM      6  C4  OXE d   1      -0.100   1.794  -0.178  0.00  0.00    -0.002 A 
ATOM      7  C5  OXE d   1       0.994   2.087   0.643  0.00  0.00    -0.002 A 
ATOM      8  C6  OXE d   1       1.749   1.045   1.169  0.00  0.00     0.003 A 
ENDROOT
TORSDOF 0
ENDMDL
