MODEL 1
REMARK minimizedAffinity -4.7026248
REMARK minimizedRMSD -1
REMARK  0 active torsions:
REMARK  status: ('A' for Active; 'I' for Inactive)
ROOT
ATOM      1  C2' OXE d   1      -0.022  -2.257  -1.132  0.00  0.00     0.078 C 
ATOM      2  C1' OXE d   1      -1.314   0.150  -0.487  0.00  0.00     0.078 C 
ATOM      3  C1  OXE d   1       0.051  -0.097   0.106  0.00  0.00    -0.078 A 
ATOM      4  C2  OXE d   1       0.656  -1.297  -0.178  0.00  0.00    -0.078 A 
ATOM      5  C3  OXE d   1       1.939  -1.552   0.298  0.00  0.00     0.003 A 
ATOM      6  C4  OXE d   1       2.554  -0.664   1.188  0.00  0.00    -0.002 A 
ATOM      7  C5  OXE d   1       1.938   0.547   1.522  0.00  0.00    -0.002 A 
ATOM      8  C6  OXE d   1       0.708   0.864   0.957  0.00  0.00     0.003 A 
ENDROOT
TORSDOF 0
ENDMDL
