MODEL 1
REMARK minimizedAffinity -3.49155188
REMARK minimizedRMSD -1
REMARK  0 active torsions:
REMARK  status: ('A' for Active; 'I' for Inactive)
ROOT
ATOM      1  C2' OXE d   1      -1.008   0.449  -0.013  0.00  0.00     0.078 C 
ATOM      2  C1' OXE d   1       0.113  -1.368  -1.836  0.00  0.00     0.078 C 
ATOM      3  C1  OXE d   1       0.756  -1.248  -0.477  0.00  0.00    -0.078 A 
ATOM      4  C2  OXE d   1       0.229  -0.322   0.392  0.00  0.00    -0.078 A 
ATOM      5  C3  OXE d   1       0.750  -0.210   1.678  0.00  0.00     0.003 A 
ATOM      6  C4  OXE d   1       1.901  -0.920   2.042  0.00  0.00    -0.002 A 
ATOM      7  C5  OXE d   1       2.477  -1.838   1.158  0.00  0.00    -0.002 A 
ATOM      8  C6  OXE d   1       1.893  -2.045  -0.087  0.00  0.00     0.003 A 
ENDROOT
TORSDOF 0
ENDMDL
