MODEL 1
REMARK minimizedAffinity -3.66408491
REMARK minimizedRMSD -1
REMARK  0 active torsions:
REMARK  status: ('A' for Active; 'I' for Inactive)
ROOT
ATOM      1  C2' OXE d   1      -0.304  -1.691  -1.604  0.00  0.00     0.078 C 
ATOM      2  C1' OXE d   1      -0.638   0.414   0.223  0.00  0.00     0.078 C 
ATOM      3  C1  OXE d   1       0.635  -0.391   0.303  0.00  0.00    -0.078 A 
ATOM      4  C2  OXE d   1       0.769  -1.449  -0.565  0.00  0.00    -0.078 A 
ATOM      5  C3  OXE d   1       1.947  -2.191  -0.570  0.00  0.00     0.003 A 
ATOM      6  C4  OXE d   1       2.930  -1.967   0.401  0.00  0.00    -0.002 A 
ATOM      7  C5  OXE d   1       2.795  -0.920   1.320  0.00  0.00    -0.002 A 
ATOM      8  C6  OXE d   1       1.676  -0.098   1.256  0.00  0.00     0.003 A 
ENDROOT
TORSDOF 0
ENDMDL
