MODEL 1
REMARK minimizedAffinity -2.78855896
REMARK minimizedRMSD -1
REMARK  0 active torsions:
REMARK  status: ('A' for Active; 'I' for Inactive)
ROOT
ATOM      1  C2' OXE d   1       1.957   1.190   1.269  0.00  0.00     0.078 C 
ATOM      2  C1' OXE d   1       3.106  -1.369   1.385  0.00  0.00     0.078 C 
ATOM      3  C1  OXE d   1       1.851  -1.198   0.567  0.00  0.00    -0.078 A 
ATOM      4  C2  OXE d   1       1.269   0.047   0.554  0.00  0.00    -0.078 A 
ATOM      5  C3  OXE d   1       0.140   0.272  -0.229  0.00  0.00     0.003 A 
ATOM      6  C4  OXE d   1      -0.495  -0.793  -0.879  0.00  0.00    -0.002 A 
ATOM      7  C5  OXE d   1       0.058  -2.077  -0.846  0.00  0.00    -0.002 A 
ATOM      8  C6  OXE d   1       1.251  -2.287  -0.164  0.00  0.00     0.003 A 
ENDROOT
TORSDOF 0
ENDMDL
