MODEL 1
REMARK minimizedAffinity -0.833304286
REMARK minimizedRMSD -1
REMARK  0 active torsions:
REMARK  status: ('A' for Active; 'I' for Inactive)
ROOT
ATOM      1  C2' OXE d   1      -1.076  -1.458   1.874  0.00  0.00     0.078 C 
ATOM      2  C1' OXE d   1      -3.082   0.419   1.299  0.00  0.00     0.078 C 
ATOM      3  C1  OXE d   1      -1.707   0.662   0.729  0.00  0.00    -0.078 A 
ATOM      4  C2  OXE d   1      -0.720  -0.237   1.054  0.00  0.00    -0.078 A 
ATOM      5  C3  OXE d   1       0.553  -0.090   0.510  0.00  0.00     0.003 A 
ATOM      6  C4  OXE d   1       0.876   1.048  -0.240  0.00  0.00    -0.002 A 
ATOM      7  C5  OXE d   1      -0.104   1.996  -0.549  0.00  0.00    -0.002 A 
ATOM      8  C6  OXE d   1      -1.408   1.797  -0.109  0.00  0.00     0.003 A 
ENDROOT
TORSDOF 0
ENDMDL
