MODEL 1
REMARK minimizedAffinity -3.55413842
REMARK minimizedRMSD -1
REMARK  0 active torsions:
REMARK  status: ('A' for Active; 'I' for Inactive)
ROOT
ATOM      1  C2' OXE d   1       1.811   2.284   0.739  0.00  0.00     0.078 C 
ATOM      2  C1' OXE d   1       1.844  -0.486   0.288  0.00  0.00     0.078 C 
ATOM      3  C1  OXE d   1       0.523   0.231   0.167  0.00  0.00    -0.078 A 
ATOM      4  C2  OXE d   1       0.507   1.578   0.436  0.00  0.00    -0.078 A 
ATOM      5  C3  OXE d   1      -0.675   2.298   0.286  0.00  0.00     0.003 A 
ATOM      6  C4  OXE d   1      -1.878   1.635   0.015  0.00  0.00    -0.002 A 
ATOM      7  C5  OXE d   1      -1.892   0.257  -0.223  0.00  0.00    -0.002 A 
ATOM      8  C6  OXE d   1      -0.696  -0.452  -0.193  0.00  0.00     0.003 A 
ENDROOT
TORSDOF 0
ENDMDL
