MODEL 1
REMARK minimizedAffinity 2.89598036
REMARK minimizedRMSD -1
REMARK  1 active torsions:
REMARK  status: ('A' for Active; 'I' for Inactive)
REMARK    1  A    between atoms: C3_4  and  O_7 
ROOT
ATOM      1  C   UNL d   1      -1.341  -0.090  -0.801  0.00  0.00    -0.033 A 
ATOM      2  C1  UNL d   1      -0.069  -0.565  -0.476  0.00  0.00     0.039 A 
ATOM      3  C2  UNL d   1       0.262  -0.823   0.856  0.00  0.00    -0.080 A 
ATOM      4  C3  UNL d   1      -0.686  -0.604   1.851  0.00  0.00     0.150 A 
ATOM      5  C4  UNL d   1      -1.957  -0.134   1.533  0.00  0.00    -0.007 A 
ATOM      6  C5  UNL d   1      -2.285   0.124   0.203  0.00  0.00     0.039 A 
ENDROOT
BRANCH   4   7
ATOM      7  O   UNL d   1      -0.408  -0.837   3.165  0.00  0.00    -0.526 OA
ATOM      8  H5  UNL d   1       0.516  -1.130   3.236  0.00  0.00     0.418 HD
ENDBRANCH   4   7
TORSDOF 1
ENDMDL
