MODEL 1
REMARK minimizedAffinity -1.0816648
REMARK minimizedRMSD -1
REMARK  1 active torsions:
REMARK  status: ('A' for Active; 'I' for Inactive)
REMARK    1  A    between atoms: C3_4  and  O_7 
ROOT
ATOM      1  C   UNL d   1       4.511   6.000   5.289  0.00  0.00    -0.033 A 
ATOM      2  C1  UNL d   1       3.251   6.000   5.889  0.00  0.00     0.039 A 
ATOM      3  C2  UNL d   1       2.099   5.999   5.099  0.00  0.00    -0.080 A 
ATOM      4  C3  UNL d   1       2.223   5.996   3.712  0.00  0.00     0.150 A 
ATOM      5  C4  UNL d   1       3.475   5.993   3.108  0.00  0.00    -0.007 A 
ATOM      6  C5  UNL d   1       4.624   5.995   3.899  0.00  0.00     0.039 A 
ENDROOT
BRANCH   4   7
ATOM      7  O   UNL d   1       1.128   6.000   2.900  0.00  0.00    -0.526 OA
ATOM      8  H5  UNL d   1       0.332   6.032   3.456  0.00  0.00     0.418 HD
ENDBRANCH   4   7
TORSDOF 1
ENDMDL
