MODEL 1
REMARK minimizedAffinity 3.05071878
REMARK minimizedRMSD -1
REMARK  1 active torsions:
REMARK  status: ('A' for Active; 'I' for Inactive)
REMARK    1  A    between atoms: C3_4  and  O_7 
ROOT
ATOM      1  C   UNL d   1      -2.053  -0.141   2.335  0.00  0.00    -0.033 A 
ATOM      2  C1  UNL d   1      -0.802  -0.618   2.731  0.00  0.00     0.039 A 
ATOM      3  C2  UNL d   1       0.170  -0.913   1.773  0.00  0.00    -0.080 A 
ATOM      4  C3  UNL d   1      -0.121  -0.725   0.425  0.00  0.00     0.150 A 
ATOM      5  C4  UNL d   1      -1.364  -0.246   0.024  0.00  0.00    -0.007 A 
ATOM      6  C5  UNL d   1      -2.333   0.047   0.982  0.00  0.00     0.039 A 
ENDROOT
BRANCH   4   7
ATOM      7  O   UNL d   1       0.794  -1.004  -0.547  0.00  0.00    -0.526 OA
ATOM      8  H5  UNL d   1       1.595  -1.354  -0.124  0.00  0.00     0.418 HD
ENDBRANCH   4   7
TORSDOF 1
ENDMDL
