MODEL 1
REMARK minimizedAffinity -2.27847266
REMARK minimizedRMSD -1
REMARK  1 active torsions:
REMARK  status: ('A' for Active; 'I' for Inactive)
REMARK    1  A    between atoms: C3_4  and  O_7 
ROOT
ATOM      1  C   UNL d   1      -0.840  -0.754   1.966  0.00  0.00    -0.033 A 
ATOM      2  C1  UNL d   1      -0.906  -1.692   2.998  0.00  0.00     0.039 A 
ATOM      3  C2  UNL d   1      -0.133  -2.854   2.938  0.00  0.00    -0.080 A 
ATOM      4  C3  UNL d   1       0.700  -3.064   1.843  0.00  0.00     0.150 A 
ATOM      5  C4  UNL d   1       0.773  -2.132   0.813  0.00  0.00    -0.007 A 
ATOM      6  C5  UNL d   1       0.001  -0.973   0.874  0.00  0.00     0.039 A 
ENDROOT
BRANCH   4   7
ATOM      7  O   UNL d   1       1.469  -4.185   1.737  0.00  0.00    -0.526 OA
ATOM      8  H5  UNL d   1       1.293  -4.752   2.507  0.00  0.00     0.418 HD
ENDBRANCH   4   7
TORSDOF 1
ENDMDL
