MODEL 1
REMARK minimizedAffinity -3.36977029
REMARK minimizedRMSD -1
REMARK  1 active torsions:
REMARK  status: ('A' for Active; 'I' for Inactive)
REMARK    1  A    between atoms: C3_4  and  O_7 
ROOT
ATOM      1  C   UNL d   1       1.755  -3.891   1.994  0.00  0.00    -0.033 A 
ATOM      2  C1  UNL d   1       0.900  -2.880   1.550  0.00  0.00     0.039 A 
ATOM      3  C2  UNL d   1      -0.416  -2.824   2.013  0.00  0.00    -0.080 A 
ATOM      4  C3  UNL d   1      -0.864  -3.782   2.919  0.00  0.00     0.150 A 
ATOM      5  C4  UNL d   1      -0.016  -4.789   3.368  0.00  0.00    -0.007 A 
ATOM      6  C5  UNL d   1       1.297  -4.845   2.904  0.00  0.00     0.039 A 
ENDROOT
BRANCH   4   7
ATOM      7  O   UNL d   1      -2.141  -3.771   3.395  0.00  0.00    -0.526 OA
ATOM      8  H5  UNL d   1      -2.620  -3.036   2.976  0.00  0.00     0.418 HD
ENDBRANCH   4   7
TORSDOF 1
ENDMDL
