MODEL 1
REMARK minimizedAffinity 2.77478242
REMARK minimizedRMSD -1
REMARK  1 active torsions:
REMARK  status: ('A' for Active; 'I' for Inactive)
REMARK    1  A    between atoms: C3_4  and  O_7 
ROOT
ATOM      1  C   UNL d   1       0.315   0.649   0.105  0.00  0.00    -0.033 A 
ATOM      2  C1  UNL d   1       1.050   0.638   1.292  0.00  0.00     0.039 A 
ATOM      3  C2  UNL d   1       0.744  -0.283   2.296  0.00  0.00    -0.080 A 
ATOM      4  C3  UNL d   1      -0.297  -1.187   2.100  0.00  0.00     0.150 A 
ATOM      5  C4  UNL d   1      -1.031  -1.184   0.919  0.00  0.00    -0.007 A 
ATOM      6  C5  UNL d   1      -0.725  -0.263  -0.082  0.00  0.00     0.039 A 
ENDROOT
BRANCH   4   7
ATOM      7  O   UNL d   1      -0.635  -2.101   3.053  0.00  0.00    -0.526 OA
ATOM      8  H5  UNL d   1      -0.062  -1.966   3.826  0.00  0.00     0.418 HD
ENDBRANCH   4   7
TORSDOF 1
ENDMDL
