MODEL 1
REMARK minimizedAffinity -3.00083137
REMARK minimizedRMSD -1
REMARK  1 active torsions:
REMARK  status: ('A' for Active; 'I' for Inactive)
REMARK    1  A    between atoms: C3_4  and  O_7 
ROOT
ATOM      1  C   UNL d   1      -1.257  -3.006   3.767  0.00  0.00    -0.033 A 
ATOM      2  C1  UNL d   1      -0.273  -2.104   3.356  0.00  0.00     0.039 A 
ATOM      3  C2  UNL d   1       0.897  -2.571   2.753  0.00  0.00    -0.080 A 
ATOM      4  C3  UNL d   1       1.069  -3.939   2.565  0.00  0.00     0.150 A 
ATOM      5  C4  UNL d   1       0.092  -4.843   2.968  0.00  0.00    -0.007 A 
ATOM      6  C5  UNL d   1      -1.075  -4.375   3.571  0.00  0.00     0.039 A 
ENDROOT
BRANCH   4   7
ATOM      7  O   UNL d   1       2.196  -4.443   1.985  0.00  0.00    -0.526 OA
ATOM      8  H5  UNL d   1       2.795  -3.704   1.785  0.00  0.00     0.418 HD
ENDBRANCH   4   7
TORSDOF 1
ENDMDL
