MODEL 1
REMARK minimizedAffinity 0.0695050731
REMARK minimizedRMSD -1
REMARK  1 active torsions:
REMARK  status: ('A' for Active; 'I' for Inactive)
REMARK    1  A    between atoms: C3_4  and  O_7 
ROOT
ATOM      1  C   UNL d   1      -1.553   0.626   0.355  0.00  0.00    -0.033 A 
ATOM      2  C1  UNL d   1      -2.594  -0.157   0.861  0.00  0.00     0.039 A 
ATOM      3  C2  UNL d   1      -2.327  -1.151   1.804  0.00  0.00    -0.080 A 
ATOM      4  C3  UNL d   1      -1.018  -1.351   2.234  0.00  0.00     0.150 A 
ATOM      5  C4  UNL d   1       0.023  -0.573   1.738  0.00  0.00    -0.007 A 
ATOM      6  C5  UNL d   1      -0.246   0.419   0.795  0.00  0.00     0.039 A 
ENDROOT
BRANCH   4   7
ATOM      7  O   UNL d   1      -0.708  -2.312   3.150  0.00  0.00    -0.526 OA
ATOM      8  H5  UNL d   1      -1.522  -2.790   3.382  0.00  0.00     0.418 HD
ENDBRANCH   4   7
TORSDOF 1
ENDMDL
