MODEL 1
REMARK minimizedAffinity -1.07271612
REMARK minimizedRMSD -1
REMARK  1 active torsions:
REMARK  status: ('A' for Active; 'I' for Inactive)
REMARK    1  A    between atoms: C3_4  and  O_7 
ROOT
ATOM      1  C   UNL d   1       1.720   0.928  -1.836  0.00  0.00    -0.033 A 
ATOM      2  C1  UNL d   1       0.448   0.782  -1.280  0.00  0.00     0.039 A 
ATOM      3  C2  UNL d   1      -0.540   1.735  -1.533  0.00  0.00    -0.080 A 
ATOM      4  C3  UNL d   1      -0.243   2.828  -2.344  0.00  0.00     0.150 A 
ATOM      5  C4  UNL d   1       1.021   2.977  -2.904  0.00  0.00    -0.007 A 
ATOM      6  C5  UNL d   1       2.007   2.025  -2.649  0.00  0.00     0.039 A 
ENDROOT
BRANCH   4   7
ATOM      7  O   UNL d   1      -1.173   3.787  -2.616  0.00  0.00    -0.526 OA
ATOM      8  H5  UNL d   1      -1.991   3.567  -2.138  0.00  0.00     0.418 HD
ENDBRANCH   4   7
TORSDOF 1
ENDMDL
