MODEL 1
REMARK minimizedAffinity 0.732709825
REMARK minimizedRMSD -1
REMARK  0 active torsions:
REMARK  status: ('A' for Active; 'I' for Inactive)
ROOT
ATOM      1  C   UNL d   1      -1.770   1.269   1.859  0.00  0.00     0.172 C 
ATOM      2  N   UNL d   1      -0.837   2.165   1.216  0.00  0.00    -0.070 N 
ATOM      3  C1  UNL d   1      -0.870   3.532   1.280  0.00  0.00    -0.004 A 
ATOM      4  C2  UNL d   1       0.186   4.015   0.538  0.00  0.00    -0.047 A 
ATOM      5  C3  UNL d   1       0.877   2.899   0.009  0.00  0.00    -0.047 A 
ATOM      6  C4  UNL d   1       0.223   1.766   0.445  0.00  0.00    -0.004 A 
ENDROOT
TORSDOF 0
ENDMDL
