MODEL 1
REMARK minimizedAffinity -2.86426044
REMARK minimizedRMSD -1
REMARK  0 active torsions:
REMARK  status: ('A' for Active; 'I' for Inactive)
ROOT
ATOM      1  C   UNL d   1      -3.641   1.550   0.698  0.00  0.00     0.172 C 
ATOM      2  N   UNL d   1      -2.214   1.770   0.696  0.00  0.00    -0.070 N 
ATOM      3  C1  UNL d   1      -1.458   2.120   1.783  0.00  0.00    -0.004 A 
ATOM      4  C2  UNL d   1      -0.149   2.232   1.368  0.00  0.00    -0.047 A 
ATOM      5  C3  UNL d   1      -0.116   1.940  -0.016  0.00  0.00    -0.047 A 
ATOM      6  C4  UNL d   1      -1.408   1.657  -0.407  0.00  0.00    -0.004 A 
ENDROOT
TORSDOF 0
ENDMDL
