MODEL 1
REMARK minimizedAffinity 1.19337261
REMARK minimizedRMSD -1
REMARK  0 active torsions:
REMARK  status: ('A' for Active; 'I' for Inactive)
ROOT
ATOM      1  C   UNL d   1       2.225   0.195  -0.123  0.00  0.00     0.172 C 
ATOM      2  N   UNL d   1       1.260   1.152   0.365  0.00  0.00    -0.070 N 
ATOM      3  C1  UNL d   1       0.501   1.014   1.497  0.00  0.00    -0.004 A 
ATOM      4  C2  UNL d   1      -0.290   2.136   1.614  0.00  0.00    -0.047 A 
ATOM      5  C3  UNL d   1       0.004   2.978   0.515  0.00  0.00    -0.047 A 
ATOM      6  C4  UNL d   1       0.966   2.344  -0.242  0.00  0.00    -0.004 A 
ENDROOT
TORSDOF 0
ENDMDL
