MODEL 1
REMARK minimizedAffinity -1.06992328
REMARK minimizedRMSD -1
REMARK  0 active torsions:
REMARK  status: ('A' for Active; 'I' for Inactive)
ROOT
ATOM      1  C   UNL d   1      -4.994   0.334  -0.976  0.00  0.00     0.172 C 
ATOM      2  N   UNL d   1      -4.937   0.851  -2.323  0.00  0.00    -0.070 N 
ATOM      3  C1  UNL d   1      -5.660   1.911  -2.802  0.00  0.00    -0.004 A 
ATOM      4  C2  UNL d   1      -5.322   2.088  -4.126  0.00  0.00    -0.047 A 
ATOM      5  C3  UNL d   1      -4.364   1.100  -4.455  0.00  0.00    -0.047 A 
ATOM      6  C4  UNL d   1      -4.144   0.348  -3.320  0.00  0.00    -0.004 A 
ENDROOT
TORSDOF 0
ENDMDL
