MODEL 1
REMARK minimizedAffinity 1.50981224
REMARK minimizedRMSD -1
REMARK  0 active torsions:
REMARK  status: ('A' for Active; 'I' for Inactive)
ROOT
ATOM      1  C   UNL d   1       1.869   1.437  -0.137  0.00  0.00     0.172 C 
ATOM      2  N   UNL d   1       1.938  -0.005  -0.111  0.00  0.00    -0.070 N 
ATOM      3  C1  UNL d   1       3.087  -0.750  -0.117  0.00  0.00    -0.004 A 
ATOM      4  C2  UNL d   1       2.728  -2.080  -0.085  0.00  0.00    -0.047 A 
ATOM      5  C3  UNL d   1       1.314  -2.137  -0.061  0.00  0.00    -0.047 A 
ATOM      6  C4  UNL d   1       0.851  -0.838  -0.078  0.00  0.00    -0.004 A 
ENDROOT
TORSDOF 0
ENDMDL
