MODEL 1
REMARK minimizedAffinity 1.76610661
REMARK minimizedRMSD -1
REMARK  0 active torsions:
REMARK  status: ('A' for Active; 'I' for Inactive)
ROOT
ATOM      1  C   UNL d   1       0.150  -3.925  -0.546  0.00  0.00     0.172 C 
ATOM      2  N   UNL d   1       1.164  -3.048  -0.009  0.00  0.00    -0.070 N 
ATOM      3  C1  UNL d   1       2.030  -2.284  -0.745  0.00  0.00    -0.004 A 
ATOM      4  C2  UNL d   1       2.834  -1.592   0.135  0.00  0.00    -0.047 A 
ATOM      5  C3  UNL d   1       2.438  -1.953   1.444  0.00  0.00    -0.047 A 
ATOM      6  C4  UNL d   1       1.402  -2.856   1.326  0.00  0.00    -0.004 A 
ENDROOT
TORSDOF 0
ENDMDL
