MODEL 1
REMARK minimizedAffinity 3.11071348
REMARK minimizedRMSD -1
REMARK  0 active torsions:
REMARK  status: ('A' for Active; 'I' for Inactive)
ROOT
ATOM      1  C   UNL d   1      -3.183   1.605   1.403  0.00  0.00     0.172 C 
ATOM      2  N   UNL d   1      -1.807   1.873   1.749  0.00  0.00    -0.070 N 
ATOM      3  C1  UNL d   1      -0.885   2.484   0.941  0.00  0.00    -0.004 A 
ATOM      4  C2  UNL d   1       0.304   2.552   1.633  0.00  0.00    -0.047 A 
ATOM      5  C3  UNL d   1       0.090   1.961   2.901  0.00  0.00    -0.047 A 
ATOM      6  C4  UNL d   1      -1.225   1.549   2.946  0.00  0.00    -0.004 A 
ENDROOT
TORSDOF 0
ENDMDL
