MODEL 1
REMARK minimizedAffinity 0.157224119
REMARK minimizedRMSD -1
REMARK  0 active torsions:
REMARK  status: ('A' for Active; 'I' for Inactive)
ROOT
ATOM      1  C   UNL d   1      -3.570   2.552   1.010  0.00  0.00     0.172 C 
ATOM      2  N   UNL d   1      -2.141   2.451   1.191  0.00  0.00    -0.070 N 
ATOM      3  C1  UNL d   1      -1.501   2.223   2.380  0.00  0.00    -0.004 A 
ATOM      4  C2  UNL d   1      -0.146   2.195   2.132  0.00  0.00    -0.047 A 
ATOM      5  C3  UNL d   1       0.035   2.415   0.745  0.00  0.00    -0.047 A 
ATOM      6  C4  UNL d   1      -1.216   2.570   0.187  0.00  0.00    -0.004 A 
ENDROOT
TORSDOF 0
ENDMDL
