MODEL 1
REMARK minimizedAffinity 6.41927862
REMARK minimizedRMSD -1
REMARK  0 active torsions:
REMARK  status: ('A' for Active; 'I' for Inactive)
ROOT
ATOM      1  C   UNL d   1      -2.476  -0.205  -2.670  0.00  0.00     0.172 C 
ATOM      2  N   UNL d   1      -3.556   0.220  -1.811  0.00  0.00    -0.070 N 
ATOM      3  C1  UNL d   1      -3.422   0.686  -0.530  0.00  0.00    -0.004 A 
ATOM      4  C2  UNL d   1      -4.681   0.985  -0.056  0.00  0.00    -0.047 A 
ATOM      5  C3  UNL d   1      -5.604   0.688  -1.088  0.00  0.00    -0.047 A 
ATOM      6  C4  UNL d   1      -4.880   0.216  -2.163  0.00  0.00    -0.004 A 
ENDROOT
TORSDOF 0
ENDMDL
