MODEL 1
REMARK minimizedAffinity 4.48656321
REMARK minimizedRMSD -1
REMARK  0 active torsions:
REMARK  status: ('A' for Active; 'I' for Inactive)
ROOT
ATOM      1  C   UNL d   1       3.802   3.256  -2.292  0.00  0.00     0.172 C 
ATOM      2  N   UNL d   1       3.196   2.339  -1.356  0.00  0.00    -0.070 N 
ATOM      3  C1  UNL d   1       2.006   1.685  -1.536  0.00  0.00    -0.004 A 
ATOM      4  C2  UNL d   1       1.780   0.908  -0.420  0.00  0.00    -0.047 A 
ATOM      5  C3  UNL d   1       2.870   1.102   0.460  0.00  0.00    -0.047 A 
ATOM      6  C4  UNL d   1       3.732   1.993  -0.144  0.00  0.00    -0.004 A 
ENDROOT
TORSDOF 0
ENDMDL
