MODEL 1
REMARK minimizedAffinity 7.8772769
REMARK minimizedRMSD -1
REMARK  0 active torsions:
REMARK  status: ('A' for Active; 'I' for Inactive)
ROOT
ATOM      1  C   UNL d   1       3.060   1.886  -1.010  0.00  0.00     0.172 C 
ATOM      2  N   UNL d   1       2.803   0.617  -0.372  0.00  0.00    -0.070 N 
ATOM      3  C1  UNL d   1       2.038  -0.395  -0.887  0.00  0.00    -0.004 A 
ATOM      4  C2  UNL d   1       2.041  -1.431   0.022  0.00  0.00    -0.047 A 
ATOM      5  C3  UNL d   1       2.836  -1.028   1.121  0.00  0.00    -0.047 A 
ATOM      6  C4  UNL d   1       3.295   0.244   0.851  0.00  0.00    -0.004 A 
ENDROOT
TORSDOF 0
ENDMDL
