MODEL 1
REMARK minimizedAffinity -1.43272293
REMARK minimizedRMSD -1
REMARK  0 active torsions:
REMARK  status: ('A' for Active; 'I' for Inactive)
ROOT
ATOM      1  C   UNL d   1      -4.914   3.832   3.112  0.00  0.00     0.172 C 
ATOM      2  N   UNL d   1      -4.884   4.699   4.267  0.00  0.00    -0.070 N 
ATOM      3  C1  UNL d   1      -3.759   5.233   4.835  0.00  0.00    -0.004 A 
ATOM      4  C2  UNL d   1      -4.153   6.000   5.911  0.00  0.00    -0.047 A 
ATOM      5  C3  UNL d   1      -5.564   5.923   5.992  0.00  0.00    -0.047 A 
ATOM      6  C4  UNL d   1      -5.990   5.110   4.962  0.00  0.00    -0.004 A 
ENDROOT
TORSDOF 0
ENDMDL
