MODEL 1
REMARK minimizedAffinity -1.5756762
REMARK minimizedRMSD -1
REMARK  0 active torsions:
REMARK  status: ('A' for Active; 'I' for Inactive)
ROOT
ATOM      1  C   UNL d   1      -5.916   3.468   3.382  0.00  0.00     0.172 C 
ATOM      2  N   UNL d   1      -5.383   4.462   4.284  0.00  0.00    -0.070 N 
ATOM      3  C1  UNL d   1      -5.997   4.922   5.419  0.00  0.00    -0.004 A 
ATOM      4  C2  UNL d   1      -5.168   5.858   5.998  0.00  0.00    -0.047 A 
ATOM      5  C3  UNL d   1      -4.016   5.965   5.183  0.00  0.00    -0.047 A 
ATOM      6  C4  UNL d   1      -4.175   5.090   4.129  0.00  0.00    -0.004 A 
ENDROOT
TORSDOF 0
ENDMDL
