MODEL 1
REMARK minimizedAffinity 9.02902412
REMARK minimizedRMSD -1
REMARK  0 active torsions:
REMARK  status: ('A' for Active; 'I' for Inactive)
ROOT
ATOM      1  C   UNL d   1       2.576   1.228  -0.339  0.00  0.00     0.172 C 
ATOM      2  N   UNL d   1       3.884   1.781  -0.600  0.00  0.00    -0.070 N 
ATOM      3  C1  UNL d   1       4.304   2.310  -1.791  0.00  0.00    -0.004 A 
ATOM      4  C2  UNL d   1       5.607   2.728  -1.631  0.00  0.00    -0.047 A 
ATOM      5  C3  UNL d   1       5.984   2.440  -0.298  0.00  0.00    -0.047 A 
ATOM      6  C4  UNL d   1       4.898   1.853   0.318  0.00  0.00    -0.004 A 
ENDROOT
TORSDOF 0
ENDMDL
