MODEL 1
REMARK minimizedAffinity 0.917249203
REMARK minimizedRMSD -1
REMARK  0 active torsions:
REMARK  status: ('A' for Active; 'I' for Inactive)
ROOT
ATOM      1  C   UNL d   1      -0.091  -2.941   3.763  0.00  0.00     0.172 C 
ATOM      2  N   UNL d   1      -0.464  -4.135   4.484  0.00  0.00    -0.070 N 
ATOM      3  C1  UNL d   1       0.136  -4.599   5.624  0.00  0.00    -0.004 A 
ATOM      4  C2  UNL d   1      -0.509  -5.758   5.999  0.00  0.00    -0.047 A 
ATOM      5  C3  UNL d   1      -1.531  -6.000   5.050  0.00  0.00    -0.047 A 
ATOM      6  C4  UNL d   1      -1.481  -4.980   4.124  0.00  0.00    -0.004 A 
ENDROOT
TORSDOF 0
ENDMDL
