MODEL 1
REMARK minimizedAffinity -4.39895153
REMARK minimizedRMSD -1
REMARK  1 active torsions:
REMARK  status: ('A' for Active; 'I' for Inactive)
REMARK    1  A    between atoms: C1_2  and  C2_3 
ROOT
ATOM      1  C2  UNL d   1      -1.464   0.917  -1.239  0.00  0.00    -0.081 A 
ATOM      2  C3  UNL d   1      -2.105   0.867   0.006  0.00  0.00     0.006 A 
ATOM      3  C4  UNL d   1      -1.432   0.380   1.129  0.00  0.00     0.002 A 
ATOM      4  C5  UNL d   1      -0.107  -0.057   1.029  0.00  0.00    -0.080 A 
ATOM      5  C6  UNL d   1       0.636  -0.553   2.234  0.00  0.00     0.076 C 
ATOM      6  C7  UNL d   1       0.527  -0.023  -0.217  0.00  0.00     0.002 A 
ATOM      7  C8  UNL d   1      -0.145   0.463  -1.341  0.00  0.00     0.006 A 
ENDROOT
BRANCH   1   8
ATOM      8  C1  UNL d   1      -2.165   1.501  -2.438  0.00  0.00     0.054 C 
ATOM      9  C   UNL d   1      -2.302   3.012  -2.317  0.00  0.00     0.018 C 
ENDBRANCH   1   8
TORSDOF 1
ENDMDL
