MODEL 1
REMARK minimizedAffinity -1.45407951
REMARK minimizedRMSD -1
REMARK  1 active torsions:
REMARK  status: ('A' for Active; 'I' for Inactive)
REMARK    1  A    between atoms: C1_2  and  C2_3 
ROOT
ATOM      1  C2  UNL d   1       0.058   2.084  -1.420  0.00  0.00    -0.081 A 
ATOM      2  C3  UNL d   1       1.458   2.091  -1.435  0.00  0.00     0.006 A 
ATOM      3  C4  UNL d   1       2.175   0.928  -1.146  0.00  0.00     0.002 A 
ATOM      4  C5  UNL d   1       1.505  -0.263  -0.846  0.00  0.00    -0.080 A 
ATOM      5  C6  UNL d   1       2.263  -1.526  -0.563  0.00  0.00     0.076 C 
ATOM      6  C7  UNL d   1       0.106  -0.266  -0.814  0.00  0.00     0.002 A 
ATOM      7  C8  UNL d   1      -0.611   0.897  -1.102  0.00  0.00     0.006 A 
ENDROOT
BRANCH   1   8
ATOM      8  C1  UNL d   1      -0.719   3.320  -1.795  0.00  0.00     0.054 C 
ATOM      9  C   UNL d   1      -1.840   2.995  -2.771  0.00  0.00     0.018 C 
ENDBRANCH   1   8
TORSDOF 1
ENDMDL
