MODEL 1
REMARK minimizedAffinity -1.99905384
REMARK minimizedRMSD -1
REMARK  1 active torsions:
REMARK  status: ('A' for Active; 'I' for Inactive)
REMARK    1  A    between atoms: C1_2  and  C2_3 
ROOT
ATOM      1  C2  UNL d   1      -0.140  -0.124  -0.679  0.00  0.00    -0.081 A 
ATOM      2  C3  UNL d   1       0.987  -0.863  -1.059  0.00  0.00     0.006 A 
ATOM      3  C4  UNL d   1       1.674  -1.638  -0.122  0.00  0.00     0.002 A 
ATOM      4  C5  UNL d   1       1.243  -1.693   1.207  0.00  0.00    -0.080 A 
ATOM      5  C6  UNL d   1       1.954  -2.546   2.216  0.00  0.00     0.076 C 
ATOM      6  C7  UNL d   1       0.127  -0.941   1.591  0.00  0.00     0.002 A 
ATOM      7  C8  UNL d   1      -0.560  -0.165   0.655  0.00  0.00     0.006 A 
ENDROOT
BRANCH   1   8
ATOM      8  C1  UNL d   1      -0.922   0.662  -1.700  0.00  0.00     0.054 C 
ATOM      9  C   UNL d   1      -0.507   2.126  -1.708  0.00  0.00     0.018 C 
ENDBRANCH   1   8
TORSDOF 1
ENDMDL
