MODEL 1
REMARK minimizedAffinity -2.71214533
REMARK minimizedRMSD -1
REMARK  1 active torsions:
REMARK  status: ('A' for Active; 'I' for Inactive)
REMARK    1  A    between atoms: C1_2  and  C2_3 
ROOT
ATOM      1  C2  UNL d   1      -0.345  -0.183   0.026  0.00  0.00    -0.081 A 
ATOM      2  C3  UNL d   1      -0.898  -0.356   1.301  0.00  0.00     0.006 A 
ATOM      3  C4  UNL d   1      -0.090  -0.728   2.379  0.00  0.00     0.002 A 
ATOM      4  C5  UNL d   1       1.283  -0.925   2.202  0.00  0.00    -0.080 A 
ATOM      5  C6  UNL d   1       2.166  -1.295   3.356  0.00  0.00     0.076 C 
ATOM      6  C7  UNL d   1       1.833  -0.769   0.925  0.00  0.00     0.002 A 
ATOM      7  C8  UNL d   1       1.026  -0.398  -0.153  0.00  0.00     0.006 A 
ENDROOT
BRANCH   1   8
ATOM      8  C1  UNL d   1      -1.201   0.281  -1.124  0.00  0.00     0.054 C 
ATOM      9  C   UNL d   1      -0.801   1.675  -1.585  0.00  0.00     0.018 C 
ENDBRANCH   1   8
TORSDOF 1
ENDMDL
