MODEL 1
REMARK minimizedAffinity -1.26441491
REMARK minimizedRMSD -1
REMARK  1 active torsions:
REMARK  status: ('A' for Active; 'I' for Inactive)
REMARK    1  A    between atoms: C1_2  and  C2_3 
ROOT
ATOM      1  C2  UNL d   1      -0.180   1.494  -0.007  0.00  0.00    -0.081 A 
ATOM      2  C3  UNL d   1      -0.103   0.152  -0.398  0.00  0.00     0.006 A 
ATOM      3  C4  UNL d   1      -0.065  -0.864   0.560  0.00  0.00     0.002 A 
ATOM      4  C5  UNL d   1      -0.112  -0.556   1.924  0.00  0.00    -0.080 A 
ATOM      5  C6  UNL d   1      -0.103  -1.638   2.962  0.00  0.00     0.076 C 
ATOM      6  C7  UNL d   1      -0.172   0.786   2.315  0.00  0.00     0.002 A 
ATOM      7  C8  UNL d   1      -0.209   1.802   1.358  0.00  0.00     0.006 A 
ENDROOT
BRANCH   1   8
ATOM      8  C1  UNL d   1      -0.286   2.588  -1.038  0.00  0.00     0.054 C 
ATOM      9  C   UNL d   1      -1.297   2.233  -2.120  0.00  0.00     0.018 C 
ENDBRANCH   1   8
TORSDOF 1
ENDMDL
