MODEL 1
REMARK minimizedAffinity 2.18920994
REMARK minimizedRMSD -1
REMARK  1 active torsions:
REMARK  status: ('A' for Active; 'I' for Inactive)
REMARK    1  A    between atoms: C1_2  and  C2_3 
ROOT
ATOM      1  C2  UNL d   1      -0.296  -0.885   2.469  0.00  0.00    -0.081 A 
ATOM      2  C3  UNL d   1      -0.922   0.043   3.309  0.00  0.00     0.006 A 
ATOM      3  C4  UNL d   1      -2.145   0.613   2.947  0.00  0.00     0.002 A 
ATOM      4  C5  UNL d   1      -2.766   0.259   1.744  0.00  0.00    -0.080 A 
ATOM      5  C6  UNL d   1      -4.093   0.841   1.358  0.00  0.00     0.076 C 
ATOM      6  C7  UNL d   1      -2.131  -0.656   0.897  0.00  0.00     0.002 A 
ATOM      7  C8  UNL d   1      -0.908  -1.226   1.257  0.00  0.00     0.006 A 
ENDROOT
BRANCH   1   8
ATOM      8  C1  UNL d   1       0.991  -1.551   2.886  0.00  0.00     0.054 C 
ATOM      9  C   UNL d   1       2.136  -0.550   2.948  0.00  0.00     0.018 C 
ENDBRANCH   1   8
TORSDOF 1
ENDMDL
