MODEL 1
REMARK minimizedAffinity -3.28445721
REMARK minimizedRMSD -1
REMARK  0 active torsions:
REMARK  status: ('A' for Active; 'I' for Inactive)
ROOT
ATOM      1  C1  DEN d   1      -4.297   3.958   2.220  0.00  0.00     0.130 A 
ATOM      2  C2  DEN d   1      -4.559   5.342   1.833  0.00  0.00    -0.031 A 
ATOM      3  C3  DEN d   1      -5.274   6.000   2.945  0.00  0.00     0.027 A 
ATOM      4  C4  DEN d   1      -5.992   5.017   5.219  0.00  0.00     0.027 A 
ATOM      5  C5  DEN d   1      -6.000   3.882   5.999  0.00  0.00    -0.003 A 
ATOM      6  C6  DEN d   1      -5.475   2.693   5.565  0.00  0.00     0.001 A 
ATOM      7  C7  DEN d   1      -4.880   2.624   4.333  0.00  0.00     0.017 A 
ATOM      8  C8  DEN d   1      -4.875   3.763   3.538  0.00  0.00    -0.094 A 
ATOM      9  C9  DEN d   1      -5.399   4.958   4.000  0.00  0.00    -0.072 A 
ENDROOT
TORSDOF 0
ENDMDL
