MODEL 1
REMARK minimizedAffinity -3.07577395
REMARK minimizedRMSD -1
REMARK  0 active torsions:
REMARK  status: ('A' for Active; 'I' for Inactive)
ROOT
ATOM      1  C1  DEN d   1      -3.762   4.980   2.283  0.00  0.00     0.130 A 
ATOM      2  C2  DEN d   1      -4.919   5.683   1.734  0.00  0.00    -0.031 A 
ATOM      3  C3  DEN d   1      -6.000   5.635   2.739  0.00  0.00     0.027 A 
ATOM      4  C4  DEN d   1      -5.993   4.552   5.080  0.00  0.00     0.027 A 
ATOM      5  C5  DEN d   1      -5.241   3.830   5.980  0.00  0.00    -0.003 A 
ATOM      6  C6  DEN d   1      -3.966   3.415   5.701  0.00  0.00     0.001 A 
ATOM      7  C7  DEN d   1      -3.387   3.758   4.507  0.00  0.00     0.017 A 
ATOM      8  C8  DEN d   1      -4.142   4.479   3.591  0.00  0.00    -0.094 A 
ATOM      9  C9  DEN d   1      -5.425   4.900   3.898  0.00  0.00    -0.072 A 
ENDROOT
TORSDOF 0
ENDMDL
