MODEL 1
REMARK minimizedAffinity 6.76542854
REMARK minimizedRMSD -1
REMARK  0 active torsions:
REMARK  status: ('A' for Active; 'I' for Inactive)
ROOT
ATOM      1  C1  DEN d   1      -5.846   4.454   4.053  0.00  0.00     0.130 A 
ATOM      2  C2  DEN d   1      -6.000   5.852   3.661  0.00  0.00    -0.031 A 
ATOM      3  C3  DEN d   1      -5.494   5.998   2.281  0.00  0.00     0.027 A 
ATOM      4  C4  DEN d   1      -4.496   4.203   0.721  0.00  0.00     0.027 A 
ATOM      5  C5  DEN d   1      -4.151   2.873   0.615  0.00  0.00    -0.003 A 
ATOM      6  C6  DEN d   1      -4.314   1.992   1.651  0.00  0.00     0.001 A 
ATOM      7  C7  DEN d   1      -4.878   2.420   2.824  0.00  0.00     0.017 A 
ATOM      8  C8  DEN d   1      -5.221   3.761   2.941  0.00  0.00    -0.094 A 
ATOM      9  C9  DEN d   1      -5.060   4.633   1.878  0.00  0.00    -0.072 A 
ENDROOT
TORSDOF 0
ENDMDL
