MODEL 1
REMARK minimizedAffinity -3.72855496
REMARK minimizedRMSD -1
REMARK  0 active torsions:
REMARK  status: ('A' for Active; 'I' for Inactive)
ROOT
ATOM      1  C1  DEN d   1      -4.504   6.000   2.841  0.00  0.00     0.130 A 
ATOM      2  C2  DEN d   1      -5.045   5.695   1.520  0.00  0.00    -0.031 A 
ATOM      3  C3  DEN d   1      -5.439   4.272   1.505  0.00  0.00     0.027 A 
ATOM      4  C4  DEN d   1      -5.269   2.521   3.391  0.00  0.00     0.027 A 
ATOM      5  C5  DEN d   1      -4.865   2.307   4.691  0.00  0.00    -0.003 A 
ATOM      6  C6  DEN d   1      -4.287   3.291   5.447  0.00  0.00     0.001 A 
ATOM      7  C7  DEN d   1      -4.136   4.549   4.925  0.00  0.00     0.017 A 
ATOM      8  C8  DEN d   1      -4.534   4.771   3.613  0.00  0.00    -0.094 A 
ATOM      9  C9  DEN d   1      -5.128   3.766   2.869  0.00  0.00    -0.072 A 
ENDROOT
TORSDOF 0
ENDMDL
