MODEL 1
REMARK minimizedAffinity -2.06072092
REMARK minimizedRMSD -1
REMARK  0 active torsions:
REMARK  status: ('A' for Active; 'I' for Inactive)
ROOT
ATOM      1  C1  DEN d   1      -4.794   6.000   3.050  0.00  0.00     0.130 A 
ATOM      2  C2  DEN d   1      -5.058   5.737   1.638  0.00  0.00    -0.031 A 
ATOM      3  C3  DEN d   1      -5.223   4.280   1.467  0.00  0.00     0.027 A 
ATOM      4  C4  DEN d   1      -5.101   2.414   3.244  0.00  0.00     0.027 A 
ATOM      5  C5  DEN d   1      -4.889   2.148   4.579  0.00  0.00    -0.003 A 
ATOM      6  C6  DEN d   1      -4.599   3.134   5.484  0.00  0.00     0.001 A 
ATOM      7  C7  DEN d   1      -4.557   4.440   5.074  0.00  0.00     0.017 A 
ATOM      8  C8  DEN d   1      -4.763   4.717   3.728  0.00  0.00    -0.094 A 
ATOM      9  C9  DEN d   1      -5.067   3.707   2.831  0.00  0.00    -0.072 A 
ENDROOT
TORSDOF 0
ENDMDL
