MODEL 1
REMARK minimizedAffinity -2.11272645
REMARK minimizedRMSD -1
REMARK  0 active torsions:
REMARK  status: ('A' for Active; 'I' for Inactive)
ROOT
ATOM      1  C1  DEN d   1      -5.979   5.958   3.268  0.00  0.00     0.130 A 
ATOM      2  C2  DEN d   1      -5.643   5.591   1.895  0.00  0.00    -0.031 A 
ATOM      3  C3  DEN d   1      -5.288   4.158   1.879  0.00  0.00     0.027 A 
ATOM      4  C4  DEN d   1      -5.232   2.478   3.836  0.00  0.00     0.027 A 
ATOM      5  C5  DEN d   1      -5.426   2.327   5.191  0.00  0.00    -0.003 A 
ATOM      6  C6  DEN d   1      -5.782   3.374   5.999  0.00  0.00     0.001 A 
ATOM      7  C7  DEN d   1      -5.999   4.611   5.452  0.00  0.00     0.017 A 
ATOM      8  C8  DEN d   1      -5.798   4.773   4.087  0.00  0.00    -0.094 A 
ATOM      9  C9  DEN d   1      -5.450   3.699   3.285  0.00  0.00    -0.072 A 
ENDROOT
TORSDOF 0
ENDMDL
