MODEL 1
REMARK minimizedAffinity -3.69226217
REMARK minimizedRMSD -1
REMARK  0 active torsions:
REMARK  status: ('A' for Active; 'I' for Inactive)
ROOT
ATOM      1  C1  DEN d   1      -5.327   5.999   3.358  0.00  0.00     0.130 A 
ATOM      2  C2  DEN d   1      -4.753   6.000   2.015  0.00  0.00    -0.031 A 
ATOM      3  C3  DEN d   1      -4.217   4.650   1.747  0.00  0.00     0.027 A 
ATOM      4  C4  DEN d   1      -4.225   2.570   3.271  0.00  0.00     0.027 A 
ATOM      5  C5  DEN d   1      -4.590   2.085   4.508  0.00  0.00    -0.003 A 
ATOM      6  C6  DEN d   1      -5.191   2.874   5.452  0.00  0.00     0.001 A 
ATOM      7  C7  DEN d   1      -5.486   4.179   5.159  0.00  0.00     0.017 A 
ATOM      8  C8  DEN d   1      -5.114   4.677   3.917  0.00  0.00    -0.094 A 
ATOM      9  C9  DEN d   1      -4.518   3.860   2.971  0.00  0.00    -0.072 A 
ENDROOT
TORSDOF 0
ENDMDL
