MODEL 1
REMARK minimizedAffinity -3.0809865
REMARK minimizedRMSD -1
REMARK  0 active torsions:
REMARK  status: ('A' for Active; 'I' for Inactive)
ROOT
ATOM      1  C1  DEN d   1      -4.507   3.828   2.217  0.00  0.00     0.130 A 
ATOM      2  C2  DEN d   1      -4.915   4.958   1.387  0.00  0.00    -0.031 A 
ATOM      3  C3  DEN d   1      -5.472   5.999   2.274  0.00  0.00     0.027 A 
ATOM      4  C4  DEN d   1      -5.736   5.974   4.839  0.00  0.00     0.027 A 
ATOM      5  C5  DEN d   1      -5.543   5.227   5.980  0.00  0.00    -0.003 A 
ATOM      6  C6  DEN d   1      -5.027   3.959   5.944  0.00  0.00     0.001 A 
ATOM      7  C7  DEN d   1      -4.644   3.416   4.746  0.00  0.00     0.017 A 
ATOM      8  C8  DEN d   1      -4.842   4.160   3.591  0.00  0.00    -0.094 A 
ATOM      9  C9  DEN d   1      -5.354   5.445   3.649  0.00  0.00    -0.072 A 
ENDROOT
TORSDOF 0
ENDMDL
