MODEL 1
REMARK minimizedAffinity -2.52906394
REMARK minimizedRMSD -1
REMARK  0 active torsions:
REMARK  status: ('A' for Active; 'I' for Inactive)
ROOT
ATOM      1  C1  DEN d   1      -4.471   4.776   2.052  0.00  0.00     0.130 A 
ATOM      2  C2  DEN d   1      -5.261   5.998   2.174  0.00  0.00    -0.031 A 
ATOM      3  C3  DEN d   1      -5.897   6.000   3.507  0.00  0.00     0.027 A 
ATOM      4  C4  DEN d   1      -5.731   4.240   5.385  0.00  0.00     0.027 A 
ATOM      5  C5  DEN d   1      -5.187   3.026   5.741  0.00  0.00    -0.003 A 
ATOM      6  C6  DEN d   1      -4.400   2.300   4.887  0.00  0.00     0.001 A 
ATOM      7  C7  DEN d   1      -4.098   2.803   3.649  0.00  0.00     0.017 A 
ATOM      8  C8  DEN d   1      -4.649   4.023   3.280  0.00  0.00    -0.094 A 
ATOM      9  C9  DEN d   1      -5.432   4.748   4.163  0.00  0.00    -0.072 A 
ENDROOT
TORSDOF 0
ENDMDL
