MODEL 1
REMARK minimizedAffinity -3.18045831
REMARK minimizedRMSD -1
REMARK  0 active torsions:
REMARK  status: ('A' for Active; 'I' for Inactive)
ROOT
ATOM      1  C1  DEN d   1      -5.995   4.516   2.173  0.00  0.00     0.130 A 
ATOM      2  C2  DEN d   1      -5.153   5.429   1.405  0.00  0.00    -0.031 A 
ATOM      3  C3  DEN d   1      -4.145   6.000   2.321  0.00  0.00     0.027 A 
ATOM      4  C4  DEN d   1      -3.804   5.557   4.839  0.00  0.00     0.027 A 
ATOM      5  C5  DEN d   1      -4.281   4.867   5.932  0.00  0.00    -0.003 A 
ATOM      6  C6  DEN d   1      -5.374   4.045   5.857  0.00  0.00     0.001 A 
ATOM      7  C7  DEN d   1      -6.000   3.857   4.653  0.00  0.00     0.017 A 
ATOM      8  C8  DEN d   1      -5.530   4.554   3.548  0.00  0.00    -0.094 A 
ATOM      9  C9  DEN d   1      -4.416   5.371   3.642  0.00  0.00    -0.072 A 
ENDROOT
TORSDOF 0
ENDMDL
