MODEL 1
REMARK minimizedAffinity -3.34299374
REMARK minimizedRMSD -1
REMARK  0 active torsions:
REMARK  status: ('A' for Active; 'I' for Inactive)
ROOT
ATOM      1  C1  DEN d   1      -4.920   4.161   5.775  0.00  0.00     0.130 A 
ATOM      2  C2  DEN d   1      -5.399   2.786   5.880  0.00  0.00    -0.031 A 
ATOM      3  C3  DEN d   1      -5.910   2.379   4.555  0.00  0.00     0.027 A 
ATOM      4  C4  DEN d   1      -6.000   3.736   2.364  0.00  0.00     0.027 A 
ATOM      5  C5  DEN d   1      -5.719   4.954   1.785  0.00  0.00    -0.003 A 
ATOM      6  C6  DEN d   1      -5.188   5.996   2.499  0.00  0.00     0.001 A 
ATOM      7  C7  DEN d   1      -4.879   5.825   3.822  0.00  0.00     0.017 A 
ATOM      8  C8  DEN d   1      -5.166   4.602   4.414  0.00  0.00    -0.094 A 
ATOM      9  C9  DEN d   1      -5.691   3.557   3.673  0.00  0.00    -0.072 A 
ENDROOT
TORSDOF 0
ENDMDL
