MODEL 1
REMARK minimizedAffinity -3.94970202
REMARK minimizedRMSD -1
REMARK  0 active torsions:
REMARK  status: ('A' for Active; 'I' for Inactive)
ROOT
ATOM      1  C1  DEN d   1      -4.405   2.413   4.794  0.00  0.00     0.130 A 
ATOM      2  C2  DEN d   1      -5.231   2.468   5.997  0.00  0.00    -0.031 A 
ATOM      3  C3  DEN d   1      -6.000   3.728   5.965  0.00  0.00     0.027 A 
ATOM      4  C4  DEN d   1      -5.995   5.588   4.178  0.00  0.00     0.027 A 
ATOM      5  C5  DEN d   1      -5.446   5.994   2.982  0.00  0.00    -0.003 A 
ATOM      6  C6  DEN d   1      -4.494   5.257   2.328  0.00  0.00     0.001 A 
ATOM      7  C7  DEN d   1      -4.095   4.052   2.844  0.00  0.00     0.017 A 
ATOM      8  C8  DEN d   1      -4.639   3.640   4.054  0.00  0.00    -0.094 A 
ATOM      9  C9  DEN d   1      -5.608   4.394   4.694  0.00  0.00    -0.072 A 
ENDROOT
TORSDOF 0
ENDMDL
