MODEL 1
REMARK minimizedAffinity -2.32695007
REMARK minimizedRMSD -1
REMARK  0 active torsions:
REMARK  status: ('A' for Active; 'I' for Inactive)
ROOT
ATOM      1  C1  DEN d   1      -5.613   1.896   4.606  0.00  0.00     0.130 A 
ATOM      2  C2  DEN d   1      -5.775   2.380   5.974  0.00  0.00    -0.031 A 
ATOM      3  C3  DEN d   1      -5.953   3.845   5.922  0.00  0.00     0.027 A 
ATOM      4  C4  DEN d   1      -5.999   5.402   3.866  0.00  0.00     0.027 A 
ATOM      5  C5  DEN d   1      -5.893   5.452   2.493  0.00  0.00    -0.003 A 
ATOM      6  C6  DEN d   1      -5.654   4.335   1.738  0.00  0.00     0.001 A 
ATOM      7  C7  DEN d   1      -5.559   3.112   2.347  0.00  0.00     0.017 A 
ATOM      8  C8  DEN d   1      -5.657   3.054   3.731  0.00  0.00    -0.094 A 
ATOM      9  C9  DEN d   1      -5.911   4.193   4.476  0.00  0.00    -0.072 A 
ENDROOT
TORSDOF 0
ENDMDL
