MODEL 1
REMARK minimizedAffinity -3.55497718
REMARK minimizedRMSD -1
REMARK  0 active torsions:
REMARK  status: ('A' for Active; 'I' for Inactive)
ROOT
ATOM      1  C1  DEN d   1      -6.000   2.250   4.623  0.00  0.00     0.130 A 
ATOM      2  C2  DEN d   1      -5.486   2.492   5.969  0.00  0.00    -0.031 A 
ATOM      3  C3  DEN d   1      -4.901   3.848   5.997  0.00  0.00     0.027 A 
ATOM      4  C4  DEN d   1      -4.747   5.588   4.099  0.00  0.00     0.027 A 
ATOM      5  C5  DEN d   1      -5.036   5.833   2.775  0.00  0.00    -0.003 A 
ATOM      6  C6  DEN d   1      -5.630   4.897   1.972  0.00  0.00     0.001 A 
ATOM      7  C7  DEN d   1      -5.997   3.686   2.497  0.00  0.00     0.017 A 
ATOM      8  C8  DEN d   1      -5.702   3.429   3.830  0.00  0.00    -0.094 A 
ATOM      9  C9  DEN d   1      -5.112   4.393   4.629  0.00  0.00    -0.072 A 
ENDROOT
TORSDOF 0
ENDMDL
