MODEL 1
REMARK minimizedAffinity -2.94815254
REMARK minimizedRMSD -1
REMARK  0 active torsions:
REMARK  status: ('A' for Active; 'I' for Inactive)
ROOT
ATOM      1  C1  BNZ d   1       0.411  -0.384  -0.093  0.00  0.00     0.000 A 
ATOM      2  C2  BNZ d   1       1.732  -0.739  -0.153  0.00  0.00     0.000 A 
ATOM      3  C3  BNZ d   1       2.284  -1.544   0.805  0.00  0.00     0.000 A 
ATOM      4  C4  BNZ d   1       1.525  -1.959   1.840  0.00  0.00     0.000 A 
ATOM      5  C5  BNZ d   1       0.194  -1.602   1.919  0.00  0.00     0.000 A 
ATOM      6  C6  BNZ d   1      -0.368  -0.823   0.933  0.00  0.00     0.000 A 
ENDROOT
TORSDOF 0
ENDMDL
