MODEL 1
REMARK minimizedAffinity -2.74213338
REMARK minimizedRMSD -1
REMARK  0 active torsions:
REMARK  status: ('A' for Active; 'I' for Inactive)
ROOT
ATOM      1  C1  BNZ d   1      -0.229  -1.149   1.835  0.00  0.00     0.000 A 
ATOM      2  C2  BNZ d   1       0.481  -2.118   2.494  0.00  0.00     0.000 A 
ATOM      3  C3  BNZ d   1       1.690  -2.544   2.018  0.00  0.00     0.000 A 
ATOM      4  C4  BNZ d   1       2.167  -2.032   0.866  0.00  0.00     0.000 A 
ATOM      5  C5  BNZ d   1       1.459  -1.061   0.186  0.00  0.00     0.000 A 
ATOM      6  C6  BNZ d   1       0.261  -0.606   0.688  0.00  0.00     0.000 A 
ENDROOT
TORSDOF 0
ENDMDL
