MODEL 1
REMARK minimizedAffinity -4.9039073
REMARK minimizedRMSD -1
REMARK  0 active torsions:
REMARK  status: ('A' for Active; 'I' for Inactive)
ROOT
ATOM      1  C1  BNZ d   1       1.158  -0.747  -0.046  0.00  0.00     0.000 A 
ATOM      2  C2  BNZ d   1       1.888  -1.749   0.537  0.00  0.00     0.000 A 
ATOM      3  C3  BNZ d   1       1.470  -2.334   1.699  0.00  0.00     0.000 A 
ATOM      4  C4  BNZ d   1       0.345  -1.891   2.298  0.00  0.00     0.000 A 
ATOM      5  C5  BNZ d   1      -0.396  -0.875   1.727  0.00  0.00     0.000 A 
ATOM      6  C6  BNZ d   1       0.007  -0.315   0.537  0.00  0.00     0.000 A 
ENDROOT
TORSDOF 0
ENDMDL
