MODEL 1
REMARK minimizedAffinity -4.20491934
REMARK minimizedRMSD -1
REMARK  0 active torsions:
REMARK  status: ('A' for Active; 'I' for Inactive)
ROOT
ATOM      1  C1  BNZ d   1       1.478  -2.096   0.849  0.00  0.00     0.000 A 
ATOM      2  C2  BNZ d   1       1.072  -2.572   2.068  0.00  0.00     0.000 A 
ATOM      3  C3  BNZ d   1      -0.034  -2.060   2.686  0.00  0.00     0.000 A 
ATOM      4  C4  BNZ d   1      -0.709  -1.047   2.106  0.00  0.00     0.000 A 
ATOM      5  C5  BNZ d   1      -0.307  -0.550   0.882  0.00  0.00     0.000 A 
ATOM      6  C6  BNZ d   1       0.784  -1.094   0.244  0.00  0.00     0.000 A 
ENDROOT
TORSDOF 0
ENDMDL
