MODEL 1
REMARK minimizedAffinity -4.4185071
REMARK minimizedRMSD -1
REMARK  0 active torsions:
REMARK  status: ('A' for Active; 'I' for Inactive)
ROOT
ATOM      1  C1  BNZ d   1       1.130  -1.345  -0.175  0.00  0.00     0.000 A 
ATOM      2  C2  BNZ d   1       1.981  -2.290   0.332  0.00  0.00     0.000 A 
ATOM      3  C3  BNZ d   1       1.720  -2.899   1.527  0.00  0.00     0.000 A 
ATOM      4  C4  BNZ d   1       0.630  -2.534   2.233  0.00  0.00     0.000 A 
ATOM      5  C5  BNZ d   1      -0.233  -1.575   1.740  0.00  0.00     0.000 A 
ATOM      6  C6  BNZ d   1       0.013  -0.993   0.518  0.00  0.00     0.000 A 
ENDROOT
TORSDOF 0
ENDMDL
