MODEL 1
REMARK minimizedAffinity -2.05579925
REMARK minimizedRMSD -1
REMARK  0 active torsions:
REMARK  status: ('A' for Active; 'I' for Inactive)
ROOT
ATOM      1  C1  BNZ d   1       1.747  -1.251   0.893  0.00  0.00     0.000 A 
ATOM      2  C2  BNZ d   1       1.461  -0.336  -0.084  0.00  0.00     0.000 A 
ATOM      3  C3  BNZ d   1       0.256   0.310  -0.108  0.00  0.00     0.000 A 
ATOM      4  C4  BNZ d   1      -0.675   0.010   0.820  0.00  0.00     0.000 A 
ATOM      5  C5  BNZ d   1      -0.406  -0.918   1.806  0.00  0.00     0.000 A 
ATOM      6  C6  BNZ d   1       0.823  -1.537   1.850  0.00  0.00     0.000 A 
ENDROOT
TORSDOF 0
ENDMDL
