MODEL 1
REMARK minimizedAffinity -3.29888773
REMARK minimizedRMSD -1
REMARK  0 active torsions:
REMARK  status: ('A' for Active; 'I' for Inactive)
ROOT
ATOM      1  C1  BNZ d   1       1.505  -2.098   1.839  0.00  0.00     0.000 A 
ATOM      2  C2  BNZ d   1       2.183  -1.737   0.705  0.00  0.00     0.000 A 
ATOM      3  C3  BNZ d   1       1.679  -0.790  -0.141  0.00  0.00     0.000 A 
ATOM      4  C4  BNZ d   1       0.480  -0.233   0.127  0.00  0.00     0.000 A 
ATOM      5  C5  BNZ d   1      -0.221  -0.593   1.261  0.00  0.00     0.000 A 
ATOM      6  C6  BNZ d   1       0.308  -1.519   2.130  0.00  0.00     0.000 A 
ENDROOT
TORSDOF 0
ENDMDL
