MODEL 1
REMARK minimizedAffinity -4.12335062
REMARK minimizedRMSD -1
REMARK  0 active torsions:
REMARK  status: ('A' for Active; 'I' for Inactive)
ROOT
ATOM      1  C1  BNZ d   1       1.202  -3.091   1.954  0.00  0.00     0.000 A 
ATOM      2  C2  BNZ d   1       1.838  -2.723   0.798  0.00  0.00     0.000 A 
ATOM      3  C3  BNZ d   1       1.414  -1.640   0.080  0.00  0.00     0.000 A 
ATOM      4  C4  BNZ d   1       0.332  -0.951   0.496  0.00  0.00     0.000 A 
ATOM      5  C5  BNZ d   1      -0.325  -1.315   1.654  0.00  0.00     0.000 A 
ATOM      6  C6  BNZ d   1       0.128  -2.382   2.395  0.00  0.00     0.000 A 
ENDROOT
TORSDOF 0
ENDMDL
