MODEL 1
REMARK minimizedAffinity -4.32820463
REMARK minimizedRMSD -1
REMARK  0 active torsions:
REMARK  status: ('A' for Active; 'I' for Inactive)
ROOT
ATOM      1  C1  BNZ d   1       1.980  -1.287   0.285  0.00  0.00     0.000 A 
ATOM      2  C2  BNZ d   1       1.660  -0.317  -0.627  0.00  0.00     0.000 A 
ATOM      3  C3  BNZ d   1       0.416   0.250  -0.639  0.00  0.00     0.000 A 
ATOM      4  C4  BNZ d   1      -0.517  -0.181   0.234  0.00  0.00     0.000 A 
ATOM      5  C5  BNZ d   1      -0.213  -1.165   1.154  0.00  0.00     0.000 A 
ATOM      6  C6  BNZ d   1       1.052  -1.706   1.188  0.00  0.00     0.000 A 
ENDROOT
TORSDOF 0
ENDMDL
