MODEL 1
REMARK minimizedAffinity -5.34699869
REMARK minimizedRMSD -1
REMARK  0 active torsions:
REMARK  status: ('A' for Active; 'I' for Inactive)
ROOT
ATOM      1  C1  BNZ d   1       2.154  -2.326   0.232  0.00  0.00     0.000 A 
ATOM      2  C2  BNZ d   1       1.504  -2.912   1.285  0.00  0.00     0.000 A 
ATOM      3  C3  BNZ d   1       0.348  -2.377   1.780  0.00  0.00     0.000 A 
ATOM      4  C4  BNZ d   1      -0.135  -1.235   1.249  0.00  0.00     0.000 A 
ATOM      5  C5  BNZ d   1       0.514  -0.627   0.193  0.00  0.00     0.000 A 
ATOM      6  C6  BNZ d   1       1.656  -1.190  -0.328  0.00  0.00     0.000 A 
ENDROOT
TORSDOF 0
ENDMDL
