MODEL 1
REMARK minimizedAffinity -5.33964157
REMARK minimizedRMSD -1
REMARK  0 active torsions:
REMARK  status: ('A' for Active; 'I' for Inactive)
ROOT
ATOM      1  C1  BNZ d   1      -0.255  -1.822   1.997  0.00  0.00     0.000 A 
ATOM      2  C2  BNZ d   1       0.592  -2.685   2.638  0.00  0.00     0.000 A 
ATOM      3  C3  BNZ d   1       1.738  -3.120   2.033  0.00  0.00     0.000 A 
ATOM      4  C4  BNZ d   1       2.014  -2.724   0.774  0.00  0.00     0.000 A 
ATOM      5  C5  BNZ d   1       1.165  -1.862   0.110  0.00  0.00     0.000 A 
ATOM      6  C6  BNZ d   1       0.032  -1.395   0.737  0.00  0.00     0.000 A 
ENDROOT
TORSDOF 0
ENDMDL
