MODEL 1
REMARK minimizedAffinity -3.72536325
REMARK minimizedRMSD -1
REMARK  0 active torsions:
REMARK  status: ('A' for Active; 'I' for Inactive)
ROOT
ATOM      1  C1  BNZ d   1       1.119  -2.529   2.094  0.00  0.00     0.000 A 
ATOM      2  C2  BNZ d   1      -0.046  -1.986   2.567  0.00  0.00     0.000 A 
ATOM      3  C3  BNZ d   1      -0.778  -1.123   1.800  0.00  0.00     0.000 A 
ATOM      4  C4  BNZ d   1      -0.324  -0.773   0.578  0.00  0.00     0.000 A 
ATOM      5  C5  BNZ d   1       0.853  -1.305   0.092  0.00  0.00     0.000 A 
ATOM      6  C6  BNZ d   1       1.567  -2.203   0.851  0.00  0.00     0.000 A 
ENDROOT
TORSDOF 0
ENDMDL
