MODEL 1
REMARK minimizedAffinity -0.17808114
REMARK minimizedRMSD -1
REMARK  0 active torsions:
REMARK  status: ('A' for Active; 'I' for Inactive)
ROOT
ATOM      1  C1  BNZ d   1      -3.910   2.481  -3.077  0.00  0.00     0.000 A 
ATOM      2  C2  BNZ d   1      -2.728   3.170  -3.134  0.00  0.00     0.000 A 
ATOM      3  C3  BNZ d   1      -1.693   2.856  -2.297  0.00  0.00     0.000 A 
ATOM      4  C4  BNZ d   1      -1.856   1.882  -1.379  0.00  0.00     0.000 A 
ATOM      5  C5  BNZ d   1      -3.045   1.184  -1.302  0.00  0.00     0.000 A 
ATOM      6  C6  BNZ d   1      -4.070   1.477  -2.172  0.00  0.00     0.000 A 
ENDROOT
TORSDOF 0
ENDMDL
