MODEL 1
REMARK minimizedAffinity -4.05785036
REMARK minimizedRMSD -1
REMARK  0 active torsions:
REMARK  status: ('A' for Active; 'I' for Inactive)
ROOT
ATOM      1  C1  BNZ d   1      -0.432  -0.834   0.704  0.00  0.00     0.000 A 
ATOM      2  C2  BNZ d   1       0.733  -1.440   0.317  0.00  0.00     0.000 A 
ATOM      3  C3  BNZ d   1       1.264  -2.467   1.046  0.00  0.00     0.000 A 
ATOM      4  C4  BNZ d   1       0.651  -2.860   2.181  0.00  0.00     0.000 A 
ATOM      5  C5  BNZ d   1      -0.520  -2.253   2.590  0.00  0.00     0.000 A 
ATOM      6  C6  BNZ d   1      -1.072  -1.245   1.833  0.00  0.00     0.000 A 
ENDROOT
TORSDOF 0
ENDMDL
