MODEL 1
REMARK minimizedAffinity -2.96483994
REMARK minimizedRMSD -1
REMARK  0 active torsions:
REMARK  status: ('A' for Active; 'I' for Inactive)
ROOT
ATOM      1  C1  BNZ d   1       1.549  -1.442  -1.584  0.00  0.00     0.000 A 
ATOM      2  C2  BNZ d   1       0.525  -0.557  -1.377  0.00  0.00     0.000 A 
ATOM      3  C3  BNZ d   1       0.298  -0.025  -0.139  0.00  0.00     0.000 A 
ATOM      4  C4  BNZ d   1       1.068  -0.409   0.899  0.00  0.00     0.000 A 
ATOM      5  C5  BNZ d   1       2.099  -1.308   0.709  0.00  0.00     0.000 A 
ATOM      6  C6  BNZ d   1       2.349  -1.811  -0.547  0.00  0.00     0.000 A 
ENDROOT
TORSDOF 0
ENDMDL
