MODEL 1
REMARK minimizedAffinity 14.0358238
REMARK minimizedRMSD -1
REMARK  0 active torsions:
REMARK  status: ('A' for Active; 'I' for Inactive)
ROOT
ATOM      1  N1  IND d   1      -1.408   1.732  -4.374  0.00  0.00    -0.196 N 
ATOM      2  C2  IND d   1      -1.373   0.500  -4.964  0.00  0.00     0.054 A 
ATOM      3  C3  IND d   1      -2.381  -0.272  -4.500  0.00  0.00    -0.031 A 
ATOM      4  C4  IND d   1      -4.265   0.317  -2.848  0.00  0.00     0.051 A 
ATOM      5  C5  IND d   1      -4.696   1.311  -2.015  0.00  0.00    -0.031 A 
ATOM      6  C6  IND d   1      -4.041   2.523  -1.927  0.00  0.00     0.015 A 
ATOM      7  C7  IND d   1      -2.933   2.790  -2.679  0.00  0.00    -0.016 A 
ATOM      8  C8  IND d   1      -2.488   1.779  -3.520  0.00  0.00    -0.047 A 
ATOM      9  C9  IND d   1      -3.124   0.533  -3.583  0.00  0.00    -0.096 A 
ATOM     10  HN1 IND d   1      -0.849   2.371  -4.512  0.00  0.00     0.298 HD
ENDROOT
TORSDOF 0
ENDMDL
