MODEL 1
REMARK minimizedAffinity 8.28951168
REMARK minimizedRMSD -1
REMARK  0 active torsions:
REMARK  status: ('A' for Active; 'I' for Inactive)
ROOT
ATOM      1  N1  IND d   1       4.792  -2.137   0.217  0.00  0.00    -0.196 N 
ATOM      2  C2  IND d   1       5.719  -2.561   1.127  0.00  0.00     0.054 A 
ATOM      3  C3  IND d   1       5.279  -2.338   2.386  0.00  0.00    -0.031 A 
ATOM      4  C4  IND d   1       3.027  -1.381   3.185  0.00  0.00     0.051 A 
ATOM      5  C5  IND d   1       1.871  -0.818   2.723  0.00  0.00    -0.031 A 
ATOM      6  C6  IND d   1       1.623  -0.665   1.374  0.00  0.00     0.015 A 
ATOM      7  C7  IND d   1       2.521  -1.082   0.433  0.00  0.00    -0.016 A 
ATOM      8  C8  IND d   1       3.700  -1.647   0.899  0.00  0.00    -0.047 A 
ATOM      9  C9  IND d   1       3.975  -1.766   2.267  0.00  0.00    -0.096 A 
ATOM     10  HN1 IND d   1       4.877  -2.169  -0.638  0.00  0.00     0.298 HD
ENDROOT
TORSDOF 0
ENDMDL
