MODEL 1
REMARK minimizedAffinity 8.07279873
REMARK minimizedRMSD -1
REMARK  0 active torsions:
REMARK  status: ('A' for Active; 'I' for Inactive)
ROOT
ATOM      1  N1  IND d   1       0.339   6.000  -2.087  0.00  0.00    -0.196 N 
ATOM      2  C2  IND d   1       1.659   5.998  -1.733  0.00  0.00     0.054 A 
ATOM      3  C3  IND d   1       1.990   4.822  -1.155  0.00  0.00    -0.031 A 
ATOM      4  C4  IND d   1       0.550   2.721  -0.781  0.00  0.00     0.051 A 
ATOM      5  C5  IND d   1      -0.729   2.256  -0.906  0.00  0.00    -0.031 A 
ATOM      6  C6  IND d   1      -1.737   3.029  -1.444  0.00  0.00     0.015 A 
ATOM      7  C7  IND d   1      -1.500   4.299  -1.890  0.00  0.00    -0.016 A 
ATOM      8  C8  IND d   1      -0.204   4.777  -1.758  0.00  0.00    -0.047 A 
ATOM      9  C9  IND d   1       0.814   4.012  -1.174  0.00  0.00    -0.096 A 
ATOM     10  HN1 IND d   1      -0.082   6.654  -2.453  0.00  0.00     0.298 HD
ENDROOT
TORSDOF 0
ENDMDL
