MODEL 1
REMARK minimizedAffinity -1.85165298
REMARK minimizedRMSD -1
REMARK  0 active torsions:
REMARK  status: ('A' for Active; 'I' for Inactive)
ROOT
ATOM      1  N1  IND d   1      -3.362   2.141   1.506  0.00  0.00    -0.196 N 
ATOM      2  C2  IND d   1      -2.009   2.337   1.474  0.00  0.00     0.054 A 
ATOM      3  C3  IND d   1      -1.726   3.658   1.422  0.00  0.00    -0.031 A 
ATOM      4  C4  IND d   1      -3.324   5.676   1.482  0.00  0.00     0.051 A 
ATOM      5  C5  IND d   1      -4.652   6.000   1.473  0.00  0.00    -0.031 A 
ATOM      6  C6  IND d   1      -5.637   5.034   1.477  0.00  0.00     0.015 A 
ATOM      7  C7  IND d   1      -5.330   3.703   1.502  0.00  0.00    -0.016 A 
ATOM      8  C8  IND d   1      -3.983   3.371   1.505  0.00  0.00    -0.047 A 
ATOM      9  C9  IND d   1      -2.978   4.346   1.457  0.00  0.00    -0.096 A 
ATOM     10  HN1 IND d   1      -3.758   1.378   1.524  0.00  0.00     0.298 HD
ENDROOT
TORSDOF 0
ENDMDL
