MODEL 1
REMARK minimizedAffinity 13.5794077
REMARK minimizedRMSD -1
REMARK  0 active torsions:
REMARK  status: ('A' for Active; 'I' for Inactive)
ROOT
ATOM      1  N1  IND d   1       5.190  -2.191   2.898  0.00  0.00    -0.196 N 
ATOM      2  C2  IND d   1       5.809  -2.739   1.810  0.00  0.00     0.054 A 
ATOM      3  C3  IND d   1       5.013  -2.649   0.721  0.00  0.00    -0.031 A 
ATOM      4  C4  IND d   1       2.699  -1.549   0.473  0.00  0.00     0.051 A 
ATOM      5  C5  IND d   1       1.709  -0.948   1.199  0.00  0.00    -0.031 A 
ATOM      6  C6  IND d   1       1.832  -0.723   2.555  0.00  0.00     0.015 A 
ATOM      7  C7  IND d   1       2.960  -1.083   3.236  0.00  0.00    -0.016 A 
ATOM      8  C8  IND d   1       3.964  -1.700   2.504  0.00  0.00    -0.047 A 
ATOM      9  C9  IND d   1       3.827  -1.969   1.136  0.00  0.00    -0.096 A 
ATOM     10  HN1 IND d   1       5.511  -2.159   3.695  0.00  0.00     0.298 HD
ENDROOT
TORSDOF 0
ENDMDL
