MODEL 1
REMARK minimizedAffinity 7.74591684
REMARK minimizedRMSD -1
REMARK  0 active torsions:
REMARK  status: ('A' for Active; 'I' for Inactive)
ROOT
ATOM      1  N1  IND d   1       1.784   4.156  -1.411  0.00  0.00    -0.196 N 
ATOM      2  C2  IND d   1       1.909   5.476  -1.744  0.00  0.00     0.054 A 
ATOM      3  C3  IND d   1       0.703   5.998  -2.059  0.00  0.00    -0.031 A 
ATOM      4  C4  IND d   1      -1.623   4.896  -1.998  0.00  0.00     0.051 A 
ATOM      5  C5  IND d   1      -2.240   3.694  -1.791  0.00  0.00    -0.031 A 
ATOM      6  C6  IND d   1      -1.534   2.563  -1.437  0.00  0.00     0.015 A 
ATOM      7  C7  IND d   1      -0.179   2.594  -1.265  0.00  0.00    -0.016 A 
ATOM      8  C8  IND d   1       0.452   3.811  -1.481  0.00  0.00    -0.047 A 
ATOM      9  C9  IND d   1      -0.254   4.952  -1.882  0.00  0.00    -0.096 A 
ATOM     10  HN1 IND d   1       2.429   3.630  -1.194  0.00  0.00     0.298 HD
ENDROOT
TORSDOF 0
ENDMDL
