MODEL 1
REMARK minimizedAffinity 10.2779837
REMARK minimizedRMSD -1
REMARK  0 active torsions:
REMARK  status: ('A' for Active; 'I' for Inactive)
ROOT
ATOM      1  N1  IND d   1      -4.157   0.761   2.751  0.00  0.00    -0.196 N 
ATOM      2  C2  IND d   1      -2.792   0.701   2.712  0.00  0.00     0.054 A 
ATOM      3  C3  IND d   1      -2.325  -0.049   3.736  0.00  0.00    -0.031 A 
ATOM      4  C4  IND d   1      -3.626  -1.355   5.533  0.00  0.00     0.051 A 
ATOM      5  C5  IND d   1      -4.892  -1.576   5.999  0.00  0.00    -0.031 A 
ATOM      6  C6  IND d   1      -6.000  -1.020   5.393  0.00  0.00     0.015 A 
ATOM      7  C7  IND d   1      -5.884  -0.228   4.285  0.00  0.00    -0.016 A 
ATOM      8  C8  IND d   1      -4.600   0.004   3.813  0.00  0.00    -0.047 A 
ATOM      9  C9  IND d   1      -3.468  -0.523   4.450  0.00  0.00    -0.096 A 
ATOM     10  HN1 IND d   1      -4.656   1.197   2.203  0.00  0.00     0.298 HD
ENDROOT
TORSDOF 0
ENDMDL
