MODEL 1
REMARK minimizedAffinity 7.2683506
REMARK minimizedRMSD -1
REMARK  0 active torsions:
REMARK  status: ('A' for Active; 'I' for Inactive)
ROOT
ATOM      1  N1  IND d   1       1.915   4.342  -1.128  0.00  0.00    -0.196 N 
ATOM      2  C2  IND d   1       1.925   5.651  -1.523  0.00  0.00     0.054 A 
ATOM      3  C3  IND d   1       0.720   6.000  -2.027  0.00  0.00    -0.031 A 
ATOM      4  C4  IND d   1      -1.441   4.612  -2.207  0.00  0.00     0.051 A 
ATOM      5  C5  IND d   1      -1.931   3.352  -2.010  0.00  0.00    -0.031 A 
ATOM      6  C6  IND d   1      -1.150   2.337  -1.496  0.00  0.00     0.015 A 
ATOM      7  C7  IND d   1       0.154   2.550  -1.148  0.00  0.00    -0.016 A 
ATOM      8  C8  IND d   1       0.658   3.826  -1.353  0.00  0.00    -0.047 A 
ATOM      9  C9  IND d   1      -0.118   4.849  -1.914  0.00  0.00    -0.096 A 
ATOM     10  HN1 IND d   1       2.582   3.913  -0.796  0.00  0.00     0.298 HD
ENDROOT
TORSDOF 0
ENDMDL
