MODEL 1
REMARK minimizedAffinity 19.4603233
REMARK minimizedRMSD -1
REMARK  0 active torsions:
REMARK  status: ('A' for Active; 'I' for Inactive)
ROOT
ATOM      1  N1  IND d   1      -4.899   0.564  -3.985  0.00  0.00    -0.196 N 
ATOM      2  C2  IND d   1      -5.169   1.180  -2.795  0.00  0.00     0.054 A 
ATOM      3  C3  IND d   1      -4.026   1.620  -2.222  0.00  0.00    -0.031 A 
ATOM      4  C4  IND d   1      -1.612   1.526  -3.110  0.00  0.00     0.051 A 
ATOM      5  C5  IND d   1      -0.860   1.027  -4.137  0.00  0.00    -0.031 A 
ATOM      6  C6  IND d   1      -1.428   0.337  -5.188  0.00  0.00     0.015 A 
ATOM      7  C7  IND d   1      -2.777   0.129  -5.258  0.00  0.00    -0.016 A 
ATOM      8  C8  IND d   1      -3.542   0.628  -4.213  0.00  0.00    -0.047 A 
ATOM      9  C9  IND d   1      -2.966   1.292  -3.123  0.00  0.00    -0.096 A 
ATOM     10  HN1 IND d   1      -5.479   0.199  -4.504  0.00  0.00     0.298 HD
ENDROOT
TORSDOF 0
ENDMDL
