MODEL 1
REMARK minimizedAffinity 18.3859844
REMARK minimizedRMSD -1
REMARK  0 active torsions:
REMARK  status: ('A' for Active; 'I' for Inactive)
ROOT
ATOM      1  N1  IND d   1      -2.244   1.982  -3.083  0.00  0.00    -0.196 N 
ATOM      2  C2  IND d   1      -2.115   1.164  -4.171  0.00  0.00     0.054 A 
ATOM      3  C3  IND d   1      -3.228   0.413  -4.329  0.00  0.00    -0.031 A 
ATOM      4  C4  IND d   1      -5.420   0.433  -2.980  0.00  0.00     0.051 A 
ATOM      5  C5  IND d   1      -5.998   0.985  -1.871  0.00  0.00    -0.031 A 
ATOM      6  C6  IND d   1      -5.341   1.918  -1.095  0.00  0.00     0.015 A 
ATOM      7  C7  IND d   1      -4.081   2.345  -1.407  0.00  0.00    -0.016 A 
ATOM      8  C8  IND d   1      -3.489   1.781  -2.529  0.00  0.00    -0.047 A 
ATOM      9  C9  IND d   1      -4.134   0.802  -3.295  0.00  0.00    -0.096 A 
ATOM     10  HN1 IND d   1      -1.648   2.529  -2.793  0.00  0.00     0.298 HD
ENDROOT
TORSDOF 0
ENDMDL
