MODEL 1
REMARK minimizedAffinity 8.69335651
REMARK minimizedRMSD -1
REMARK  1 active torsions:
REMARK  status: ('A' for Active; 'I' for Inactive)
REMARK    1  A    between atoms: C1_2  and  C2_3 
ROOT
ATOM      1  C2  UNL d   1       2.207   0.812   2.078  0.00  0.00    -0.073 A 
ATOM      2  C3  UNL d   1       3.043   0.006   2.859  0.00  0.00    -0.002 A 
ATOM      3  C4  UNL d   1       4.385  -0.160   2.514  0.00  0.00     0.004 A 
ATOM      4  C5  UNL d   1       4.906   0.482   1.391  0.00  0.00    -0.004 A 
ATOM      5  C6  UNL d   1       4.089   1.301   0.605  0.00  0.00    -0.075 A 
ATOM      6  C7  UNL d   1       4.634   1.996  -0.608  0.00  0.00     0.076 C 
ATOM      7  C8  UNL d   1       2.742   1.460   0.956  0.00  0.00     0.001 A 
ENDROOT
BRANCH   1   8
ATOM      8  C1  UNL d   1       0.759   0.999   2.450  0.00  0.00     0.053 C 
ATOM      9  C   UNL d   1       0.240   2.371   2.048  0.00  0.00     0.018 C 
ENDBRANCH   1   8
TORSDOF 1
ENDMDL
