MODEL 1
REMARK minimizedAffinity 14.3304996
REMARK minimizedRMSD -1
REMARK  1 active torsions:
REMARK  status: ('A' for Active; 'I' for Inactive)
REMARK    1  A    between atoms: C1_2  and  C2_3 
ROOT
ATOM      1  C2  UNL d   1      -3.184  -3.075  -0.575  0.00  0.00    -0.073 A 
ATOM      2  C3  UNL d   1      -3.983  -2.309  -1.431  0.00  0.00    -0.002 A 
ATOM      3  C4  UNL d   1      -4.223  -2.733  -2.739  0.00  0.00     0.004 A 
ATOM      4  C5  UNL d   1      -3.672  -3.928  -3.202  0.00  0.00    -0.004 A 
ATOM      5  C6  UNL d   1      -2.880  -4.713  -2.358  0.00  0.00    -0.075 A 
ATOM      6  C7  UNL d   1      -2.279  -6.000  -2.841  0.00  0.00     0.076 C 
ATOM      7  C8  UNL d   1      -2.642  -4.279  -1.047  0.00  0.00     0.001 A 
ENDROOT
BRANCH   1   8
ATOM      8  C1  UNL d   1      -2.927  -2.625   0.840  0.00  0.00     0.053 C 
ATOM      9  C   UNL d   1      -1.449  -2.666   1.192  0.00  0.00     0.018 C 
ENDBRANCH   1   8
TORSDOF 1
ENDMDL
