MODEL 1
REMARK minimizedAffinity 22.0636616
REMARK minimizedRMSD -1
REMARK  1 active torsions:
REMARK  status: ('A' for Active; 'I' for Inactive)
REMARK    1  A    between atoms: C1_2  and  C2_3 
ROOT
ATOM      1  C2  UNL d   1      -1.120   0.781   3.462  0.00  0.00    -0.073 A 
ATOM      2  C3  UNL d   1      -1.764  -0.432   3.193  0.00  0.00    -0.002 A 
ATOM      3  C4  UNL d   1      -3.126  -0.455   2.891  0.00  0.00     0.004 A 
ATOM      4  C5  UNL d   1      -3.856   0.733   2.847  0.00  0.00    -0.004 A 
ATOM      5  C6  UNL d   1      -3.227   1.956   3.101  0.00  0.00    -0.075 A 
ATOM      6  C7  UNL d   1      -3.999   3.243   3.060  0.00  0.00     0.076 C 
ATOM      7  C8  UNL d   1      -1.860   1.971   3.406  0.00  0.00     0.001 A 
ENDROOT
BRANCH   1   8
ATOM      8  C1  UNL d   1       0.352   0.811   3.782  0.00  0.00     0.053 C 
ATOM      9  C   UNL d   1       0.615   0.654   5.271  0.00  0.00     0.018 C 
ENDBRANCH   1   8
TORSDOF 1
ENDMDL
