MODEL 1
REMARK minimizedAffinity 13.3137531
REMARK minimizedRMSD -1
REMARK  1 active torsions:
REMARK  status: ('A' for Active; 'I' for Inactive)
REMARK    1  A    between atoms: C1_2  and  C2_3 
ROOT
ATOM      1  C2  UNL d   1      -4.635   3.107   3.371  0.00  0.00    -0.073 A 
ATOM      2  C3  UNL d   1      -5.314   3.537   2.226  0.00  0.00    -0.002 A 
ATOM      3  C4  UNL d   1      -5.996   4.755   2.227  0.00  0.00     0.004 A 
ATOM      4  C5  UNL d   1      -6.000   5.556   3.368  0.00  0.00    -0.004 A 
ATOM      5  C6  UNL d   1      -5.317   5.149   4.519  0.00  0.00    -0.075 A 
ATOM      6  C7  UNL d   1      -5.313   5.999   5.755  0.00  0.00     0.076 C 
ATOM      7  C8  UNL d   1      -4.637   3.924   4.511  0.00  0.00     0.001 A 
ENDROOT
BRANCH   1   8
ATOM      8  C1  UNL d   1      -3.892   1.796   3.373  0.00  0.00     0.053 C 
ATOM      9  C   UNL d   1      -4.756   0.652   3.881  0.00  0.00     0.018 C 
ENDBRANCH   1   8
TORSDOF 1
ENDMDL
