MODEL 1
REMARK minimizedAffinity 5.39419603
REMARK minimizedRMSD -1
REMARK  1 active torsions:
REMARK  status: ('A' for Active; 'I' for Inactive)
REMARK    1  A    between atoms: C1_2  and  C2_3 
ROOT
ATOM      1  C2  UNL d   1       3.326   4.900   1.684  0.00  0.00    -0.073 A 
ATOM      2  C3  UNL d   1       3.731   3.630   1.259  0.00  0.00    -0.002 A 
ATOM      3  C4  UNL d   1       2.790   2.618   1.065  0.00  0.00     0.004 A 
ATOM      4  C5  UNL d   1       1.436   2.866   1.288  0.00  0.00    -0.004 A 
ATOM      5  C6  UNL d   1       1.010   4.132   1.702  0.00  0.00    -0.075 A 
ATOM      6  C7  UNL d   1      -0.443   4.415   1.948  0.00  0.00     0.076 C 
ATOM      7  C8  UNL d   1       1.961   5.143   1.896  0.00  0.00     0.001 A 
ENDROOT
BRANCH   1   8
ATOM      8  C1  UNL d   1       4.337   5.998   1.888  0.00  0.00     0.053 C 
ATOM      9  C   UNL d   1       5.494   5.552   2.768  0.00  0.00     0.018 C 
ENDBRANCH   1   8
TORSDOF 1
ENDMDL
