MODEL 1
REMARK minimizedAffinity 1.29649067
REMARK minimizedRMSD -1
REMARK  1 active torsions:
REMARK  status: ('A' for Active; 'I' for Inactive)
REMARK    1  A    between atoms: C1_2  and  C2_3 
ROOT
ATOM      1  C2  UNL d   1       4.759   3.918  -4.637  0.00  0.00    -0.073 A 
ATOM      2  C3  UNL d   1       5.454   4.992  -5.205  0.00  0.00    -0.002 A 
ATOM      3  C4  UNL d   1       4.765   5.999  -5.881  0.00  0.00     0.004 A 
ATOM      4  C5  UNL d   1       3.375   5.947  -5.991  0.00  0.00    -0.004 A 
ATOM      5  C6  UNL d   1       2.662   4.888  -5.420  0.00  0.00    -0.075 A 
ATOM      6  C7  UNL d   1       1.167   4.817  -5.531  0.00  0.00     0.076 C 
ATOM      7  C8  UNL d   1       3.361   3.879  -4.744  0.00  0.00     0.001 A 
ENDROOT
BRANCH   1   8
ATOM      8  C1  UNL d   1       5.498   2.831  -3.900  0.00  0.00     0.053 C 
ATOM      9  C   UNL d   1       5.056   2.724  -2.449  0.00  0.00     0.018 C 
ENDBRANCH   1   8
TORSDOF 1
ENDMDL
