MODEL 1
REMARK minimizedAffinity 9.68478584
REMARK minimizedRMSD -1
REMARK  1 active torsions:
REMARK  status: ('A' for Active; 'I' for Inactive)
REMARK    1  A    between atoms: C1_2  and  C2_3 
ROOT
ATOM      1  C2  UNL d   1      -3.751  -4.057  -2.097  0.00  0.00    -0.073 A 
ATOM      2  C3  UNL d   1      -3.204  -3.350  -1.020  0.00  0.00    -0.002 A 
ATOM      3  C4  UNL d   1      -2.187  -2.419  -1.232  0.00  0.00     0.004 A 
ATOM      4  C5  UNL d   1      -1.711  -2.179  -2.521  0.00  0.00    -0.004 A 
ATOM      5  C6  UNL d   1      -2.253  -2.867  -3.612  0.00  0.00    -0.075 A 
ATOM      6  C7  UNL d   1      -1.751  -2.623  -5.005  0.00  0.00     0.076 C 
ATOM      7  C8  UNL d   1      -3.273  -3.803  -3.391  0.00  0.00     0.001 A 
ENDROOT
BRANCH   1   8
ATOM      8  C1  UNL d   1      -4.854  -5.058  -1.874  0.00  0.00     0.053 C 
ATOM      9  C   UNL d   1      -6.000  -4.873  -2.857  0.00  0.00     0.018 C 
ENDBRANCH   1   8
TORSDOF 1
ENDMDL
