MODEL 1
REMARK minimizedAffinity 10.7097044
REMARK minimizedRMSD -1
REMARK  1 active torsions:
REMARK  status: ('A' for Active; 'I' for Inactive)
REMARK    1  A    between atoms: C1_2  and  C2_3 
ROOT
ATOM      1  C2  UNL d   1      -3.446  -3.326  -2.602  0.00  0.00    -0.073 A 
ATOM      2  C3  UNL d   1      -2.831  -2.648  -1.543  0.00  0.00    -0.002 A 
ATOM      3  C4  UNL d   1      -1.657  -1.924  -1.757  0.00  0.00     0.004 A 
ATOM      4  C5  UNL d   1      -1.092  -1.863  -3.030  0.00  0.00    -0.004 A 
ATOM      5  C6  UNL d   1      -1.698  -2.524  -4.103  0.00  0.00    -0.075 A 
ATOM      6  C7  UNL d   1      -1.101  -2.471  -5.479  0.00  0.00     0.076 C 
ATOM      7  C8  UNL d   1      -2.875  -3.252  -3.880  0.00  0.00     0.001 A 
ENDROOT
BRANCH   1   8
ATOM      8  C1  UNL d   1      -4.717  -4.104  -2.377  0.00  0.00     0.053 C 
ATOM      9  C   UNL d   1      -4.442  -5.566  -2.064  0.00  0.00     0.018 C 
ENDBRANCH   1   8
TORSDOF 1
ENDMDL
