MODEL 1
REMARK minimizedAffinity 12.1936893
REMARK minimizedRMSD -1
REMARK  1 active torsions:
REMARK  status: ('A' for Active; 'I' for Inactive)
REMARK    1  A    between atoms: C1_2  and  C2_3 
ROOT
ATOM      1  C2  UNL d   1      -3.118  -3.430  -2.923  0.00  0.00    -0.073 A 
ATOM      2  C3  UNL d   1      -2.485  -2.654  -1.945  0.00  0.00    -0.002 A 
ATOM      3  C4  UNL d   1      -1.386  -1.861  -2.278  0.00  0.00     0.004 A 
ATOM      4  C5  UNL d   1      -0.914  -1.830  -3.590  0.00  0.00    -0.004 A 
ATOM      5  C6  UNL d   1      -1.541  -2.589  -4.583  0.00  0.00    -0.075 A 
ATOM      6  C7  UNL d   1      -1.044  -2.568  -5.999  0.00  0.00     0.076 C 
ATOM      7  C8  UNL d   1      -2.642  -3.385  -4.241  0.00  0.00     0.001 A 
ENDROOT
BRANCH   1   8
ATOM      8  C1  UNL d   1      -4.309  -4.283  -2.570  0.00  0.00     0.053 C 
ATOM      9  C   UNL d   1      -5.549  -3.883  -3.353  0.00  0.00     0.018 C 
ENDBRANCH   1   8
TORSDOF 1
ENDMDL
