MODEL 1
REMARK minimizedAffinity 4.26791573
REMARK minimizedRMSD -1
REMARK  1 active torsions:
REMARK  status: ('A' for Active; 'I' for Inactive)
REMARK    1  A    between atoms: C3_4  and  O_7 
ROOT
ATOM      1  C   UNL d   1       0.739  -0.448   3.015  0.00  0.00    -0.033 A 
ATOM      2  C1  UNL d   1       1.794  -0.033   3.830  0.00  0.00     0.039 A 
ATOM      3  C2  UNL d   1       1.609   1.013   4.736  0.00  0.00    -0.080 A 
ATOM      4  C3  UNL d   1       0.366   1.634   4.819  0.00  0.00     0.150 A 
ATOM      5  C4  UNL d   1      -0.691   1.224   4.013  0.00  0.00    -0.007 A 
ATOM      6  C5  UNL d   1      -0.504   0.180   3.108  0.00  0.00     0.039 A 
ENDROOT
BRANCH   4   7
ATOM      7  O   UNL d   1       0.139   2.662   5.685  0.00  0.00    -0.526 OA
ATOM      8  H5  UNL d   1       0.967   2.856   6.156  0.00  0.00     0.418 HD
ENDBRANCH   4   7
TORSDOF 1
ENDMDL
