MODEL 1
REMARK minimizedAffinity 10.5682096
REMARK minimizedRMSD -1
REMARK  1 active torsions:
REMARK  status: ('A' for Active; 'I' for Inactive)
REMARK    1  A    between atoms: C3_4  and  O_7 
ROOT
ATOM      1  C   UNL d   1       0.364   0.447   2.099  0.00  0.00    -0.033 A 
ATOM      2  C1  UNL d   1       1.637   0.017   2.479  0.00  0.00     0.039 A 
ATOM      3  C2  UNL d   1       1.782  -1.114   3.285  0.00  0.00    -0.080 A 
ATOM      4  C3  UNL d   1       0.648  -1.805   3.703  0.00  0.00     0.150 A 
ATOM      5  C4  UNL d   1      -0.623  -1.384   3.324  0.00  0.00    -0.007 A 
ATOM      6  C5  UNL d   1      -0.766  -0.254   2.521  0.00  0.00     0.039 A 
ENDROOT
BRANCH   4   7
ATOM      7  O   UNL d   1       0.739  -2.912   4.494  0.00  0.00    -0.526 OA
ATOM      8  H5  UNL d   1       1.676  -3.067   4.699  0.00  0.00     0.418 HD
ENDBRANCH   4   7
TORSDOF 1
ENDMDL
