MODEL 1
REMARK minimizedAffinity 4.76001406
REMARK minimizedRMSD -1
REMARK  1 active torsions:
REMARK  status: ('A' for Active; 'I' for Inactive)
REMARK    1  A    between atoms: C3_4  and  O_7 
ROOT
ATOM      1  C   UNL d   1       1.378  -0.650   3.361  0.00  0.00    -0.033 A 
ATOM      2  C1  UNL d   1       0.656   0.421   2.829  0.00  0.00     0.039 A 
ATOM      3  C2  UNL d   1      -0.726   0.318   2.661  0.00  0.00    -0.080 A 
ATOM      4  C3  UNL d   1      -1.374  -0.859   3.028  0.00  0.00     0.150 A 
ATOM      5  C4  UNL d   1      -0.661  -1.928   3.562  0.00  0.00    -0.007 A 
ATOM      6  C5  UNL d   1       0.719  -1.823   3.729  0.00  0.00     0.039 A 
ENDROOT
BRANCH   4   7
ATOM      7  O   UNL d   1      -2.721  -1.008   2.878  0.00  0.00    -0.526 OA
ATOM      8  H5  UNL d   1      -3.076  -0.200   2.471  0.00  0.00     0.418 HD
ENDBRANCH   4   7
TORSDOF 1
ENDMDL
