MODEL 1
REMARK minimizedAffinity 2.89438796
REMARK minimizedRMSD -1
REMARK  1 active torsions:
REMARK  status: ('A' for Active; 'I' for Inactive)
REMARK    1  A    between atoms: C3_4  and  O_7 
ROOT
ATOM      1  C   UNL d   1       0.103  -5.305  -6.000  0.00  0.00    -0.033 A 
ATOM      2  C1  UNL d   1       1.355  -4.691  -5.940  0.00  0.00     0.039 A 
ATOM      3  C2  UNL d   1       1.449  -3.301  -5.845  0.00  0.00    -0.080 A 
ATOM      4  C3  UNL d   1       0.285  -2.539  -5.809  0.00  0.00     0.150 A 
ATOM      5  C4  UNL d   1      -0.966  -3.144  -5.865  0.00  0.00    -0.007 A 
ATOM      6  C5  UNL d   1      -1.058  -4.532  -5.961  0.00  0.00     0.039 A 
ENDROOT
BRANCH   4   7
ATOM      7  O   UNL d   1       0.326  -1.179  -5.722  0.00  0.00    -0.526 OA
ATOM      8  H5  UNL d   1       1.257  -0.899  -5.720  0.00  0.00     0.418 HD
ENDBRANCH   4   7
TORSDOF 1
ENDMDL
