MODEL 1
REMARK minimizedAffinity 4.71997881
REMARK minimizedRMSD -1
REMARK  1 active torsions:
REMARK  status: ('A' for Active; 'I' for Inactive)
REMARK    1  A    between atoms: C3_4  and  O_7 
ROOT
ATOM      1  C   UNL d   1       2.530  -0.447   5.283  0.00  0.00    -0.033 A 
ATOM      2  C1  UNL d   1       2.703   0.389   4.179  0.00  0.00     0.039 A 
ATOM      3  C2  UNL d   1       2.032   0.118   2.985  0.00  0.00    -0.080 A 
ATOM      4  C3  UNL d   1       1.190  -0.988   2.909  0.00  0.00     0.150 A 
ATOM      5  C4  UNL d   1       1.010  -1.823   4.007  0.00  0.00    -0.007 A 
ATOM      6  C5  UNL d   1       1.683  -1.552   5.198  0.00  0.00     0.039 A 
ENDROOT
BRANCH   4   7
ATOM      7  O   UNL d   1       0.517  -1.295   1.764  0.00  0.00    -0.526 OA
ATOM      8  H5  UNL d   1       0.761  -0.648   1.081  0.00  0.00     0.418 HD
ENDBRANCH   4   7
TORSDOF 1
ENDMDL
