MODEL 1
REMARK minimizedAffinity 0.426161647
REMARK minimizedRMSD -1
REMARK  1 active torsions:
REMARK  status: ('A' for Active; 'I' for Inactive)
REMARK    1  A    between atoms: C3_4  and  O_7 
ROOT
ATOM      1  C   UNL d   1       0.303   0.433   3.022  0.00  0.00    -0.033 A 
ATOM      2  C1  UNL d   1      -0.391  -0.549   2.311  0.00  0.00     0.039 A 
ATOM      3  C2  UNL d   1      -0.211  -1.898   2.623  0.00  0.00    -0.080 A 
ATOM      4  C3  UNL d   1       0.662  -2.251   3.648  0.00  0.00     0.150 A 
ATOM      5  C4  UNL d   1       1.353  -1.279   4.363  0.00  0.00    -0.007 A 
ATOM      6  C5  UNL d   1       1.174   0.068   4.049  0.00  0.00     0.039 A 
ENDROOT
BRANCH   4   7
ATOM      7  O   UNL d   1       0.873  -3.555   3.986  0.00  0.00    -0.526 OA
ATOM      8  H5  UNL d   1       0.351  -4.116   3.389  0.00  0.00     0.418 HD
ENDBRANCH   4   7
TORSDOF 1
ENDMDL
