MODEL 1
REMARK minimizedAffinity 11.6527414
REMARK minimizedRMSD -1
REMARK  1 active torsions:
REMARK  status: ('A' for Active; 'I' for Inactive)
REMARK    1  A    between atoms: C3_4  and  O_7 
ROOT
ATOM      1  C   UNL d   1       1.113  -3.362  -5.622  0.00  0.00    -0.033 A 
ATOM      2  C1  UNL d   1      -0.020  -2.566  -5.799  0.00  0.00     0.039 A 
ATOM      3  C2  UNL d   1      -0.102  -1.316  -5.183  0.00  0.00    -0.080 A 
ATOM      4  C3  UNL d   1       0.956  -0.873  -4.393  0.00  0.00     0.150 A 
ATOM      5  C4  UNL d   1       2.090  -1.659  -4.215  0.00  0.00    -0.007 A 
ATOM      6  C5  UNL d   1       2.169  -2.907  -4.830  0.00  0.00     0.039 A 
ENDROOT
BRANCH   4   7
ATOM      7  O   UNL d   1       0.920   0.337  -3.767  0.00  0.00    -0.526 OA
ATOM      8  H5  UNL d   1       0.065   0.757  -3.958  0.00  0.00     0.418 HD
ENDBRANCH   4   7
TORSDOF 1
ENDMDL
