MODEL 1
REMARK minimizedAffinity 15.1232119
REMARK minimizedRMSD -1
REMARK  0 active torsions:
REMARK  status: ('A' for Active; 'I' for Inactive)
ROOT
ATOM      1  N1  IND d   1      -3.518  -0.319  -3.477  0.00  0.00    -0.196 N 
ATOM      2  C2  IND d   1      -2.188  -0.330  -3.163  0.00  0.00     0.054 A 
ATOM      3  C3  IND d   1      -2.000   0.105  -1.896  0.00  0.00    -0.031 A 
ATOM      4  C4  IND d   1      -3.741   0.789  -0.127  0.00  0.00     0.051 A 
ATOM      5  C5  IND d   1      -5.081   0.996   0.041  0.00  0.00    -0.031 A 
ATOM      6  C6  IND d   1      -5.988   0.769  -0.974  0.00  0.00     0.015 A 
ATOM      7  C7  IND d   1      -5.587   0.313  -2.198  0.00  0.00    -0.016 A 
ATOM      8  C8  IND d   1      -4.226   0.107  -2.375  0.00  0.00    -0.047 A 
ATOM      9  C9  IND d   1      -3.297   0.377  -1.361  0.00  0.00    -0.096 A 
ATOM     10  HN1 IND d   1      -3.856  -0.541  -4.236  0.00  0.00     0.298 HD
ENDROOT
TORSDOF 0
ENDMDL
