MODEL 1
REMARK minimizedAffinity 24.1080055
REMARK minimizedRMSD -1
REMARK  0 active torsions:
REMARK  status: ('A' for Active; 'I' for Inactive)
ROOT
ATOM      1  N1  IND d   1      -4.431   2.438   1.175  0.00  0.00    -0.196 N 
ATOM      2  C2  IND d   1      -3.519   3.456   1.206  0.00  0.00     0.054 A 
ATOM      3  C3  IND d   1      -2.571   3.267   0.262  0.00  0.00    -0.031 A 
ATOM      4  C4  IND d   1      -2.376   1.412  -1.512  0.00  0.00     0.051 A 
ATOM      5  C5  IND d   1      -2.953   0.239  -1.913  0.00  0.00    -0.031 A 
ATOM      6  C6  IND d   1      -4.077  -0.269  -1.293  0.00  0.00     0.015 A 
ATOM      7  C7  IND d   1      -4.674   0.385  -0.253  0.00  0.00    -0.016 A 
ATOM      8  C8  IND d   1      -4.087   1.573   0.160  0.00  0.00    -0.047 A 
ATOM      9  C9  IND d   1      -2.922   2.071  -0.437  0.00  0.00    -0.096 A 
ATOM     10  HN1 IND d   1      -5.106   2.353   1.701  0.00  0.00     0.298 HD
ENDROOT
TORSDOF 0
ENDMDL
