MODEL 1
REMARK minimizedAffinity 6.40504408
REMARK minimizedRMSD -1
REMARK  0 active torsions:
REMARK  status: ('A' for Active; 'I' for Inactive)
ROOT
ATOM      1  N1  IND d   1       2.806   1.133  -1.574  0.00  0.00    -0.196 N 
ATOM      2  C2  IND d   1       3.438   1.877  -0.617  0.00  0.00     0.054 A 
ATOM      3  C3  IND d   1       3.482   1.200   0.552  0.00  0.00    -0.031 A 
ATOM      4  C4  IND d   1       2.669  -1.181   1.095  0.00  0.00     0.051 A 
ATOM      5  C5  IND d   1       1.993  -2.238   0.553  0.00  0.00    -0.031 A 
ATOM      6  C6  IND d   1       1.548  -2.227  -0.753  0.00  0.00     0.015 A 
ATOM      7  C7  IND d   1       1.772  -1.157  -1.573  0.00  0.00    -0.016 A 
ATOM      8  C8  IND d   1       2.451  -0.079  -1.023  0.00  0.00    -0.047 A 
ATOM      9  C9  IND d   1       2.869  -0.068   0.314  0.00  0.00    -0.096 A 
ATOM     10  HN1 IND d   1       2.655   1.381  -2.383  0.00  0.00     0.298 HD
ENDROOT
TORSDOF 0
ENDMDL
