MODEL 1
REMARK minimizedAffinity 10.7236404
REMARK minimizedRMSD -1
REMARK  0 active torsions:
REMARK  status: ('A' for Active; 'I' for Inactive)
ROOT
ATOM      1  N1  IND d   1       3.168   1.487  -1.630  0.00  0.00    -0.196 N 
ATOM      2  C2  IND d   1       3.798   2.296  -0.725  0.00  0.00     0.054 A 
ATOM      3  C3  IND d   1       3.849   1.696   0.486  0.00  0.00    -0.031 A 
ATOM      4  C4  IND d   1       3.054  -0.652   1.183  0.00  0.00     0.051 A 
ATOM      5  C5  IND d   1       2.385  -1.746   0.712  0.00  0.00    -0.031 A 
ATOM      6  C6  IND d   1       1.936  -1.821  -0.590  0.00  0.00     0.015 A 
ATOM      7  C7  IND d   1       2.150  -0.805  -1.478  0.00  0.00    -0.016 A 
ATOM      8  C8  IND d   1       2.823   0.311  -1.001  0.00  0.00    -0.047 A 
ATOM      9  C9  IND d   1       3.244   0.411   0.331  0.00  0.00    -0.096 A 
ATOM     10  HN1 IND d   1       3.014   1.681  -2.453  0.00  0.00     0.298 HD
ENDROOT
TORSDOF 0
ENDMDL
