MODEL 1
REMARK minimizedAffinity 15.6298094
REMARK minimizedRMSD -1
REMARK  0 active torsions:
REMARK  status: ('A' for Active; 'I' for Inactive)
ROOT
ATOM      1  N1  IND d   1      -5.485   3.293   0.507  0.00  0.00    -0.196 N 
ATOM      2  C2  IND d   1      -4.434   3.445   1.368  0.00  0.00     0.054 A 
ATOM      3  C3  IND d   1      -3.516   2.474   1.165  0.00  0.00    -0.031 A 
ATOM      4  C4  IND d   1      -3.484   0.594  -0.594  0.00  0.00     0.051 A 
ATOM      5  C5  IND d   1      -4.244   0.027  -1.578  0.00  0.00    -0.031 A 
ATOM      6  C6  IND d   1      -5.480   0.532  -1.927  0.00  0.00     0.015 A 
ATOM      7  C7  IND d   1      -6.000   1.634  -1.309  0.00  0.00    -0.016 A 
ATOM      8  C8  IND d   1      -5.234   2.208  -0.304  0.00  0.00    -0.047 A 
ATOM      9  C9  IND d   1      -3.998   1.675   0.084  0.00  0.00    -0.096 A 
ATOM     10  HN1 IND d   1      -6.185   3.791   0.477  0.00  0.00     0.298 HD
ENDROOT
TORSDOF 0
ENDMDL
