MODEL 1
REMARK minimizedAffinity 14.8980656
REMARK minimizedRMSD -1
REMARK  0 active torsions:
REMARK  status: ('A' for Active; 'I' for Inactive)
ROOT
ATOM      1  N1  IND d   1       2.521   1.075  -1.450  0.00  0.00    -0.196 N 
ATOM      2  C2  IND d   1       3.129   1.990  -0.637  0.00  0.00     0.054 A 
ATOM      3  C3  IND d   1       3.345   1.462   0.588  0.00  0.00    -0.031 A 
ATOM      4  C4  IND d   1       2.874  -0.918   1.449  0.00  0.00     0.051 A 
ATOM      5  C5  IND d   1       2.293  -2.101   1.084  0.00  0.00    -0.031 A 
ATOM      6  C6  IND d   1       1.750  -2.289  -0.171  0.00  0.00     0.015 A 
ATOM      7  C7  IND d   1       1.778  -1.302  -1.115  0.00  0.00    -0.016 A 
ATOM      8  C8  IND d   1       2.360  -0.098  -0.745  0.00  0.00    -0.047 A 
ATOM      9  C9  IND d   1       2.875   0.113   0.540  0.00  0.00    -0.096 A 
ATOM     10  HN1 IND d   1       2.279   1.209  -2.264  0.00  0.00     0.298 HD
ENDROOT
TORSDOF 0
ENDMDL
