MODEL 1
REMARK minimizedAffinity 8.01336575
REMARK minimizedRMSD -1
REMARK  0 active torsions:
REMARK  status: ('A' for Active; 'I' for Inactive)
ROOT
ATOM      1  N1  IND d   1      -3.952   0.404   0.473  0.00  0.00    -0.196 N 
ATOM      2  C2  IND d   1      -4.514   1.496   1.072  0.00  0.00     0.054 A 
ATOM      3  C3  IND d   1      -5.290   2.168   0.192  0.00  0.00    -0.031 A 
ATOM      4  C4  IND d   1      -5.861   1.597  -2.252  0.00  0.00     0.051 A 
ATOM      5  C5  IND d   1      -5.557   0.716  -3.252  0.00  0.00    -0.031 A 
ATOM      6  C6  IND d   1      -4.687  -0.337  -3.056  0.00  0.00     0.015 A 
ATOM      7  C7  IND d   1      -4.095  -0.556  -1.845  0.00  0.00    -0.016 A 
ATOM      8  C8  IND d   1      -4.395   0.341  -0.829  0.00  0.00    -0.047 A 
ATOM      9  C9  IND d   1      -5.244   1.436  -1.034  0.00  0.00    -0.096 A 
ATOM     10  HN1 IND d   1      -3.412  -0.151   0.847  0.00  0.00     0.298 HD
ENDROOT
TORSDOF 0
ENDMDL
