MODEL 1
REMARK minimizedAffinity 3.23120594
REMARK minimizedRMSD -1
REMARK  0 active torsions:
REMARK  status: ('A' for Active; 'I' for Inactive)
ROOT
ATOM      1  N1  IND d   1       2.585  -2.224  -1.185  0.00  0.00    -0.196 N 
ATOM      2  C2  IND d   1       2.141  -2.237   0.108  0.00  0.00     0.054 A 
ATOM      3  C3  IND d   1       2.350  -1.034   0.688  0.00  0.00    -0.031 A 
ATOM      4  C4  IND d   1       3.309   1.128  -0.328  0.00  0.00     0.051 A 
ATOM      5  C5  IND d   1       3.885   1.620  -1.465  0.00  0.00    -0.031 A 
ATOM      6  C6  IND d   1       4.059   0.841  -2.591  0.00  0.00     0.015 A 
ATOM      7  C7  IND d   1       3.650  -0.462  -2.625  0.00  0.00    -0.016 A 
ATOM      8  C8  IND d   1       3.070  -0.967  -1.470  0.00  0.00    -0.047 A 
ATOM      9  C9  IND d   1       2.931  -0.194  -0.310  0.00  0.00    -0.096 A 
ATOM     10  HN1 IND d   1       2.563  -2.890  -1.729  0.00  0.00     0.298 HD
ENDROOT
TORSDOF 0
ENDMDL
