MODEL 1
REMARK minimizedAffinity 16.0785847
REMARK minimizedRMSD -1
REMARK  0 active torsions:
REMARK  status: ('A' for Active; 'I' for Inactive)
ROOT
ATOM      1  N1  IND d   1       2.243   1.382  -1.330  0.00  0.00    -0.196 N 
ATOM      2  C2  IND d   1       1.816   0.777  -0.181  0.00  0.00     0.054 A 
ATOM      3  C3  IND d   1       2.794   0.798   0.753  0.00  0.00    -0.031 A 
ATOM      4  C4  IND d   1       5.135   1.863   0.646  0.00  0.00     0.051 A 
ATOM      5  C5  IND d   1       5.992   2.496  -0.209  0.00  0.00    -0.031 A 
ATOM      6  C6  IND d   1       5.635   2.800  -1.507  0.00  0.00     0.015 A 
ATOM      7  C7  IND d   1       4.398   2.489  -1.997  0.00  0.00    -0.016 A 
ATOM      8  C8  IND d   1       3.528   1.839  -1.133  0.00  0.00    -0.047 A 
ATOM      9  C9  IND d   1       3.900   1.491   0.172  0.00  0.00    -0.096 A 
ATOM     10  HN1 IND d   1       1.787   1.463  -2.054  0.00  0.00     0.298 HD
ENDROOT
TORSDOF 0
ENDMDL
