MODEL 1
REMARK minimizedAffinity 6.04416656
REMARK minimizedRMSD -1
REMARK  0 active torsions:
REMARK  status: ('A' for Active; 'I' for Inactive)
ROOT
ATOM      1  N1  IND d   1       3.276  -1.296   0.953  0.00  0.00    -0.196 N 
ATOM      2  C2  IND d   1       2.217  -1.844   0.285  0.00  0.00     0.054 A 
ATOM      3  C3  IND d   1       1.836  -1.040  -0.733  0.00  0.00    -0.031 A 
ATOM      4  C4  IND d   1       2.874   1.171  -1.547  0.00  0.00     0.051 A 
ATOM      5  C5  IND d   1       3.836   2.090  -1.233  0.00  0.00    -0.031 A 
ATOM      6  C6  IND d   1       4.679   1.922  -0.153  0.00  0.00     0.015 A 
ATOM      7  C7  IND d   1       4.599   0.819   0.649  0.00  0.00    -0.016 A 
ATOM      8  C8  IND d   1       3.619  -0.112   0.336  0.00  0.00    -0.047 A 
ATOM      9  C9  IND d   1       2.732   0.073  -0.733  0.00  0.00    -0.096 A 
ATOM     10  HN1 IND d   1       3.664  -1.634   1.642  0.00  0.00     0.298 HD
ENDROOT
TORSDOF 0
ENDMDL
