MODEL 1
REMARK minimizedAffinity 10.2253408
REMARK minimizedRMSD -1
REMARK  0 active torsions:
REMARK  status: ('A' for Active; 'I' for Inactive)
ROOT
ATOM      1  N1  IND d   1      -4.017   2.481   4.390  0.00  0.00    -0.196 N 
ATOM      2  C2  IND d   1      -4.336   2.207   3.089  0.00  0.00     0.054 A 
ATOM      3  C3  IND d   1      -5.147   3.167   2.591  0.00  0.00    -0.031 A 
ATOM      4  C4  IND d   1      -5.993   5.330   3.701  0.00  0.00     0.051 A 
ATOM      5  C5  IND d   1      -5.998   5.999   4.893  0.00  0.00    -0.031 A 
ATOM      6  C6  IND d   1      -5.327   5.521   6.000  0.00  0.00     0.015 A 
ATOM      7  C7  IND d   1      -4.613   4.357   5.953  0.00  0.00    -0.016 A 
ATOM      8  C8  IND d   1      -4.612   3.671   4.746  0.00  0.00    -0.047 A 
ATOM      9  C9  IND d   1      -5.326   4.130   3.631  0.00  0.00    -0.096 A 
ATOM     10  HN1 IND d   1      -3.527   1.992   4.900  0.00  0.00     0.298 HD
ENDROOT
TORSDOF 0
ENDMDL
