MODEL 1
REMARK minimizedAffinity 5.68784618
REMARK minimizedRMSD -1
REMARK  0 active torsions:
REMARK  status: ('A' for Active; 'I' for Inactive)
ROOT
ATOM      1  C   UNL d   1       5.411   1.211  -5.911  0.00  0.00     0.078 C 
ATOM      2  C1  UNL d   1       5.429  -0.164  -5.312  0.00  0.00    -0.077 A 
ATOM      3  C2  UNL d   1       5.998  -1.243  -6.000  0.00  0.00    -0.001 A 
ATOM      4  C3  UNL d   1       5.999  -2.519  -5.435  0.00  0.00     0.003 A 
ATOM      5  C4  UNL d   1       5.431  -2.728  -4.179  0.00  0.00    -0.005 A 
ATOM      6  C5  UNL d   1       4.861  -1.661  -3.488  0.00  0.00     0.003 A 
ATOM      7  C6  UNL d   1       4.859  -0.384  -4.052  0.00  0.00    -0.001 A 
ENDROOT
TORSDOF 0
ENDMDL
