MODEL 1
REMARK minimizedAffinity -0.625357568
REMARK minimizedRMSD -1
REMARK  0 active torsions:
REMARK  status: ('A' for Active; 'I' for Inactive)
ROOT
ATOM      1  C   UNL d   1       1.986   3.207   0.374  0.00  0.00     0.078 C 
ATOM      2  C1  UNL d   1       2.392   1.895   0.977  0.00  0.00    -0.077 A 
ATOM      3  C2  UNL d   1       3.470   1.167   0.460  0.00  0.00    -0.001 A 
ATOM      4  C3  UNL d   1       3.831  -0.058   1.025  0.00  0.00     0.003 A 
ATOM      5  C4  UNL d   1       3.117  -0.565   2.109  0.00  0.00    -0.005 A 
ATOM      6  C5  UNL d   1       2.042   0.152   2.629  0.00  0.00     0.003 A 
ATOM      7  C6  UNL d   1       1.680   1.376   2.065  0.00  0.00    -0.001 A 
ENDROOT
TORSDOF 0
ENDMDL
