MODEL 1
REMARK minimizedAffinity 10.1445179
REMARK minimizedRMSD -1
REMARK  0 active torsions:
REMARK  status: ('A' for Active; 'I' for Inactive)
ROOT
ATOM      1  C   UNL d   1       3.846  -2.206  -2.473  0.00  0.00     0.078 C 
ATOM      2  C1  UNL d   1       4.349  -3.524  -2.982  0.00  0.00    -0.077 A 
ATOM      3  C2  UNL d   1       5.549  -3.611  -3.698  0.00  0.00    -0.001 A 
ATOM      4  C3  UNL d   1       6.000  -4.843  -4.174  0.00  0.00     0.003 A 
ATOM      5  C4  UNL d   1       5.257  -5.998  -3.939  0.00  0.00    -0.005 A 
ATOM      6  C5  UNL d   1       4.061  -5.922  -3.228  0.00  0.00     0.003 A 
ATOM      7  C6  UNL d   1       3.608  -4.690  -2.752  0.00  0.00    -0.001 A 
ENDROOT
TORSDOF 0
ENDMDL
