MODEL 1
REMARK minimizedAffinity 5.6584754
REMARK minimizedRMSD -1
REMARK  0 active torsions:
REMARK  status: ('A' for Active; 'I' for Inactive)
ROOT
ATOM      1  C   UNL d   1       1.764   1.879   2.009  0.00  0.00     0.078 C 
ATOM      2  C1  UNL d   1       2.040   0.454   2.386  0.00  0.00    -0.077 A 
ATOM      3  C2  UNL d   1       1.760  -0.018   3.674  0.00  0.00    -0.001 A 
ATOM      4  C3  UNL d   1       2.031  -1.344   4.015  0.00  0.00     0.003 A 
ATOM      5  C4  UNL d   1       2.585  -2.209   3.073  0.00  0.00    -0.005 A 
ATOM      6  C5  UNL d   1       2.869  -1.748   1.789  0.00  0.00     0.003 A 
ATOM      7  C6  UNL d   1       2.599  -0.422   1.447  0.00  0.00    -0.001 A 
ENDROOT
TORSDOF 0
ENDMDL
