MODEL 1
REMARK minimizedAffinity 11.0620432
REMARK minimizedRMSD -1
REMARK  0 active torsions:
REMARK  status: ('A' for Active; 'I' for Inactive)
ROOT
ATOM      1  C   UNL d   1       3.396  -3.829   2.628  0.00  0.00     0.078 C 
ATOM      2  C1  UNL d   1       2.957  -2.420   2.891  0.00  0.00    -0.077 A 
ATOM      3  C2  UNL d   1       2.528  -2.024   4.164  0.00  0.00    -0.001 A 
ATOM      4  C3  UNL d   1       2.113  -0.711   4.393  0.00  0.00     0.003 A 
ATOM      5  C4  UNL d   1       2.122   0.217   3.353  0.00  0.00    -0.005 A 
ATOM      6  C5  UNL d   1       2.545  -0.168   2.082  0.00  0.00     0.003 A 
ATOM      7  C6  UNL d   1       2.960  -1.481   1.852  0.00  0.00    -0.001 A 
ENDROOT
TORSDOF 0
ENDMDL
