MODEL 1
REMARK minimizedAffinity 3.50431132
REMARK minimizedRMSD -1
REMARK  0 active torsions:
REMARK  status: ('A' for Active; 'I' for Inactive)
ROOT
ATOM      1  C   UNL d   1      -6.000   2.496  -1.083  0.00  0.00     0.078 C 
ATOM      2  C1  UNL d   1      -5.237   2.651   0.199  0.00  0.00    -0.077 A 
ATOM      3  C2  UNL d   1      -5.903   2.842   1.416  0.00  0.00    -0.001 A 
ATOM      4  C3  UNL d   1      -5.180   2.995   2.600  0.00  0.00     0.003 A 
ATOM      5  C4  UNL d   1      -3.787   2.959   2.578  0.00  0.00    -0.005 A 
ATOM      6  C5  UNL d   1      -3.115   2.771   1.372  0.00  0.00     0.003 A 
ATOM      7  C6  UNL d   1      -3.837   2.618   0.187  0.00  0.00    -0.001 A 
ENDROOT
TORSDOF 0
ENDMDL
