MODEL 1
REMARK minimizedAffinity 6.02279615
REMARK minimizedRMSD -1
REMARK  0 active torsions:
REMARK  status: ('A' for Active; 'I' for Inactive)
ROOT
ATOM      1  C   UNL d   1       2.904   0.650   5.884  0.00  0.00     0.078 C 
ATOM      2  C1  UNL d   1       2.625   0.242   4.468  0.00  0.00    -0.077 A 
ATOM      3  C2  UNL d   1       2.415  -1.101   4.133  0.00  0.00    -0.001 A 
ATOM      4  C3  UNL d   1       2.167  -1.468   2.809  0.00  0.00     0.003 A 
ATOM      5  C4  UNL d   1       2.127  -0.498   1.810  0.00  0.00    -0.005 A 
ATOM      6  C5  UNL d   1       2.337   0.841   2.133  0.00  0.00     0.003 A 
ATOM      7  C6  UNL d   1       2.586   1.210   3.456  0.00  0.00    -0.001 A 
ENDROOT
TORSDOF 0
ENDMDL
