MODEL 1
REMARK minimizedAffinity -5.79072475
REMARK minimizedRMSD -1
REMARK  0 active torsions:
REMARK  status: ('A' for Active; 'I' for Inactive)
ROOT
ATOM      1  C   UNL d   1      -0.631   0.642   0.723  0.00  0.00     0.078 C 
ATOM      2  C1  UNL d   1       0.471   0.321  -0.242  0.00  0.00    -0.077 A 
ATOM      3  C2  UNL d   1       0.996  -0.974  -0.333  0.00  0.00    -0.001 A 
ATOM      4  C3  UNL d   1       2.028  -1.256  -1.229  0.00  0.00     0.003 A 
ATOM      5  C4  UNL d   1       2.546  -0.248  -2.040  0.00  0.00    -0.005 A 
ATOM      6  C5  UNL d   1       2.032   1.044  -1.955  0.00  0.00     0.003 A 
ATOM      7  C6  UNL d   1       0.999   1.328  -1.060  0.00  0.00    -0.001 A 
ENDROOT
TORSDOF 0
ENDMDL
