MODEL 1
REMARK minimizedAffinity -1.34822273
REMARK minimizedRMSD -1
REMARK  0 active torsions:
REMARK  status: ('A' for Active; 'I' for Inactive)
ROOT
ATOM      1  C   UNL d   1       0.525  -2.202  -0.272  0.00  0.00     0.078 C 
ATOM      2  C1  UNL d   1       0.088  -0.784  -0.488  0.00  0.00    -0.077 A 
ATOM      3  C2  UNL d   1      -1.069  -0.285   0.123  0.00  0.00    -0.001 A 
ATOM      4  C3  UNL d   1      -1.469   1.035  -0.094  0.00  0.00     0.003 A 
ATOM      5  C4  UNL d   1      -0.718   1.866  -0.924  0.00  0.00    -0.005 A 
ATOM      6  C5  UNL d   1       0.434   1.378  -1.537  0.00  0.00     0.003 A 
ATOM      7  C6  UNL d   1       0.835   0.059  -1.321  0.00  0.00    -0.001 A 
ENDROOT
TORSDOF 0
ENDMDL
