MODEL 1
REMARK minimizedAffinity -1.83529603
REMARK minimizedRMSD -1
REMARK  0 active torsions:
REMARK  status: ('A' for Active; 'I' for Inactive)
ROOT
ATOM      1  C   UNL d   1       2.004  -1.574  -1.479  0.00  0.00     0.078 C 
ATOM      2  C1  UNL d   1       1.125  -0.682  -0.655  0.00  0.00    -0.077 A 
ATOM      3  C2  UNL d   1       0.627   0.520  -1.175  0.00  0.00    -0.001 A 
ATOM      4  C3  UNL d   1      -0.182   1.345  -0.393  0.00  0.00     0.003 A 
ATOM      5  C4  UNL d   1      -0.501   0.979   0.913  0.00  0.00    -0.005 A 
ATOM      6  C5  UNL d   1      -0.008  -0.213   1.440  0.00  0.00     0.003 A 
ATOM      7  C6  UNL d   1       0.801  -1.040   0.659  0.00  0.00    -0.001 A 
ENDROOT
TORSDOF 0
ENDMDL
