MODEL 1
REMARK minimizedAffinity -3.48358774
REMARK minimizedRMSD -1
REMARK  0 active torsions:
REMARK  status: ('A' for Active; 'I' for Inactive)
ROOT
ATOM      1  C   UNL d   1      -1.521   0.526   0.618  0.00  0.00     0.078 C 
ATOM      2  C1  UNL d   1      -0.329  -0.082  -0.058  0.00  0.00    -0.077 A 
ATOM      3  C2  UNL d   1       0.428   0.650  -0.982  0.00  0.00    -0.001 A 
ATOM      4  C3  UNL d   1       1.529   0.068  -1.611  0.00  0.00     0.003 A 
ATOM      5  C4  UNL d   1       1.884  -1.249  -1.324  0.00  0.00    -0.005 A 
ATOM      6  C5  UNL d   1       1.136  -1.986  -0.408  0.00  0.00     0.003 A 
ATOM      7  C6  UNL d   1       0.034  -1.405   0.222  0.00  0.00    -0.001 A 
ENDROOT
TORSDOF 0
ENDMDL
