MODEL 1
REMARK minimizedAffinity -1.95952153
REMARK minimizedRMSD -1
REMARK  0 active torsions:
REMARK  status: ('A' for Active; 'I' for Inactive)
ROOT
ATOM      1  C   UNL d   1      -1.984   1.457   2.308  0.00  0.00     0.078 C 
ATOM      2  C1  UNL d   1      -1.274   0.519   1.379  0.00  0.00    -0.077 A 
ATOM      3  C2  UNL d   1      -1.604   0.464   0.019  0.00  0.00    -0.001 A 
ATOM      4  C3  UNL d   1      -0.940  -0.421  -0.833  0.00  0.00     0.003 A 
ATOM      5  C4  UNL d   1       0.056  -1.258  -0.334  0.00  0.00    -0.005 A 
ATOM      6  C5  UNL d   1       0.390  -1.211   1.018  0.00  0.00     0.003 A 
ATOM      7  C6  UNL d   1      -0.272  -0.327   1.871  0.00  0.00    -0.001 A 
ENDROOT
TORSDOF 0
ENDMDL
