MODEL 1
REMARK minimizedAffinity 0.250080138
REMARK minimizedRMSD -1
REMARK  0 active torsions:
REMARK  status: ('A' for Active; 'I' for Inactive)
ROOT
ATOM      1  C   UNL d   1       0.415   1.937  -1.652  0.00  0.00     0.078 C 
ATOM      2  C1  UNL d   1       0.476   0.492  -1.255  0.00  0.00    -0.077 A 
ATOM      3  C2  UNL d   1       1.392  -0.381  -1.854  0.00  0.00    -0.001 A 
ATOM      4  C3  UNL d   1       1.432  -1.726  -1.482  0.00  0.00     0.003 A 
ATOM      5  C4  UNL d   1       0.557  -2.209  -0.511  0.00  0.00    -0.005 A 
ATOM      6  C5  UNL d   1      -0.359  -1.348   0.089  0.00  0.00     0.003 A 
ATOM      7  C6  UNL d   1      -0.400  -0.003  -0.282  0.00  0.00    -0.001 A 
ENDROOT
TORSDOF 0
ENDMDL
