MODEL 1
REMARK minimizedAffinity -1.45223284
REMARK minimizedRMSD -1
REMARK  0 active torsions:
REMARK  status: ('A' for Active; 'I' for Inactive)
ROOT
ATOM      1  C   UNL d   1       0.659  -1.177  -0.265  0.00  0.00     0.078 C 
ATOM      2  C1  UNL d   1      -0.429  -0.389   0.401  0.00  0.00    -0.077 A 
ATOM      3  C2  UNL d   1      -0.795  -0.643   1.729  0.00  0.00    -0.001 A 
ATOM      4  C3  UNL d   1      -1.816   0.091   2.333  0.00  0.00     0.003 A 
ATOM      5  C4  UNL d   1      -2.482   1.084   1.617  0.00  0.00    -0.005 A 
ATOM      6  C5  UNL d   1      -2.127   1.343   0.295  0.00  0.00     0.003 A 
ATOM      7  C6  UNL d   1      -1.106   0.610  -0.311  0.00  0.00    -0.001 A 
ENDROOT
TORSDOF 0
ENDMDL
