MODEL 1
REMARK minimizedAffinity -4.60549116
REMARK minimizedRMSD -1
REMARK  0 active torsions:
REMARK  status: ('A' for Active; 'I' for Inactive)
ROOT
ATOM      1  C   UNL d   1       2.043  -0.689  -0.778  0.00  0.00     0.078 C 
ATOM      2  C1  UNL d   1       0.738   0.030  -0.601  0.00  0.00    -0.077 A 
ATOM      3  C2  UNL d   1      -0.330  -0.572   0.074  0.00  0.00    -0.001 A 
ATOM      4  C3  UNL d   1      -1.542   0.105   0.223  0.00  0.00     0.003 A 
ATOM      5  C4  UNL d   1      -1.697   1.386  -0.301  0.00  0.00    -0.005 A 
ATOM      6  C5  UNL d   1      -0.639   1.992  -0.977  0.00  0.00     0.003 A 
ATOM      7  C6  UNL d   1       0.573   1.317  -1.127  0.00  0.00    -0.001 A 
ENDROOT
TORSDOF 0
ENDMDL
