MODEL 1
REMARK minimizedAffinity -3.64619327
REMARK minimizedRMSD -1
REMARK  0 active torsions:
REMARK  status: ('A' for Active; 'I' for Inactive)
ROOT
ATOM      1  C   UNL d   1      -1.180   0.492   1.020  0.00  0.00     0.078 C 
ATOM      2  C1  UNL d   1      -0.158  -0.081   0.085  0.00  0.00    -0.077 A 
ATOM      3  C2  UNL d   1       0.530  -1.259   0.401  0.00  0.00    -0.001 A 
ATOM      4  C3  UNL d   1       1.486  -1.775  -0.475  0.00  0.00     0.003 A 
ATOM      5  C4  UNL d   1       1.764  -1.119  -1.672  0.00  0.00    -0.005 A 
ATOM      6  C5  UNL d   1       1.087   0.055  -1.995  0.00  0.00     0.003 A 
ATOM      7  C6  UNL d   1       0.130   0.573  -1.120  0.00  0.00    -0.001 A 
ENDROOT
TORSDOF 0
ENDMDL
