MODEL 1
REMARK minimizedAffinity -5.77456093
REMARK minimizedRMSD -1
REMARK  0 active torsions:
REMARK  status: ('A' for Active; 'I' for Inactive)
ROOT
ATOM      1  C   UNL d   1       1.296  -0.796   1.202  0.00  0.00     0.078 C 
ATOM      2  C1  UNL d   1       1.609  -0.179  -0.128  0.00  0.00    -0.077 A 
ATOM      3  C2  UNL d   1       2.631  -0.691  -0.937  0.00  0.00    -0.001 A 
ATOM      4  C3  UNL d   1       2.918  -0.101  -2.169  0.00  0.00     0.003 A 
ATOM      5  C4  UNL d   1       2.188   1.005  -2.603  0.00  0.00    -0.005 A 
ATOM      6  C5  UNL d   1       1.171   1.522  -1.803  0.00  0.00     0.003 A 
ATOM      7  C6  UNL d   1       0.882   0.933  -0.571  0.00  0.00    -0.001 A 
ENDROOT
TORSDOF 0
ENDMDL
