MODEL 1
REMARK minimizedAffinity -1.74113214
REMARK minimizedRMSD -1
REMARK  0 active torsions:
REMARK  status: ('A' for Active; 'I' for Inactive)
ROOT
ATOM      1  C   UNL d   1      -1.130   0.375   0.832  0.00  0.00     0.078 C 
ATOM      2  C1  UNL d   1      -0.107  -0.270  -0.055  0.00  0.00    -0.077 A 
ATOM      3  C2  UNL d   1       0.545  -1.447   0.332  0.00  0.00    -0.001 A 
ATOM      4  C3  UNL d   1       1.502  -2.030  -0.499  0.00  0.00     0.003 A 
ATOM      5  C4  UNL d   1       1.817  -1.443  -1.723  0.00  0.00    -0.005 A 
ATOM      6  C5  UNL d   1       1.175  -0.271  -2.116  0.00  0.00     0.003 A 
ATOM      7  C6  UNL d   1       0.217   0.314  -1.286  0.00  0.00    -0.001 A 
ENDROOT
TORSDOF 0
ENDMDL
