MODEL 1
REMARK minimizedAffinity -3.47775888
REMARK minimizedRMSD -1
REMARK  0 active torsions:
REMARK  status: ('A' for Active; 'I' for Inactive)
ROOT
ATOM      1  C   UNL d   1      -1.832   0.970   2.435  0.00  0.00     0.078 C 
ATOM      2  C1  UNL d   1      -1.005   0.233   1.423  0.00  0.00    -0.077 A 
ATOM      3  C2  UNL d   1      -0.254  -0.891   1.786  0.00  0.00    -0.001 A 
ATOM      4  C3  UNL d   1       0.518  -1.560   0.836  0.00  0.00     0.003 A 
ATOM      5  C4  UNL d   1       0.548  -1.113  -0.484  0.00  0.00    -0.005 A 
ATOM      6  C5  UNL d   1      -0.195   0.007  -0.854  0.00  0.00     0.003 A 
ATOM      7  C6  UNL d   1      -0.968   0.677   0.095  0.00  0.00    -0.001 A 
ENDROOT
TORSDOF 0
ENDMDL
