MODEL 1
REMARK minimizedAffinity 1.60349882
REMARK minimizedRMSD -1
REMARK  0 active torsions:
REMARK  status: ('A' for Active; 'I' for Inactive)
ROOT
ATOM      1  C   UNL d   1      -5.999  -1.140   0.517  0.00  0.00     0.078 C 
ATOM      2  C1  UNL d   1      -5.069  -0.687   1.603  0.00  0.00    -0.077 A 
ATOM      3  C2  UNL d   1      -5.546   0.017   2.715  0.00  0.00    -0.001 A 
ATOM      4  C3  UNL d   1      -4.667   0.440   3.713  0.00  0.00     0.003 A 
ATOM      5  C4  UNL d   1      -3.305   0.166   3.608  0.00  0.00    -0.005 A 
ATOM      6  C5  UNL d   1      -2.820  -0.532   2.504  0.00  0.00     0.003 A 
ATOM      7  C6  UNL d   1      -3.698  -0.957   1.505  0.00  0.00    -0.001 A 
ENDROOT
TORSDOF 0
ENDMDL
