MODEL 1
REMARK minimizedAffinity -4.26536369
REMARK minimizedRMSD -1
REMARK  0 active torsions:
REMARK  status: ('A' for Active; 'I' for Inactive)
ROOT
ATOM      1  C   UNL d   1      -1.280   1.595   2.363  0.00  0.00     0.078 C 
ATOM      2  C1  UNL d   1      -0.643   0.860   1.221  0.00  0.00    -0.077 A 
ATOM      3  C2  UNL d   1      -1.039   1.099  -0.101  0.00  0.00    -0.001 A 
ATOM      4  C3  UNL d   1      -0.445   0.400  -1.153  0.00  0.00     0.003 A 
ATOM      5  C4  UNL d   1       0.548  -0.542  -0.894  0.00  0.00    -0.005 A 
ATOM      6  C5  UNL d   1       0.947  -0.788   0.418  0.00  0.00     0.003 A 
ATOM      7  C6  UNL d   1       0.354  -0.091   1.471  0.00  0.00    -0.001 A 
ENDROOT
TORSDOF 0
ENDMDL
