MODEL 1
REMARK minimizedAffinity -2.75686431
REMARK minimizedRMSD -1
REMARK  0 active torsions:
REMARK  status: ('A' for Active; 'I' for Inactive)
ROOT
ATOM      1  C   UNL d   1      -1.120   1.565   2.562  0.00  0.00     0.078 C 
ATOM      2  C1  UNL d   1      -0.481   0.719   1.501  0.00  0.00    -0.077 A 
ATOM      3  C2  UNL d   1      -0.791   0.904   0.148  0.00  0.00    -0.001 A 
ATOM      4  C3  UNL d   1      -0.196   0.103  -0.829  0.00  0.00     0.003 A 
ATOM      5  C4  UNL d   1       0.710  -0.890  -0.462  0.00  0.00    -0.005 A 
ATOM      6  C5  UNL d   1       1.022  -1.083   0.882  0.00  0.00     0.003 A 
ATOM      7  C6  UNL d   1       0.429  -0.283   1.860  0.00  0.00    -0.001 A 
ENDROOT
TORSDOF 0
ENDMDL
