MODEL 1
REMARK minimizedAffinity 11.6773224
REMARK minimizedRMSD -1
REMARK  1 active torsions:
REMARK  status: ('A' for Active; 'I' for Inactive)
REMARK    1  A    between atoms: C1_2  and  C2_3 
ROOT
ATOM      1  C2  UNL d   1      -1.680  -0.314  -3.337  0.00  0.00    -0.076 A 
ATOM      2  C3  UNL d   1      -1.890   0.065  -4.675  0.00  0.00     0.004 A 
ATOM      3  C4  UNL d   1      -2.707   1.148  -4.994  0.00  0.00    -0.003 A 
ATOM      4  C5  UNL d   1      -3.328   1.870  -3.980  0.00  0.00     0.000 A 
ATOM      5  C6  UNL d   1      -3.117   1.519  -2.647  0.00  0.00     0.000 A 
ATOM      6  C7  UNL d   1      -2.283   0.440  -2.308  0.00  0.00    -0.073 A 
ATOM      7  C8  UNL d   1      -2.095   0.102  -0.854  0.00  0.00     0.078 C 
ENDROOT
BRANCH   1   8
ATOM      8  C1  UNL d   1      -0.805  -1.514  -3.053  0.00  0.00     0.053 C 
ATOM      9  C   UNL d   1      -1.511  -2.831  -3.340  0.00  0.00     0.018 C 
ENDBRANCH   1   8
TORSDOF 1
ENDMDL
