MODEL 1
REMARK minimizedAffinity 3.07173538
REMARK minimizedRMSD -1
REMARK  1 active torsions:
REMARK  status: ('A' for Active; 'I' for Inactive)
REMARK    1  A    between atoms: C1_2  and  C2_3 
ROOT
ATOM      1  C2  UNL d   1      -0.776   1.742  -0.444  0.00  0.00    -0.076 A 
ATOM      2  C3  UNL d   1       0.548   1.363  -0.723  0.00  0.00     0.004 A 
ATOM      3  C4  UNL d   1       0.828   0.176  -1.398  0.00  0.00    -0.003 A 
ATOM      4  C5  UNL d   1      -0.213  -0.651  -1.807  0.00  0.00     0.000 A 
ATOM      5  C6  UNL d   1      -1.534  -0.281  -1.554  0.00  0.00     0.000 A 
ATOM      6  C7  UNL d   1      -1.834   0.920  -0.888  0.00  0.00    -0.073 A 
ATOM      7  C8  UNL d   1      -3.276   1.265  -0.637  0.00  0.00     0.078 C 
ENDROOT
BRANCH   1   8
ATOM      8  C1  UNL d   1      -1.017   3.027   0.316  0.00  0.00     0.053 C 
ATOM      9  C   UNL d   1       0.027   4.089   0.010  0.00  0.00     0.018 C 
ENDBRANCH   1   8
TORSDOF 1
ENDMDL
