MODEL 1
REMARK minimizedAffinity 6.3145237
REMARK minimizedRMSD -1
REMARK  1 active torsions:
REMARK  status: ('A' for Active; 'I' for Inactive)
REMARK    1  A    between atoms: C1_2  and  C2_3 
ROOT
ATOM      1  C2  UNL d   1      -0.983   2.264   1.376  0.00  0.00    -0.076 A 
ATOM      2  C3  UNL d   1      -1.507   3.218   0.487  0.00  0.00     0.004 A 
ATOM      3  C4  UNL d   1      -0.713   4.253  -0.004  0.00  0.00    -0.003 A 
ATOM      4  C5  UNL d   1       0.618   4.350   0.386  0.00  0.00     0.000 A 
ATOM      5  C6  UNL d   1       1.159   3.402   1.253  0.00  0.00     0.000 A 
ATOM      6  C7  UNL d   1       0.377   2.343   1.744  0.00  0.00    -0.073 A 
ATOM      7  C8  UNL d   1       1.010   1.351   2.682  0.00  0.00     0.078 C 
ENDROOT
BRANCH   1   8
ATOM      8  C1  UNL d   1      -1.900   1.179   1.896  0.00  0.00     0.053 C 
ATOM      9  C   UNL d   1      -2.668   0.482   0.784  0.00  0.00     0.018 C 
ENDBRANCH   1   8
TORSDOF 1
ENDMDL
