MODEL 1
REMARK minimizedAffinity 12.3530684
REMARK minimizedRMSD -1
REMARK  1 active torsions:
REMARK  status: ('A' for Active; 'I' for Inactive)
REMARK    1  A    between atoms: C1_2  and  C2_3 
ROOT
ATOM      1  C2  UNL d   1      -2.988   1.152  -1.962  0.00  0.00    -0.076 A 
ATOM      2  C3  UNL d   1      -2.450   0.930  -3.242  0.00  0.00     0.004 A 
ATOM      3  C4  UNL d   1      -1.476  -0.044  -3.452  0.00  0.00    -0.003 A 
ATOM      4  C5  UNL d   1      -1.024  -0.814  -2.386  0.00  0.00     0.000 A 
ATOM      5  C6  UNL d   1      -1.559  -0.620  -1.113  0.00  0.00     0.000 A 
ATOM      6  C7  UNL d   1      -2.554   0.347  -0.887  0.00  0.00    -0.073 A 
ATOM      7  C8  UNL d   1      -3.091   0.518   0.507  0.00  0.00     0.078 C 
ENDROOT
BRANCH   1   8
ATOM      8  C1  UNL d   1      -4.023   2.241  -1.790  0.00  0.00     0.053 C 
ATOM      9  C   UNL d   1      -3.666   3.509  -2.550  0.00  0.00     0.018 C 
ENDBRANCH   1   8
TORSDOF 1
ENDMDL
