MODEL 1
REMARK minimizedAffinity 10.8676481
REMARK minimizedRMSD -1
REMARK  1 active torsions:
REMARK  status: ('A' for Active; 'I' for Inactive)
REMARK    1  A    between atoms: C1_2  and  C2_3 
ROOT
ATOM      1  C2  UNL d   1       3.151  -1.361  -0.316  0.00  0.00    -0.076 A 
ATOM      2  C3  UNL d   1       4.300  -0.835  -0.932  0.00  0.00     0.004 A 
ATOM      3  C4  UNL d   1       5.402  -1.643  -1.205  0.00  0.00    -0.003 A 
ATOM      4  C5  UNL d   1       5.374  -2.992  -0.866  0.00  0.00     0.000 A 
ATOM      5  C6  UNL d   1       4.236  -3.534  -0.270  0.00  0.00     0.000 A 
ATOM      6  C7  UNL d   1       3.110  -2.737  -0.004  0.00  0.00    -0.073 A 
ATOM      7  C8  UNL d   1       1.911  -3.373   0.646  0.00  0.00     0.078 C 
ENDROOT
BRANCH   1   8
ATOM      8  C1  UNL d   1       1.997  -0.430  -0.020  0.00  0.00     0.053 C 
ATOM      9  C   UNL d   1       0.984  -0.381  -1.153  0.00  0.00     0.018 C 
ENDBRANCH   1   8
TORSDOF 1
ENDMDL
