MODEL 1
REMARK minimizedAffinity 6.38920975
REMARK minimizedRMSD -1
REMARK  1 active torsions:
REMARK  status: ('A' for Active; 'I' for Inactive)
REMARK    1  A    between atoms: C1_2  and  C2_3 
ROOT
ATOM      1  C2  UNL d   1       3.790  -4.209  -1.859  0.00  0.00    -0.076 A 
ATOM      2  C3  UNL d   1       4.200  -3.362  -0.814  0.00  0.00     0.004 A 
ATOM      3  C4  UNL d   1       5.016  -2.260  -1.063  0.00  0.00    -0.003 A 
ATOM      4  C5  UNL d   1       5.435  -1.987  -2.360  0.00  0.00     0.000 A 
ATOM      5  C6  UNL d   1       5.024  -2.806  -3.411  0.00  0.00     0.000 A 
ATOM      6  C7  UNL d   1       4.187  -3.912  -3.180  0.00  0.00    -0.073 A 
ATOM      7  C8  UNL d   1       3.779  -4.765  -4.349  0.00  0.00     0.078 C 
ENDROOT
BRANCH   1   8
ATOM      8  C1  UNL d   1       2.927  -5.405  -1.525  0.00  0.00     0.053 C 
ATOM      9  C   UNL d   1       1.873  -5.088  -0.475  0.00  0.00     0.018 C 
ENDBRANCH   1   8
TORSDOF 1
ENDMDL
