MODEL 1
REMARK minimizedAffinity 13.475708
REMARK minimizedRMSD -1
REMARK  1 active torsions:
REMARK  status: ('A' for Active; 'I' for Inactive)
REMARK    1  A    between atoms: C1_2  and  C2_3 
ROOT
ATOM      1  C2  UNL d   1       0.290   3.355   0.295  0.00  0.00    -0.076 A 
ATOM      2  C3  UNL d   1      -0.235   4.207  -0.691  0.00  0.00     0.004 A 
ATOM      3  C4  UNL d   1       0.241   5.509  -0.842  0.00  0.00    -0.003 A 
ATOM      4  C5  UNL d   1       1.250   5.978  -0.009  0.00  0.00     0.000 A 
ATOM      5  C6  UNL d   1       1.795   5.140   0.964  0.00  0.00     0.000 A 
ATOM      6  C7  UNL d   1       1.338   3.820   1.118  0.00  0.00    -0.073 A 
ATOM      7  C8  UNL d   1       1.957   2.962   2.187  0.00  0.00     0.078 C 
ENDROOT
BRANCH   1   8
ATOM      8  C1  UNL d   1      -0.285   1.962   0.429  0.00  0.00     0.053 C 
ATOM      9  C   UNL d   1       0.239   1.011  -0.635  0.00  0.00     0.018 C 
ENDBRANCH   1   8
TORSDOF 1
ENDMDL
