MODEL 1
REMARK minimizedAffinity 12.7665081
REMARK minimizedRMSD -1
REMARK  1 active torsions:
REMARK  status: ('A' for Active; 'I' for Inactive)
REMARK    1  A    between atoms: C1_2  and  C2_3 
ROOT
ATOM      1  C2  UNL d   1       1.142   2.350   2.688  0.00  0.00    -0.076 A 
ATOM      2  C3  UNL d   1       0.943   1.174   3.433  0.00  0.00     0.004 A 
ATOM      3  C4  UNL d   1       1.977   0.615   4.182  0.00  0.00    -0.003 A 
ATOM      4  C5  UNL d   1       3.227   1.223   4.199  0.00  0.00     0.000 A 
ATOM      5  C6  UNL d   1       3.438   2.399   3.481  0.00  0.00     0.000 A 
ATOM      6  C7  UNL d   1       2.402   2.985   2.734  0.00  0.00    -0.073 A 
ATOM      7  C8  UNL d   1       2.686   4.251   1.973  0.00  0.00     0.078 C 
ENDROOT
BRANCH   1   8
ATOM      8  C1  UNL d   1      -0.008   2.895   1.873  0.00  0.00     0.053 C 
ATOM      9  C   UNL d   1       0.344   3.055   0.402  0.00  0.00     0.018 C 
ENDBRANCH   1   8
TORSDOF 1
ENDMDL
