MODEL 1
REMARK minimizedAffinity -5.3185873
REMARK minimizedRMSD -1
REMARK  0 active torsions:
REMARK  status: ('A' for Active; 'I' for Inactive)
ROOT
ATOM      1  C   UNL d   1       1.708  -2.553  -2.683  0.00  0.00     0.077 C 
ATOM      2  C1  UNL d   1       0.867  -1.990  -1.577  0.00  0.00    -0.074 A 
ATOM      3  C2  UNL d   1       0.142  -2.831  -0.726  0.00  0.00    -0.005 A 
ATOM      4  C3  UNL d   1      -0.629  -2.293   0.305  0.00  0.00     0.006 A 
ATOM      5  C4  UNL d   1      -0.682  -0.912   0.495  0.00  0.00    -0.005 A 
ATOM      6  C5  UNL d   1       0.037  -0.056  -0.345  0.00  0.00    -0.074 A 
ATOM      7  C6  UNL d   1      -0.001   1.431  -0.148  0.00  0.00     0.077 C 
ATOM      8  C7  UNL d   1       0.815  -0.604  -1.374  0.00  0.00    -0.001 A 
ENDROOT
TORSDOF 0
ENDMDL
