MODEL 1
REMARK minimizedAffinity -4.82207346
REMARK minimizedRMSD -1
REMARK  0 active torsions:
REMARK  status: ('A' for Active; 'I' for Inactive)
ROOT
ATOM      1  C   UNL d   1      -0.477  -4.014   0.105  0.00  0.00     0.077 C 
ATOM      2  C1  UNL d   1      -0.081  -2.836  -0.733  0.00  0.00    -0.074 A 
ATOM      3  C2  UNL d   1       0.325  -3.003  -2.061  0.00  0.00    -0.005 A 
ATOM      4  C3  UNL d   1       0.681  -1.896  -2.832  0.00  0.00     0.006 A 
ATOM      5  C4  UNL d   1       0.636  -0.614  -2.284  0.00  0.00    -0.005 A 
ATOM      6  C5  UNL d   1       0.232  -0.428  -0.958  0.00  0.00    -0.074 A 
ATOM      7  C6  UNL d   1       0.169   0.945  -0.356  0.00  0.00     0.077 C 
ATOM      8  C7  UNL d   1      -0.131  -1.544  -0.192  0.00  0.00    -0.001 A 
ENDROOT
TORSDOF 0
ENDMDL
