MODEL 1
REMARK minimizedAffinity -5.52606964
REMARK minimizedRMSD -1
REMARK  0 active torsions:
REMARK  status: ('A' for Active; 'I' for Inactive)
ROOT
ATOM      1  C   UNL d   1       0.314  -2.730  -2.748  0.00  0.00     0.077 C 
ATOM      2  C1  UNL d   1       0.150  -2.102  -1.396  0.00  0.00    -0.074 A 
ATOM      3  C2  UNL d   1      -0.273  -2.859  -0.299  0.00  0.00    -0.005 A 
ATOM      4  C3  UNL d   1      -0.411  -2.263   0.955  0.00  0.00     0.006 A 
ATOM      5  C4  UNL d   1      -0.128  -0.907   1.124  0.00  0.00    -0.005 A 
ATOM      6  C5  UNL d   1       0.297  -0.135   0.038  0.00  0.00    -0.074 A 
ATOM      7  C6  UNL d   1       0.614   1.322   0.205  0.00  0.00     0.077 C 
ATOM      8  C7  UNL d   1       0.440  -0.742  -1.217  0.00  0.00    -0.001 A 
ENDROOT
TORSDOF 0
ENDMDL
