MODEL 1
REMARK minimizedAffinity -5.03683567
REMARK minimizedRMSD -1
REMARK  0 active torsions:
REMARK  status: ('A' for Active; 'I' for Inactive)
ROOT
ATOM      1  C   UNL d   1       0.588  -3.079   1.301  0.00  0.00     0.077 C 
ATOM      2  C1  UNL d   1       0.434  -2.131   0.149  0.00  0.00    -0.074 A 
ATOM      3  C2  UNL d   1       0.421  -2.596  -1.169  0.00  0.00    -0.005 A 
ATOM      4  C3  UNL d   1       0.267  -1.703  -2.229  0.00  0.00     0.006 A 
ATOM      5  C4  UNL d   1       0.124  -0.337  -1.982  0.00  0.00    -0.005 A 
ATOM      6  C5  UNL d   1       0.134   0.147  -0.670  0.00  0.00    -0.074 A 
ATOM      7  C6  UNL d   1      -0.029   1.611  -0.386  0.00  0.00     0.077 C 
ATOM      8  C7  UNL d   1       0.282  -0.758   0.390  0.00  0.00    -0.001 A 
ENDROOT
TORSDOF 0
ENDMDL
