MODEL 1
REMARK minimizedAffinity -5.58400202
REMARK minimizedRMSD -1
REMARK  0 active torsions:
REMARK  status: ('A' for Active; 'I' for Inactive)
ROOT
ATOM      1  C   UNL d   1       0.233   0.535   0.303  0.00  0.00     0.077 C 
ATOM      2  C1  UNL d   1       0.094  -0.934   0.034  0.00  0.00    -0.074 A 
ATOM      3  C2  UNL d   1       0.011  -1.853   1.086  0.00  0.00    -0.005 A 
ATOM      4  C3  UNL d   1      -0.127  -3.215   0.820  0.00  0.00     0.006 A 
ATOM      5  C4  UNL d   1      -0.185  -3.672  -0.497  0.00  0.00    -0.005 A 
ATOM      6  C5  UNL d   1      -0.105  -2.768  -1.561  0.00  0.00    -0.074 A 
ATOM      7  C6  UNL d   1      -0.175  -3.242  -2.983  0.00  0.00     0.077 C 
ATOM      8  C7  UNL d   1       0.027  -1.400  -1.286  0.00  0.00    -0.001 A 
ENDROOT
TORSDOF 0
ENDMDL
