MODEL 1
REMARK minimizedAffinity -3.55470729
REMARK minimizedRMSD -1
REMARK  0 active torsions:
REMARK  status: ('A' for Active; 'I' for Inactive)
ROOT
ATOM      1  C   UNL d   1       0.555  -3.664   0.404  0.00  0.00     0.077 C 
ATOM      2  C1  UNL d   1      -0.037  -2.289   0.501  0.00  0.00    -0.074 A 
ATOM      3  C2  UNL d   1      -1.004  -1.989   1.466  0.00  0.00    -0.005 A 
ATOM      4  C3  UNL d   1      -1.539  -0.704   1.549  0.00  0.00     0.006 A 
ATOM      5  C4  UNL d   1      -1.114   0.293   0.670  0.00  0.00    -0.005 A 
ATOM      6  C5  UNL d   1      -0.148   0.011  -0.301  0.00  0.00    -0.074 A 
ATOM      7  C6  UNL d   1       0.328   1.074  -1.247  0.00  0.00     0.077 C 
ATOM      8  C7  UNL d   1       0.390  -1.281  -0.374  0.00  0.00    -0.001 A 
ENDROOT
TORSDOF 0
ENDMDL
