MODEL 1
REMARK minimizedAffinity -3.45603919
REMARK minimizedRMSD -1
REMARK  0 active torsions:
REMARK  status: ('A' for Active; 'I' for Inactive)
ROOT
ATOM      1  C   UNL d   1       0.178   1.727   0.127  0.00  0.00     0.077 C 
ATOM      2  C1  UNL d   1       0.009   0.354  -0.452  0.00  0.00    -0.074 A 
ATOM      3  C2  UNL d   1       0.368   0.083  -1.776  0.00  0.00    -0.005 A 
ATOM      4  C3  UNL d   1       0.213  -1.201  -2.298  0.00  0.00     0.006 A 
ATOM      5  C4  UNL d   1      -0.300  -2.226  -1.502  0.00  0.00    -0.005 A 
ATOM      6  C5  UNL d   1      -0.664  -1.974  -0.175  0.00  0.00    -0.074 A 
ATOM      7  C6  UNL d   1      -1.208  -3.066   0.697  0.00  0.00     0.077 C 
ATOM      8  C7  UNL d   1      -0.499  -0.682   0.344  0.00  0.00    -0.001 A 
ENDROOT
TORSDOF 0
ENDMDL
