MODEL 1
REMARK minimizedAffinity -4.40611506
REMARK minimizedRMSD -1
REMARK  0 active torsions:
REMARK  status: ('A' for Active; 'I' for Inactive)
ROOT
ATOM      1  C   UNL d   1      -0.430  -0.354   1.845  0.00  0.00     0.077 C 
ATOM      2  C1  UNL d   1      -0.378  -1.460   0.833  0.00  0.00    -0.074 A 
ATOM      3  C2  UNL d   1      -0.966  -2.702   1.094  0.00  0.00    -0.005 A 
ATOM      4  C3  UNL d   1      -0.918  -3.717   0.139  0.00  0.00     0.006 A 
ATOM      5  C4  UNL d   1      -0.283  -3.502  -1.084  0.00  0.00    -0.005 A 
ATOM      6  C5  UNL d   1       0.309  -2.267  -1.364  0.00  0.00    -0.074 A 
ATOM      7  C6  UNL d   1       0.987  -2.015  -2.678  0.00  0.00     0.077 C 
ATOM      8  C7  UNL d   1       0.251  -1.249  -0.402  0.00  0.00    -0.001 A 
ENDROOT
TORSDOF 0
ENDMDL
