MODEL 1
REMARK minimizedAffinity -4.26215649
REMARK minimizedRMSD -1
REMARK  0 active torsions:
REMARK  status: ('A' for Active; 'I' for Inactive)
ROOT
ATOM      1  C   UNL d   1       0.227   2.163   0.225  0.00  0.00     0.077 C 
ATOM      2  C1  UNL d   1       0.040   0.822  -0.420  0.00  0.00    -0.074 A 
ATOM      3  C2  UNL d   1       0.363   0.620  -1.766  0.00  0.00    -0.005 A 
ATOM      4  C3  UNL d   1       0.192  -0.636  -2.349  0.00  0.00     0.006 A 
ATOM      5  C4  UNL d   1      -0.301  -1.700  -1.593  0.00  0.00    -0.005 A 
ATOM      6  C5  UNL d   1      -0.629  -1.517  -0.246  0.00  0.00    -0.074 A 
ATOM      7  C6  UNL d   1      -1.151  -2.653   0.583  0.00  0.00     0.077 C 
ATOM      8  C7  UNL d   1      -0.448  -0.254   0.335  0.00  0.00    -0.001 A 
ENDROOT
TORSDOF 0
ENDMDL
