MODEL 1
REMARK minimizedAffinity -6.0915575
REMARK minimizedRMSD -1
REMARK  0 active torsions:
REMARK  status: ('A' for Active; 'I' for Inactive)
ROOT
ATOM      1  C   UNL d   1      -1.527   0.802   1.282  0.00  0.00     0.077 C 
ATOM      2  C1  UNL d   1      -0.841  -0.475   0.897  0.00  0.00    -0.074 A 
ATOM      3  C2  UNL d   1      -0.597  -1.475   1.845  0.00  0.00    -0.005 A 
ATOM      4  C3  UNL d   1       0.033  -2.661   1.470  0.00  0.00     0.006 A 
ATOM      5  C4  UNL d   1       0.426  -2.860   0.146  0.00  0.00    -0.005 A 
ATOM      6  C5  UNL d   1       0.190  -1.873  -0.816  0.00  0.00    -0.074 A 
ATOM      7  C6  UNL d   1       0.596  -2.075  -2.246  0.00  0.00     0.077 C 
ATOM      8  C7  UNL d   1      -0.451  -0.686  -0.433  0.00  0.00    -0.001 A 
ENDROOT
TORSDOF 0
ENDMDL
