MODEL 1
REMARK minimizedAffinity -6.24732828
REMARK minimizedRMSD -1
REMARK  0 active torsions:
REMARK  status: ('A' for Active; 'I' for Inactive)
ROOT
ATOM      1  C   UNL d   1       0.384  -2.629  -2.706  0.00  0.00     0.077 C 
ATOM      2  C1  UNL d   1      -0.016  -2.037  -1.388  0.00  0.00    -0.074 A 
ATOM      3  C2  UNL d   1      -0.242  -2.852  -0.273  0.00  0.00    -0.005 A 
ATOM      4  C3  UNL d   1      -0.604  -2.286   0.949  0.00  0.00     0.006 A 
ATOM      5  C4  UNL d   1      -0.744  -0.903   1.070  0.00  0.00    -0.005 A 
ATOM      6  C5  UNL d   1      -0.522  -0.073  -0.033  0.00  0.00    -0.074 A 
ATOM      7  C6  UNL d   1      -0.658   1.416   0.082  0.00  0.00     0.077 C 
ATOM      8  C7  UNL d   1      -0.151  -0.648  -1.256  0.00  0.00    -0.001 A 
ENDROOT
TORSDOF 0
ENDMDL
