MODEL 1
REMARK minimizedAffinity -4.76831722
REMARK minimizedRMSD -1
REMARK  0 active torsions:
REMARK  status: ('A' for Active; 'I' for Inactive)
ROOT
ATOM      1  C   UNL d   1      -0.246   0.489   0.370  0.00  0.00     0.077 C 
ATOM      2  C1  UNL d   1      -0.182  -0.933  -0.102  0.00  0.00    -0.074 A 
ATOM      3  C2  UNL d   1      -0.783  -1.962   0.630  0.00  0.00    -0.005 A 
ATOM      4  C3  UNL d   1      -0.723  -3.278   0.174  0.00  0.00     0.006 A 
ATOM      5  C4  UNL d   1      -0.063  -3.579  -1.018  0.00  0.00    -0.005 A 
ATOM      6  C5  UNL d   1       0.543  -2.564  -1.765  0.00  0.00    -0.074 A 
ATOM      7  C6  UNL d   1       1.248  -2.868  -3.053  0.00  0.00     0.077 C 
ATOM      8  C7  UNL d   1       0.473  -1.242  -1.303  0.00  0.00    -0.001 A 
ENDROOT
TORSDOF 0
ENDMDL
