MODEL 1
REMARK minimizedAffinity -5.77297878
REMARK minimizedRMSD -1
REMARK  0 active torsions:
REMARK  status: ('A' for Active; 'I' for Inactive)
ROOT
ATOM      1  C   UNL d   1       0.186  -4.014  -0.022  0.00  0.00     0.077 C 
ATOM      2  C1  UNL d   1      -0.080  -2.548  -0.194  0.00  0.00    -0.074 A 
ATOM      3  C2  UNL d   1       0.327  -1.875  -1.350  0.00  0.00    -0.005 A 
ATOM      4  C3  UNL d   1       0.065  -0.513  -1.500  0.00  0.00     0.006 A 
ATOM      5  C4  UNL d   1      -0.606   0.188  -0.497  0.00  0.00    -0.005 A 
ATOM      6  C5  UNL d   1      -1.022  -0.469   0.665  0.00  0.00    -0.074 A 
ATOM      7  C6  UNL d   1      -1.753   0.267   1.748  0.00  0.00     0.077 C 
ATOM      8  C7  UNL d   1      -0.760  -1.839   0.806  0.00  0.00    -0.001 A 
ENDROOT
TORSDOF 0
ENDMDL
