MODEL 1
REMARK minimizedAffinity -5.33035612
REMARK minimizedRMSD -1
REMARK  0 active torsions:
REMARK  status: ('A' for Active; 'I' for Inactive)
ROOT
ATOM      1  C   UNL d   1       1.208  -2.851  -2.812  0.00  0.00     0.077 C 
ATOM      2  C1  UNL d   1       0.600  -2.382  -1.524  0.00  0.00    -0.074 A 
ATOM      3  C2  UNL d   1       0.174  -3.296  -0.555  0.00  0.00    -0.005 A 
ATOM      4  C3  UNL d   1      -0.381  -2.845   0.642  0.00  0.00     0.006 A 
ATOM      5  C4  UNL d   1      -0.515  -1.477   0.883  0.00  0.00    -0.005 A 
ATOM      6  C5  UNL d   1      -0.094  -0.548  -0.074  0.00  0.00    -0.074 A 
ATOM      7  C6  UNL d   1      -0.222   0.926   0.173  0.00  0.00     0.077 C 
ATOM      8  C7  UNL d   1       0.469  -1.009  -1.272  0.00  0.00    -0.001 A 
ENDROOT
TORSDOF 0
ENDMDL
