MODEL 1
REMARK minimizedAffinity -4.57263374
REMARK minimizedRMSD -1
REMARK  0 active torsions:
REMARK  status: ('A' for Active; 'I' for Inactive)
ROOT
ATOM      1  C   UNL d   1       0.291   1.434   0.117  0.00  0.00     0.077 C 
ATOM      2  C1  UNL d   1      -0.074  -0.018   0.208  0.00  0.00    -0.074 A 
ATOM      3  C2  UNL d   1      -0.653  -0.543   1.368  0.00  0.00    -0.005 A 
ATOM      4  C3  UNL d   1      -0.996  -1.893   1.434  0.00  0.00     0.006 A 
ATOM      5  C4  UNL d   1      -0.765  -2.731   0.342  0.00  0.00    -0.005 A 
ATOM      6  C5  UNL d   1      -0.189  -2.224  -0.827  0.00  0.00    -0.074 A 
ATOM      7  C6  UNL d   1       0.057  -3.109  -2.013  0.00  0.00     0.077 C 
ATOM      8  C7  UNL d   1       0.147  -0.865  -0.888  0.00  0.00    -0.001 A 
ENDROOT
TORSDOF 0
ENDMDL
