MODEL 1
REMARK minimizedAffinity -0.405834645
REMARK minimizedRMSD -1
REMARK  0 active torsions:
REMARK  status: ('A' for Active; 'I' for Inactive)
ROOT
ATOM      1  C   UNL d   1       0.030   0.631  -2.447  0.00  0.00     0.077 C 
ATOM      2  C1  UNL d   1      -0.064   0.041  -1.071  0.00  0.00    -0.074 A 
ATOM      3  C2  UNL d   1      -0.315   0.850   0.042  0.00  0.00    -0.005 A 
ATOM      4  C3  UNL d   1      -0.409   0.285   1.315  0.00  0.00     0.006 A 
ATOM      5  C4  UNL d   1      -0.253  -1.090   1.486  0.00  0.00    -0.005 A 
ATOM      6  C5  UNL d   1      -0.001  -1.915   0.385  0.00  0.00    -0.074 A 
ATOM      7  C6  UNL d   1       0.160  -3.397   0.551  0.00  0.00     0.077 C 
ATOM      8  C7  UNL d   1       0.085  -1.341  -0.891  0.00  0.00    -0.001 A 
ENDROOT
TORSDOF 0
ENDMDL
