MODEL 1
REMARK minimizedAffinity -1.72962391
REMARK minimizedRMSD -1
REMARK  0 active torsions:
REMARK  status: ('A' for Active; 'I' for Inactive)
ROOT
ATOM      1  C   UNL d   1      -1.429  -0.955  -1.439  0.00  0.00     0.124 A 
ATOM      2  C1  UNL d   1      -1.710  -0.627  -0.120  0.00  0.00     0.062 A 
ATOM      3  C2  UNL d   1      -0.824   0.160   0.610  0.00  0.00     0.162 A 
ATOM      4  C3  UNL d   1       0.351   0.628   0.021  0.00  0.00    -0.034 A 
ATOM      5  C4  UNL d   1       0.627   0.294  -1.306  0.00  0.00     0.162 A 
ATOM      6  C5  UNL d   1      -0.262  -0.494  -2.031  0.00  0.00     0.062 A 
ATOM      7  F   UNL d   1       0.011  -0.809  -3.305  0.00  0.00    -0.097 F 
ATOM      8  F1  UNL d   1       1.747   0.726  -1.903  0.00  0.00    -0.096 F 
ATOM      9  I   UNL d   1       1.678   1.806   1.109  0.00  0.00    -0.060 I 
ATOM     10  F2  UNL d   1      -1.121   0.461   1.883  0.00  0.00    -0.096 F 
ATOM     11  F3  UNL d   1      -2.837  -1.072   0.455  0.00  0.00    -0.097 F 
ATOM     12  F4  UNL d   1      -2.283  -1.714  -2.138  0.00  0.00    -0.092 F 
ENDROOT
TORSDOF 0
ENDMDL
