MODEL 1
REMARK minimizedAffinity -1.55512738
REMARK minimizedRMSD -1
REMARK  0 active torsions:
REMARK  status: ('A' for Active; 'I' for Inactive)
ROOT
ATOM      1  C   UNL d   1      -2.182  -0.971  -0.192  0.00  0.00     0.124 A 
ATOM      2  C1  UNL d   1      -1.227  -1.248   0.777  0.00  0.00     0.062 A 
ATOM      3  C2  UNL d   1       0.006  -0.604   0.749  0.00  0.00     0.162 A 
ATOM      4  C3  UNL d   1       0.292   0.325  -0.252  0.00  0.00    -0.034 A 
ATOM      5  C4  UNL d   1      -0.673   0.598  -1.223  0.00  0.00     0.162 A 
ATOM      6  C5  UNL d   1      -1.904  -0.049  -1.191  0.00  0.00     0.062 A 
ATOM      7  F   UNL d   1      -2.825   0.220  -2.128  0.00  0.00    -0.097 F 
ATOM      8  F1  UNL d   1      -0.431   1.485  -2.199  0.00  0.00    -0.096 F 
ATOM      9  I   UNL d   1       2.135   1.290  -0.298  0.00  0.00    -0.060 I 
ATOM     10  F2  UNL d   1       0.910  -0.892   1.697  0.00  0.00    -0.096 F 
ATOM     11  F3  UNL d   1      -1.493  -2.140   1.742  0.00  0.00    -0.097 F 
ATOM     12  F4  UNL d   1      -3.368  -1.593  -0.163  0.00  0.00    -0.092 F 
ENDROOT
TORSDOF 0
ENDMDL
