MODEL 1
REMARK minimizedAffinity 1.15301669
REMARK minimizedRMSD -1
REMARK  0 active torsions:
REMARK  status: ('A' for Active; 'I' for Inactive)
ROOT
ATOM      1  C   UNL d   1      -2.407  -1.287  -0.512  0.00  0.00     0.124 A 
ATOM      2  C1  UNL d   1      -1.751  -1.493   0.694  0.00  0.00     0.062 A 
ATOM      3  C2  UNL d   1      -0.513  -0.902   0.928  0.00  0.00     0.162 A 
ATOM      4  C3  UNL d   1       0.078  -0.098  -0.047  0.00  0.00    -0.034 A 
ATOM      5  C4  UNL d   1      -0.587   0.104  -1.257  0.00  0.00     0.162 A 
ATOM      6  C5  UNL d   1      -1.824  -0.489  -1.486  0.00  0.00     0.062 A 
ATOM      7  F   UNL d   1      -2.456  -0.289  -2.652  0.00  0.00    -0.097 F 
ATOM      8  F1  UNL d   1      -0.047   0.872  -2.216  0.00  0.00    -0.096 F 
ATOM      9  I   UNL d   1       1.929   0.788   0.299  0.00  0.00    -0.060 I 
ATOM     10  F2  UNL d   1       0.098  -1.118   2.102  0.00  0.00    -0.096 F 
ATOM     11  F3  UNL d   1      -2.311  -2.265   1.637  0.00  0.00    -0.097 F 
ATOM     12  F4  UNL d   1      -3.597  -1.858  -0.734  0.00  0.00    -0.092 F 
ENDROOT
TORSDOF 0
ENDMDL
