MODEL 1
REMARK minimizedAffinity -2.22734189
REMARK minimizedRMSD -1
REMARK  0 active torsions:
REMARK  status: ('A' for Active; 'I' for Inactive)
ROOT
ATOM      1  C   UNL d   1      -2.128  -1.144  -0.568  0.00  0.00     0.124 A 
ATOM      2  C1  UNL d   1      -1.626  -1.020   0.720  0.00  0.00     0.062 A 
ATOM      3  C2  UNL d   1      -0.508  -0.227   0.963  0.00  0.00     0.162 A 
ATOM      4  C3  UNL d   1       0.115   0.450  -0.086  0.00  0.00    -0.034 A 
ATOM      5  C4  UNL d   1      -0.394   0.319  -1.379  0.00  0.00     0.162 A 
ATOM      6  C5  UNL d   1      -1.512  -0.475  -1.616  0.00  0.00     0.062 A 
ATOM      7  F   UNL d   1      -1.995  -0.594  -2.861  0.00  0.00    -0.097 F 
ATOM      8  F1  UNL d   1       0.181   0.956  -2.410  0.00  0.00    -0.096 F 
ATOM      9  I   UNL d   1       1.787   1.637   0.273  0.00  0.00    -0.060 I 
ATOM     10  F2  UNL d   1      -0.045  -0.125   2.218  0.00  0.00    -0.096 F 
ATOM     11  F3  UNL d   1      -2.218  -1.667   1.735  0.00  0.00    -0.097 F 
ATOM     12  F4  UNL d   1      -3.202  -1.909  -0.798  0.00  0.00    -0.092 F 
ENDROOT
TORSDOF 0
ENDMDL
