MODEL 1
REMARK minimizedAffinity 2.49399424
REMARK minimizedRMSD -1
REMARK  0 active torsions:
REMARK  status: ('A' for Active; 'I' for Inactive)
ROOT
ATOM      1  C   UNL d   1      -1.341  -1.204  -0.517  0.00  0.00     0.124 A 
ATOM      2  C1  UNL d   1      -0.408  -1.430   0.486  0.00  0.00     0.062 A 
ATOM      3  C2  UNL d   1       0.419  -0.397   0.918  0.00  0.00     0.162 A 
ATOM      4  C3  UNL d   1       0.317   0.872   0.348  0.00  0.00    -0.034 A 
ATOM      5  C4  UNL d   1      -0.623   1.091  -0.661  0.00  0.00     0.162 A 
ATOM      6  C5  UNL d   1      -1.447   0.056  -1.089  0.00  0.00     0.062 A 
ATOM      7  F   UNL d   1      -2.348   0.276  -2.058  0.00  0.00    -0.097 F 
ATOM      8  F1  UNL d   1      -0.747   2.299  -1.230  0.00  0.00    -0.096 F 
ATOM      9  I   UNL d   1       1.552   2.419   0.991  0.00  0.00    -0.060 I 
ATOM     10  F2  UNL d   1       1.311  -0.644   1.889  0.00  0.00    -0.096 F 
ATOM     11  F3  UNL d   1      -0.303  -2.646   1.040  0.00  0.00    -0.097 F 
ATOM     12  F4  UNL d   1      -2.135  -2.199  -0.931  0.00  0.00    -0.092 F 
ENDROOT
TORSDOF 0
ENDMDL
