MODEL 1
REMARK minimizedAffinity -3.09773326
REMARK minimizedRMSD -1
REMARK  0 active torsions:
REMARK  status: ('A' for Active; 'I' for Inactive)
ROOT
ATOM      1  C   UNL d   1      -1.658   0.204  -1.508  0.00  0.00     0.124 A 
ATOM      2  C1  UNL d   1      -0.336   0.534  -1.774  0.00  0.00     0.062 A 
ATOM      3  C2  UNL d   1       0.668   0.181  -0.876  0.00  0.00     0.162 A 
ATOM      4  C3  UNL d   1       0.354  -0.507   0.295  0.00  0.00    -0.034 A 
ATOM      5  C4  UNL d   1      -0.978  -0.835   0.557  0.00  0.00     0.162 A 
ATOM      6  C5  UNL d   1      -1.977  -0.480  -0.343  0.00  0.00     0.062 A 
ATOM      7  F   UNL d   1      -3.254  -0.799  -0.084  0.00  0.00    -0.097 F 
ATOM      8  F1  UNL d   1      -1.314  -1.496   1.674  0.00  0.00    -0.096 F 
ATOM      9  I   UNL d   1       1.852  -1.037   1.640  0.00  0.00    -0.060 I 
ATOM     10  F2  UNL d   1       1.936   0.513  -1.159  0.00  0.00    -0.096 F 
ATOM     11  F3  UNL d   1      -0.025   1.196  -2.898  0.00  0.00    -0.097 F 
ATOM     12  F4  UNL d   1      -2.622   0.546  -2.372  0.00  0.00    -0.092 F 
ENDROOT
TORSDOF 0
ENDMDL
