MODEL 1
REMARK minimizedAffinity -1.64639592
REMARK minimizedRMSD -1
REMARK  0 active torsions:
REMARK  status: ('A' for Active; 'I' for Inactive)
ROOT
ATOM      1  C   UNL d   1      -2.277  -0.643  -0.173  0.00  0.00     0.124 A 
ATOM      2  C1  UNL d   1      -1.537  -0.681   1.001  0.00  0.00     0.062 A 
ATOM      3  C2  UNL d   1      -0.223  -0.221   1.015  0.00  0.00     0.162 A 
ATOM      4  C3  UNL d   1       0.360   0.281  -0.148  0.00  0.00    -0.034 A 
ATOM      5  C4  UNL d   1      -0.390   0.314  -1.325  0.00  0.00     0.162 A 
ATOM      6  C5  UNL d   1      -1.703  -0.146  -1.334  0.00  0.00     0.062 A 
ATOM      7  F   UNL d   1      -2.416  -0.109  -2.470  0.00  0.00    -0.097 F 
ATOM      8  F1  UNL d   1       0.139   0.791  -2.462  0.00  0.00    -0.096 F 
ATOM      9  I   UNL d   1       2.324   0.969  -0.131  0.00  0.00    -0.060 I 
ATOM     10  F2  UNL d   1       0.468  -0.269   2.164  0.00  0.00    -0.096 F 
ATOM     11  F3  UNL d   1      -2.089  -1.162   2.124  0.00  0.00    -0.097 F 
ATOM     12  F4  UNL d   1      -3.540  -1.087  -0.184  0.00  0.00    -0.092 F 
ENDROOT
TORSDOF 0
ENDMDL
