MODEL 1
REMARK minimizedAffinity 1.03869343
REMARK minimizedRMSD -1
REMARK  0 active torsions:
REMARK  status: ('A' for Active; 'I' for Inactive)
ROOT
ATOM      1  C   UNL d   1      -1.907  -1.153  -1.597  0.00  0.00     0.124 A 
ATOM      2  C1  UNL d   1      -0.633  -0.698  -1.908  0.00  0.00     0.062 A 
ATOM      3  C2  UNL d   1       0.144  -0.073  -0.936  0.00  0.00     0.162 A 
ATOM      4  C3  UNL d   1      -0.351   0.099   0.356  0.00  0.00    -0.034 A 
ATOM      5  C4  UNL d   1      -1.633  -0.361   0.661  0.00  0.00     0.162 A 
ATOM      6  C5  UNL d   1      -2.406  -0.984  -0.313  0.00  0.00     0.062 A 
ATOM      7  F   UNL d   1      -3.636  -1.424  -0.011  0.00  0.00    -0.097 F 
ATOM      8  F1  UNL d   1      -2.140  -0.211   1.894  0.00  0.00    -0.096 F 
ATOM      9  I   UNL d   1       0.807   1.033   1.812  0.00  0.00    -0.060 I 
ATOM     10  F2  UNL d   1       1.371   0.357  -1.265  0.00  0.00    -0.096 F 
ATOM     11  F3  UNL d   1      -0.149  -0.859  -3.148  0.00  0.00    -0.097 F 
ATOM     12  F4  UNL d   1      -2.652  -1.753  -2.534  0.00  0.00    -0.092 F 
ENDROOT
TORSDOF 0
ENDMDL
