MODEL 1
REMARK minimizedAffinity -2.12138343
REMARK minimizedRMSD -1
REMARK  0 active torsions:
REMARK  status: ('A' for Active; 'I' for Inactive)
ROOT
ATOM      1  C   UNL d   1      -2.103  -1.216   0.803  0.00  0.00     0.124 A 
ATOM      2  C1  UNL d   1      -2.166  -0.065   0.030  0.00  0.00     0.062 A 
ATOM      3  C2  UNL d   1      -1.012   0.669  -0.227  0.00  0.00     0.162 A 
ATOM      4  C3  UNL d   1       0.215   0.255   0.288  0.00  0.00    -0.034 A 
ATOM      5  C4  UNL d   1       0.271  -0.904   1.066  0.00  0.00     0.162 A 
ATOM      6  C5  UNL d   1      -0.885  -1.634   1.320  0.00  0.00     0.062 A 
ATOM      7  F   UNL d   1      -0.823  -2.746   2.067  0.00  0.00    -0.097 F 
ATOM      8  F1  UNL d   1       1.435  -1.331   1.577  0.00  0.00    -0.096 F 
ATOM      9  I   UNL d   1       1.943   1.350  -0.094  0.00  0.00    -0.060 I 
ATOM     10  F2  UNL d   1      -1.103   1.778  -0.978  0.00  0.00    -0.096 F 
ATOM     11  F3  UNL d   1      -3.342   0.341  -0.470  0.00  0.00    -0.097 F 
ATOM     12  F4  UNL d   1      -3.215  -1.921   1.049  0.00  0.00    -0.092 F 
ENDROOT
TORSDOF 0
ENDMDL
