MODEL 1
REMARK minimizedAffinity -1.36157584
REMARK minimizedRMSD -1
REMARK  0 active torsions:
REMARK  status: ('A' for Active; 'I' for Inactive)
ROOT
ATOM      1  C   UNL d   1      -2.066  -0.834  -0.027  0.00  0.00     0.124 A 
ATOM      2  C1  UNL d   1      -1.770  -0.054  -1.136  0.00  0.00     0.062 A 
ATOM      3  C2  UNL d   1      -0.534   0.578  -1.237  0.00  0.00     0.162 A 
ATOM      4  C3  UNL d   1       0.416   0.432  -0.226  0.00  0.00    -0.034 A 
ATOM      5  C4  UNL d   1       0.110  -0.354   0.887  0.00  0.00     0.162 A 
ATOM      6  C5  UNL d   1      -1.127  -0.983   0.983  0.00  0.00     0.062 A 
ATOM      7  F   UNL d   1      -1.412  -1.736   2.056  0.00  0.00    -0.097 F 
ATOM      8  F1  UNL d   1       1.000  -0.515   1.878  0.00  0.00    -0.096 F 
ATOM      9  I   UNL d   1       2.266   1.375  -0.373  0.00  0.00    -0.060 I 
ATOM     10  F2  UNL d   1      -0.274   1.325  -2.320  0.00  0.00    -0.096 F 
ATOM     11  F3  UNL d   1      -2.676   0.092  -2.113  0.00  0.00    -0.097 F 
ATOM     12  F4  UNL d   1      -3.257  -1.440   0.068  0.00  0.00    -0.092 F 
ENDROOT
TORSDOF 0
ENDMDL
