MODEL 1
REMARK minimizedAffinity -0.936998248
REMARK minimizedRMSD -1
REMARK  0 active torsions:
REMARK  status: ('A' for Active; 'I' for Inactive)
ROOT
ATOM      1  C   UNL d   1      -2.106  -0.930  -0.435  0.00  0.00     0.124 A 
ATOM      2  C1  UNL d   1      -1.323  -1.092   0.699  0.00  0.00     0.062 A 
ATOM      3  C2  UNL d   1      -0.109  -0.420   0.815  0.00  0.00     0.162 A 
ATOM      4  C3  UNL d   1       0.328   0.423  -0.207  0.00  0.00    -0.034 A 
ATOM      5  C4  UNL d   1      -0.464   0.580  -1.346  0.00  0.00     0.162 A 
ATOM      6  C5  UNL d   1      -1.676  -0.094  -1.456  0.00  0.00     0.062 A 
ATOM      7  F   UNL d   1      -2.431   0.064  -2.553  0.00  0.00    -0.097 F 
ATOM      8  F1  UNL d   1      -0.074   1.383  -2.347  0.00  0.00    -0.096 F 
ATOM      9  I   UNL d   1       2.142   1.430  -0.039  0.00  0.00    -0.060 I 
ATOM     10  F2  UNL d   1       0.627  -0.595   1.922  0.00  0.00    -0.096 F 
ATOM     11  F3  UNL d   1      -1.735  -1.900   1.687  0.00  0.00    -0.097 F 
ATOM     12  F4  UNL d   1      -3.272  -1.579  -0.544  0.00  0.00    -0.092 F 
ENDROOT
TORSDOF 0
ENDMDL
