MODEL 1
REMARK minimizedAffinity 7.74750328
REMARK minimizedRMSD -1
REMARK  0 active torsions:
REMARK  status: ('A' for Active; 'I' for Inactive)
ROOT
ATOM      1  C   UNL d   1      -0.567  -0.521   1.566  0.00  0.00     0.124 A 
ATOM      2  C1  UNL d   1       0.498   0.231   1.090  0.00  0.00     0.062 A 
ATOM      3  C2  UNL d   1       0.601   0.517  -0.268  0.00  0.00     0.162 A 
ATOM      4  C3  UNL d   1      -0.365   0.053  -1.160  0.00  0.00    -0.034 A 
ATOM      5  C4  UNL d   1      -1.433  -0.704  -0.674  0.00  0.00     0.162 A 
ATOM      6  C5  UNL d   1      -1.531  -0.988   0.684  0.00  0.00     0.062 A 
ATOM      7  F   UNL d   1      -2.561  -1.714   1.142  0.00  0.00    -0.097 F 
ATOM      8  F1  UNL d   1      -2.379  -1.166  -1.505  0.00  0.00    -0.096 F 
ATOM      9  I   UNL d   1      -0.215   0.479  -3.192  0.00  0.00    -0.060 I 
ATOM     10  F2  UNL d   1       1.641   1.246  -0.700  0.00  0.00    -0.096 F 
ATOM     11  F3  UNL d   1       1.432   0.681   1.940  0.00  0.00    -0.097 F 
ATOM     12  F4  UNL d   1      -0.663  -0.797   2.873  0.00  0.00    -0.092 F 
ENDROOT
TORSDOF 0
ENDMDL
