MODEL 1
REMARK minimizedAffinity -1.30077791
REMARK minimizedRMSD -1
REMARK  0 active torsions:
REMARK  status: ('A' for Active; 'I' for Inactive)
ROOT
ATOM      1  C   UNL d   1      -1.495  -0.960   0.864  0.00  0.00     0.124 A 
ATOM      2  C1  UNL d   1      -1.664   0.346   0.426  0.00  0.00     0.062 A 
ATOM      3  C2  UNL d   1      -0.562   1.185   0.283  0.00  0.00     0.162 A 
ATOM      4  C3  UNL d   1       0.719   0.719   0.578  0.00  0.00    -0.034 A 
ATOM      5  C4  UNL d   1       0.881  -0.595   1.019  0.00  0.00     0.162 A 
ATOM      6  C5  UNL d   1      -0.223  -1.429   1.160  0.00  0.00     0.062 A 
ATOM      7  F   UNL d   1      -0.058  -2.691   1.583  0.00  0.00    -0.097 F 
ATOM      8  F1  UNL d   1       2.099  -1.075   1.311  0.00  0.00    -0.096 F 
ATOM      9  I   UNL d   1       2.369   1.970   0.366  0.00  0.00    -0.060 I 
ATOM     10  F2  UNL d   1      -0.755   2.442  -0.142  0.00  0.00    -0.096 F 
ATOM     11  F3  UNL d   1      -2.892   0.803   0.140  0.00  0.00    -0.097 F 
ATOM     12  F4  UNL d   1      -2.557  -1.764   1.001  0.00  0.00    -0.092 F 
ENDROOT
TORSDOF 0
ENDMDL
