MODEL 1
REMARK minimizedAffinity -2.94705176
REMARK minimizedRMSD -1
REMARK  0 active torsions:
REMARK  status: ('A' for Active; 'I' for Inactive)
ROOT
ATOM      1  C   UNL d   1      -2.571  -1.433  -0.334  0.00  0.00     0.124 A 
ATOM      2  C1  UNL d   1      -1.944  -0.821  -1.411  0.00  0.00     0.062 A 
ATOM      3  C2  UNL d   1      -0.685  -0.249  -1.254  0.00  0.00     0.162 A 
ATOM      4  C3  UNL d   1      -0.043  -0.287  -0.016  0.00  0.00    -0.034 A 
ATOM      5  C4  UNL d   1      -0.681  -0.904   1.062  0.00  0.00     0.162 A 
ATOM      6  C5  UNL d   1      -1.939  -1.474   0.900  0.00  0.00     0.062 A 
ATOM      7  F   UNL d   1      -2.543  -2.066   1.941  0.00  0.00    -0.097 F 
ATOM      8  F1  UNL d   1      -0.092  -0.959   2.266  0.00  0.00    -0.096 F 
ATOM      9  I   UNL d   1       1.839   0.567   0.222  0.00  0.00    -0.060 I 
ATOM     10  F2  UNL d   1      -0.103   0.337  -2.311  0.00  0.00    -0.096 F 
ATOM     11  F3  UNL d   1      -2.554  -0.779  -2.604  0.00  0.00    -0.097 F 
ATOM     12  F4  UNL d   1      -3.783  -1.982  -0.487  0.00  0.00    -0.092 F 
ENDROOT
TORSDOF 0
ENDMDL
