MODEL 1
REMARK minimizedAffinity 0.457687974
REMARK minimizedRMSD -1
REMARK  0 active torsions:
REMARK  status: ('A' for Active; 'I' for Inactive)
ROOT
ATOM      1  C   UNL d   1      -1.287  -0.765  -0.100  0.00  0.00     0.124 A 
ATOM      2  C1  UNL d   1      -1.313   0.437  -0.793  0.00  0.00     0.062 A 
ATOM      3  C2  UNL d   1      -0.319   1.388  -0.583  0.00  0.00     0.162 A 
ATOM      4  C3  UNL d   1       0.711   1.141   0.324  0.00  0.00    -0.034 A 
ATOM      5  C4  UNL d   1       0.730  -0.070   1.019  0.00  0.00     0.162 A 
ATOM      6  C5  UNL d   1      -0.266  -1.017   0.805  0.00  0.00     0.062 A 
ATOM      7  F   UNL d   1      -0.238  -2.178   1.476  0.00  0.00    -0.097 F 
ATOM      8  F1  UNL d   1       1.706  -0.340   1.899  0.00  0.00    -0.096 F 
ATOM      9  I   UNL d   1       2.199   2.561   0.642  0.00  0.00    -0.060 I 
ATOM     10  F2  UNL d   1      -0.370   2.541  -1.267  0.00  0.00    -0.096 F 
ATOM     11  F3  UNL d   1      -2.299   0.683  -1.668  0.00  0.00    -0.097 F 
ATOM     12  F4  UNL d   1      -2.245  -1.679  -0.304  0.00  0.00    -0.092 F 
ENDROOT
TORSDOF 0
ENDMDL
