MODEL 1
REMARK minimizedAffinity -2.56576586
REMARK minimizedRMSD -1
REMARK  0 active torsions:
REMARK  status: ('A' for Active; 'I' for Inactive)
ROOT
ATOM      1  C   UNL d   1      -2.052  -1.298   0.623  0.00  0.00     0.124 A 
ATOM      2  C1  UNL d   1      -1.011  -1.394   1.536  0.00  0.00     0.062 A 
ATOM      3  C2  UNL d   1       0.165  -0.678   1.334  0.00  0.00     0.162 A 
ATOM      4  C3  UNL d   1       0.307   0.142   0.214  0.00  0.00    -0.034 A 
ATOM      5  C4  UNL d   1      -0.745   0.233  -0.700  0.00  0.00     0.162 A 
ATOM      6  C5  UNL d   1      -1.918  -0.485  -0.493  0.00  0.00     0.062 A 
ATOM      7  F   UNL d   1      -2.923  -0.390  -1.376  0.00  0.00    -0.097 F 
ATOM      8  F1  UNL d   1      -0.642   1.012  -1.787  0.00  0.00    -0.096 F 
ATOM      9  I   UNL d   1       2.064   1.214  -0.092  0.00  0.00    -0.060 I 
ATOM     10  F2  UNL d   1       1.155  -0.791   2.232  0.00  0.00    -0.096 F 
ATOM     11  F3  UNL d   1      -1.138  -2.180   2.615  0.00  0.00    -0.097 F 
ATOM     12  F4  UNL d   1      -3.183  -1.989   0.819  0.00  0.00    -0.092 F 
ENDROOT
TORSDOF 0
ENDMDL
