MODEL 1
REMARK minimizedAffinity 13.4996033
REMARK minimizedRMSD -1
REMARK  0 active torsions:
REMARK  status: ('A' for Active; 'I' for Inactive)
ROOT
ATOM      1  O1  BZF d   1       1.205   4.114  -0.734  0.00  0.00    -0.204 OA
ATOM      2  C2  BZF d   1       0.631   3.389   0.292  0.00  0.00     0.174 A 
ATOM      3  C3  BZF d   1      -0.711   3.358   0.163  0.00  0.00    -0.012 A 
ATOM      4  C3A BZF d   1      -0.987   4.034  -1.068  0.00  0.00    -0.107 A 
ATOM      5  C4  BZF d   1      -2.137   4.313  -1.749  0.00  0.00     0.055 A 
ATOM      6  C5  BZF d   1      -2.069   5.054  -2.886  0.00  0.00    -0.016 A 
ATOM      7  C6  BZF d   1      -0.869   5.534  -3.368  0.00  0.00     0.022 A 
ATOM      8  C7  BZF d   1       0.299   5.279  -2.730  0.00  0.00     0.029 A 
ATOM      9  C7A BZF d   1       0.237   4.503  -1.599  0.00  0.00     0.058 A 
ENDROOT
TORSDOF 0
ENDMDL
