MODEL 1
REMARK minimizedAffinity 5.04136181
REMARK minimizedRMSD -1
REMARK  0 active torsions:
REMARK  status: ('A' for Active; 'I' for Inactive)
ROOT
ATOM      1  O1  BZF d   1       0.800   5.706  -2.098  0.00  0.00    -0.204 OA
ATOM      2  C2  BZF d   1      -0.118   5.544  -3.118  0.00  0.00     0.174 A 
ATOM      3  C3  BZF d   1      -0.836   4.417  -2.941  0.00  0.00    -0.012 A 
ATOM      4  C3A BZF d   1      -0.399   3.886  -1.686  0.00  0.00    -0.107 A 
ATOM      5  C4  BZF d   1      -0.753   2.786  -0.958  0.00  0.00     0.055 A 
ATOM      6  C5  BZF d   1      -0.083   2.512   0.193  0.00  0.00    -0.016 A 
ATOM      7  C6  BZF d   1       0.948   3.312   0.641  0.00  0.00     0.022 A 
ATOM      8  C7  BZF d   1       1.331   4.416  -0.045  0.00  0.00     0.029 A 
ATOM      9  C7A BZF d   1       0.634   4.714  -1.190  0.00  0.00     0.058 A 
ENDROOT
TORSDOF 0
ENDMDL
