MODEL 1
REMARK minimizedAffinity 11.9582748
REMARK minimizedRMSD -1
REMARK  0 active torsions:
REMARK  status: ('A' for Active; 'I' for Inactive)
ROOT
ATOM      1  O1  BZF d   1       5.898  -3.103  -1.112  0.00  0.00    -0.204 OA
ATOM      2  C2  BZF d   1       6.000  -4.479  -1.176  0.00  0.00     0.174 A 
ATOM      3  C3  BZF d   1       4.866  -5.063  -0.739  0.00  0.00    -0.012 A 
ATOM      4  C3A BZF d   1       3.967  -3.984  -0.466  0.00  0.00    -0.107 A 
ATOM      5  C4  BZF d   1       2.678  -3.925  -0.018  0.00  0.00     0.055 A 
ATOM      6  C5  BZF d   1       2.114  -2.711   0.212  0.00  0.00    -0.016 A 
ATOM      7  C6  BZF d   1       2.810  -1.537   0.012  0.00  0.00     0.022 A 
ATOM      8  C7  BZF d   1       4.089  -1.544  -0.435  0.00  0.00     0.029 A 
ATOM      9  C7A BZF d   1       4.651  -2.769  -0.701  0.00  0.00     0.058 A 
ENDROOT
TORSDOF 0
ENDMDL
