MODEL 1
REMARK minimizedAffinity 15.1120434
REMARK minimizedRMSD -1
REMARK  0 active torsions:
REMARK  status: ('A' for Active; 'I' for Inactive)
ROOT
ATOM      1  O1  BZF d   1       0.680  -1.326  -0.702  0.00  0.00    -0.204 OA
ATOM      2  C2  BZF d   1       1.715  -1.494   0.198  0.00  0.00     0.174 A 
ATOM      3  C3  BZF d   1       2.053  -2.795   0.300  0.00  0.00    -0.012 A 
ATOM      4  C3A BZF d   1       1.238  -3.473  -0.661  0.00  0.00    -0.107 A 
ATOM      5  C4  BZF d   1       1.126  -4.779  -1.042  0.00  0.00     0.055 A 
ATOM      6  C5  BZF d   1       0.181  -5.121  -1.957  0.00  0.00    -0.016 A 
ATOM      7  C6  BZF d   1      -0.670  -4.185  -2.507  0.00  0.00     0.022 A 
ATOM      8  C7  BZF d   1      -0.593  -2.876  -2.163  0.00  0.00     0.029 A 
ATOM      9  C7A BZF d   1       0.382  -2.522  -1.263  0.00  0.00     0.058 A 
ENDROOT
TORSDOF 0
ENDMDL
