MODEL 1
REMARK minimizedAffinity 7.20010853
REMARK minimizedRMSD -1
REMARK  0 active torsions:
REMARK  status: ('A' for Active; 'I' for Inactive)
ROOT
ATOM      1  O1  BZF d   1      -5.302   0.795   3.810  0.00  0.00    -0.204 OA
ATOM      2  C2  BZF d   1      -4.335   0.792   2.823  0.00  0.00     0.174 A 
ATOM      3  C3  BZF d   1      -3.616  -0.348   2.861  0.00  0.00    -0.012 A 
ATOM      4  C3A BZF d   1      -4.228  -1.145   3.880  0.00  0.00    -0.107 A 
ATOM      5  C4  BZF d   1      -3.975  -2.392   4.375  0.00  0.00     0.055 A 
ATOM      6  C5  BZF d   1      -4.713  -2.850   5.421  0.00  0.00    -0.016 A 
ATOM      7  C6  BZF d   1      -5.706  -2.087   5.998  0.00  0.00     0.022 A 
ATOM      8  C7  BZF d   1      -5.997  -0.845   5.539  0.00  0.00     0.029 A 
ATOM      9  C7A BZF d   1      -5.275  -0.393   4.461  0.00  0.00     0.058 A 
ENDROOT
TORSDOF 0
ENDMDL
