MODEL 1
REMARK minimizedAffinity 13.7688828
REMARK minimizedRMSD -1
REMARK  0 active torsions:
REMARK  status: ('A' for Active; 'I' for Inactive)
ROOT
ATOM      1  O1  BZF d   1      -0.796  -3.151  -1.066  0.00  0.00    -0.204 OA
ATOM      2  C2  BZF d   1      -0.879  -4.501  -1.351  0.00  0.00     0.174 A 
ATOM      3  C3  BZF d   1       0.325  -5.092  -1.221  0.00  0.00    -0.012 A 
ATOM      4  C3A BZF d   1       1.199  -4.066  -0.741  0.00  0.00    -0.107 A 
ATOM      5  C4  BZF d   1       2.522  -4.041  -0.404  0.00  0.00     0.055 A 
ATOM      6  C5  BZF d   1       3.089  -2.860  -0.041  0.00  0.00    -0.016 A 
ATOM      7  C6  BZF d   1       2.365  -1.687  -0.009  0.00  0.00     0.022 A 
ATOM      8  C7  BZF d   1       1.048  -1.662  -0.330  0.00  0.00     0.029 A 
ATOM      9  C7A BZF d   1       0.465  -2.860  -0.665  0.00  0.00     0.058 A 
ENDROOT
TORSDOF 0
ENDMDL
