MODEL 1
REMARK minimizedAffinity -0.421724796
REMARK minimizedRMSD -1
REMARK  0 active torsions:
REMARK  status: ('A' for Active; 'I' for Inactive)
ROOT
ATOM      1  C2' OXE d   1       2.334  -0.804  -0.494  0.00  0.00     0.078 C 
ATOM      2  C1' OXE d   1       1.500  -1.192   2.158  0.00  0.00     0.078 C 
ATOM      3  C1  OXE d   1       0.438  -0.948   1.116  0.00  0.00    -0.078 A 
ATOM      4  C2  OXE d   1       0.858  -0.712  -0.171  0.00  0.00    -0.078 A 
ATOM      5  C3  OXE d   1      -0.082  -0.535  -1.182  0.00  0.00     0.003 A 
ATOM      6  C4  OXE d   1      -1.445  -0.442  -0.874  0.00  0.00    -0.002 A 
ATOM      7  C5  OXE d   1      -1.891  -0.639   0.437  0.00  0.00    -0.002 A 
ATOM      8  C6  OXE d   1      -0.968  -0.935   1.434  0.00  0.00     0.003 A 
ENDROOT
TORSDOF 0
ENDMDL
