MODEL 1
REMARK minimizedAffinity -0.409913391
REMARK minimizedRMSD -1
REMARK  0 active torsions:
REMARK  status: ('A' for Active; 'I' for Inactive)
ROOT
ATOM      1  C2' OXE d   1       2.249  -1.356   0.155  0.00  0.00     0.078 C 
ATOM      2  C1' OXE d   1       1.039  -1.497   2.684  0.00  0.00     0.078 C 
ATOM      3  C1  OXE d   1       0.199  -1.014   1.528  0.00  0.00    -0.078 A 
ATOM      4  C2  OXE d   1       0.813  -0.904   0.303  0.00  0.00    -0.078 A 
ATOM      5  C3  OXE d   1       0.069  -0.516  -0.808  0.00  0.00     0.003 A 
ATOM      6  C4  OXE d   1      -1.257  -0.090  -0.660  0.00  0.00    -0.002 A 
ATOM      7  C5  OXE d   1      -1.889  -0.157   0.586  0.00  0.00    -0.002 A 
ATOM      8  C6  OXE d   1      -1.190  -0.656   1.679  0.00  0.00     0.003 A 
ENDROOT
TORSDOF 0
ENDMDL
