MODEL 1
REMARK minimizedAffinity 4.36472607
REMARK minimizedRMSD -1
REMARK  0 active torsions:
REMARK  status: ('A' for Active; 'I' for Inactive)
ROOT
ATOM      1  C2' OXE d   1      -1.265   0.348   1.173  0.00  0.00     0.078 C 
ATOM      2  C1' OXE d   1       0.743  -0.480  -0.605  0.00  0.00     0.078 C 
ATOM      3  C1  OXE d   1       0.511  -1.313   0.631  0.00  0.00    -0.078 A 
ATOM      4  C2  OXE d   1      -0.442  -0.874   1.519  0.00  0.00    -0.078 A 
ATOM      5  C3  OXE d   1      -0.734  -1.634   2.648  0.00  0.00     0.003 A 
ATOM      6  C4  OXE d   1       0.040  -2.758   2.966  0.00  0.00    -0.002 A 
ATOM      7  C5  OXE d   1       1.042  -3.199   2.095  0.00  0.00    -0.002 A 
ATOM      8  C6  OXE d   1       1.261  -2.513   0.905  0.00  0.00     0.003 A 
ENDROOT
TORSDOF 0
ENDMDL
