MODEL 1
REMARK minimizedAffinity 7.80386782
REMARK minimizedRMSD -1
REMARK  0 active torsions:
REMARK  status: ('A' for Active; 'I' for Inactive)
ROOT
ATOM      1  C2' OXE d   1       0.748  -2.702   2.152  0.00  0.00     0.078 C 
ATOM      2  C1' OXE d   1       0.870  -0.910  -0.006  0.00  0.00     0.078 C 
ATOM      3  C1  OXE d   1      -0.134  -0.631   1.085  0.00  0.00    -0.078 A 
ATOM      4  C2  OXE d   1      -0.219  -1.538   2.113  0.00  0.00    -0.078 A 
ATOM      5  C3  OXE d   1      -1.090  -1.299   3.173  0.00  0.00     0.003 A 
ATOM      6  C4  OXE d   1      -1.988  -0.226   3.124  0.00  0.00    -0.002 A 
ATOM      7  C5  OXE d   1      -1.945   0.688   2.066  0.00  0.00    -0.002 A 
ATOM      8  C6  OXE d   1      -0.997   0.524   1.062  0.00  0.00     0.003 A 
ENDROOT
TORSDOF 0
ENDMDL
