MODEL 1
REMARK minimizedAffinity -2.77735662
REMARK minimizedRMSD -1
REMARK  0 active torsions:
REMARK  status: ('A' for Active; 'I' for Inactive)
ROOT
ATOM      1  C2' OXE d   1       3.305   4.838   5.656  0.00  0.00     0.078 C 
ATOM      2  C1' OXE d   1       5.860   6.000   5.732  0.00  0.00     0.078 C 
ATOM      3  C1  OXE d   1       5.266   5.694   4.380  0.00  0.00    -0.078 A 
ATOM      4  C2  OXE d   1       4.036   5.082   4.353  0.00  0.00    -0.078 A 
ATOM      5  C3  OXE d   1       3.419   4.828   3.132  0.00  0.00     0.003 A 
ATOM      6  C4  OXE d   1       4.105   5.048   1.932  0.00  0.00    -0.002 A 
ATOM      7  C5  OXE d   1       5.376   5.633   1.937  0.00  0.00    -0.002 A 
ATOM      8  C6  OXE d   1       5.952   6.000   3.149  0.00  0.00     0.003 A 
ENDROOT
TORSDOF 0
ENDMDL
