MODEL 1
REMARK minimizedAffinity -1.38533366
REMARK minimizedRMSD -1
REMARK  0 active torsions:
REMARK  status: ('A' for Active; 'I' for Inactive)
ROOT
ATOM      1  C2' OXE d   1      -1.481  -0.010  -0.853  0.00  0.00     0.078 C 
ATOM      2  C1' OXE d   1      -2.982  -0.400   1.488  0.00  0.00     0.078 C 
ATOM      3  C1  OXE d   1      -1.552  -0.881   1.480  0.00  0.00    -0.078 A 
ATOM      4  C2  OXE d   1      -0.840  -0.728   0.315  0.00  0.00    -0.078 A 
ATOM      5  C3  OXE d   1       0.499  -1.105   0.271  0.00  0.00     0.003 A 
ATOM      6  C4  OXE d   1       1.082  -1.778   1.352  0.00  0.00    -0.002 A 
ATOM      7  C5  OXE d   1       0.362  -1.980   2.534  0.00  0.00    -0.002 A 
ATOM      8  C6  OXE d   1      -0.940  -1.501   2.629  0.00  0.00     0.003 A 
ENDROOT
TORSDOF 0
ENDMDL
