MODEL 1
REMARK minimizedAffinity 1.53217506
REMARK minimizedRMSD -1
REMARK  0 active torsions:
REMARK  status: ('A' for Active; 'I' for Inactive)
ROOT
ATOM      1  C2' OXE d   1      -1.787   0.245   1.542  0.00  0.00     0.078 C 
ATOM      2  C1' OXE d   1      -0.086  -0.936  -0.353  0.00  0.00     0.078 C 
ATOM      3  C1  OXE d   1      -0.062  -1.484   1.052  0.00  0.00    -0.078 A 
ATOM      4  C2  OXE d   1      -0.863  -0.870   1.984  0.00  0.00    -0.078 A 
ATOM      5  C3  OXE d   1      -0.920  -1.371   3.281  0.00  0.00     0.003 A 
ATOM      6  C4  OXE d   1      -0.055  -2.396   3.684  0.00  0.00    -0.002 A 
ATOM      7  C5  OXE d   1       0.798  -3.009   2.760  0.00  0.00    -0.002 A 
ATOM      8  C6  OXE d   1       0.776  -2.594   1.433  0.00  0.00     0.003 A 
ENDROOT
TORSDOF 0
ENDMDL
