MODEL 1
REMARK minimizedAffinity -1.38787091
REMARK minimizedRMSD -1
REMARK  0 active torsions:
REMARK  status: ('A' for Active; 'I' for Inactive)
ROOT
ATOM      1  C2' OXE d   1       1.492  -2.971   1.694  0.00  0.00     0.078 C 
ATOM      2  C1' OXE d   1       0.640  -1.776  -0.699  0.00  0.00     0.078 C 
ATOM      3  C1  OXE d   1      -0.089  -1.408   0.569  0.00  0.00    -0.078 A 
ATOM      4  C2  OXE d   1       0.305  -2.033   1.728  0.00  0.00    -0.078 A 
ATOM      5  C3  OXE d   1      -0.298  -1.689   2.935  0.00  0.00     0.003 A 
ATOM      6  C4  OXE d   1      -1.401  -0.828   2.957  0.00  0.00    -0.002 A 
ATOM      7  C5  OXE d   1      -1.844  -0.211   1.782  0.00  0.00    -0.002 A 
ATOM      8  C6  OXE d   1      -1.173  -0.457   0.589  0.00  0.00     0.003 A 
ENDROOT
TORSDOF 0
ENDMDL
