MODEL 1
REMARK minimizedAffinity 2.39675832
REMARK minimizedRMSD -1
REMARK  0 active torsions:
REMARK  status: ('A' for Active; 'I' for Inactive)
ROOT
ATOM      1  C2' OXE d   1      -0.204   1.018  -0.998  0.00  0.00     0.078 C 
ATOM      2  C1' OXE d   1       1.888   0.384   0.764  0.00  0.00     0.078 C 
ATOM      3  C1  OXE d   1       0.494  -0.049   1.142  0.00  0.00    -0.078 A 
ATOM      4  C2  OXE d   1      -0.530   0.306   0.297  0.00  0.00    -0.078 A 
ATOM      5  C3  OXE d   1      -1.828  -0.115   0.571  0.00  0.00     0.003 A 
ATOM      6  C4  OXE d   1      -2.123  -0.765   1.776  0.00  0.00    -0.002 A 
ATOM      7  C5  OXE d   1      -1.101  -1.101   2.670  0.00  0.00    -0.002 A 
ATOM      8  C6  OXE d   1       0.216  -0.789   2.349  0.00  0.00     0.003 A 
ENDROOT
TORSDOF 0
ENDMDL
