MODEL 1
REMARK minimizedAffinity 3.02116728
REMARK minimizedRMSD -1
REMARK  0 active torsions:
REMARK  status: ('A' for Active; 'I' for Inactive)
ROOT
ATOM      1  C2' OXE d   1       0.835  -0.626   0.363  0.00  0.00     0.078 C 
ATOM      2  C1' OXE d   1      -0.035  -0.807   3.026  0.00  0.00     0.078 C 
ATOM      3  C1  OXE d   1      -1.084  -0.676   1.951  0.00  0.00    -0.078 A 
ATOM      4  C2  OXE d   1      -0.647  -0.541   0.655  0.00  0.00    -0.078 A 
ATOM      5  C3  OXE d   1      -1.574  -0.472  -0.381  0.00  0.00     0.003 A 
ATOM      6  C4  OXE d   1      -2.944  -0.384  -0.103  0.00  0.00    -0.002 A 
ATOM      7  C5  OXE d   1      -3.408  -0.480   1.214  0.00  0.00    -0.002 A 
ATOM      8  C6  OXE d   1      -2.495  -0.668   2.246  0.00  0.00     0.003 A 
ENDROOT
TORSDOF 0
ENDMDL
