MODEL 1
REMARK minimizedAffinity -3.92373466
REMARK minimizedRMSD -1
REMARK  0 active torsions:
REMARK  status: ('A' for Active; 'I' for Inactive)
ROOT
ATOM      1  C1  BNZ d   1      -0.372   0.918   2.018  0.00  0.00     0.000 A 
ATOM      2  C2  BNZ d   1       0.733   0.608   1.270  0.00  0.00     0.000 A 
ATOM      3  C3  BNZ d   1       0.612   0.256  -0.046  0.00  0.00     0.000 A 
ATOM      4  C4  BNZ d   1      -0.615   0.177  -0.600  0.00  0.00     0.000 A 
ATOM      5  C5  BNZ d   1      -1.739   0.477   0.143  0.00  0.00     0.000 A 
ATOM      6  C6  BNZ d   1      -1.610   0.868   1.456  0.00  0.00     0.000 A 
ENDROOT
TORSDOF 0
ENDMDL
