MODEL 1
REMARK minimizedAffinity -3.9436357
REMARK minimizedRMSD -1
REMARK  0 active torsions:
REMARK  status: ('A' for Active; 'I' for Inactive)
ROOT
ATOM      1  C1  BNZ d   1      -1.683  -0.088   0.375  0.00  0.00     0.000 A 
ATOM      2  C2  BNZ d   1      -0.525  -0.597  -0.150  0.00  0.00     0.000 A 
ATOM      3  C3  BNZ d   1       0.687  -0.297   0.408  0.00  0.00     0.000 A 
ATOM      4  C4  BNZ d   1       0.742   0.541   1.463  0.00  0.00     0.000 A 
ATOM      5  C5  BNZ d   1      -0.416   1.069   1.998  0.00  0.00     0.000 A 
ATOM      6  C6  BNZ d   1      -1.637   0.735   1.458  0.00  0.00     0.000 A 
ENDROOT
TORSDOF 0
ENDMDL
