MODEL 1
REMARK minimizedAffinity -2.23315477
REMARK minimizedRMSD -1
REMARK  0 active torsions:
REMARK  status: ('A' for Active; 'I' for Inactive)
ROOT
ATOM      1  C1  BNZ d   1       0.196  -0.994  -1.758  0.00  0.00     0.000 A 
ATOM      2  C2  BNZ d   1       0.611  -1.036  -3.063  0.00  0.00     0.000 A 
ATOM      3  C3  BNZ d   1       1.393  -0.041  -3.581  0.00  0.00     0.000 A 
ATOM      4  C4  BNZ d   1       1.726   1.012  -2.807  0.00  0.00     0.000 A 
ATOM      5  C5  BNZ d   1       1.308   1.073  -1.492  0.00  0.00     0.000 A 
ATOM      6  C6  BNZ d   1       0.553   0.051  -0.963  0.00  0.00     0.000 A 
ENDROOT
TORSDOF 0
ENDMDL
