MODEL 1
REMARK minimizedAffinity -2.27079844
REMARK minimizedRMSD -1
REMARK  0 active torsions:
REMARK  status: ('A' for Active; 'I' for Inactive)
ROOT
ATOM      1  C1  BNZ d   1       0.746   1.054   0.594  0.00  0.00     0.000 A 
ATOM      2  C2  BNZ d   1      -0.017   0.534  -0.417  0.00  0.00     0.000 A 
ATOM      3  C3  BNZ d   1      -0.008  -0.807  -0.682  0.00  0.00     0.000 A 
ATOM      4  C4  BNZ d   1       0.794  -1.619   0.036  0.00  0.00     0.000 A 
ATOM      5  C5  BNZ d   1       1.577  -1.109   1.052  0.00  0.00     0.000 A 
ATOM      6  C6  BNZ d   1       1.536   0.236   1.342  0.00  0.00     0.000 A 
ENDROOT
TORSDOF 0
ENDMDL
