MODEL 1
REMARK minimizedAffinity -3.96668911
REMARK minimizedRMSD -1
REMARK  0 active torsions:
REMARK  status: ('A' for Active; 'I' for Inactive)
ROOT
ATOM      1  C1  BNZ d   1       0.558  -0.877   0.083  0.00  0.00     0.000 A 
ATOM      2  C2  BNZ d   1       0.329  -0.076   1.169  0.00  0.00     0.000 A 
ATOM      3  C3  BNZ d   1      -0.930   0.376   1.452  0.00  0.00     0.000 A 
ATOM      4  C4  BNZ d   1      -1.949   0.060   0.627  0.00  0.00     0.000 A 
ATOM      5  C5  BNZ d   1      -1.732  -0.739  -0.477  0.00  0.00     0.000 A 
ATOM      6  C6  BNZ d   1      -0.471  -1.224  -0.737  0.00  0.00     0.000 A 
ENDROOT
TORSDOF 0
ENDMDL
