MODEL 1
REMARK minimizedAffinity -0.708772659
REMARK minimizedRMSD -1
REMARK  0 active torsions:
REMARK  status: ('A' for Active; 'I' for Inactive)
ROOT
ATOM      1  C1  BNZ d   1       0.564   0.174  -4.285  0.00  0.00     0.000 A 
ATOM      2  C2  BNZ d   1       0.150  -0.549  -3.197  0.00  0.00     0.000 A 
ATOM      3  C3  BNZ d   1       0.946  -0.668  -2.092  0.00  0.00     0.000 A 
ATOM      4  C4  BNZ d   1       2.169  -0.099  -2.092  0.00  0.00     0.000 A 
ATOM      5  C5  BNZ d   1       2.604   0.625  -3.184  0.00  0.00     0.000 A 
ATOM      6  C6  BNZ d   1       1.784   0.775  -4.279  0.00  0.00     0.000 A 
ENDROOT
TORSDOF 0
ENDMDL
