MODEL 1
REMARK minimizedAffinity -5.27536964
REMARK minimizedRMSD -1
REMARK  2 active torsions:
REMARK  status: ('A' for Active; 'I' for Inactive)
REMARK    1  A    between atoms: C2'_3  and  C1'_4 
REMARK    2  A    between atoms: C1'_4  and  C1_5 
ROOT
ATOM      1  C1  I4B d   1       0.378  -0.846  -0.218  0.00  0.00    -0.075 A 
ATOM      2  C2  I4B d   1       1.542  -0.651   0.483  0.00  0.00     0.003 A 
ATOM      3  C3  I4B d   1       2.080   0.652   0.623  0.00  0.00     0.002 A 
ATOM      4  C4  I4B d   1       1.452   1.715   0.007  0.00  0.00    -0.004 A 
ATOM      5  C5  I4B d   1       0.260   1.519  -0.683  0.00  0.00     0.002 A 
ATOM      6  C6  I4B d   1      -0.288   0.232  -0.786  0.00  0.00     0.003 A 
ENDROOT
BRANCH   1   7
ATOM      7  C1' I4B d   1      -0.144  -2.239  -0.374  0.00  0.00     0.060 C 
BRANCH   7   8
ATOM      8  C2' I4B d   1      -0.572  -2.419  -1.816  0.00  0.00    -0.013 C 
ATOM      9  C4' I4B d   1       0.540  -3.002  -2.647  0.00  0.00     0.013 C 
ATOM     10  C3' I4B d   1      -1.782  -3.305  -1.833  0.00  0.00     0.013 C 
ENDBRANCH   7   8
ENDBRANCH   1   7
TORSDOF 2
ENDMDL
