MODEL 1
REMARK minimizedAffinity -2.3451817
REMARK minimizedRMSD -1
REMARK  2 active torsions:
REMARK  status: ('A' for Active; 'I' for Inactive)
REMARK    1  A    between atoms: C2'_3  and  C1'_4 
REMARK    2  A    between atoms: C1'_4  and  C1_5 
ROOT
ATOM      1  C1  I4B d   1      -0.124  -0.847   0.274  0.00  0.00    -0.075 A 
ATOM      2  C2  I4B d   1       0.894   0.008  -0.069  0.00  0.00     0.003 A 
ATOM      3  C3  I4B d   1       0.759   1.400   0.148  0.00  0.00     0.002 A 
ATOM      4  C4  I4B d   1      -0.422   1.897   0.660  0.00  0.00    -0.004 A 
ATOM      5  C5  I4B d   1      -1.444   1.027   1.029  0.00  0.00     0.002 A 
ATOM      6  C6  I4B d   1      -1.290  -0.355   0.847  0.00  0.00     0.003 A 
ENDROOT
BRANCH   1   7
ATOM      7  C1' I4B d   1       0.039  -2.309   0.001  0.00  0.00     0.060 C 
BRANCH   7   8
ATOM      8  C2' I4B d   1      -0.507  -2.588  -1.385  0.00  0.00    -0.013 C 
ATOM      9  C4' I4B d   1       0.508  -3.303  -2.237  0.00  0.00     0.013 C 
ATOM     10  C3' I4B d   1      -1.758  -3.402  -1.234  0.00  0.00     0.013 C 
ENDBRANCH   7   8
ENDBRANCH   1   7
TORSDOF 2
ENDMDL
