MODEL 1
REMARK minimizedAffinity -5.80785418
REMARK minimizedRMSD -1
REMARK  2 active torsions:
REMARK  status: ('A' for Active; 'I' for Inactive)
REMARK    1  A    between atoms: C2'_3  and  C1'_4 
REMARK    2  A    between atoms: C1'_4  and  C1_5 
ROOT
ATOM      1  C1  I4B d   1       0.282   1.568   0.241  0.00  0.00    -0.075 A 
ATOM      2  C2  I4B d   1       0.328   2.940   0.266  0.00  0.00     0.003 A 
ATOM      3  C3  I4B d   1       1.572   3.609   0.357  0.00  0.00     0.002 A 
ATOM      4  C4  I4B d   1       2.733   2.873   0.472  0.00  0.00    -0.004 A 
ATOM      5  C5  I4B d   1       2.686   1.483   0.423  0.00  0.00     0.002 A 
ATOM      6  C6  I4B d   1       1.454   0.826   0.295  0.00  0.00     0.003 A 
ENDROOT
BRANCH   1   7
ATOM      7  C1' I4B d   1      -1.052   0.893   0.177  0.00  0.00     0.060 C 
BRANCH   7   8
ATOM      8  C2' I4B d   1      -1.036  -0.266   1.153  0.00  0.00    -0.013 C 
ATOM      9  C4' I4B d   1      -2.355  -0.394   1.868  0.00  0.00     0.013 C 
ATOM     10  C3' I4B d   1      -0.712  -1.513   0.387  0.00  0.00     0.013 C 
ENDBRANCH   7   8
ENDBRANCH   1   7
TORSDOF 2
ENDMDL
