MODEL 1
REMARK minimizedAffinity -6.68376732
REMARK minimizedRMSD -1
REMARK  2 active torsions:
REMARK  status: ('A' for Active; 'I' for Inactive)
REMARK    1  A    between atoms: C2'_3  and  C1'_4 
REMARK    2  A    between atoms: C1'_4  and  C1_5 
ROOT
ATOM      1  C1  I4B d   1       0.781   0.946   0.133  0.00  0.00    -0.075 A 
ATOM      2  C2  I4B d   1       2.071   0.497   0.271  0.00  0.00     0.003 A 
ATOM      3  C3  I4B d   1       3.047   1.310   0.896  0.00  0.00     0.002 A 
ATOM      4  C4  I4B d   1       2.704   2.577   1.321  0.00  0.00    -0.004 A 
ATOM      5  C5  I4B d   1       1.391   3.023   1.201  0.00  0.00     0.002 A 
ATOM      6  C6  I4B d   1       0.420   2.198   0.615  0.00  0.00     0.003 A 
ENDROOT
BRANCH   1   7
ATOM      7  C1' I4B d   1      -0.216   0.075  -0.562  0.00  0.00     0.060 C 
BRANCH   7   8
ATOM      8  C2' I4B d   1      -0.516  -1.103   0.343  0.00  0.00    -0.013 C 
ATOM      9  C4' I4B d   1      -1.707  -0.826   1.222  0.00  0.00     0.013 C 
ATOM     10  C3' I4B d   1      -0.751  -2.304  -0.524  0.00  0.00     0.013 C 
ENDBRANCH   7   8
ENDBRANCH   1   7
TORSDOF 2
ENDMDL
