MODEL 1
REMARK minimizedAffinity -4.31061459
REMARK minimizedRMSD -1
REMARK  2 active torsions:
REMARK  status: ('A' for Active; 'I' for Inactive)
REMARK    1  A    between atoms: C2'_3  and  C1'_4 
REMARK    2  A    between atoms: C1'_4  and  C1_5 
ROOT
ATOM      1  C1  I4B d   1       0.362   0.824   0.123  0.00  0.00    -0.075 A 
ATOM      2  C2  I4B d   1      -0.440   1.924   0.297  0.00  0.00     0.003 A 
ATOM      3  C3  I4B d   1       0.136   3.201   0.499  0.00  0.00     0.002 A 
ATOM      4  C4  I4B d   1       1.508   3.325   0.570  0.00  0.00    -0.004 A 
ATOM      5  C5  I4B d   1       2.320   2.212   0.371  0.00  0.00     0.002 A 
ATOM      6  C6  I4B d   1       1.745   0.955   0.133  0.00  0.00     0.003 A 
ENDROOT
BRANCH   1   7
ATOM      7  C1' I4B d   1      -0.280  -0.516  -0.055  0.00  0.00     0.060 C 
BRANCH   7   8
ATOM      8  C2' I4B d   1       0.746  -1.446  -0.670  0.00  0.00    -0.013 C 
ATOM      9  C4' I4B d   1       1.440  -2.266   0.385  0.00  0.00     0.013 C 
ATOM     10  C3' I4B d   1       0.039  -2.324  -1.660  0.00  0.00     0.013 C 
ENDBRANCH   7   8
ENDBRANCH   1   7
TORSDOF 2
ENDMDL
