MODEL 1
REMARK minimizedAffinity -3.07212543
REMARK minimizedRMSD -1
REMARK  2 active torsions:
REMARK  status: ('A' for Active; 'I' for Inactive)
REMARK    1  A    between atoms: C2'_3  and  C1'_4 
REMARK    2  A    between atoms: C1'_4  and  C1_5 
ROOT
ATOM      1  C1  I4B d   1       1.150   1.584  -0.372  0.00  0.00    -0.075 A 
ATOM      2  C2  I4B d   1       0.581   2.817  -0.175  0.00  0.00     0.003 A 
ATOM      3  C3  I4B d   1       1.324   3.856   0.437  0.00  0.00     0.002 A 
ATOM      4  C4  I4B d   1       2.606   3.604   0.880  0.00  0.00    -0.004 A 
ATOM      5  C5  I4B d   1       3.190   2.360   0.659  0.00  0.00     0.002 A 
ATOM      6  C6  I4B d   1       2.461   1.347   0.018  0.00  0.00     0.003 A 
ENDROOT
BRANCH   1   7
ATOM      7  C1' I4B d   1       0.325   0.500  -0.991  0.00  0.00     0.060 C 
BRANCH   7   8
ATOM      8  C2' I4B d   1      -0.149  -0.417   0.118  0.00  0.00    -0.013 C 
ATOM      9  C4' I4B d   1      -1.347   0.158   0.826  0.00  0.00     0.013 C 
ATOM     10  C3' I4B d   1      -0.468  -1.751  -0.490  0.00  0.00     0.013 C 
ENDBRANCH   7   8
ENDBRANCH   1   7
TORSDOF 2
ENDMDL
