MODEL 1
REMARK minimizedAffinity -5.32191133
REMARK minimizedRMSD -1
REMARK  2 active torsions:
REMARK  status: ('A' for Active; 'I' for Inactive)
REMARK    1  A    between atoms: C2'_3  and  C1'_4 
REMARK    2  A    between atoms: C1'_4  and  C1_5 
ROOT
ATOM      1  C1  I4B d   1       0.761   1.108  -0.106  0.00  0.00    -0.075 A 
ATOM      2  C2  I4B d   1       2.053   1.169   0.353  0.00  0.00     0.003 A 
ATOM      3  C3  I4B d   1       2.594   2.400   0.797  0.00  0.00     0.002 A 
ATOM      4  C4  I4B d   1       1.830   3.546   0.718  0.00  0.00    -0.004 A 
ATOM      5  C5  I4B d   1       0.512   3.478   0.274  0.00  0.00     0.002 A 
ATOM      6  C6  I4B d   1      -0.030   2.249  -0.129  0.00  0.00     0.003 A 
ENDROOT
BRANCH   1   7
ATOM      7  C1' I4B d   1       0.233  -0.202  -0.599  0.00  0.00     0.060 C 
BRANCH   7   8
ATOM      8  C2' I4B d   1       0.067  -1.118   0.597  0.00  0.00    -0.013 C 
ATOM      9  C4' I4B d   1      -1.190  -0.793   1.362  0.00  0.00     0.013 C 
ATOM     10  C3' I4B d   1       0.047  -2.532   0.099  0.00  0.00     0.013 C 
ENDBRANCH   7   8
ENDBRANCH   1   7
TORSDOF 2
ENDMDL
