MODEL 1
REMARK minimizedAffinity -1.78944504
REMARK minimizedRMSD -1
REMARK  2 active torsions:
REMARK  status: ('A' for Active; 'I' for Inactive)
REMARK    1  A    between atoms: C2'_3  and  C1'_4 
REMARK    2  A    between atoms: C1'_4  and  C1_5 
ROOT
ATOM      1  C1  I4B d   1       0.682   2.930   0.805  0.00  0.00    -0.075 A 
ATOM      2  C2  I4B d   1       1.390   3.079   1.971  0.00  0.00     0.003 A 
ATOM      3  C3  I4B d   1       0.737   2.956   3.222  0.00  0.00     0.002 A 
ATOM      4  C4  I4B d   1      -0.625   2.736   3.259  0.00  0.00    -0.004 A 
ATOM      5  C5  I4B d   1      -1.337   2.563   2.076  0.00  0.00     0.002 A 
ATOM      6  C6  I4B d   1      -0.678   2.648   0.841  0.00  0.00     0.003 A 
ENDROOT
BRANCH   1   7
ATOM      7  C1' I4B d   1       1.396   3.098  -0.498  0.00  0.00     0.060 C 
BRANCH   7   8
ATOM      8  C2' I4B d   1       2.118   1.802  -0.806  0.00  0.00    -0.013 C 
ATOM      9  C4' I4B d   1       3.472   1.763  -0.147  0.00  0.00     0.013 C 
ATOM     10  C3' I4B d   1       1.255   0.669  -0.337  0.00  0.00     0.013 C 
ENDBRANCH   7   8
ENDBRANCH   1   7
TORSDOF 2
ENDMDL
