MODEL 1
REMARK minimizedAffinity -3.86663032
REMARK minimizedRMSD -1
REMARK  2 active torsions:
REMARK  status: ('A' for Active; 'I' for Inactive)
REMARK    1  A    between atoms: C2'_3  and  C1'_4 
REMARK    2  A    between atoms: C1'_4  and  C1_5 
ROOT
ATOM      1  C1  I4B d   1      -0.040  -0.861  -0.763  0.00  0.00    -0.075 A 
ATOM      2  C2  I4B d   1      -0.453  -1.952  -0.041  0.00  0.00     0.003 A 
ATOM      3  C3  I4B d   1      -0.851  -3.138  -0.705  0.00  0.00     0.002 A 
ATOM      4  C4  I4B d   1      -0.869  -3.170  -2.085  0.00  0.00    -0.004 A 
ATOM      5  C5  I4B d   1      -0.427  -2.070  -2.815  0.00  0.00     0.002 A 
ATOM      6  C6  I4B d   1       0.001  -0.912  -2.150  0.00  0.00     0.003 A 
ENDROOT
BRANCH   1   7
ATOM      7  C1' I4B d   1       0.342   0.386  -0.030  0.00  0.00     0.060 C 
BRANCH   7   8
ATOM      8  C2' I4B d   1      -0.929   1.038   0.476  0.00  0.00    -0.013 C 
ATOM      9  C4' I4B d   1      -0.628   2.307   1.229  0.00  0.00     0.013 C 
ATOM     10  C3' I4B d   1      -1.812   1.307  -0.705  0.00  0.00     0.013 C 
ENDBRANCH   7   8
ENDBRANCH   1   7
TORSDOF 2
ENDMDL
