MODEL 1
REMARK minimizedAffinity -2.37703562
REMARK minimizedRMSD -1
REMARK  2 active torsions:
REMARK  status: ('A' for Active; 'I' for Inactive)
REMARK    1  A    between atoms: C2'_3  and  C1'_4 
REMARK    2  A    between atoms: C1'_4  and  C1_5 
ROOT
ATOM      1  C1  I4B d   1      -0.180  -0.179  -0.019  0.00  0.00    -0.075 A 
ATOM      2  C2  I4B d   1       0.912   0.622  -0.244  0.00  0.00     0.003 A 
ATOM      3  C3  I4B d   1       0.811   2.026  -0.084  0.00  0.00     0.002 A 
ATOM      4  C4  I4B d   1      -0.405   2.586   0.250  0.00  0.00    -0.004 A 
ATOM      5  C5  I4B d   1      -1.505   1.771   0.499  0.00  0.00     0.002 A 
ATOM      6  C6  I4B d   1      -1.389   0.379   0.376  0.00  0.00     0.003 A 
ENDROOT
BRANCH   1   7
ATOM      7  C1' I4B d   1      -0.047  -1.654  -0.229  0.00  0.00     0.060 C 
BRANCH   7   8
ATOM      8  C2' I4B d   1      -0.322  -1.944  -1.691  0.00  0.00    -0.013 C 
ATOM      9  C4' I4B d   1       0.959  -2.074  -2.471  0.00  0.00     0.013 C 
ATOM     10  C3' I4B d   1      -1.134  -3.203  -1.768  0.00  0.00     0.013 C 
ENDBRANCH   7   8
ENDBRANCH   1   7
TORSDOF 2
ENDMDL
