MODEL 1
REMARK minimizedAffinity 17.2501259
REMARK minimizedRMSD -1
REMARK  0 active torsions:
REMARK  status: ('A' for Active; 'I' for Inactive)
ROOT
ATOM      1  N1  IND d   1       0.740   1.700  -5.730  0.00  0.00    -0.196 N 
ATOM      2  C2  IND d   1       1.974   1.112  -5.766  0.00  0.00     0.054 A 
ATOM      3  C3  IND d   1       2.939   2.051  -5.888  0.00  0.00    -0.031 A 
ATOM      4  C4  IND d   1       2.727   4.616  -5.944  0.00  0.00     0.051 A 
ATOM      5  C5  IND d   1       1.801   5.620  -5.977  0.00  0.00    -0.031 A 
ATOM      6  C6  IND d   1       0.446   5.363  -5.925  0.00  0.00     0.015 A 
ATOM      7  C7  IND d   1      -0.035   4.088  -5.827  0.00  0.00    -0.016 A 
ATOM      8  C8  IND d   1       0.903   3.066  -5.800  0.00  0.00    -0.047 A 
ATOM      9  C9  IND d   1       2.278   3.317  -5.896  0.00  0.00    -0.096 A 
ATOM     10  HN1 IND d   1      -0.011   1.286  -5.672  0.00  0.00     0.298 HD
ENDROOT
TORSDOF 0
ENDMDL
