MODEL 1
REMARK minimizedAffinity 1.22929966
REMARK minimizedRMSD -1
REMARK  0 active torsions:
REMARK  status: ('A' for Active; 'I' for Inactive)
ROOT
ATOM      1  N1  IND d   1       0.147  -0.551  -0.193  0.00  0.00    -0.196 N 
ATOM      2  C2  IND d   1      -0.601   0.134   0.723  0.00  0.00     0.054 A 
ATOM      3  C3  IND d   1      -0.484   1.466   0.524  0.00  0.00    -0.031 A 
ATOM      4  C4  IND d   1       0.798   2.739  -1.310  0.00  0.00     0.051 A 
ATOM      5  C5  IND d   1       1.659   2.547  -2.353  0.00  0.00    -0.031 A 
ATOM      6  C6  IND d   1       2.066   1.286  -2.740  0.00  0.00     0.015 A 
ATOM      7  C7  IND d   1       1.616   0.165  -2.101  0.00  0.00    -0.016 A 
ATOM      8  C8  IND d   1       0.747   0.357  -1.037  0.00  0.00    -0.047 A 
ATOM      9  C9  IND d   1       0.364   1.636  -0.613  0.00  0.00    -0.096 A 
ATOM     10  HN1 IND d   1       0.228  -1.406  -0.236  0.00  0.00     0.298 HD
ENDROOT
TORSDOF 0
ENDMDL
