MODEL 1
REMARK minimizedAffinity 1.26642585
REMARK minimizedRMSD -1
REMARK  0 active torsions:
REMARK  status: ('A' for Active; 'I' for Inactive)
ROOT
ATOM      1  N1  IND d   1       1.795   2.591   2.096  0.00  0.00    -0.196 N 
ATOM      2  C2  IND d   1       2.670   3.562   1.696  0.00  0.00     0.054 A 
ATOM      3  C3  IND d   1       2.591   3.744   0.358  0.00  0.00    -0.031 A 
ATOM      4  C4  IND d   1       1.024   2.630  -1.354  0.00  0.00     0.051 A 
ATOM      5  C5  IND d   1       0.076   1.653  -1.470  0.00  0.00    -0.031 A 
ATOM      6  C6  IND d   1      -0.359   0.926  -0.381  0.00  0.00     0.015 A 
ATOM      7  C7  IND d   1       0.133   1.157   0.873  0.00  0.00    -0.016 A 
ATOM      8  C8  IND d   1       1.101   2.144   0.993  0.00  0.00    -0.047 A 
ATOM      9  C9  IND d   1       1.577   2.856  -0.116  0.00  0.00    -0.096 A 
ATOM     10  HN1 IND d   1       1.695   2.307   2.901  0.00  0.00     0.298 HD
ENDROOT
TORSDOF 0
ENDMDL
