MODEL 1
REMARK minimizedAffinity 1.43331718
REMARK minimizedRMSD -1
REMARK  0 active torsions:
REMARK  status: ('A' for Active; 'I' for Inactive)
ROOT
ATOM      1  N1  IND d   1      -0.834   5.918  -5.999  0.00  0.00    -0.196 N 
ATOM      2  C2  IND d   1       0.347   5.229  -5.981  0.00  0.00     0.054 A 
ATOM      3  C3  IND d   1       0.115   3.898  -5.941  0.00  0.00    -0.031 A 
ATOM      4  C4  IND d   1      -2.122   2.625  -6.000  0.00  0.00     0.051 A 
ATOM      5  C5  IND d   1      -3.475   2.822  -5.980  0.00  0.00    -0.031 A 
ATOM      6  C6  IND d   1      -4.027   4.087  -5.968  0.00  0.00     0.015 A 
ATOM      7  C7  IND d   1      -3.244   5.206  -5.987  0.00  0.00    -0.016 A 
ATOM      8  C8  IND d   1      -1.871   5.010  -6.000  0.00  0.00    -0.047 A 
ATOM      9  C9  IND d   1      -1.304   3.729  -5.969  0.00  0.00    -0.096 A 
ATOM     10  HN1 IND d   1      -0.916   6.773  -6.008  0.00  0.00     0.298 HD
ENDROOT
TORSDOF 0
ENDMDL
