MODEL 1
REMARK minimizedAffinity 2.38123822
REMARK minimizedRMSD -1
REMARK  0 active torsions:
REMARK  status: ('A' for Active; 'I' for Inactive)
ROOT
ATOM      1  N1  IND d   1      -0.439   4.519  -5.677  0.00  0.00    -0.196 N 
ATOM      2  C2  IND d   1      -0.263   3.172  -5.828  0.00  0.00     0.054 A 
ATOM      3  C3  IND d   1      -1.460   2.550  -5.924  0.00  0.00    -0.031 A 
ATOM      4  C4  IND d   1      -3.829   3.556  -5.960  0.00  0.00     0.051 A 
ATOM      5  C5  IND d   1      -4.499   4.738  -5.816  0.00  0.00    -0.031 A 
ATOM      6  C6  IND d   1      -3.837   5.933  -5.617  0.00  0.00     0.015 A 
ATOM      7  C7  IND d   1      -2.473   5.991  -5.566  0.00  0.00    -0.016 A 
ATOM      8  C8  IND d   1      -1.789   4.791  -5.705  0.00  0.00    -0.047 A 
ATOM      9  C9  IND d   1      -2.457   3.570  -5.864  0.00  0.00    -0.096 A 
ATOM     10  HN1 IND d   1       0.189   5.099  -5.581  0.00  0.00     0.298 HD
ENDROOT
TORSDOF 0
ENDMDL
