MODEL 1
REMARK minimizedAffinity 5.21201992
REMARK minimizedRMSD -1
REMARK  0 active torsions:
REMARK  status: ('A' for Active; 'I' for Inactive)
ROOT
ATOM      1  N1  IND d   1      -3.722  -3.782  -0.381  0.00  0.00    -0.196 N 
ATOM      2  C2  IND d   1      -4.047  -5.101  -0.533  0.00  0.00     0.054 A 
ATOM      3  C3  IND d   1      -3.117  -5.731  -1.285  0.00  0.00    -0.031 A 
ATOM      4  C4  IND d   1      -0.928  -4.816  -2.284  0.00  0.00     0.051 A 
ATOM      5  C5  IND d   1      -0.218  -3.660  -2.444  0.00  0.00    -0.031 A 
ATOM      6  C6  IND d   1      -0.647  -2.461  -1.912  0.00  0.00     0.015 A 
ATOM      7  C7  IND d   1      -1.801  -2.376  -1.186  0.00  0.00    -0.016 A 
ATOM      8  C8  IND d   1      -2.529  -3.547  -1.028  0.00  0.00    -0.047 A 
ATOM      9  C9  IND d   1      -2.121  -4.758  -1.602  0.00  0.00    -0.096 A 
ATOM     10  HN1 IND d   1      -4.186  -3.197   0.046  0.00  0.00     0.298 HD
ENDROOT
TORSDOF 0
ENDMDL
