MODEL 1
REMARK minimizedAffinity 0.062450964
REMARK minimizedRMSD -1
REMARK  0 active torsions:
REMARK  status: ('A' for Active; 'I' for Inactive)
ROOT
ATOM      1  N1  IND d   1      -2.185   6.000  -5.920  0.00  0.00    -0.196 N 
ATOM      2  C2  IND d   1      -3.536   5.791  -5.939  0.00  0.00     0.054 A 
ATOM      3  C3  IND d   1      -3.807   4.467  -5.999  0.00  0.00    -0.031 A 
ATOM      4  C4  IND d   1      -2.189   2.465  -5.972  0.00  0.00     0.051 A 
ATOM      5  C5  IND d   1      -0.858   2.155  -5.999  0.00  0.00    -0.031 A 
ATOM      6  C6  IND d   1       0.118   3.130  -5.997  0.00  0.00     0.015 A 
ATOM      7  C7  IND d   1      -0.202   4.458  -5.958  0.00  0.00    -0.016 A 
ATOM      8  C8  IND d   1      -1.552   4.776  -5.938  0.00  0.00    -0.047 A 
ATOM      9  C9  IND d   1      -2.548   3.792  -5.983  0.00  0.00    -0.096 A 
ATOM     10  HN1 IND d   1      -1.797   6.766  -5.900  0.00  0.00     0.298 HD
ENDROOT
TORSDOF 0
ENDMDL
