MODEL 1
REMARK minimizedAffinity -3.11328149
REMARK minimizedRMSD -1
REMARK  0 active torsions:
REMARK  status: ('A' for Active; 'I' for Inactive)
ROOT
ATOM      1  N1  IND d   1       0.250   4.841  -6.000  0.00  0.00    -0.196 N 
ATOM      2  C2  IND d   1       0.759   3.573  -5.987  0.00  0.00     0.054 A 
ATOM      3  C3  IND d   1      -0.241   2.664  -5.947  0.00  0.00    -0.031 A 
ATOM      4  C4  IND d   1      -2.789   3.034  -6.000  0.00  0.00     0.051 A 
ATOM      5  C5  IND d   1      -3.735   4.020  -5.975  0.00  0.00    -0.031 A 
ATOM      6  C6  IND d   1      -3.394   5.357  -5.960  0.00  0.00     0.015 A 
ATOM      7  C7  IND d   1      -2.089   5.760  -5.981  0.00  0.00    -0.016 A 
ATOM      8  C8  IND d   1      -1.125   4.761  -5.998  0.00  0.00    -0.047 A 
ATOM      9  C9  IND d   1      -1.464   3.402  -5.971  0.00  0.00    -0.096 A 
ATOM     10  HN1 IND d   1       0.711   5.567  -6.008  0.00  0.00     0.298 HD
ENDROOT
TORSDOF 0
ENDMDL
