MODEL 1
REMARK minimizedAffinity -3.85863161
REMARK minimizedRMSD -1
REMARK  0 active torsions:
REMARK  status: ('A' for Active; 'I' for Inactive)
ROOT
ATOM      1  N1  IND d   1      -0.124   5.636  -5.850  0.00  0.00    -0.196 N 
ATOM      2  C2  IND d   1       0.709   4.557  -5.961  0.00  0.00     0.054 A 
ATOM      3  C3  IND d   1      -0.008   3.412  -6.000  0.00  0.00    -0.031 A 
ATOM      4  C4  IND d   1      -2.561   3.079  -6.000  0.00  0.00     0.051 A 
ATOM      5  C5  IND d   1      -3.736   3.764  -5.876  0.00  0.00    -0.031 A 
ATOM      6  C6  IND d   1      -3.769   5.137  -5.737  0.00  0.00     0.015 A 
ATOM      7  C7  IND d   1      -2.622   5.879  -5.728  0.00  0.00    -0.016 A 
ATOM      8  C8  IND d   1      -1.426   5.186  -5.847  0.00  0.00    -0.047 A 
ATOM      9  C9  IND d   1      -1.385   3.789  -5.945  0.00  0.00    -0.096 A 
ATOM     10  HN1 IND d   1       0.124   6.457  -5.792  0.00  0.00     0.298 HD
ENDROOT
TORSDOF 0
ENDMDL
