MODEL 1
REMARK minimizedAffinity 1.01511812
REMARK minimizedRMSD -1
REMARK  0 active torsions:
REMARK  status: ('A' for Active; 'I' for Inactive)
ROOT
ATOM      1  N1  IND d   1      -0.772   1.902  -5.957  0.00  0.00    -0.196 N 
ATOM      2  C2  IND d   1       0.595   1.891  -5.964  0.00  0.00     0.054 A 
ATOM      3  C3  IND d   1       1.075   3.154  -6.000  0.00  0.00    -0.031 A 
ATOM      4  C4  IND d   1      -0.199   5.391  -5.950  0.00  0.00     0.051 A 
ATOM      5  C5  IND d   1      -1.462   5.912  -5.979  0.00  0.00    -0.031 A 
ATOM      6  C6  IND d   1      -2.582   5.107  -6.000  0.00  0.00     0.015 A 
ATOM      7  C7  IND d   1      -2.481   3.744  -5.981  0.00  0.00    -0.016 A 
ATOM      8  C8  IND d   1      -1.200   3.212  -5.958  0.00  0.00    -0.047 A 
ATOM      9  C9  IND d   1      -0.058   4.023  -5.980  0.00  0.00    -0.096 A 
ATOM     10  HN1 IND d   1      -1.279   1.208  -5.952  0.00  0.00     0.298 HD
ENDROOT
TORSDOF 0
ENDMDL
