MODEL 1
REMARK minimizedAffinity -1.94809926
REMARK minimizedRMSD -1
REMARK  0 active torsions:
REMARK  status: ('A' for Active; 'I' for Inactive)
ROOT
ATOM      1  N1  IND d   1      -3.362   4.193  -5.993  0.00  0.00    -0.196 N 
ATOM      2  C2  IND d   1      -3.330   5.560  -5.991  0.00  0.00     0.054 A 
ATOM      3  C3  IND d   1      -2.052   6.000  -5.954  0.00  0.00    -0.031 A 
ATOM      4  C4  IND d   1       0.143   4.655  -5.996  0.00  0.00     0.051 A 
ATOM      5  C5  IND d   1       0.624   3.376  -5.961  0.00  0.00    -0.031 A 
ATOM      6  C6  IND d   1      -0.217   2.282  -5.937  0.00  0.00     0.015 A 
ATOM      7  C7  IND d   1      -1.575   2.427  -5.959  0.00  0.00    -0.016 A 
ATOM      8  C8  IND d   1      -2.067   3.724  -5.987  0.00  0.00    -0.047 A 
ATOM      9  C9  IND d   1      -1.219   4.839  -5.968  0.00  0.00    -0.096 A 
ATOM     10  HN1 IND d   1      -4.072   3.708  -5.996  0.00  0.00     0.298 HD
ENDROOT
TORSDOF 0
ENDMDL
