MODEL 1
REMARK minimizedAffinity -2.84081721
REMARK minimizedRMSD -1
REMARK  0 active torsions:
REMARK  status: ('A' for Active; 'I' for Inactive)
ROOT
ATOM      1  N1  IND d   1      -3.828   4.073  -5.996  0.00  0.00    -0.196 N 
ATOM      2  C2  IND d   1      -3.929   5.436  -5.976  0.00  0.00     0.054 A 
ATOM      3  C3  IND d   1      -2.700   5.998  -5.934  0.00  0.00    -0.031 A 
ATOM      4  C4  IND d   1      -0.384   4.875  -5.994  0.00  0.00     0.051 A 
ATOM      5  C5  IND d   1       0.219   3.649  -5.978  0.00  0.00    -0.031 A 
ATOM      6  C6  IND d   1      -0.511   2.477  -5.969  0.00  0.00     0.015 A 
ATOM      7  C7  IND d   1      -1.877   2.489  -5.988  0.00  0.00    -0.016 A 
ATOM      8  C8  IND d   1      -2.493   3.732  -5.998  0.00  0.00    -0.047 A 
ATOM      9  C9  IND d   1      -1.758   4.925  -5.964  0.00  0.00    -0.096 A 
ATOM     10  HN1 IND d   1      -4.487   3.521  -6.007  0.00  0.00     0.298 HD
ENDROOT
TORSDOF 0
ENDMDL
