MODEL 1
REMARK minimizedAffinity -2.05488968
REMARK minimizedRMSD -1
REMARK  0 active torsions:
REMARK  status: ('A' for Active; 'I' for Inactive)
ROOT
ATOM      1  N1  IND d   1      -0.398   4.234  -3.939  0.00  0.00    -0.196 N 
ATOM      2  C2  IND d   1       0.271   3.791  -5.046  0.00  0.00     0.054 A 
ATOM      3  C3  IND d   1      -0.605   3.402  -6.000  0.00  0.00    -0.031 A 
ATOM      4  C4  IND d   1      -3.177   3.502  -5.998  0.00  0.00     0.051 A 
ATOM      5  C5  IND d   1      -4.243   3.798  -5.195  0.00  0.00    -0.031 A 
ATOM      6  C6  IND d   1      -4.078   4.267  -3.908  0.00  0.00     0.015 A 
ATOM      7  C7  IND d   1      -2.836   4.468  -3.377  0.00  0.00    -0.016 A 
ATOM      8  C8  IND d   1      -1.751   4.162  -4.186  0.00  0.00    -0.047 A 
ATOM      9  C9  IND d   1      -1.912   3.646  -5.479  0.00  0.00    -0.096 A 
ATOM     10  HN1 IND d   1      -0.034   4.512  -3.211  0.00  0.00     0.298 HD
ENDROOT
TORSDOF 0
ENDMDL
