MODEL 1
REMARK minimizedAffinity 11.0033159
REMARK minimizedRMSD -1
REMARK  0 active torsions:
REMARK  status: ('A' for Active; 'I' for Inactive)
ROOT
ATOM      1  N1  IND d   1       2.467   1.858  -5.178  0.00  0.00    -0.196 N 
ATOM      2  C2  IND d   1       2.367   0.770  -6.000  0.00  0.00     0.054 A 
ATOM      3  C3  IND d   1       2.172  -0.353  -5.272  0.00  0.00    -0.031 A 
ATOM      4  C4  IND d   1       1.881  -0.623  -2.729  0.00  0.00     0.051 A 
ATOM      5  C5  IND d   1       1.929   0.081  -1.558  0.00  0.00    -0.031 A 
ATOM      6  C6  IND d   1       2.162   1.441  -1.534  0.00  0.00     0.015 A 
ATOM      7  C7  IND d   1       2.343   2.153  -2.686  0.00  0.00    -0.016 A 
ATOM      8  C8  IND d   1       2.302   1.440  -3.876  0.00  0.00    -0.047 A 
ATOM      9  C9  IND d   1       2.109   0.053  -3.904  0.00  0.00    -0.096 A 
ATOM     10  HN1 IND d   1       2.608   2.667  -5.432  0.00  0.00     0.298 HD
ENDROOT
TORSDOF 0
ENDMDL
