MODEL 1
REMARK minimizedAffinity 7.91145372
REMARK minimizedRMSD -1
REMARK  0 active torsions:
REMARK  status: ('A' for Active; 'I' for Inactive)
ROOT
ATOM      1  N1  IND d   1       0.805   2.146   2.488  0.00  0.00    -0.196 N 
ATOM      2  C2  IND d   1       0.042   2.307   1.366  0.00  0.00     0.054 A 
ATOM      3  C3  IND d   1       0.735   2.977   0.418  0.00  0.00    -0.031 A 
ATOM      4  C4  IND d   1       3.169   3.815   0.457  0.00  0.00     0.051 A 
ATOM      5  C5  IND d   1       4.254   3.934   1.280  0.00  0.00    -0.031 A 
ATOM      6  C6  IND d   1       4.246   3.451   2.572  0.00  0.00     0.015 A 
ATOM      7  C7  IND d   1       3.151   2.818   3.089  0.00  0.00    -0.016 A 
ATOM      8  C8  IND d   1       2.045   2.702   2.259  0.00  0.00    -0.047 A 
ATOM      9  C9  IND d   1       2.033   3.228   0.961  0.00  0.00    -0.096 A 
ATOM     10  HN1 IND d   1       0.553   1.763   3.216  0.00  0.00     0.298 HD
ENDROOT
TORSDOF 0
ENDMDL
