MODEL 1
REMARK minimizedAffinity -1.18861687
REMARK minimizedRMSD -1
REMARK  0 active torsions:
REMARK  status: ('A' for Active; 'I' for Inactive)
ROOT
ATOM      1  N1  IND d   1      -2.836   3.761  -5.994  0.00  0.00    -0.196 N 
ATOM      2  C2  IND d   1      -3.518   4.945  -5.972  0.00  0.00     0.054 A 
ATOM      3  C3  IND d   1      -2.655   5.985  -5.931  0.00  0.00    -0.031 A 
ATOM      4  C4  IND d   1      -0.081   5.977  -5.994  0.00  0.00     0.051 A 
ATOM      5  C5  IND d   1       0.994   5.133  -5.979  0.00  0.00    -0.031 A 
ATOM      6  C6  IND d   1       0.845   3.761  -5.971  0.00  0.00     0.015 A 
ATOM      7  C7  IND d   1      -0.391   3.179  -5.989  0.00  0.00    -0.016 A 
ATOM      8  C8  IND d   1      -1.485   4.033  -5.997  0.00  0.00    -0.047 A 
ATOM      9  C9  IND d   1      -1.340   5.426  -5.963  0.00  0.00    -0.096 A 
ATOM     10  HN1 IND d   1      -3.190   2.978  -6.005  0.00  0.00     0.298 HD
ENDROOT
TORSDOF 0
ENDMDL
