MODEL 1
REMARK minimizedAffinity -6.29899549
REMARK minimizedRMSD -1
REMARK  2 active torsions:
REMARK  status: ('A' for Active; 'I' for Inactive)
REMARK    1  A    between atoms: C1_2  and  C2_3 
REMARK    2  A    between atoms: C2_3  and  C3_4 
ROOT
ATOM      1  C3  UNL d   1       0.808   0.466   0.034  0.00  0.00    -0.075 A 
ATOM      2  C4  UNL d   1       1.888   1.057   0.705  0.00  0.00     0.002 A 
ATOM      3  C5  UNL d   1       3.012   0.303   1.041  0.00  0.00     0.002 A 
ATOM      4  C6  UNL d   1       3.066  -1.052   0.720  0.00  0.00    -0.004 A 
ATOM      5  C7  UNL d   1       1.992  -1.654   0.068  0.00  0.00     0.002 A 
ATOM      6  C8  UNL d   1       0.868  -0.900  -0.273  0.00  0.00     0.002 A 
ENDROOT
BRANCH   1   7
ATOM      7  C2  UNL d   1      -0.399   1.284  -0.359  0.00  0.00     0.056 C 
BRANCH   7   8
ATOM      8  C1  UNL d   1      -1.738   0.580  -0.112  0.00  0.00     0.007 C 
ATOM      9  C   UNL d   1      -2.657   1.349   0.827  0.00  0.00     0.009 C 
ENDBRANCH   7   8
ENDBRANCH   1   7
TORSDOF 2
ENDMDL
