MODEL 1
REMARK minimizedAffinity -5.20506191
REMARK minimizedRMSD -1
REMARK  2 active torsions:
REMARK  status: ('A' for Active; 'I' for Inactive)
REMARK    1  A    between atoms: C1_2  and  C2_3 
REMARK    2  A    between atoms: C2_3  and  C3_4 
ROOT
ATOM      1  C3  UNL d   1      -0.038   0.144  -0.064  0.00  0.00    -0.075 A 
ATOM      2  C4  UNL d   1       0.982   0.492   0.833  0.00  0.00     0.002 A 
ATOM      3  C5  UNL d   1       2.074  -0.354   1.026  0.00  0.00     0.002 A 
ATOM      4  C6  UNL d   1       2.155  -1.561   0.336  0.00  0.00    -0.004 A 
ATOM      5  C7  UNL d   1       1.139  -1.925  -0.545  0.00  0.00     0.002 A 
ATOM      6  C8  UNL d   1       0.047  -1.078  -0.744  0.00  0.00     0.002 A 
ENDROOT
BRANCH   1   7
ATOM      7  C2  UNL d   1      -1.208   1.069  -0.300  0.00  0.00     0.056 C 
BRANCH   7   8
ATOM      8  C1  UNL d   1      -2.468   0.695   0.488  0.00  0.00     0.007 C 
ATOM      9  C   UNL d   1      -3.140   1.891   1.149  0.00  0.00     0.009 C 
ENDBRANCH   7   8
ENDBRANCH   1   7
TORSDOF 2
ENDMDL
