MODEL 1
REMARK minimizedAffinity -5.01355362
REMARK minimizedRMSD -1
REMARK  2 active torsions:
REMARK  status: ('A' for Active; 'I' for Inactive)
REMARK    1  A    between atoms: C1_2  and  C2_3 
REMARK    2  A    between atoms: C2_3  and  C3_4 
ROOT
ATOM      1  C3  UNL d   1      -0.138  -0.080  -0.158  0.00  0.00    -0.075 A 
ATOM      2  C4  UNL d   1       0.584   0.581   0.847  0.00  0.00     0.002 A 
ATOM      3  C5  UNL d   1       1.888   0.190   1.154  0.00  0.00     0.002 A 
ATOM      4  C6  UNL d   1       2.481  -0.869   0.471  0.00  0.00    -0.004 A 
ATOM      5  C7  UNL d   1       1.766  -1.543  -0.517  0.00  0.00     0.002 A 
ATOM      6  C8  UNL d   1       0.463  -1.151  -0.830  0.00  0.00     0.002 A 
ENDROOT
BRANCH   1   7
ATOM      7  C2  UNL d   1      -1.539   0.357  -0.516  0.00  0.00     0.056 C 
BRANCH   7   8
ATOM      8  C1  UNL d   1      -2.378   0.807   0.685  0.00  0.00     0.007 C 
ATOM      9  C   UNL d   1      -3.868   0.546   0.508  0.00  0.00     0.009 C 
ENDBRANCH   7   8
ENDBRANCH   1   7
TORSDOF 2
ENDMDL
