MODEL 1
REMARK minimizedAffinity -4.41252184
REMARK minimizedRMSD -1
REMARK  2 active torsions:
REMARK  status: ('A' for Active; 'I' for Inactive)
REMARK    1  A    between atoms: C1_2  and  C2_3 
REMARK    2  A    between atoms: C2_3  and  C3_4 
ROOT
ATOM      1  C3  UNL d   1      -1.376   0.368   0.151  0.00  0.00    -0.075 A 
ATOM      2  C4  UNL d   1      -1.707  -0.115   1.425  0.00  0.00     0.002 A 
ATOM      3  C5  UNL d   1      -3.000   0.038   1.927  0.00  0.00     0.002 A 
ATOM      4  C6  UNL d   1      -3.973   0.684   1.168  0.00  0.00    -0.004 A 
ATOM      5  C7  UNL d   1      -3.651   1.182  -0.093  0.00  0.00     0.002 A 
ATOM      6  C8  UNL d   1      -2.359   1.026  -0.600  0.00  0.00     0.002 A 
ENDROOT
BRANCH   1   7
ATOM      7  C2  UNL d   1       0.013   0.178  -0.410  0.00  0.00     0.056 C 
BRANCH   7   8
ATOM      8  C1  UNL d   1       0.510  -1.271  -0.370  0.00  0.00     0.007 C 
ATOM      9  C   UNL d   1       2.028  -1.384  -0.334  0.00  0.00     0.009 C 
ENDBRANCH   7   8
ENDBRANCH   1   7
TORSDOF 2
ENDMDL
