MODEL 1
REMARK minimizedAffinity -5.53387022
REMARK minimizedRMSD -1
REMARK  2 active torsions:
REMARK  status: ('A' for Active; 'I' for Inactive)
REMARK    1  A    between atoms: C1_2  and  C2_3 
REMARK    2  A    between atoms: C2_3  and  C3_4 
ROOT
ATOM      1  C3  UNL d   1       1.057   0.035   0.188  0.00  0.00    -0.075 A 
ATOM      2  C4  UNL d   1       1.461   1.375   0.280  0.00  0.00     0.002 A 
ATOM      3  C5  UNL d   1       2.803   1.697   0.483  0.00  0.00     0.002 A 
ATOM      4  C6  UNL d   1       3.754   0.687   0.606  0.00  0.00    -0.004 A 
ATOM      5  C7  UNL d   1       3.362  -0.647   0.532  0.00  0.00     0.002 A 
ATOM      6  C8  UNL d   1       2.020  -0.973   0.325  0.00  0.00     0.002 A 
ENDROOT
BRANCH   1   7
ATOM      7  C2  UNL d   1      -0.390  -0.320  -0.061  0.00  0.00     0.056 C 
BRANCH   7   8
ATOM      8  C1  UNL d   1      -1.247   0.855  -0.543  0.00  0.00     0.007 C 
ATOM      9  C   UNL d   1      -2.612   0.917   0.127  0.00  0.00     0.009 C 
ENDBRANCH   7   8
ENDBRANCH   1   7
TORSDOF 2
ENDMDL
