MODEL 1
REMARK minimizedAffinity -3.2913363
REMARK minimizedRMSD -1
REMARK  3 active torsions:
REMARK  status: ('A' for Active; 'I' for Inactive)
REMARK    1  A    between atoms: C3'_2  and  C2'_3 
REMARK    2  A    between atoms: C2'_3  and  C1'_4 
REMARK    3  A    between atoms: C1'_4  and  C1_5 
ROOT
ATOM      1  C1  N4B d   1       0.009  -0.077  -0.650  0.00  0.00    -0.075 A 
ATOM      2  C2  N4B d   1      -1.071  -0.963  -0.441  0.00  0.00     0.002 A 
ATOM      3  C3  N4B d   1      -2.116  -0.994  -1.332  0.00  0.00     0.002 A 
ATOM      4  C4  N4B d   1      -2.112  -0.139  -2.423  0.00  0.00    -0.004 A 
ATOM      5  C5  N4B d   1      -1.054   0.696  -2.632  0.00  0.00     0.002 A 
ATOM      6  C6  N4B d   1       0.005   0.735  -1.747  0.00  0.00     0.002 A 
ENDROOT
BRANCH   1   7
ATOM      7  C1' N4B d   1       1.132   0.053   0.342  0.00  0.00     0.057 C 
BRANCH   7   8
ATOM      8  C2' N4B d   1       1.162   1.481   0.880  0.00  0.00     0.009 C 
BRANCH   8   9
ATOM      9  C3' N4B d   1       2.560   2.073   0.842  0.00  0.00     0.004 C 
ATOM     10  C4' N4B d   1       2.843   2.967   2.012  0.00  0.00     0.003 C 
ENDBRANCH   8   9
ENDBRANCH   7   8
ENDBRANCH   1   7
TORSDOF 3
ENDMDL
