MODEL 1
REMARK minimizedAffinity -2.72002959
REMARK minimizedRMSD -1
REMARK  3 active torsions:
REMARK  status: ('A' for Active; 'I' for Inactive)
REMARK    1  A    between atoms: C3'_2  and  C2'_3 
REMARK    2  A    between atoms: C2'_3  and  C1'_4 
REMARK    3  A    between atoms: C1'_4  and  C1_5 
ROOT
ATOM      1  C1  N4B d   1       0.374   0.330  -0.346  0.00  0.00    -0.075 A 
ATOM      2  C2  N4B d   1      -0.097   1.345  -1.207  0.00  0.00     0.002 A 
ATOM      3  C3  N4B d   1      -1.292   1.187  -1.865  0.00  0.00     0.002 A 
ATOM      4  C4  N4B d   1      -2.021   0.020  -1.693  0.00  0.00    -0.004 A 
ATOM      5  C5  N4B d   1      -1.571  -0.945  -0.839  0.00  0.00     0.002 A 
ATOM      6  C6  N4B d   1      -0.374  -0.798  -0.168  0.00  0.00     0.002 A 
ENDROOT
BRANCH   1   7
ATOM      7  C1' N4B d   1       1.716   0.420   0.328  0.00  0.00     0.057 C 
BRANCH   7   8
ATOM      8  C2' N4B d   1       2.460   1.644  -0.199  0.00  0.00     0.009 C 
BRANCH   8   9
ATOM      9  C3' N4B d   1       2.736   2.657   0.899  0.00  0.00     0.004 C 
ATOM     10  C4' N4B d   1       2.635   2.066   2.273  0.00  0.00     0.003 C 
ENDBRANCH   8   9
ENDBRANCH   7   8
ENDBRANCH   1   7
TORSDOF 3
ENDMDL
