MODEL 1
REMARK minimizedAffinity -4.00770903
REMARK minimizedRMSD -1
REMARK  3 active torsions:
REMARK  status: ('A' for Active; 'I' for Inactive)
REMARK    1  A    between atoms: C3'_2  and  C2'_3 
REMARK    2  A    between atoms: C2'_3  and  C1'_4 
REMARK    3  A    between atoms: C1'_4  and  C1_5 
ROOT
ATOM      1  C1  N4B d   1       0.339  -0.523  -0.182  0.00  0.00    -0.075 A 
ATOM      2  C2  N4B d   1      -0.536  -1.587   0.130  0.00  0.00     0.002 A 
ATOM      3  C3  N4B d   1      -1.776  -1.650  -0.457  0.00  0.00     0.002 A 
ATOM      4  C4  N4B d   1      -2.168  -0.656  -1.341  0.00  0.00    -0.004 A 
ATOM      5  C5  N4B d   1      -1.307   0.354  -1.657  0.00  0.00     0.002 A 
ATOM      6  C6  N4B d   1      -0.056   0.428  -1.077  0.00  0.00     0.002 A 
ENDROOT
BRANCH   1   7
ATOM      7  C1' N4B d   1       1.671  -0.365   0.499  0.00  0.00     0.057 C 
BRANCH   7   8
ATOM      8  C2' N4B d   1       2.198   1.044   0.246  0.00  0.00     0.009 C 
BRANCH   8   9
ATOM      9  C3' N4B d   1       2.724   1.691   1.516  0.00  0.00     0.004 C 
ATOM     10  C4' N4B d   1       3.016   3.152   1.346  0.00  0.00     0.003 C 
ENDBRANCH   8   9
ENDBRANCH   7   8
ENDBRANCH   1   7
TORSDOF 3
ENDMDL
