MODEL 1
REMARK minimizedAffinity -2.04193735
REMARK minimizedRMSD -1
REMARK  3 active torsions:
REMARK  status: ('A' for Active; 'I' for Inactive)
REMARK    1  A    between atoms: C3'_2  and  C2'_3 
REMARK    2  A    between atoms: C2'_3  and  C1'_4 
REMARK    3  A    between atoms: C1'_4  and  C1_5 
ROOT
ATOM      1  C1  N4B d   1      -0.499  -0.245  -0.363  0.00  0.00    -0.075 A 
ATOM      2  C2  N4B d   1      -0.302  -1.227   0.632  0.00  0.00     0.002 A 
ATOM      3  C3  N4B d   1      -1.148  -2.307   0.709  0.00  0.00     0.002 A 
ATOM      4  C4  N4B d   1      -2.204  -2.415  -0.184  0.00  0.00    -0.004 A 
ATOM      5  C5  N4B d   1      -2.372  -1.476  -1.158  0.00  0.00     0.002 A 
ATOM      6  C6  N4B d   1      -1.527  -0.388  -1.249  0.00  0.00     0.002 A 
ENDROOT
BRANCH   1   7
ATOM      7  C1' N4B d   1       0.347   0.996  -0.433  0.00  0.00     0.057 C 
BRANCH   7   8
ATOM      8  C2' N4B d   1       1.729   0.693   0.138  0.00  0.00     0.009 C 
BRANCH   8   9
ATOM      9  C3' N4B d   1       2.655   1.894   0.055  0.00  0.00     0.004 C 
ATOM     10  C4' N4B d   1       2.586   2.766   1.273  0.00  0.00     0.003 C 
ENDBRANCH   8   9
ENDBRANCH   7   8
ENDBRANCH   1   7
TORSDOF 3
ENDMDL
