MODEL 1
REMARK minimizedAffinity -4.34886694
REMARK minimizedRMSD -1
REMARK  3 active torsions:
REMARK  status: ('A' for Active; 'I' for Inactive)
REMARK    1  A    between atoms: C3'_2  and  C2'_3 
REMARK    2  A    between atoms: C2'_3  and  C1'_4 
REMARK    3  A    between atoms: C1'_4  and  C1_5 
ROOT
ATOM      1  C1  N4B d   1      -0.460  -0.690  -0.136  0.00  0.00    -0.075 A 
ATOM      2  C2  N4B d   1      -0.390  -1.746   0.799  0.00  0.00     0.002 A 
ATOM      3  C3  N4B d   1      -1.346  -2.732   0.795  0.00  0.00     0.002 A 
ATOM      4  C4  N4B d   1      -2.387  -2.674  -0.120  0.00  0.00    -0.004 A 
ATOM      5  C5  N4B d   1      -2.433  -1.665  -1.036  0.00  0.00     0.002 A 
ATOM      6  C6  N4B d   1      -1.477  -0.669  -1.046  0.00  0.00     0.002 A 
ENDROOT
BRANCH   1   7
ATOM      7  C1' N4B d   1       0.513   0.456  -0.115  0.00  0.00     0.057 C 
BRANCH   7   8
ATOM      8  C2' N4B d   1       1.901  -0.071   0.239  0.00  0.00     0.009 C 
BRANCH   8   9
ATOM      9  C3' N4B d   1       2.919   1.049   0.367  0.00  0.00     0.004 C 
ATOM     10  C4' N4B d   1       2.470   2.138   1.294  0.00  0.00     0.003 C 
ENDBRANCH   8   9
ENDBRANCH   7   8
ENDBRANCH   1   7
TORSDOF 3
ENDMDL
