MODEL 1
REMARK minimizedAffinity -4.36945152
REMARK minimizedRMSD -1
REMARK  3 active torsions:
REMARK  status: ('A' for Active; 'I' for Inactive)
REMARK    1  A    between atoms: C3'_2  and  C2'_3 
REMARK    2  A    between atoms: C2'_3  and  C1'_4 
REMARK    3  A    between atoms: C1'_4  and  C1_5 
ROOT
ATOM      1  C1  N4B d   1       0.071  -1.273   0.197  0.00  0.00    -0.075 A 
ATOM      2  C2  N4B d   1      -0.726  -0.778  -0.858  0.00  0.00     0.002 A 
ATOM      3  C3  N4B d   1      -1.923  -1.380  -1.155  0.00  0.00     0.002 A 
ATOM      4  C4  N4B d   1      -2.334  -2.486  -0.427  0.00  0.00    -0.004 A 
ATOM      5  C5  N4B d   1      -1.571  -2.943   0.607  0.00  0.00     0.002 A 
ATOM      6  C6  N4B d   1      -0.367  -2.345   0.920  0.00  0.00     0.002 A 
ENDROOT
BRANCH   1   7
ATOM      7  C1' N4B d   1       1.428  -0.701   0.504  0.00  0.00     0.057 C 
BRANCH   7   8
ATOM      8  C2' N4B d   1       1.493   0.736  -0.005  0.00  0.00     0.009 C 
BRANCH   8   9
ATOM      9  C3' N4B d   1       2.730   1.461   0.495  0.00  0.00     0.004 C 
ATOM     10  C4' N4B d   1       2.411   2.773   1.147  0.00  0.00     0.003 C 
ENDBRANCH   8   9
ENDBRANCH   7   8
ENDBRANCH   1   7
TORSDOF 3
ENDMDL
