MODEL 1
REMARK minimizedAffinity -1.63254106
REMARK minimizedRMSD -1
REMARK  3 active torsions:
REMARK  status: ('A' for Active; 'I' for Inactive)
REMARK    1  A    between atoms: C3'_2  and  C2'_3 
REMARK    2  A    between atoms: C2'_3  and  C1'_4 
REMARK    3  A    between atoms: C1'_4  and  C1_5 
ROOT
ATOM      1  C1  N4B d   1       0.091   0.016  -0.322  0.00  0.00    -0.075 A 
ATOM      2  C2  N4B d   1      -0.493   0.800  -1.341  0.00  0.00     0.002 A 
ATOM      3  C3  N4B d   1      -1.669   0.399  -1.927  0.00  0.00     0.002 A 
ATOM      4  C4  N4B d   1      -2.266  -0.786  -1.525  0.00  0.00    -0.004 A 
ATOM      5  C5  N4B d   1      -1.709  -1.524  -0.522  0.00  0.00     0.002 A 
ATOM      6  C6  N4B d   1      -0.529  -1.132   0.078  0.00  0.00     0.002 A 
ENDROOT
BRANCH   1   7
ATOM      7  C1' N4B d   1       1.420   0.369   0.288  0.00  0.00     0.057 C 
BRANCH   7   8
ATOM      8  C2' N4B d   1       1.279   1.663   1.083  0.00  0.00     0.009 C 
BRANCH   8   9
ATOM      9  C3' N4B d   1       2.628   2.248   1.461  0.00  0.00     0.004 C 
ATOM     10  C4' N4B d   1       2.758   3.696   1.091  0.00  0.00     0.003 C 
ENDBRANCH   8   9
ENDBRANCH   7   8
ENDBRANCH   1   7
TORSDOF 3
ENDMDL
