MODEL 1
REMARK minimizedAffinity -3.14716029
REMARK minimizedRMSD -1
REMARK  3 active torsions:
REMARK  status: ('A' for Active; 'I' for Inactive)
REMARK    1  A    between atoms: C3'_2  and  C2'_3 
REMARK    2  A    between atoms: C2'_3  and  C1'_4 
REMARK    3  A    between atoms: C1'_4  and  C1_5 
ROOT
ATOM      1  C1  N4B d   1       0.346  -0.343  -0.173  0.00  0.00    -0.075 A 
ATOM      2  C2  N4B d   1       0.440  -0.074  -1.556  0.00  0.00     0.002 A 
ATOM      3  C3  N4B d   1      -0.688  -0.104  -2.339  0.00  0.00     0.002 A 
ATOM      4  C4  N4B d   1      -1.912  -0.418  -1.768  0.00  0.00    -0.004 A 
ATOM      5  C5  N4B d   1      -1.998  -0.652  -0.427  0.00  0.00     0.002 A 
ATOM      6  C6  N4B d   1      -0.874  -0.621   0.373  0.00  0.00     0.002 A 
ENDROOT
BRANCH   1   7
ATOM      7  C1' N4B d   1       1.563  -0.407   0.708  0.00  0.00     0.057 C 
BRANCH   7   8
ATOM      8  C2' N4B d   1       2.248   0.956   0.714  0.00  0.00     0.009 C 
BRANCH   8   9
ATOM      9  C3' N4B d   1       1.596   1.915   1.695  0.00  0.00     0.004 C 
ATOM     10  C4' N4B d   1       2.427   3.137   1.953  0.00  0.00     0.003 C 
ENDBRANCH   8   9
ENDBRANCH   7   8
ENDBRANCH   1   7
TORSDOF 3
ENDMDL
