MODEL 1
REMARK minimizedAffinity -2.69460893
REMARK minimizedRMSD -1
REMARK  3 active torsions:
REMARK  status: ('A' for Active; 'I' for Inactive)
REMARK    1  A    between atoms: C3'_2  and  C2'_3 
REMARK    2  A    between atoms: C2'_3  and  C1'_4 
REMARK    3  A    between atoms: C1'_4  and  C1_5 
ROOT
ATOM      1  C1  N4B d   1       0.595  -0.198   0.710  0.00  0.00    -0.075 A 
ATOM      2  C2  N4B d   1       0.046  -1.406   1.191  0.00  0.00     0.002 A 
ATOM      3  C3  N4B d   1      -1.284  -1.469   1.528  0.00  0.00     0.002 A 
ATOM      4  C4  N4B d   1      -2.076  -0.336   1.410  0.00  0.00    -0.004 A 
ATOM      5  C5  N4B d   1      -1.543   0.820   0.920  0.00  0.00     0.002 A 
ATOM      6  C6  N4B d   1      -0.209   0.896   0.574  0.00  0.00     0.002 A 
ENDROOT
BRANCH   1   7
ATOM      7  C1' N4B d   1       2.063  -0.057   0.410  0.00  0.00     0.057 C 
BRANCH   7   8
ATOM      8  C2' N4B d   1       2.341   1.364  -0.072  0.00  0.00     0.009 C 
BRANCH   8   9
ATOM      9  C3' N4B d   1       2.967   2.220   1.015  0.00  0.00     0.004 C 
ATOM     10  C4' N4B d   1       2.839   3.689   0.744  0.00  0.00     0.003 C 
ENDBRANCH   8   9
ENDBRANCH   7   8
ENDBRANCH   1   7
TORSDOF 3
ENDMDL
