MODEL 1
REMARK minimizedAffinity -3.910321
REMARK minimizedRMSD -1
REMARK  3 active torsions:
REMARK  status: ('A' for Active; 'I' for Inactive)
REMARK    1  A    between atoms: C3'_2  and  C2'_3 
REMARK    2  A    between atoms: C2'_3  and  C1'_4 
REMARK    3  A    between atoms: C1'_4  and  C1_5 
ROOT
ATOM      1  C1  N4B d   1       0.053  -0.199  -0.237  0.00  0.00    -0.075 A 
ATOM      2  C2  N4B d   1      -0.402  -1.203   0.646  0.00  0.00     0.002 A 
ATOM      3  C3  N4B d   1      -1.630  -1.787   0.448  0.00  0.00     0.002 A 
ATOM      4  C4  N4B d   1      -2.424  -1.371  -0.610  0.00  0.00    -0.004 A 
ATOM      5  C5  N4B d   1      -1.966  -0.419  -1.473  0.00  0.00     0.002 A 
ATOM      6  C6  N4B d   1      -0.733   0.173  -1.289  0.00  0.00     0.002 A 
ENDROOT
BRANCH   1   7
ATOM      7  C1' N4B d   1       1.350   0.528  -0.011  0.00  0.00     0.057 C 
BRANCH   7   8
ATOM      8  C2' N4B d   1       1.073   1.822   0.749  0.00  0.00     0.009 C 
BRANCH   8   9
ATOM      9  C3' N4B d   1       2.343   2.618   0.997  0.00  0.00     0.004 C 
ATOM     10  C4' N4B d   1       2.323   3.350   2.305  0.00  0.00     0.003 C 
ENDBRANCH   8   9
ENDBRANCH   7   8
ENDBRANCH   1   7
TORSDOF 3
ENDMDL
