MODEL 1
REMARK minimizedAffinity -5.4916687
REMARK minimizedRMSD -1
REMARK  3 active torsions:
REMARK  status: ('A' for Active; 'I' for Inactive)
REMARK    1  A    between atoms: C3'_2  and  C2'_3 
REMARK    2  A    between atoms: C2'_3  and  C1'_4 
REMARK    3  A    between atoms: C1'_4  and  C1_5 
ROOT
ATOM      1  C1  N4B d   1      -0.103  -0.562   0.054  0.00  0.00    -0.075 A 
ATOM      2  C2  N4B d   1      -0.588  -0.098  -1.188  0.00  0.00     0.002 A 
ATOM      3  C3  N4B d   1      -1.941  -0.014  -1.409  0.00  0.00     0.002 A 
ATOM      4  C4  N4B d   1      -2.824  -0.404  -0.413  0.00  0.00    -0.004 A 
ATOM      5  C5  N4B d   1      -2.348  -0.826   0.794  0.00  0.00     0.002 A 
ATOM      6  C6  N4B d   1      -0.990  -0.912   1.031  0.00  0.00     0.002 A 
ENDROOT
BRANCH   1   7
ATOM      7  C1' N4B d   1       1.367  -0.753   0.312  0.00  0.00     0.057 C 
BRANCH   7   8
ATOM      8  C2' N4B d   1       2.098   0.556   0.032  0.00  0.00     0.009 C 
BRANCH   8   9
ATOM      9  C3' N4B d   1       1.714   1.644   1.021  0.00  0.00     0.004 C 
ATOM     10  C4' N4B d   1       2.722   2.752   1.085  0.00  0.00     0.003 C 
ENDBRANCH   8   9
ENDBRANCH   7   8
ENDBRANCH   1   7
TORSDOF 3
ENDMDL
