MODEL 1
REMARK minimizedAffinity -0.18353802
REMARK minimizedRMSD -1
REMARK  3 active torsions:
REMARK  status: ('A' for Active; 'I' for Inactive)
REMARK    1  A    between atoms: C3'_2  and  C2'_3 
REMARK    2  A    between atoms: C2'_3  and  C1'_4 
REMARK    3  A    between atoms: C1'_4  and  C1_5 
ROOT
ATOM      1  C1  N4B d   1      -0.057   0.424  -0.235  0.00  0.00    -0.075 A 
ATOM      2  C2  N4B d   1      -0.959  -0.558   0.231  0.00  0.00     0.002 A 
ATOM      3  C3  N4B d   1      -1.908  -1.076  -0.616  0.00  0.00     0.002 A 
ATOM      4  C4  N4B d   1      -1.986  -0.616  -1.922  0.00  0.00    -0.004 A 
ATOM      5  C5  N4B d   1      -1.095   0.314  -2.372  0.00  0.00     0.002 A 
ATOM      6  C6  N4B d   1      -0.133   0.840  -1.533  0.00  0.00     0.002 A 
ENDROOT
BRANCH   1   7
ATOM      7  C1' N4B d   1       0.942   1.082   0.677  0.00  0.00     0.057 C 
BRANCH   7   8
ATOM      8  C2' N4B d   1       1.943   1.870  -0.162  0.00  0.00     0.009 C 
BRANCH   8   9
ATOM      9  C3' N4B d   1       2.739   2.854   0.679  0.00  0.00     0.004 C 
ATOM     10  C4' N4B d   1       2.814   2.456   2.123  0.00  0.00     0.003 C 
ENDBRANCH   8   9
ENDBRANCH   7   8
ENDBRANCH   1   7
TORSDOF 3
ENDMDL
