MODEL 1
REMARK minimizedAffinity 0.33618319
REMARK minimizedRMSD -1
REMARK  0 active torsions:
REMARK  status: ('A' for Active; 'I' for Inactive)
ROOT
ATOM      1  C   UNL d   1      -3.343  -1.082   4.050  0.00  0.00     0.078 C 
ATOM      2  C1  UNL d   1      -3.618  -1.130   2.577  0.00  0.00    -0.077 A 
ATOM      3  C2  UNL d   1      -2.586  -1.355   1.657  0.00  0.00    -0.001 A 
ATOM      4  C3  UNL d   1      -2.855  -1.388   0.288  0.00  0.00     0.003 A 
ATOM      5  C4  UNL d   1      -4.155  -1.196  -0.174  0.00  0.00    -0.005 A 
ATOM      6  C5  UNL d   1      -5.188  -0.969   0.733  0.00  0.00     0.003 A 
ATOM      7  C6  UNL d   1      -4.921  -0.936   2.103  0.00  0.00    -0.001 A 
ENDROOT
TORSDOF 0
ENDMDL
