MODEL 1
REMARK minimizedAffinity 4.30866766
REMARK minimizedRMSD -1
REMARK  0 active torsions:
REMARK  status: ('A' for Active; 'I' for Inactive)
ROOT
ATOM      1  C   UNL d   1      -3.737   5.468   0.008  0.00  0.00     0.078 C 
ATOM      2  C1  UNL d   1      -2.999   4.180  -0.204  0.00  0.00    -0.077 A 
ATOM      3  C2  UNL d   1      -1.613   4.104  -0.019  0.00  0.00    -0.001 A 
ATOM      4  C3  UNL d   1      -0.938   2.900  -0.229  0.00  0.00     0.003 A 
ATOM      5  C4  UNL d   1      -1.640   1.764  -0.627  0.00  0.00    -0.005 A 
ATOM      6  C5  UNL d   1      -3.019   1.831  -0.817  0.00  0.00     0.003 A 
ATOM      7  C6  UNL d   1      -3.696   3.033  -0.607  0.00  0.00    -0.001 A 
ENDROOT
TORSDOF 0
ENDMDL
