MODEL 1
REMARK minimizedAffinity 1.11936271
REMARK minimizedRMSD -1
REMARK  0 active torsions:
REMARK  status: ('A' for Active; 'I' for Inactive)
ROOT
ATOM      1  C   UNL d   1       3.751   2.953   2.599  0.00  0.00     0.078 C 
ATOM      2  C1  UNL d   1       4.537   1.946   3.384  0.00  0.00    -0.077 A 
ATOM      3  C2  UNL d   1       4.540   0.593   3.024  0.00  0.00    -0.001 A 
ATOM      4  C3  UNL d   1       5.269  -0.335   3.770  0.00  0.00     0.003 A 
ATOM      5  C4  UNL d   1       5.998   0.080   4.882  0.00  0.00    -0.005 A 
ATOM      6  C5  UNL d   1       5.999   1.423   5.250  0.00  0.00     0.003 A 
ATOM      7  C6  UNL d   1       5.272   2.353   4.505  0.00  0.00    -0.001 A 
ENDROOT
TORSDOF 0
ENDMDL
