MODEL 1
REMARK minimizedAffinity 1.5767771
REMARK minimizedRMSD -1
REMARK  0 active torsions:
REMARK  status: ('A' for Active; 'I' for Inactive)
ROOT
ATOM      1  C   UNL d   1       4.499   3.156   2.504  0.00  0.00     0.078 C 
ATOM      2  C1  UNL d   1       5.026   2.052   3.371  0.00  0.00    -0.077 A 
ATOM      3  C2  UNL d   1       5.028   0.724   2.927  0.00  0.00    -0.001 A 
ATOM      4  C3  UNL d   1       5.513  -0.295   3.749  0.00  0.00     0.003 A 
ATOM      5  C4  UNL d   1       5.998   0.004   5.021  0.00  0.00    -0.005 A 
ATOM      6  C5  UNL d   1       5.998   1.322   5.472  0.00  0.00     0.003 A 
ATOM      7  C6  UNL d   1       5.514   2.342   4.652  0.00  0.00    -0.001 A 
ENDROOT
TORSDOF 0
ENDMDL
