MODEL 1
REMARK minimizedAffinity 1.95699775
REMARK minimizedRMSD -1
REMARK  0 active torsions:
REMARK  status: ('A' for Active; 'I' for Inactive)
ROOT
ATOM      1  C   UNL d   1       6.000   1.872   5.853  0.00  0.00     0.078 C 
ATOM      2  C1  UNL d   1       5.350   1.662   4.518  0.00  0.00    -0.077 A 
ATOM      3  C2  UNL d   1       4.854   2.744   3.780  0.00  0.00    -0.001 A 
ATOM      4  C3  UNL d   1       4.242   2.532   2.543  0.00  0.00     0.003 A 
ATOM      5  C4  UNL d   1       4.120   1.241   2.034  0.00  0.00    -0.005 A 
ATOM      6  C5  UNL d   1       4.609   0.158   2.763  0.00  0.00     0.003 A 
ATOM      7  C6  UNL d   1       5.221   0.368   4.000  0.00  0.00    -0.001 A 
ENDROOT
TORSDOF 0
ENDMDL
