MODEL 1
REMARK minimizedAffinity 3.41320896
REMARK minimizedRMSD -1
REMARK  0 active torsions:
REMARK  status: ('A' for Active; 'I' for Inactive)
ROOT
ATOM      1  C   UNL d   1       3.701   2.998   2.016  0.00  0.00     0.078 C 
ATOM      2  C1  UNL d   1       4.500   2.166   2.975  0.00  0.00    -0.077 A 
ATOM      3  C2  UNL d   1       5.251   2.763   3.994  0.00  0.00    -0.001 A 
ATOM      4  C3  UNL d   1       5.997   1.978   4.874  0.00  0.00     0.003 A 
ATOM      5  C4  UNL d   1       6.000   0.590   4.743  0.00  0.00    -0.005 A 
ATOM      6  C5  UNL d   1       5.256  -0.013   3.730  0.00  0.00     0.003 A 
ATOM      7  C6  UNL d   1       4.510   0.772   2.849  0.00  0.00    -0.001 A 
ENDROOT
TORSDOF 0
ENDMDL
