MODEL 1
REMARK minimizedAffinity 2.7665503
REMARK minimizedRMSD -1
REMARK  0 active torsions:
REMARK  status: ('A' for Active; 'I' for Inactive)
ROOT
ATOM      1  C   UNL d   1       3.700   3.291   2.154  0.00  0.00     0.078 C 
ATOM      2  C1  UNL d   1       4.499   2.426   3.083  0.00  0.00    -0.077 A 
ATOM      3  C2  UNL d   1       5.249   2.986   4.124  0.00  0.00    -0.001 A 
ATOM      4  C3  UNL d   1       5.995   2.170   4.975  0.00  0.00     0.003 A 
ATOM      5  C4  UNL d   1       6.000   0.788   4.793  0.00  0.00    -0.005 A 
ATOM      6  C5  UNL d   1       5.259   0.222   3.758  0.00  0.00     0.003 A 
ATOM      7  C6  UNL d   1       4.512   1.037   2.906  0.00  0.00    -0.001 A 
ENDROOT
TORSDOF 0
ENDMDL
