MODEL 1
REMARK minimizedAffinity -0.659763455
REMARK minimizedRMSD -1
REMARK  0 active torsions:
REMARK  status: ('A' for Active; 'I' for Inactive)
ROOT
ATOM      1  C   UNL d   1       5.997  -0.382  -4.124  0.00  0.00     0.078 C 
ATOM      2  C1  UNL d   1       5.361   0.806  -4.782  0.00  0.00    -0.077 A 
ATOM      3  C2  UNL d   1       5.997   2.053  -4.787  0.00  0.00    -0.001 A 
ATOM      4  C3  UNL d   1       5.388   3.153  -5.394  0.00  0.00     0.003 A 
ATOM      5  C4  UNL d   1       4.141   3.017  -6.000  0.00  0.00    -0.005 A 
ATOM      6  C5  UNL d   1       3.500   1.780  -5.998  0.00  0.00     0.003 A 
ATOM      7  C6  UNL d   1       4.106   0.679  -5.391  0.00  0.00    -0.001 A 
ENDROOT
TORSDOF 0
ENDMDL
