MODEL 1
REMARK minimizedAffinity 2.18178129
REMARK minimizedRMSD -1
REMARK  0 active torsions:
REMARK  status: ('A' for Active; 'I' for Inactive)
ROOT
ATOM      1  C   UNL d   1      -3.114   0.018   0.011  0.00  0.00     0.078 C 
ATOM      2  C1  UNL d   1      -3.323  -0.440   1.423  0.00  0.00    -0.077 A 
ATOM      3  C2  UNL d   1      -4.303  -1.391   1.735  0.00  0.00    -0.001 A 
ATOM      4  C3  UNL d   1      -4.493  -1.801   3.055  0.00  0.00     0.003 A 
ATOM      5  C4  UNL d   1      -3.709  -1.265   4.075  0.00  0.00    -0.005 A 
ATOM      6  C5  UNL d   1      -2.733  -0.316   3.774  0.00  0.00     0.003 A 
ATOM      7  C6  UNL d   1      -2.541   0.095   2.454  0.00  0.00    -0.001 A 
ENDROOT
TORSDOF 0
ENDMDL
