MODEL 1
REMARK minimizedAffinity -5.21349049
REMARK minimizedRMSD -1
REMARK  0 active torsions:
REMARK  status: ('A' for Active; 'I' for Inactive)
ROOT
ATOM      1  C   UNL d   1      -2.607   3.092   2.313  0.00  0.00     0.078 C 
ATOM      2  C1  UNL d   1      -3.074   1.669   2.230  0.00  0.00    -0.077 A 
ATOM      3  C2  UNL d   1      -3.053   0.973   1.015  0.00  0.00    -0.001 A 
ATOM      4  C3  UNL d   1      -3.501  -0.347   0.950  0.00  0.00     0.003 A 
ATOM      5  C4  UNL d   1      -3.973  -0.983   2.097  0.00  0.00    -0.005 A 
ATOM      6  C5  UNL d   1      -3.999  -0.298   3.309  0.00  0.00     0.003 A 
ATOM      7  C6  UNL d   1      -3.552   1.023   3.376  0.00  0.00    -0.001 A 
ENDROOT
TORSDOF 0
ENDMDL
