MODEL 1
REMARK minimizedAffinity -5.42870569
REMARK minimizedRMSD -1
REMARK  0 active torsions:
REMARK  status: ('A' for Active; 'I' for Inactive)
ROOT
ATOM      1  C   UNL d   1      -4.470   5.240   4.302  0.00  0.00     0.078 C 
ATOM      2  C1  UNL d   1      -3.982   3.999   3.616  0.00  0.00    -0.077 A 
ATOM      3  C2  UNL d   1      -3.436   4.054   2.328  0.00  0.00    -0.001 A 
ATOM      4  C3  UNL d   1      -2.994   2.889   1.698  0.00  0.00     0.003 A 
ATOM      5  C4  UNL d   1      -3.095   1.661   2.348  0.00  0.00    -0.005 A 
ATOM      6  C5  UNL d   1      -3.638   1.596   3.629  0.00  0.00     0.003 A 
ATOM      7  C6  UNL d   1      -4.080   2.759   4.260  0.00  0.00    -0.001 A 
ENDROOT
TORSDOF 0
ENDMDL
