MODEL 1
REMARK minimizedAffinity 0.169962123
REMARK minimizedRMSD -1
REMARK  0 active torsions:
REMARK  status: ('A' for Active; 'I' for Inactive)
ROOT
ATOM      1  C   UNL d   1       5.995   4.829   3.832  0.00  0.00     0.078 C 
ATOM      2  C1  UNL d   1       5.754   3.352   3.921  0.00  0.00    -0.077 A 
ATOM      3  C2  UNL d   1       5.273   2.632   2.821  0.00  0.00    -0.001 A 
ATOM      4  C3  UNL d   1       5.044   1.259   2.921  0.00  0.00     0.003 A 
ATOM      5  C4  UNL d   1       5.293   0.594   4.120  0.00  0.00    -0.005 A 
ATOM      6  C5  UNL d   1       5.770   1.302   5.221  0.00  0.00     0.003 A 
ATOM      7  C6  UNL d   1       5.999   2.675   5.123  0.00  0.00    -0.001 A 
ENDROOT
TORSDOF 0
ENDMDL
