MODEL 1
REMARK minimizedAffinity 0.736654162
REMARK minimizedRMSD -1
REMARK  0 active torsions:
REMARK  status: ('A' for Active; 'I' for Inactive)
ROOT
ATOM      1  C   UNL d   1       5.998   0.653   5.935  0.00  0.00     0.078 C 
ATOM      2  C1  UNL d   1       5.570   1.428   4.725  0.00  0.00    -0.077 A 
ATOM      3  C2  UNL d   1       4.753   0.846   3.748  0.00  0.00    -0.001 A 
ATOM      4  C3  UNL d   1       4.370   1.576   2.621  0.00  0.00     0.003 A 
ATOM      5  C4  UNL d   1       4.801   2.892   2.461  0.00  0.00    -0.005 A 
ATOM      6  C5  UNL d   1       5.616   3.478   3.427  0.00  0.00     0.003 A 
ATOM      7  C6  UNL d   1       6.000   2.750   4.554  0.00  0.00    -0.001 A 
ENDROOT
TORSDOF 0
ENDMDL
