MODEL 1
REMARK minimizedAffinity 2.21088767
REMARK minimizedRMSD -1
REMARK  0 active torsions:
REMARK  status: ('A' for Active; 'I' for Inactive)
ROOT
ATOM      1  C   UNL d   1       2.684   4.386  -5.416  0.00  0.00     0.078 C 
ATOM      2  C1  UNL d   1       3.749   3.331  -5.431  0.00  0.00    -0.077 A 
ATOM      3  C2  UNL d   1       3.511   2.073  -5.999  0.00  0.00    -0.001 A 
ATOM      4  C3  UNL d   1       4.509   1.097  -5.997  0.00  0.00     0.003 A 
ATOM      5  C4  UNL d   1       5.751   1.368  -5.428  0.00  0.00    -0.005 A 
ATOM      6  C5  UNL d   1       5.997   2.616  -4.858  0.00  0.00     0.003 A 
ATOM      7  C6  UNL d   1       5.000   3.593  -4.859  0.00  0.00    -0.001 A 
ENDROOT
TORSDOF 0
ENDMDL
