MODEL 1
REMARK minimizedAffinity 1.00321639
REMARK minimizedRMSD -1
REMARK  0 active torsions:
REMARK  status: ('A' for Active; 'I' for Inactive)
ROOT
ATOM      1  C   UNL d   1      -2.980   0.356   3.056  0.00  0.00     0.078 C 
ATOM      2  C1  UNL d   1      -2.941   1.170   1.798  0.00  0.00    -0.077 A 
ATOM      3  C2  UNL d   1      -3.219   0.589   0.554  0.00  0.00    -0.001 A 
ATOM      4  C3  UNL d   1      -3.170   1.356  -0.610  0.00  0.00     0.003 A 
ATOM      5  C4  UNL d   1      -2.842   2.709  -0.543  0.00  0.00    -0.005 A 
ATOM      6  C5  UNL d   1      -2.562   3.295   0.689  0.00  0.00     0.003 A 
ATOM      7  C6  UNL d   1      -2.611   2.529   1.855  0.00  0.00    -0.001 A 
ENDROOT
TORSDOF 0
ENDMDL
