MODEL 1
REMARK minimizedAffinity 2.22581363
REMARK minimizedRMSD -1
REMARK  0 active torsions:
REMARK  status: ('A' for Active; 'I' for Inactive)
ROOT
ATOM      1  C   UNL d   1      -3.646   0.011   0.149  0.00  0.00     0.078 C 
ATOM      2  C1  UNL d   1      -3.216   1.441   0.013  0.00  0.00    -0.077 A 
ATOM      3  C2  UNL d   1      -1.908   1.768  -0.365  0.00  0.00    -0.001 A 
ATOM      4  C3  UNL d   1      -1.519   3.103  -0.478  0.00  0.00     0.003 A 
ATOM      5  C4  UNL d   1      -2.431   4.123  -0.213  0.00  0.00    -0.005 A 
ATOM      6  C5  UNL d   1      -3.734   3.807   0.166  0.00  0.00     0.003 A 
ATOM      7  C6  UNL d   1      -4.125   2.472   0.280  0.00  0.00    -0.001 A 
ENDROOT
TORSDOF 0
ENDMDL
