MODEL 1
REMARK minimizedAffinity 0.490427524
REMARK minimizedRMSD -1
REMARK  0 active torsions:
REMARK  status: ('A' for Active; 'I' for Inactive)
ROOT
ATOM      1  C   UNL d   1       0.010   1.881  -0.075  0.00  0.00    -0.002 A 
ATOM      2  C1  UNL d   1      -0.002   0.844   0.847  0.00  0.00     0.010 A 
ATOM      3  C2  UNL d   1      -1.209   0.331   1.325  0.00  0.00     0.041 A 
ATOM      4  C3  UNL d   1      -2.417   0.883   0.855  0.00  0.00    -0.075 A 
ATOM      5  S   UNL d   1      -4.016   0.415   1.299  0.00  0.00     0.015 SA
ATOM      6  C4  UNL d   1      -4.722   1.580   0.274  0.00  0.00     0.022 A 
ATOM      7  C5  UNL d   1      -3.775   2.317  -0.398  0.00  0.00     0.026 A 
ATOM      8  C6  UNL d   1      -2.432   1.927  -0.075  0.00  0.00    -0.082 A 
ATOM      9  C7  UNL d   1      -1.191   2.425  -0.539  0.00  0.00     0.045 A 
ENDROOT
TORSDOF 0
ENDMDL
