MODEL 1
REMARK minimizedAffinity 1.73576021
REMARK minimizedRMSD -1
REMARK  0 active torsions:
REMARK  status: ('A' for Active; 'I' for Inactive)
ROOT
ATOM      1  C   UNL d   1      -1.183   2.612  -0.678  0.00  0.00    -0.002 A 
ATOM      2  C1  UNL d   1      -0.016   2.225  -0.034  0.00  0.00     0.010 A 
ATOM      3  C2  UNL d   1      -0.046   1.252   0.967  0.00  0.00     0.041 A 
ATOM      4  C3  UNL d   1      -1.281   0.669   1.313  0.00  0.00    -0.075 A 
ATOM      5  S   UNL d   1      -1.560  -0.542   2.508  0.00  0.00     0.015 SA
ATOM      6  C4  UNL d   1      -3.234  -0.574   2.193  0.00  0.00     0.022 A 
ATOM      7  C5  UNL d   1      -3.589   0.311   1.203  0.00  0.00     0.026 A 
ATOM      8  C6  UNL d   1      -2.469   1.042   0.679  0.00  0.00    -0.082 A 
ATOM      9  C7  UNL d   1      -2.406   2.031  -0.331  0.00  0.00     0.045 A 
ENDROOT
TORSDOF 0
ENDMDL
