MODEL 1
REMARK minimizedAffinity 6.5481143
REMARK minimizedRMSD -1
REMARK  0 active torsions:
REMARK  status: ('A' for Active; 'I' for Inactive)
ROOT
ATOM      1  C   UNL d   1       0.769   1.454   0.997  0.00  0.00    -0.002 A 
ATOM      2  C1  UNL d   1       0.263   0.263   1.501  0.00  0.00     0.010 A 
ATOM      3  C2  UNL d   1      -1.080  -0.072   1.317  0.00  0.00     0.041 A 
ATOM      4  C3  UNL d   1      -1.914   0.817   0.610  0.00  0.00    -0.075 A 
ATOM      5  S   UNL d   1      -3.590   0.615   0.262  0.00  0.00     0.015 SA
ATOM      6  C4  UNL d   1      -3.674   2.103  -0.564  0.00  0.00     0.022 A 
ATOM      7  C5  UNL d   1      -2.462   2.751  -0.583  0.00  0.00     0.026 A 
ATOM      8  C6  UNL d   1      -1.427   2.021   0.092  0.00  0.00    -0.082 A 
ATOM      9  C7  UNL d   1      -0.062   2.332   0.296  0.00  0.00     0.045 A 
ENDROOT
TORSDOF 0
ENDMDL
