MODEL 1
REMARK minimizedAffinity 12.2487583
REMARK minimizedRMSD -1
REMARK  0 active torsions:
REMARK  status: ('A' for Active; 'I' for Inactive)
ROOT
ATOM      1  C   UNL d   1       0.927   4.151  -0.813  0.00  0.00    -0.002 A 
ATOM      2  C1  UNL d   1       1.537   2.907  -0.744  0.00  0.00     0.010 A 
ATOM      3  C2  UNL d   1       0.774   1.751  -0.567  0.00  0.00     0.041 A 
ATOM      4  C3  UNL d   1      -0.626   1.867  -0.460  0.00  0.00    -0.075 A 
ATOM      5  S   UNL d   1      -1.762   0.589  -0.240  0.00  0.00     0.015 SA
ATOM      6  C4  UNL d   1      -3.084   1.665  -0.233  0.00  0.00     0.022 A 
ATOM      7  C5  UNL d   1      -2.686   2.971  -0.393  0.00  0.00     0.026 A 
ATOM      8  C6  UNL d   1      -1.263   3.110  -0.527  0.00  0.00    -0.082 A 
ATOM      9  C7  UNL d   1      -0.462   4.263  -0.707  0.00  0.00     0.045 A 
ENDROOT
TORSDOF 0
ENDMDL
