MODEL 1
REMARK minimizedAffinity 0.226440698
REMARK minimizedRMSD -1
REMARK  0 active torsions:
REMARK  status: ('A' for Active; 'I' for Inactive)
ROOT
ATOM      1  C   UNL d   1       3.657   1.280  -0.258  0.00  0.00    -0.002 A 
ATOM      2  C1  UNL d   1       3.642   0.993   1.100  0.00  0.00     0.010 A 
ATOM      3  C2  UNL d   1       2.462   1.107   1.837  0.00  0.00     0.041 A 
ATOM      4  C3  UNL d   1       1.285   1.516   1.180  0.00  0.00    -0.075 A 
ATOM      5  S   UNL d   1      -0.277   1.724   1.880  0.00  0.00     0.015 SA
ATOM      6  C4  UNL d   1      -0.962   2.197   0.393  0.00  0.00     0.022 A 
ATOM      7  C5  UNL d   1      -0.036   2.203  -0.623  0.00  0.00     0.026 A 
ATOM      8  C6  UNL d   1       1.274   1.809  -0.186  0.00  0.00    -0.082 A 
ATOM      9  C7  UNL d   1       2.487   1.685  -0.906  0.00  0.00     0.045 A 
ENDROOT
TORSDOF 0
ENDMDL
