MODEL 1
REMARK minimizedAffinity 6.94659042
REMARK minimizedRMSD -1
REMARK  0 active torsions:
REMARK  status: ('A' for Active; 'I' for Inactive)
ROOT
ATOM      1  C   UNL d   1      -0.047   2.124   0.521  0.00  0.00    -0.002 A 
ATOM      2  C1  UNL d   1       0.023   1.167   1.523  0.00  0.00     0.010 A 
ATOM      3  C2  UNL d   1      -1.114   0.451   1.903  0.00  0.00     0.041 A 
ATOM      4  C3  UNL d   1      -2.335   0.716   1.252  0.00  0.00    -0.075 A 
ATOM      5  S   UNL d   1      -3.856  -0.038   1.550  0.00  0.00     0.015 SA
ATOM      6  C4  UNL d   1      -4.636   0.893   0.354  0.00  0.00     0.022 A 
ATOM      7  C5  UNL d   1      -3.771   1.762  -0.268  0.00  0.00     0.026 A 
ATOM      8  C6  UNL d   1      -2.431   1.674   0.239  0.00  0.00    -0.082 A 
ATOM      9  C7  UNL d   1      -1.260   2.384  -0.123  0.00  0.00     0.045 A 
ENDROOT
TORSDOF 0
ENDMDL
