MODEL 1
REMARK minimizedAffinity 12.2886047
REMARK minimizedRMSD -1
REMARK  0 active torsions:
REMARK  status: ('A' for Active; 'I' for Inactive)
ROOT
ATOM      1  C   UNL d   1      -1.182   2.498  -0.245  0.00  0.00    -0.002 A 
ATOM      2  C1  UNL d   1      -0.189   2.342   0.711  0.00  0.00     0.010 A 
ATOM      3  C2  UNL d   1      -0.374   1.481   1.794  0.00  0.00     0.041 A 
ATOM      4  C3  UNL d   1      -1.586   0.770   1.899  0.00  0.00    -0.075 A 
ATOM      5  S   UNL d   1      -2.034  -0.342   3.139  0.00  0.00     0.015 SA
ATOM      6  C4  UNL d   1      -3.555  -0.637   2.428  0.00  0.00     0.022 A 
ATOM      7  C5  UNL d   1      -3.733   0.087   1.273  0.00  0.00     0.026 A 
ATOM      8  C6  UNL d   1      -2.601   0.909   0.949  0.00  0.00    -0.082 A 
ATOM      9  C7  UNL d   1      -2.383   1.791  -0.137  0.00  0.00     0.045 A 
ENDROOT
TORSDOF 0
ENDMDL
