MODEL 1
REMARK minimizedAffinity 4.14174891
REMARK minimizedRMSD -1
REMARK  0 active torsions:
REMARK  status: ('A' for Active; 'I' for Inactive)
ROOT
ATOM      1  C   UNL d   1       0.648   1.163   0.473  0.00  0.00    -0.002 A 
ATOM      2  C1  UNL d   1       0.410   0.038   1.249  0.00  0.00     0.010 A 
ATOM      3  C2  UNL d   1      -0.897  -0.364   1.536  0.00  0.00     0.041 A 
ATOM      4  C3  UNL d   1      -1.970   0.390   1.023  0.00  0.00    -0.075 A 
ATOM      5  S   UNL d   1      -3.653   0.087   1.243  0.00  0.00     0.015 SA
ATOM      6  C4  UNL d   1      -4.095   1.444   0.311  0.00  0.00     0.022 A 
ATOM      7  C5  UNL d   1      -2.999   2.123  -0.163  0.00  0.00     0.026 A 
ATOM      8  C6  UNL d   1      -1.756   1.527   0.238  0.00  0.00    -0.082 A 
ATOM      9  C7  UNL d   1      -0.420   1.909  -0.034  0.00  0.00     0.045 A 
ENDROOT
TORSDOF 0
ENDMDL
