MODEL 1
REMARK minimizedAffinity 5.71333361
REMARK minimizedRMSD -1
REMARK  0 active torsions:
REMARK  status: ('A' for Active; 'I' for Inactive)
ROOT
ATOM      1  C   UNL d   1      -2.570   0.499   0.917  0.00  0.00    -0.002 A 
ATOM      2  C1  UNL d   1      -2.742   1.736   0.312  0.00  0.00     0.010 A 
ATOM      3  C2  UNL d   1      -1.644   2.557   0.049  0.00  0.00     0.041 A 
ATOM      4  C3  UNL d   1      -0.357   2.108   0.405  0.00  0.00    -0.075 A 
ATOM      5  S   UNL d   1       1.134   2.943   0.178  0.00  0.00     0.015 SA
ATOM      6  C4  UNL d   1       2.036   1.677   0.877  0.00  0.00     0.022 A 
ATOM      7  C5  UNL d   1       1.234   0.635   1.279  0.00  0.00     0.026 A 
ATOM      8  C6  UNL d   1      -0.158   0.866   1.013  0.00  0.00    -0.082 A 
ATOM      9  C7  UNL d   1      -1.291   0.057   1.268  0.00  0.00     0.045 A 
ENDROOT
TORSDOF 0
ENDMDL
