MODEL 1
REMARK minimizedAffinity 8.46946621
REMARK minimizedRMSD -1
REMARK  0 active torsions:
REMARK  status: ('A' for Active; 'I' for Inactive)
ROOT
ATOM      1  C   UNL d   1       3.243   1.384   0.816  0.00  0.00    -0.002 A 
ATOM      2  C1  UNL d   1       3.129   2.212   1.923  0.00  0.00     0.010 A 
ATOM      3  C2  UNL d   1       1.875   2.631   2.371  0.00  0.00     0.041 A 
ATOM      4  C3  UNL d   1       0.726   2.199   1.682  0.00  0.00    -0.075 A 
ATOM      5  S   UNL d   1      -0.914   2.585   2.050  0.00  0.00     0.015 SA
ATOM      6  C4  UNL d   1      -1.503   1.659   0.746  0.00  0.00     0.022 A 
ATOM      7  C5  UNL d   1      -0.487   1.063   0.036  0.00  0.00     0.026 A 
ATOM      8  C6  UNL d   1       0.814   1.364   0.564  0.00  0.00    -0.082 A 
ATOM      9  C7  UNL d   1       2.100   0.957   0.134  0.00  0.00     0.045 A 
ENDROOT
TORSDOF 0
ENDMDL
