MODEL 1
REMARK minimizedAffinity 4.22144318
REMARK minimizedRMSD -1
REMARK  0 active torsions:
REMARK  status: ('A' for Active; 'I' for Inactive)
ROOT
ATOM      1  C   UNL d   1       1.702   0.854  -0.093  0.00  0.00    -0.002 A 
ATOM      2  C1  UNL d   1       0.331   0.788  -0.299  0.00  0.00     0.010 A 
ATOM      3  C2  UNL d   1      -0.550   1.434   0.571  0.00  0.00     0.041 A 
ATOM      4  C3  UNL d   1      -0.024   2.155   1.662  0.00  0.00    -0.075 A 
ATOM      5  S   UNL d   1      -0.911   3.025   2.857  0.00  0.00     0.015 SA
ATOM      6  C4  UNL d   1       0.508   3.505   3.668  0.00  0.00     0.022 A 
ATOM      7  C5  UNL d   1       1.641   3.022   3.056  0.00  0.00     0.026 A 
ATOM      8  C6  UNL d   1       1.353   2.237   1.889  0.00  0.00    -0.082 A 
ATOM      9  C7  UNL d   1       2.219   1.571   0.990  0.00  0.00     0.045 A 
ENDROOT
TORSDOF 0
ENDMDL
