MODEL 1
REMARK minimizedAffinity 8.49078751
REMARK minimizedRMSD -1
REMARK  0 active torsions:
REMARK  status: ('A' for Active; 'I' for Inactive)
ROOT
ATOM      1  C   UNL d   1       2.968   1.356   0.573  0.00  0.00    -0.002 A 
ATOM      2  C1  UNL d   1       2.923   2.320   1.571  0.00  0.00     0.010 A 
ATOM      3  C2  UNL d   1       1.699   2.757   2.081  0.00  0.00     0.041 A 
ATOM      4  C3  UNL d   1       0.510   2.203   1.569  0.00  0.00    -0.075 A 
ATOM      5  S   UNL d   1      -1.103   2.584   2.043  0.00  0.00     0.015 SA
ATOM      6  C4  UNL d   1      -1.771   1.476   0.934  0.00  0.00     0.022 A 
ATOM      7  C5  UNL d   1      -0.801   0.822   0.211  0.00  0.00     0.026 A 
ATOM      8  C6  UNL d   1       0.529   1.230   0.566  0.00  0.00    -0.082 A 
ATOM      9  C7  UNL d   1       1.786   0.808   0.068  0.00  0.00     0.045 A 
ENDROOT
TORSDOF 0
ENDMDL
