MODEL 1
REMARK minimizedAffinity 1.05976927
REMARK minimizedRMSD -1
REMARK  0 active torsions:
REMARK  status: ('A' for Active; 'I' for Inactive)
ROOT
ATOM      1  C   UNL d   1       1.736   0.684   0.040  0.00  0.00    -0.002 A 
ATOM      2  C1  UNL d   1       0.377   0.691  -0.243  0.00  0.00     0.010 A 
ATOM      3  C2  UNL d   1      -0.514   1.390   0.574  0.00  0.00     0.041 A 
ATOM      4  C3  UNL d   1      -0.012   2.090   1.689  0.00  0.00    -0.075 A 
ATOM      5  S   UNL d   1      -0.916   3.016   2.828  0.00  0.00     0.015 SA
ATOM      6  C4  UNL d   1       0.480   3.424   3.716  0.00  0.00     0.022 A 
ATOM      7  C5  UNL d   1       1.617   2.876   3.171  0.00  0.00     0.026 A 
ATOM      8  C6  UNL d   1       1.352   2.098   1.993  0.00  0.00    -0.082 A 
ATOM      9  C7  UNL d   1       2.230   1.380   1.147  0.00  0.00     0.045 A 
ENDROOT
TORSDOF 0
ENDMDL
