MODEL 1
REMARK minimizedAffinity 11.9527121
REMARK minimizedRMSD -1
REMARK  0 active torsions:
REMARK  status: ('A' for Active; 'I' for Inactive)
ROOT
ATOM      1  C   UNL d   1      -1.152   3.067   2.626  0.00  0.00    -0.002 A 
ATOM      2  C1  UNL d   1      -0.050   3.506   3.346  0.00  0.00     0.010 A 
ATOM      3  C2  UNL d   1       1.241   3.135   2.965  0.00  0.00     0.041 A 
ATOM      4  C3  UNL d   1       1.407   2.309   1.836  0.00  0.00    -0.075 A 
ATOM      5  S   UNL d   1       2.893   1.728   1.183  0.00  0.00     0.015 SA
ATOM      6  C4  UNL d   1       2.101   0.884  -0.068  0.00  0.00     0.022 A 
ATOM      7  C5  UNL d   1       0.735   1.031  -0.003  0.00  0.00     0.026 A 
ATOM      8  C6  UNL d   1       0.313   1.855   1.094  0.00  0.00    -0.082 A 
ATOM      9  C7  UNL d   1      -0.983   2.247   1.507  0.00  0.00     0.045 A 
ENDROOT
TORSDOF 0
ENDMDL
