MODEL 1
REMARK minimizedAffinity -4.44301462
REMARK minimizedRMSD -1
REMARK  1 active torsions:
REMARK  status: ('A' for Active; 'I' for Inactive)
REMARK    1  A    between atoms: C3_4  and  O_7 
ROOT
ATOM      1  C   UNL d   1       0.685  -0.030  -0.042  0.00  0.00    -0.033 A 
ATOM      2  C1  UNL d   1      -0.388   0.539  -0.730  0.00  0.00     0.039 A 
ATOM      3  C2  UNL d   1      -1.237   1.438  -0.081  0.00  0.00    -0.080 A 
ATOM      4  C3  UNL d   1      -1.001   1.760   1.252  0.00  0.00     0.150 A 
ATOM      5  C4  UNL d   1       0.068   1.200   1.943  0.00  0.00    -0.007 A 
ATOM      6  C5  UNL d   1       0.914   0.301   1.294  0.00  0.00     0.039 A 
ENDROOT
BRANCH   4   7
ATOM      7  O   UNL d   1      -1.805   2.629   1.929  0.00  0.00    -0.526 OA
ATOM      8  H5  UNL d   1      -2.519   2.914   1.334  0.00  0.00     0.418 HD
ENDBRANCH   4   7
TORSDOF 1
ENDMDL
