MODEL 1
REMARK minimizedAffinity -5.14928102
REMARK minimizedRMSD -1
REMARK  1 active torsions:
REMARK  status: ('A' for Active; 'I' for Inactive)
REMARK    1  A    between atoms: C3_4  and  O_7 
ROOT
ATOM      1  C   UNL d   1      -0.538   1.354  -1.187  0.00  0.00    -0.033 A 
ATOM      2  C1  UNL d   1      -0.185   0.550  -0.101  0.00  0.00     0.039 A 
ATOM      3  C2  UNL d   1      -0.151   1.089   1.187  0.00  0.00    -0.080 A 
ATOM      4  C3  UNL d   1      -0.472   2.431   1.375  0.00  0.00     0.150 A 
ATOM      5  C4  UNL d   1      -0.827   3.236   0.298  0.00  0.00    -0.007 A 
ATOM      6  C5  UNL d   1      -0.860   2.696  -0.987  0.00  0.00     0.039 A 
ENDROOT
BRANCH   4   7
ATOM      7  O   UNL d   1      -0.447   3.003   2.612  0.00  0.00    -0.526 OA
ATOM      8  H5  UNL d   1      -0.156   2.334   3.255  0.00  0.00     0.418 HD
ENDBRANCH   4   7
TORSDOF 1
ENDMDL
