MODEL 1
REMARK minimizedAffinity -4.0539937
REMARK minimizedRMSD -1
REMARK  1 active torsions:
REMARK  status: ('A' for Active; 'I' for Inactive)
REMARK    1  A    between atoms: C3_4  and  O_7 
ROOT
ATOM      1  C   UNL d   1      -0.777   3.030  -0.216  0.00  0.00    -0.033 A 
ATOM      2  C1  UNL d   1      -0.533   1.903  -1.002  0.00  0.00     0.039 A 
ATOM      3  C2  UNL d   1      -0.178   0.694  -0.401  0.00  0.00    -0.080 A 
ATOM      4  C3  UNL d   1      -0.072   0.625   0.985  0.00  0.00     0.150 A 
ATOM      5  C4  UNL d   1      -0.317   1.743   1.775  0.00  0.00    -0.007 A 
ATOM      6  C5  UNL d   1      -0.670   2.950   1.173  0.00  0.00     0.039 A 
ENDROOT
BRANCH   4   7
ATOM      7  O   UNL d   1       0.277  -0.532   1.617  0.00  0.00    -0.526 OA
ATOM      8  H5  UNL d   1       0.444  -1.212   0.943  0.00  0.00     0.418 HD
ENDBRANCH   4   7
TORSDOF 1
ENDMDL
