MODEL 1
REMARK minimizedAffinity -5.34957838
REMARK minimizedRMSD -1
REMARK  1 active torsions:
REMARK  status: ('A' for Active; 'I' for Inactive)
REMARK    1  A    between atoms: C3_4  and  O_7 
ROOT
ATOM      1  C   UNL d   1      -1.229   2.961   1.449  0.00  0.00    -0.033 A 
ATOM      2  C1  UNL d   1      -1.461   2.993   0.073  0.00  0.00     0.039 A 
ATOM      3  C2  UNL d   1      -0.989   1.961  -0.741  0.00  0.00    -0.080 A 
ATOM      4  C3  UNL d   1      -0.290   0.903  -0.166  0.00  0.00     0.150 A 
ATOM      5  C4  UNL d   1      -0.059   0.862   1.205  0.00  0.00    -0.007 A 
ATOM      6  C5  UNL d   1      -0.530   1.895   2.016  0.00  0.00     0.039 A 
ENDROOT
BRANCH   4   7
ATOM      7  O   UNL d   1       0.193  -0.125  -0.920  0.00  0.00    -0.526 OA
ATOM      8  H5  UNL d   1      -0.017   0.052  -1.852  0.00  0.00     0.418 HD
ENDBRANCH   4   7
TORSDOF 1
ENDMDL
