MODEL 1
REMARK minimizedAffinity -3.63707161
REMARK minimizedRMSD -1
REMARK  1 active torsions:
REMARK  status: ('A' for Active; 'I' for Inactive)
REMARK    1  A    between atoms: C3_4  and  O_7 
ROOT
ATOM      1  C   UNL d   1      -0.426   0.906  -1.293  0.00  0.00    -0.033 A 
ATOM      2  C1  UNL d   1      -0.288   0.354  -0.018  0.00  0.00     0.039 A 
ATOM      3  C2  UNL d   1      -0.603   1.112   1.111  0.00  0.00    -0.080 A 
ATOM      4  C3  UNL d   1      -1.056   2.419   0.952  0.00  0.00     0.150 A 
ATOM      5  C4  UNL d   1      -1.200   2.974  -0.315  0.00  0.00    -0.007 A 
ATOM      6  C5  UNL d   1      -0.884   2.216  -1.442  0.00  0.00     0.039 A 
ENDROOT
BRANCH   4   7
ATOM      7  O   UNL d   1      -1.372   3.199   2.024  0.00  0.00    -0.526 OA
ATOM      8  H5  UNL d   1      -1.196   2.694   2.835  0.00  0.00     0.418 HD
ENDBRANCH   4   7
TORSDOF 1
ENDMDL
