MODEL 1
REMARK minimizedAffinity -5.57337904
REMARK minimizedRMSD -1
REMARK  1 active torsions:
REMARK  status: ('A' for Active; 'I' for Inactive)
REMARK    1  A    between atoms: C3_4  and  O_7 
ROOT
ATOM      1  C   UNL d   1      -0.728   2.811   1.707  0.00  0.00    -0.033 A 
ATOM      2  C1  UNL d   1      -0.700   3.776   0.699  0.00  0.00     0.039 A 
ATOM      3  C2  UNL d   1      -0.361   3.415  -0.607  0.00  0.00    -0.080 A 
ATOM      4  C3  UNL d   1      -0.053   2.087  -0.890  0.00  0.00     0.150 A 
ATOM      5  C4  UNL d   1      -0.083   1.120   0.109  0.00  0.00    -0.007 A 
ATOM      6  C5  UNL d   1      -0.421   1.482   1.412  0.00  0.00     0.039 A 
ENDROOT
BRANCH   4   7
ATOM      7  O   UNL d   1       0.289   1.688  -2.148  0.00  0.00    -0.526 OA
ATOM      8  H5  UNL d   1       0.295   2.468  -2.728  0.00  0.00     0.418 HD
ENDBRANCH   4   7
TORSDOF 1
ENDMDL
