MODEL 1
REMARK minimizedAffinity -4.31045532
REMARK minimizedRMSD -1
REMARK  1 active torsions:
REMARK  status: ('A' for Active; 'I' for Inactive)
REMARK    1  A    between atoms: C3_4  and  O_7 
ROOT
ATOM      1  C   UNL d   1      -0.708   1.763   1.897  0.00  0.00    -0.033 A 
ATOM      2  C1  UNL d   1      -0.264   0.635   1.204  0.00  0.00     0.039 A 
ATOM      3  C2  UNL d   1       0.064   0.730  -0.150  0.00  0.00    -0.080 A 
ATOM      4  C3  UNL d   1      -0.056   1.956  -0.798  0.00  0.00     0.150 A 
ATOM      5  C4  UNL d   1      -0.493   3.085  -0.113  0.00  0.00    -0.007 A 
ATOM      6  C5  UNL d   1      -0.821   2.988   1.239  0.00  0.00     0.039 A 
ENDROOT
BRANCH   4   7
ATOM      7  O   UNL d   1       0.248   2.096  -2.120  0.00  0.00    -0.526 OA
ATOM      8  H5  UNL d   1       0.508   1.228  -2.469  0.00  0.00     0.418 HD
ENDBRANCH   4   7
TORSDOF 1
ENDMDL
