MODEL 1
REMARK minimizedAffinity -5.04891062
REMARK minimizedRMSD -1
REMARK  1 active torsions:
REMARK  status: ('A' for Active; 'I' for Inactive)
REMARK    1  A    between atoms: C3_4  and  O_7 
ROOT
ATOM      1  C   UNL d   1      -0.106  -0.554   0.512  0.00  0.00    -0.033 A 
ATOM      2  C1  UNL d   1       0.819   0.288   1.133  0.00  0.00     0.039 A 
ATOM      3  C2  UNL d   1       0.423   1.546   1.592  0.00  0.00    -0.080 A 
ATOM      4  C3  UNL d   1      -0.899   1.949   1.424  0.00  0.00     0.150 A 
ATOM      5  C4  UNL d   1      -1.826   1.115   0.809  0.00  0.00    -0.007 A 
ATOM      6  C5  UNL d   1      -1.429  -0.141   0.351  0.00  0.00     0.039 A 
ENDROOT
BRANCH   4   7
ATOM      7  O   UNL d   1      -1.331   3.170   1.850  0.00  0.00    -0.526 OA
ATOM      8  H5  UNL d   1      -0.575   3.649   2.229  0.00  0.00     0.418 HD
ENDBRANCH   4   7
TORSDOF 1
ENDMDL
