MODEL 1
REMARK minimizedAffinity 4.77653933
REMARK minimizedRMSD -1
REMARK  1 active torsions:
REMARK  status: ('A' for Active; 'I' for Inactive)
REMARK    1  A    between atoms: C1_2  and  C2_3 
ROOT
ATOM      1  C2  UNL d   1       0.653   3.638   2.168  0.00  0.00    -0.077 A 
ATOM      2  C3  UNL d   1      -0.106   3.002   1.176  0.00  0.00     0.002 A 
ATOM      3  C4  UNL d   1      -1.426   2.622   1.430  0.00  0.00     0.002 A 
ATOM      4  C5  UNL d   1      -1.998   2.878   2.674  0.00  0.00    -0.004 A 
ATOM      5  C6  UNL d   1      -1.251   3.509   3.669  0.00  0.00     0.002 A 
ATOM      6  C7  UNL d   1       0.068   3.887   3.416  0.00  0.00     0.002 A 
ENDROOT
BRANCH   1   7
ATOM      7  C1  UNL d   1       2.060   4.092   1.879  0.00  0.00     0.055 C 
ATOM      8  C   UNL d   1       2.072   5.327   0.990  0.00  0.00     0.019 C 
ENDBRANCH   1   7
TORSDOF 1
ENDMDL
