MODEL 1
REMARK minimizedAffinity 3.13486505
REMARK minimizedRMSD -1
REMARK  1 active torsions:
REMARK  status: ('A' for Active; 'I' for Inactive)
REMARK    1  A    between atoms: C1_2  and  C2_3 
ROOT
ATOM      1  C2  UNL d   1      -0.553   2.514   0.406  0.00  0.00    -0.077 A 
ATOM      2  C3  UNL d   1      -0.866   2.853   1.730  0.00  0.00     0.002 A 
ATOM      3  C4  UNL d   1       0.079   2.688   2.744  0.00  0.00     0.002 A 
ATOM      4  C5  UNL d   1       1.345   2.188   2.444  0.00  0.00    -0.004 A 
ATOM      5  C6  UNL d   1       1.665   1.846   1.130  0.00  0.00     0.002 A 
ATOM      6  C7  UNL d   1       0.721   2.009   0.116  0.00  0.00     0.002 A 
ENDROOT
BRANCH   1   7
ATOM      7  C1  UNL d   1      -1.555   2.738  -0.697  0.00  0.00     0.055 C 
ATOM      8  C   UNL d   1      -2.954   2.319  -0.267  0.00  0.00     0.019 C 
ENDBRANCH   1   7
TORSDOF 1
ENDMDL
