MODEL 1
REMARK minimizedAffinity -0.457344592
REMARK minimizedRMSD -1
REMARK  1 active torsions:
REMARK  status: ('A' for Active; 'I' for Inactive)
REMARK    1  A    between atoms: C1_2  and  C2_3 
ROOT
ATOM      1  C2  UNL d   1      -0.579   2.545  -4.858  0.00  0.00    -0.077 A 
ATOM      2  C3  UNL d   1      -0.389   3.331  -3.713  0.00  0.00     0.002 A 
ATOM      3  C4  UNL d   1      -0.754   4.678  -3.712  0.00  0.00     0.002 A 
ATOM      4  C5  UNL d   1      -1.314   5.251  -4.852  0.00  0.00    -0.004 A 
ATOM      5  C6  UNL d   1      -1.505   4.479  -5.997  0.00  0.00     0.002 A 
ATOM      6  C7  UNL d   1      -1.140   3.132  -6.000  0.00  0.00     0.002 A 
ENDROOT
BRANCH   1   7
ATOM      7  C1  UNL d   1      -0.232   1.079  -4.845  0.00  0.00     0.055 C 
ATOM      8  C   UNL d   1       1.224   0.852  -5.225  0.00  0.00     0.019 C 
ENDBRANCH   1   7
TORSDOF 1
ENDMDL
