MODEL 1
REMARK minimizedAffinity 0.450977147
REMARK minimizedRMSD -1
REMARK  1 active torsions:
REMARK  status: ('A' for Active; 'I' for Inactive)
REMARK    1  A    between atoms: C1_2  and  C2_3 
ROOT
ATOM      1  C2  UNL d   1       2.148   2.635  -5.227  0.00  0.00    -0.077 A 
ATOM      2  C3  UNL d   1       3.023   3.416  -5.995  0.00  0.00     0.002 A 
ATOM      3  C4  UNL d   1       4.252   3.822  -5.472  0.00  0.00     0.002 A 
ATOM      4  C5  UNL d   1       4.619   3.449  -4.181  0.00  0.00    -0.004 A 
ATOM      5  C6  UNL d   1       3.755   2.674  -3.408  0.00  0.00     0.002 A 
ATOM      6  C7  UNL d   1       2.526   2.268  -3.929  0.00  0.00     0.002 A 
ENDROOT
BRANCH   1   7
ATOM      7  C1  UNL d   1       0.844   2.154  -5.807  0.00  0.00     0.055 C 
ATOM      8  C   UNL d   1      -0.335   2.932  -5.238  0.00  0.00     0.019 C 
ENDBRANCH   1   7
TORSDOF 1
ENDMDL
