MODEL 1
REMARK minimizedAffinity -1.89635146
REMARK minimizedRMSD -1
REMARK  1 active torsions:
REMARK  status: ('A' for Active; 'I' for Inactive)
REMARK    1  A    between atoms: C1_2  and  C2_3 
ROOT
ATOM      1  C2  UNL d   1      -1.886   3.553  -5.770  0.00  0.00    -0.077 A 
ATOM      2  C3  UNL d   1      -1.134   4.725  -5.612  0.00  0.00     0.002 A 
ATOM      3  C4  UNL d   1      -1.768   5.943  -5.356  0.00  0.00     0.002 A 
ATOM      4  C5  UNL d   1      -3.156   5.999  -5.252  0.00  0.00    -0.004 A 
ATOM      5  C6  UNL d   1      -3.914   4.839  -5.410  0.00  0.00     0.002 A 
ATOM      6  C7  UNL d   1      -3.282   3.621  -5.667  0.00  0.00     0.002 A 
ENDROOT
BRANCH   1   7
ATOM      7  C1  UNL d   1      -1.201   2.231  -5.997  0.00  0.00     0.055 C 
ATOM      8  C   UNL d   1       0.313   2.383  -5.986  0.00  0.00     0.019 C 
ENDBRANCH   1   7
TORSDOF 1
ENDMDL
