MODEL 1
REMARK minimizedAffinity -0.226777926
REMARK minimizedRMSD -1
REMARK  1 active torsions:
REMARK  status: ('A' for Active; 'I' for Inactive)
REMARK    1  A    between atoms: C1_2  and  C2_3 
ROOT
ATOM      1  C2  UNL d   1       2.102  -3.560  -3.231  0.00  0.00    -0.077 A 
ATOM      2  C3  UNL d   1       2.800  -4.753  -2.999  0.00  0.00     0.002 A 
ATOM      3  C4  UNL d   1       2.116  -5.967  -2.913  0.00  0.00     0.002 A 
ATOM      4  C5  UNL d   1       0.731  -6.000  -3.062  0.00  0.00    -0.004 A 
ATOM      5  C6  UNL d   1       0.027  -4.818  -3.291  0.00  0.00     0.002 A 
ATOM      6  C7  UNL d   1       0.709  -3.604  -3.375  0.00  0.00     0.002 A 
ENDROOT
BRANCH   1   7
ATOM      7  C1  UNL d   1       2.843  -2.256  -3.372  0.00  0.00     0.055 C 
ATOM      8  C   UNL d   1       4.349  -2.473  -3.371  0.00  0.00     0.019 C 
ENDBRANCH   1   7
TORSDOF 1
ENDMDL
