MODEL 1
REMARK minimizedAffinity -5.26297045
REMARK minimizedRMSD -1
REMARK  1 active torsions:
REMARK  status: ('A' for Active; 'I' for Inactive)
REMARK    1  A    between atoms: C1_2  and  C2_3 
ROOT
ATOM      1  C2  UNL d   1       0.583  -1.614  -0.236  0.00  0.00    -0.077 A 
ATOM      2  C3  UNL d   1       0.834  -0.390   0.401  0.00  0.00     0.002 A 
ATOM      3  C4  UNL d   1       1.767   0.503  -0.129  0.00  0.00     0.002 A 
ATOM      4  C5  UNL d   1       2.453   0.185  -1.300  0.00  0.00    -0.004 A 
ATOM      5  C6  UNL d   1       2.211  -1.031  -1.939  0.00  0.00     0.002 A 
ATOM      6  C7  UNL d   1       1.280  -1.925  -1.410  0.00  0.00     0.002 A 
ENDROOT
BRANCH   1   7
ATOM      7  C1  UNL d   1      -0.459  -2.557   0.307  0.00  0.00     0.055 C 
ATOM      8  C   UNL d   1      -0.975  -3.494  -0.776  0.00  0.00     0.019 C 
ENDBRANCH   1   7
TORSDOF 1
ENDMDL
