MODEL 1
REMARK minimizedAffinity -0.29829368
REMARK minimizedRMSD -1
REMARK  1 active torsions:
REMARK  status: ('A' for Active; 'I' for Inactive)
REMARK    1  A    between atoms: C1_2  and  C2_3 
ROOT
ATOM      1  C2  UNL d   1      -0.118   0.436   0.664  0.00  0.00    -0.077 A 
ATOM      2  C3  UNL d   1      -1.171  -0.473   0.492  0.00  0.00     0.002 A 
ATOM      3  C4  UNL d   1      -2.495  -0.031   0.508  0.00  0.00     0.002 A 
ATOM      4  C5  UNL d   1      -2.778   1.320   0.692  0.00  0.00    -0.004 A 
ATOM      5  C6  UNL d   1      -1.738   2.232   0.866  0.00  0.00     0.002 A 
ATOM      6  C7  UNL d   1      -0.414   1.792   0.851  0.00  0.00     0.002 A 
ENDROOT
BRANCH   1   7
ATOM      7  C1  UNL d   1       1.313  -0.031   0.597  0.00  0.00     0.055 C 
ATOM      8  C   UNL d   1       1.720  -0.367  -0.830  0.00  0.00     0.019 C 
ENDBRANCH   1   7
TORSDOF 1
ENDMDL
