MODEL 1
REMARK minimizedAffinity -2.2467134
REMARK minimizedRMSD -1
REMARK  1 active torsions:
REMARK  status: ('A' for Active; 'I' for Inactive)
REMARK    1  A    between atoms: C1_2  and  C2_3 
ROOT
ATOM      1  C2  UNL d   1       1.651   2.228   1.729  0.00  0.00    -0.077 A 
ATOM      2  C3  UNL d   1       0.549   3.091   1.819  0.00  0.00     0.002 A 
ATOM      3  C4  UNL d   1      -0.663   2.754   1.213  0.00  0.00     0.002 A 
ATOM      4  C5  UNL d   1      -0.786   1.554   0.517  0.00  0.00    -0.004 A 
ATOM      5  C6  UNL d   1       0.304   0.690   0.420  0.00  0.00     0.002 A 
ATOM      6  C7  UNL d   1       1.517   1.025   1.024  0.00  0.00     0.002 A 
ENDROOT
BRANCH   1   7
ATOM      7  C1  UNL d   1       2.944   2.566   2.424  0.00  0.00     0.055 C 
ATOM      8  C   UNL d   1       3.159   4.071   2.491  0.00  0.00     0.019 C 
ENDBRANCH   1   7
TORSDOF 1
ENDMDL
