MODEL 1
REMARK minimizedAffinity 0.962988615
REMARK minimizedRMSD -1
REMARK  1 active torsions:
REMARK  status: ('A' for Active; 'I' for Inactive)
REMARK    1  A    between atoms: C1_2  and  C2_3 
ROOT
ATOM      1  C2  UNL d   1       1.361   1.726   1.035  0.00  0.00    -0.077 A 
ATOM      2  C3  UNL d   1       0.286   2.616   1.167  0.00  0.00     0.002 A 
ATOM      3  C4  UNL d   1      -1.012   2.207   0.854  0.00  0.00     0.002 A 
ATOM      4  C5  UNL d   1      -1.246   0.906   0.412  0.00  0.00    -0.004 A 
ATOM      5  C6  UNL d   1      -0.183   0.014   0.277  0.00  0.00     0.002 A 
ATOM      6  C7  UNL d   1       1.115   0.422   0.588  0.00  0.00     0.002 A 
ENDROOT
BRANCH   1   7
ATOM      7  C1  UNL d   1       2.755   2.151   1.419  0.00  0.00     0.055 C 
ATOM      8  C   UNL d   1       2.766   2.862   2.765  0.00  0.00     0.019 C 
ENDBRANCH   1   7
TORSDOF 1
ENDMDL
