MODEL 1
REMARK minimizedAffinity 0.555048585
REMARK minimizedRMSD -1
REMARK  1 active torsions:
REMARK  status: ('A' for Active; 'I' for Inactive)
REMARK    1  A    between atoms: C1_2  and  C2_3 
ROOT
ATOM      1  C2  UNL d   1       0.546   0.396   0.687  0.00  0.00    -0.077 A 
ATOM      2  C3  UNL d   1      -0.036   1.652   0.904  0.00  0.00     0.002 A 
ATOM      3  C4  UNL d   1      -1.381   1.754   1.266  0.00  0.00     0.002 A 
ATOM      4  C5  UNL d   1      -2.152   0.604   1.418  0.00  0.00    -0.004 A 
ATOM      5  C6  UNL d   1      -1.583  -0.650   1.202  0.00  0.00     0.002 A 
ATOM      6  C7  UNL d   1      -0.239  -0.754   0.839  0.00  0.00     0.002 A 
ENDROOT
BRANCH   1   7
ATOM      7  C1  UNL d   1       2.009   0.281   0.344  0.00  0.00     0.055 C 
ATOM      8  C   UNL d   1       2.211   0.025  -1.142  0.00  0.00     0.019 C 
ENDBRANCH   1   7
TORSDOF 1
ENDMDL
