MODEL 1
REMARK minimizedAffinity -1.48081815
REMARK minimizedRMSD -1
REMARK  1 active torsions:
REMARK  status: ('A' for Active; 'I' for Inactive)
REMARK    1  A    between atoms: C1_2  and  C2_3 
ROOT
ATOM      1  C2  UNL d   1       1.242   1.866   1.630  0.00  0.00    -0.077 A 
ATOM      2  C3  UNL d   1       0.145   2.739   1.651  0.00  0.00     0.002 A 
ATOM      3  C4  UNL d   1      -1.095   2.327   1.159  0.00  0.00     0.002 A 
ATOM      4  C5  UNL d   1      -1.250   1.041   0.646  0.00  0.00    -0.004 A 
ATOM      5  C6  UNL d   1      -0.165   0.166   0.618  0.00  0.00     0.002 A 
ATOM      6  C7  UNL d   1       1.076   0.576   1.109  0.00  0.00     0.002 A 
ENDROOT
BRANCH   1   7
ATOM      7  C1  UNL d   1       2.568   2.291   2.206  0.00  0.00     0.055 C 
ATOM      8  C   UNL d   1       2.381   3.222   3.395  0.00  0.00     0.019 C 
ENDBRANCH   1   7
TORSDOF 1
ENDMDL
