MODEL 1
REMARK minimizedAffinity 7.86937761
REMARK minimizedRMSD -1
REMARK  0 active torsions:
REMARK  status: ('A' for Active; 'I' for Inactive)
ROOT
ATOM      1  C2' OXE d   1       5.905   2.304   2.257  0.00  0.00     0.078 C 
ATOM      2  C1' OXE d   1       5.919   4.791   0.957  0.00  0.00     0.078 C 
ATOM      3  C1  OXE d   1       5.943   4.786   2.465  0.00  0.00    -0.078 A 
ATOM      4  C2  OXE d   1       5.889   3.565   3.094  0.00  0.00    -0.078 A 
ATOM      5  C3  OXE d   1       5.965   3.501   4.482  0.00  0.00     0.003 A 
ATOM      6  C4  OXE d   1       5.939   4.672   5.248  0.00  0.00    -0.002 A 
ATOM      7  C5  OXE d   1       5.954   5.926   4.629  0.00  0.00    -0.002 A 
ATOM      8  C6  OXE d   1       5.999   6.000   3.241  0.00  0.00     0.003 A 
ENDROOT
TORSDOF 0
ENDMDL
