MODEL 1
REMARK minimizedAffinity 3.66221881
REMARK minimizedRMSD -1
REMARK  0 active torsions:
REMARK  status: ('A' for Active; 'I' for Inactive)
ROOT
ATOM      1  C2' OXE d   1       0.644  -1.853  -1.539  0.00  0.00     0.078 C 
ATOM      2  C1' OXE d   1       3.177  -0.658  -1.351  0.00  0.00     0.078 C 
ATOM      3  C1  OXE d   1       2.048  -0.042  -0.563  0.00  0.00    -0.078 A 
ATOM      4  C2  OXE d   1       0.802  -0.605  -0.698  0.00  0.00    -0.078 A 
ATOM      5  C3  OXE d   1      -0.263  -0.110   0.049  0.00  0.00     0.003 A 
ATOM      6  C4  OXE d   1      -0.110   1.051   0.817  0.00  0.00    -0.002 A 
ATOM      7  C5  OXE d   1       1.141   1.664   0.937  0.00  0.00    -0.002 A 
ATOM      8  C6  OXE d   1       2.238   1.106   0.289  0.00  0.00     0.003 A 
ENDROOT
TORSDOF 0
ENDMDL
