MODEL 1
REMARK minimizedAffinity 2.36534715
REMARK minimizedRMSD -1
REMARK  0 active torsions:
REMARK  status: ('A' for Active; 'I' for Inactive)
ROOT
ATOM      1  C2' OXE d   1       5.947   1.544   2.615  0.00  0.00     0.078 C 
ATOM      2  C1' OXE d   1       6.000   2.174   5.349  0.00  0.00     0.078 C 
ATOM      3  C1  OXE d   1       5.977   3.316   4.364  0.00  0.00    -0.078 A 
ATOM      4  C2  OXE d   1       5.999   2.999   3.028  0.00  0.00    -0.078 A 
ATOM      5  C3  OXE d   1       5.923   4.012   2.077  0.00  0.00     0.003 A 
ATOM      6  C4  OXE d   1       5.981   5.356   2.467  0.00  0.00    -0.002 A 
ATOM      7  C5  OXE d   1       6.000   5.701   3.823  0.00  0.00    -0.002 A 
ATOM      8  C6  OXE d   1       5.955   4.696   4.782  0.00  0.00     0.003 A 
ENDROOT
TORSDOF 0
ENDMDL
