MODEL 1
REMARK minimizedAffinity 4.03841782
REMARK minimizedRMSD -1
REMARK  0 active torsions:
REMARK  status: ('A' for Active; 'I' for Inactive)
ROOT
ATOM      1  C2' OXE d   1       5.931   1.676   2.522  0.00  0.00     0.078 C 
ATOM      2  C1' OXE d   1       5.998   2.908   5.044  0.00  0.00     0.078 C 
ATOM      3  C1  OXE d   1       5.973   3.798   3.827  0.00  0.00    -0.078 A 
ATOM      4  C2  OXE d   1       5.987   3.187   2.596  0.00  0.00    -0.078 A 
ATOM      5  C3  OXE d   1       5.910   3.960   1.441  0.00  0.00     0.003 A 
ATOM      6  C4  OXE d   1       5.973   5.357   1.518  0.00  0.00    -0.002 A 
ATOM      7  C5  OXE d   1       5.999   5.999   2.761  0.00  0.00    -0.002 A 
ATOM      8  C6  OXE d   1       5.957   5.237   3.923  0.00  0.00     0.003 A 
ENDROOT
TORSDOF 0
ENDMDL
