MODEL 1
REMARK minimizedAffinity 3.62322283
REMARK minimizedRMSD -1
REMARK  0 active torsions:
REMARK  status: ('A' for Active; 'I' for Inactive)
ROOT
ATOM      1  C2' OXE d   1       5.976   2.250   5.723  0.00  0.00     0.078 C 
ATOM      2  C1' OXE d   1       5.956   1.992   2.928  0.00  0.00     0.078 C 
ATOM      3  C1  OXE d   1       5.970   3.385   3.505  0.00  0.00    -0.078 A 
ATOM      4  C2  OXE d   1       5.933   3.502   4.874  0.00  0.00    -0.078 A 
ATOM      5  C3  OXE d   1       6.000   4.763   5.460  0.00  0.00     0.003 A 
ATOM      6  C4  OXE d   1       5.950   5.916   4.668  0.00  0.00    -0.002 A 
ATOM      7  C5  OXE d   1       5.947   5.819   3.272  0.00  0.00    -0.002 A 
ATOM      8  C6  OXE d   1       6.000   4.564   2.676  0.00  0.00     0.003 A 
ENDROOT
TORSDOF 0
ENDMDL
