MODEL 1
REMARK minimizedAffinity 9.21288204
REMARK minimizedRMSD -1
REMARK  0 active torsions:
REMARK  status: ('A' for Active; 'I' for Inactive)
ROOT
ATOM      1  C2' OXE d   1       0.371   2.339   1.442  0.00  0.00     0.078 C 
ATOM      2  C1' OXE d   1       2.821   2.136   0.086  0.00  0.00     0.078 C 
ATOM      3  C1  OXE d   1       2.857   2.268   1.588  0.00  0.00    -0.078 A 
ATOM      4  C2  OXE d   1       1.655   2.414   2.239  0.00  0.00    -0.078 A 
ATOM      5  C3  OXE d   1       1.628   2.485   3.629  0.00  0.00     0.003 A 
ATOM      6  C4  OXE d   1       2.821   2.563   4.358  0.00  0.00    -0.002 A 
ATOM      7  C5  OXE d   1       4.057   2.457   3.711  0.00  0.00    -0.002 A 
ATOM      8  C6  OXE d   1       4.091   2.266   2.334  0.00  0.00     0.003 A 
ENDROOT
TORSDOF 0
ENDMDL
