MODEL 1
REMARK minimizedAffinity 2.77236009
REMARK minimizedRMSD -1
REMARK  0 active torsions:
REMARK  status: ('A' for Active; 'I' for Inactive)
ROOT
ATOM      1  C2' OXE d   1       1.063  -1.507  -0.442  0.00  0.00     0.078 C 
ATOM      2  C1' OXE d   1       3.225   0.081  -1.268  0.00  0.00     0.078 C 
ATOM      3  C1  OXE d   1       2.274   0.661  -0.252  0.00  0.00    -0.078 A 
ATOM      4  C2  OXE d   1       1.193  -0.105   0.112  0.00  0.00    -0.078 A 
ATOM      5  C3  OXE d   1       0.315   0.361   1.087  0.00  0.00     0.003 A 
ATOM      6  C4  OXE d   1       0.436   1.663   1.587  0.00  0.00    -0.002 A 
ATOM      7  C5  OXE d   1       1.508   2.475   1.199  0.00  0.00    -0.002 A 
ATOM      8  C6  OXE d   1       2.457   1.975   0.315  0.00  0.00     0.003 A 
ENDROOT
TORSDOF 0
ENDMDL
