MODEL 1
REMARK minimizedAffinity 4.58809328
REMARK minimizedRMSD -1
REMARK  0 active torsions:
REMARK  status: ('A' for Active; 'I' for Inactive)
ROOT
ATOM      1  C2' OXE d   1       4.800   5.873  -2.241  0.00  0.00     0.078 C 
ATOM      2  C1' OXE d   1       5.994   3.449  -2.999  0.00  0.00     0.078 C 
ATOM      3  C1  OXE d   1       4.846   3.392  -2.023  0.00  0.00    -0.078 A 
ATOM      4  C2  OXE d   1       4.298   4.587  -1.621  0.00  0.00    -0.078 A 
ATOM      5  C3  OXE d   1       3.201   4.589  -0.765  0.00  0.00     0.003 A 
ATOM      6  C4  OXE d   1       2.749   3.395  -0.189  0.00  0.00    -0.002 A 
ATOM      7  C5  OXE d   1       3.319   2.171  -0.553  0.00  0.00    -0.002 A 
ATOM      8  C6  OXE d   1       4.338   2.148  -1.499  0.00  0.00     0.003 A 
ENDROOT
TORSDOF 0
ENDMDL
