MODEL 1
REMARK minimizedAffinity 10.5396633
REMARK minimizedRMSD -1
REMARK  0 active torsions:
REMARK  status: ('A' for Active; 'I' for Inactive)
ROOT
ATOM      1  C2' OXE d   1       1.858   1.364  -4.500  0.00  0.00     0.078 C 
ATOM      2  C1' OXE d   1       3.583   1.116  -2.300  0.00  0.00     0.078 C 
ATOM      3  C1  OXE d   1       4.151   1.678  -3.579  0.00  0.00    -0.078 A 
ATOM      4  C2  OXE d   1       3.312   1.752  -4.664  0.00  0.00    -0.078 A 
ATOM      5  C3  OXE d   1       3.769   2.314  -5.853  0.00  0.00     0.003 A 
ATOM      6  C4  OXE d   1       5.118   2.661  -6.000  0.00  0.00    -0.002 A 
ATOM      7  C5  OXE d   1       6.000   2.556  -4.919  0.00  0.00    -0.002 A 
ATOM      8  C6  OXE d   1       5.523   2.107  -3.692  0.00  0.00     0.003 A 
ENDROOT
TORSDOF 0
ENDMDL
