MODEL 1
REMARK minimizedAffinity 13.2379217
REMARK minimizedRMSD -1
REMARK  0 active torsions:
REMARK  status: ('A' for Active; 'I' for Inactive)
ROOT
ATOM      1  C2' OXE d   1      -0.320  -0.031   0.734  0.00  0.00     0.078 C 
ATOM      2  C1' OXE d   1      -1.905   1.961   1.916  0.00  0.00     0.078 C 
ATOM      3  C1  OXE d   1      -0.486   2.317   1.550  0.00  0.00    -0.078 A 
ATOM      4  C2  OXE d   1       0.297   1.322   1.015  0.00  0.00    -0.078 A 
ATOM      5  C3  OXE d   1       1.596   1.612   0.608  0.00  0.00     0.003 A 
ATOM      6  C4  OXE d   1       2.162   2.863   0.881  0.00  0.00    -0.002 A 
ATOM      7  C5  OXE d   1       1.394   3.878   1.461  0.00  0.00    -0.002 A 
ATOM      8  C6  OXE d   1       0.059   3.635   1.762  0.00  0.00     0.003 A 
ENDROOT
TORSDOF 0
ENDMDL
