MODEL 1
REMARK minimizedAffinity 4.1516366
REMARK minimizedRMSD -1
REMARK  0 active torsions:
REMARK  status: ('A' for Active; 'I' for Inactive)
ROOT
ATOM      1  C2' OXE d   1       1.642  -2.260   1.534  0.00  0.00     0.078 C 
ATOM      2  C1' OXE d   1       1.276  -4.657   0.119  0.00  0.00     0.078 C 
ATOM      3  C1  OXE d   1       1.868  -4.741   1.503  0.00  0.00    -0.078 A 
ATOM      4  C2  OXE d   1       2.088  -3.560   2.170  0.00  0.00    -0.078 A 
ATOM      5  C3  OXE d   1       2.581  -3.584   3.471  0.00  0.00     0.003 A 
ATOM      6  C4  OXE d   1       3.000  -4.789   4.048  0.00  0.00    -0.002 A 
ATOM      7  C5  OXE d   1       2.822  -6.000   3.371  0.00  0.00    -0.002 A 
ATOM      8  C6  OXE d   1       2.220  -5.997   2.118  0.00  0.00     0.003 A 
ENDROOT
TORSDOF 0
ENDMDL
