MODEL 1
REMARK minimizedAffinity 13.8812199
REMARK minimizedRMSD -1
REMARK  0 active torsions:
REMARK  status: ('A' for Active; 'I' for Inactive)
ROOT
ATOM      1  C2' OXE d   1       5.959   0.535   1.895  0.00  0.00     0.078 C 
ATOM      2  C1' OXE d   1       5.924  -2.251   2.233  0.00  0.00     0.078 C 
ATOM      3  C1  OXE d   1       5.933  -1.392   3.473  0.00  0.00    -0.078 A 
ATOM      4  C2  OXE d   1       5.997  -0.031   3.298  0.00  0.00    -0.078 A 
ATOM      5  C3  OXE d   1       5.952   0.810   4.407  0.00  0.00     0.003 A 
ATOM      6  C4  OXE d   1       5.998   0.278   5.701  0.00  0.00    -0.002 A 
ATOM      7  C5  OXE d   1       5.973  -1.106   5.901  0.00  0.00    -0.002 A 
ATOM      8  C6  OXE d   1       5.898  -1.953   4.801  0.00  0.00     0.003 A 
ENDROOT
TORSDOF 0
ENDMDL
