MODEL 1
REMARK minimizedAffinity 3.39846563
REMARK minimizedRMSD -1
REMARK  0 active torsions:
REMARK  status: ('A' for Active; 'I' for Inactive)
ROOT
ATOM      1  C2' OXE d   1      -3.468  -1.980  -0.553  0.00  0.00     0.078 C 
ATOM      2  C1' OXE d   1      -0.737  -1.686   0.026  0.00  0.00     0.078 C 
ATOM      3  C1  OXE d   1      -1.368  -3.032   0.278  0.00  0.00    -0.078 A 
ATOM      4  C2  OXE d   1      -2.716  -3.154   0.036  0.00  0.00    -0.078 A 
ATOM      5  C3  OXE d   1      -3.336  -4.389   0.199  0.00  0.00     0.003 A 
ATOM      6  C4  OXE d   1      -2.636  -5.467   0.753  0.00  0.00    -0.002 A 
ATOM      7  C5  OXE d   1      -1.272  -5.353   1.044  0.00  0.00    -0.002 A 
ATOM      8  C6  OXE d   1      -0.615  -4.158   0.773  0.00  0.00     0.003 A 
ENDROOT
TORSDOF 0
ENDMDL
