MODEL 1
REMARK minimizedAffinity 8.88547897
REMARK minimizedRMSD -1
REMARK  0 active torsions:
REMARK  status: ('A' for Active; 'I' for Inactive)
ROOT
ATOM      1  C2' OXE d   1       2.449  -3.792   4.588  0.00  0.00     0.078 C 
ATOM      2  C1' OXE d   1       1.956  -5.802   2.691  0.00  0.00     0.078 C 
ATOM      3  C1  OXE d   1       3.388  -5.386   2.919  0.00  0.00    -0.078 A 
ATOM      4  C2  OXE d   1       3.616  -4.369   3.816  0.00  0.00    -0.078 A 
ATOM      5  C3  OXE d   1       4.922  -3.985   4.104  0.00  0.00     0.003 A 
ATOM      6  C4  OXE d   1       5.994  -4.517   3.378  0.00  0.00    -0.002 A 
ATOM      7  C5  OXE d   1       5.781  -5.525   2.432  0.00  0.00    -0.002 A 
ATOM      8  C6  OXE d   1       4.491  -6.000   2.222  0.00  0.00     0.003 A 
ENDROOT
TORSDOF 0
ENDMDL
