MODEL 1
REMARK minimizedAffinity 4.0548954
REMARK minimizedRMSD -1
REMARK  0 active torsions:
REMARK  status: ('A' for Active; 'I' for Inactive)
ROOT
ATOM      1  C2' OXE d   1       6.000   4.566   2.019  0.00  0.00     0.078 C 
ATOM      2  C1' OXE d   1       3.696   3.175   2.815  0.00  0.00     0.078 C 
ATOM      3  C1  OXE d   1       4.288   4.168   3.784  0.00  0.00    -0.078 A 
ATOM      4  C2  OXE d   1       5.442   4.810   3.404  0.00  0.00    -0.078 A 
ATOM      5  C3  OXE d   1       6.000   5.775   4.238  0.00  0.00     0.003 A 
ATOM      6  C4  OXE d   1       5.484   5.987   5.522  0.00  0.00    -0.002 A 
ATOM      7  C5  OXE d   1       4.332   5.314   5.944  0.00  0.00    -0.002 A 
ATOM      8  C6  OXE d   1       3.699   4.435   5.073  0.00  0.00     0.003 A 
ENDROOT
TORSDOF 0
ENDMDL
