MODEL 1
REMARK minimizedAffinity 16.1942158
REMARK minimizedRMSD -1
REMARK  0 active torsions:
REMARK  status: ('A' for Active; 'I' for Inactive)
ROOT
ATOM      1  C2' OXE d   1       5.956   3.485   4.994  0.00  0.00     0.078 C 
ATOM      2  C1' OXE d   1       5.960   3.110   2.212  0.00  0.00     0.078 C 
ATOM      3  C1  OXE d   1       5.955   1.882   3.087  0.00  0.00    -0.078 A 
ATOM      4  C2  OXE d   1       6.000   2.075   4.447  0.00  0.00    -0.078 A 
ATOM      5  C3  OXE d   1       5.942   0.977   5.301  0.00  0.00     0.003 A 
ATOM      6  C4  OXE d   1       5.992  -0.324   4.787  0.00  0.00    -0.002 A 
ATOM      7  C5  OXE d   1       5.987  -0.543   3.406  0.00  0.00    -0.002 A 
ATOM      8  C6  OXE d   1       5.925   0.547   2.544  0.00  0.00     0.003 A 
ENDROOT
TORSDOF 0
ENDMDL
