MODEL 1
REMARK minimizedAffinity 11.4856777
REMARK minimizedRMSD -1
REMARK  0 active torsions:
REMARK  status: ('A' for Active; 'I' for Inactive)
ROOT
ATOM      1  C2' OXE d   1      -2.274  -0.952   5.999  0.00  0.00     0.078 C 
ATOM      2  C1' OXE d   1      -3.727   1.450   5.999  0.00  0.00     0.078 C 
ATOM      3  C1  OXE d   1      -4.299   0.281   5.236  0.00  0.00    -0.078 A 
ATOM      4  C2  OXE d   1      -3.558  -0.876   5.202  0.00  0.00    -0.078 A 
ATOM      5  C3  OXE d   1      -4.066  -2.001   4.558  0.00  0.00     0.003 A 
ATOM      6  C4  OXE d   1      -5.250  -1.919   3.816  0.00  0.00    -0.002 A 
ATOM      7  C5  OXE d   1      -6.000  -0.738   3.803  0.00  0.00    -0.002 A 
ATOM      8  C6  OXE d   1      -5.561   0.356   4.542  0.00  0.00     0.003 A 
ENDROOT
TORSDOF 0
ENDMDL
