MODEL 1
REMARK minimizedAffinity 12.9948778
REMARK minimizedRMSD -1
REMARK  3 active torsions:
REMARK  status: ('A' for Active; 'I' for Inactive)
REMARK    1  A    between atoms: C3'_2  and  C2'_3 
REMARK    2  A    between atoms: C2'_3  and  C1'_4 
REMARK    3  A    between atoms: C1'_4  and  C1_5 
ROOT
ATOM      1  C1  N4B d   1       4.295   3.734   1.858  0.00  0.00    -0.075 A 
ATOM      2  C2  N4B d   1       4.172   5.124   1.638  0.00  0.00     0.002 A 
ATOM      3  C3  N4B d   1       4.302   6.000   2.688  0.00  0.00     0.002 A 
ATOM      4  C4  N4B d   1       4.534   5.510   3.964  0.00  0.00    -0.004 A 
ATOM      5  C5  N4B d   1       4.677   4.169   4.165  0.00  0.00     0.002 A 
ATOM      6  C6  N4B d   1       4.553   3.277   3.118  0.00  0.00     0.002 A 
ENDROOT
BRANCH   1   7
ATOM      7  C1' N4B d   1       4.076   2.733   0.757  0.00  0.00     0.057 C 
BRANCH   7   8
ATOM      8  C2' N4B d   1       4.804   1.438   1.106  0.00  0.00     0.009 C 
BRANCH   8   9
ATOM      9  C3' N4B d   1       5.766   1.014   0.009  0.00  0.00     0.004 C 
ATOM     10  C4' N4B d   1       5.674  -0.448  -0.311  0.00  0.00     0.003 C 
ENDBRANCH   8   9
ENDBRANCH   7   8
ENDBRANCH   1   7
TORSDOF 3
ENDMDL
