MODEL 1
REMARK minimizedAffinity 12.5461206
REMARK minimizedRMSD -1
REMARK  3 active torsions:
REMARK  status: ('A' for Active; 'I' for Inactive)
REMARK    1  A    between atoms: C3'_2  and  C2'_3 
REMARK    2  A    between atoms: C2'_3  and  C1'_4 
REMARK    3  A    between atoms: C1'_4  and  C1_5 
ROOT
ATOM      1  C1  N4B d   1       2.221   0.045   4.124  0.00  0.00    -0.075 A 
ATOM      2  C2  N4B d   1       1.638  -0.507   2.962  0.00  0.00     0.002 A 
ATOM      3  C3  N4B d   1       0.347  -0.184   2.622  0.00  0.00     0.002 A 
ATOM      4  C4  N4B d   1      -0.383   0.670   3.435  0.00  0.00    -0.004 A 
ATOM      5  C5  N4B d   1       0.196   1.219   4.541  0.00  0.00     0.002 A 
ATOM      6  C6  N4B d   1       1.494   0.907   4.893  0.00  0.00     0.002 A 
ENDROOT
BRANCH   1   7
ATOM      7  C1' N4B d   1       3.599  -0.345   4.583  0.00  0.00     0.057 C 
BRANCH   7   8
ATOM      8  C2' N4B d   1       3.567  -1.780   5.099  0.00  0.00     0.009 C 
BRANCH   8   9
ATOM      9  C3' N4B d   1       4.891  -2.190   5.721  0.00  0.00     0.004 C 
ATOM     10  C4' N4B d   1       4.971  -3.662   5.999  0.00  0.00     0.003 C 
ENDBRANCH   8   9
ENDBRANCH   7   8
ENDBRANCH   1   7
TORSDOF 3
ENDMDL
