MODEL 1
REMARK minimizedAffinity 17.9043484
REMARK minimizedRMSD -1
REMARK  3 active torsions:
REMARK  status: ('A' for Active; 'I' for Inactive)
REMARK    1  A    between atoms: C3'_2  and  C2'_3 
REMARK    2  A    between atoms: C2'_3  and  C1'_4 
REMARK    3  A    between atoms: C1'_4  and  C1_5 
ROOT
ATOM      1  C1  N4B d   1      -0.500  -1.865  -4.254  0.00  0.00    -0.075 A 
ATOM      2  C2  N4B d   1      -1.170  -2.316  -3.096  0.00  0.00     0.002 A 
ATOM      3  C3  N4B d   1      -0.877  -1.763  -1.874  0.00  0.00     0.002 A 
ATOM      4  C4  N4B d   1       0.092  -0.774  -1.783  0.00  0.00    -0.004 A 
ATOM      5  C5  N4B d   1       0.716  -0.326  -2.910  0.00  0.00     0.002 A 
ATOM      6  C6  N4B d   1       0.429  -0.870  -4.146  0.00  0.00     0.002 A 
ENDROOT
BRANCH   1   7
ATOM      7  C1' N4B d   1      -0.725  -2.499  -5.600  0.00  0.00     0.057 C 
BRANCH   7   8
ATOM      8  C2' N4B d   1      -1.499  -3.801  -5.416  0.00  0.00     0.009 C 
BRANCH   8   9
ATOM      9  C3' N4B d   1      -0.755  -4.991  -5.999  0.00  0.00     0.004 C 
ATOM     10  C4' N4B d   1       0.733  -4.804  -5.996  0.00  0.00     0.003 C 
ENDBRANCH   8   9
ENDBRANCH   7   8
ENDBRANCH   1   7
TORSDOF 3
ENDMDL
