MODEL 1
REMARK minimizedAffinity 5.14447165
REMARK minimizedRMSD -1
REMARK  3 active torsions:
REMARK  status: ('A' for Active; 'I' for Inactive)
REMARK    1  A    between atoms: C3'_2  and  C2'_3 
REMARK    2  A    between atoms: C2'_3  and  C1'_4 
REMARK    3  A    between atoms: C1'_4  and  C1_5 
ROOT
ATOM      1  C1  N4B d   1       0.014  -2.760  -5.952  0.00  0.00    -0.075 A 
ATOM      2  C2  N4B d   1       1.211  -3.508  -5.970  0.00  0.00     0.002 A 
ATOM      3  C3  N4B d   1       1.162  -4.881  -5.998  0.00  0.00     0.002 A 
ATOM      4  C4  N4B d   1      -0.066  -5.524  -5.989  0.00  0.00    -0.004 A 
ATOM      5  C5  N4B d   1      -1.218  -4.793  -5.996  0.00  0.00     0.002 A 
ATOM      6  C6  N4B d   1      -1.184  -3.413  -5.973  0.00  0.00     0.002 A 
ENDROOT
BRANCH   1   7
ATOM      7  C1' N4B d   1       0.017  -1.260  -5.834  0.00  0.00     0.057 C 
BRANCH   7   8
ATOM      8  C2' N4B d   1       0.470  -0.868  -4.431  0.00  0.00     0.009 C 
BRANCH   8   9
ATOM      9  C3' N4B d   1       1.791  -0.119  -4.450  0.00  0.00     0.004 C 
ATOM     10  C4' N4B d   1       2.976  -1.032  -4.547  0.00  0.00     0.003 C 
ENDBRANCH   8   9
ENDBRANCH   7   8
ENDBRANCH   1   7
TORSDOF 3
ENDMDL
