MODEL 1
REMARK minimizedAffinity 18.9553738
REMARK minimizedRMSD -1
REMARK  3 active torsions:
REMARK  status: ('A' for Active; 'I' for Inactive)
REMARK    1  A    between atoms: C3'_2  and  C2'_3 
REMARK    2  A    between atoms: C2'_3  and  C1'_4 
REMARK    3  A    between atoms: C1'_4  and  C1_5 
ROOT
ATOM      1  C1  N4B d   1      -0.436  -0.107   2.600  0.00  0.00    -0.075 A 
ATOM      2  C2  N4B d   1      -0.597   0.983   3.483  0.00  0.00     0.002 A 
ATOM      3  C3  N4B d   1       0.292   1.170   4.512  0.00  0.00     0.002 A 
ATOM      4  C4  N4B d   1       1.336   0.275   4.688  0.00  0.00    -0.004 A 
ATOM      5  C5  N4B d   1       1.500  -0.761   3.816  0.00  0.00     0.002 A 
ATOM      6  C6  N4B d   1       0.616  -0.960   2.775  0.00  0.00     0.002 A 
ENDROOT
BRANCH   1   7
ATOM      7  C1' N4B d   1      -1.432  -0.403   1.512  0.00  0.00     0.057 C 
BRANCH   7   8
ATOM      8  C2' N4B d   1      -2.811  -0.596   2.136  0.00  0.00     0.009 C 
BRANCH   8   9
ATOM      9  C3' N4B d   1      -3.199  -2.063   2.214  0.00  0.00     0.004 C 
ATOM     10  C4' N4B d   1      -3.643  -2.617   0.894  0.00  0.00     0.003 C 
ENDBRANCH   8   9
ENDBRANCH   7   8
ENDBRANCH   1   7
TORSDOF 3
ENDMDL
