MODEL 1
REMARK minimizedAffinity 5.40529346
REMARK minimizedRMSD -1
REMARK  3 active torsions:
REMARK  status: ('A' for Active; 'I' for Inactive)
REMARK    1  A    between atoms: C3'_2  and  C2'_3 
REMARK    2  A    between atoms: C2'_3  and  C1'_4 
REMARK    3  A    between atoms: C1'_4  and  C1_5 
ROOT
ATOM      1  C1  N4B d   1       0.356  -0.943   3.299  0.00  0.00    -0.075 A 
ATOM      2  C2  N4B d   1      -0.835  -1.467   2.751  0.00  0.00     0.002 A 
ATOM      3  C3  N4B d   1      -1.189  -2.771   2.997  0.00  0.00     0.002 A 
ATOM      4  C4  N4B d   1      -0.362  -3.572   3.770  0.00  0.00    -0.004 A 
ATOM      5  C5  N4B d   1       0.774  -3.051   4.317  0.00  0.00     0.002 A 
ATOM      6  C6  N4B d   1       1.141  -1.741   4.081  0.00  0.00     0.002 A 
ENDROOT
BRANCH   1   7
ATOM      7  C1' N4B d   1       0.829   0.450   2.987  0.00  0.00     0.057 C 
BRANCH   7   8
ATOM      8  C2' N4B d   1       0.001   1.451   3.787  0.00  0.00     0.009 C 
BRANCH   8   9
ATOM      9  C3' N4B d   1       0.423   1.500   5.246  0.00  0.00     0.004 C 
ATOM     10  C4' N4B d   1      -0.221   2.625   5.999  0.00  0.00     0.003 C 
ENDBRANCH   8   9
ENDBRANCH   7   8
ENDBRANCH   1   7
TORSDOF 3
ENDMDL
