MODEL 1
REMARK minimizedAffinity 3.65475082
REMARK minimizedRMSD -1
REMARK  0 active torsions:
REMARK  status: ('A' for Active; 'I' for Inactive)
ROOT
ATOM      1  C4' PXY d   1      -1.198   1.380   1.027  0.00  0.00     0.077 C 
ATOM      2  C1' PXY d   1       1.073  -3.688   2.629  0.00  0.00     0.077 C 
ATOM      3  C1  PXY d   1       0.488  -2.357   2.201  0.00  0.00    -0.082 A 
ATOM      4  C2  PXY d   1      -0.382  -1.742   2.986  0.00  0.00     0.003 A 
ATOM      5  C3  PXY d   1      -0.945  -0.553   2.600  0.00  0.00     0.003 A 
ATOM      6  C4  PXY d   1      -0.574   0.039   1.423  0.00  0.00    -0.082 A 
ATOM      7  C5  PXY d   1       0.321  -0.577   0.621  0.00  0.00     0.003 A 
ATOM      8  C6  PXY d   1       0.850  -1.803   1.012  0.00  0.00     0.003 A 
ENDROOT
TORSDOF 0
ENDMDL
