MODEL 1
REMARK minimizedAffinity 2.62149262
REMARK minimizedRMSD -1
REMARK  0 active torsions:
REMARK  status: ('A' for Active; 'I' for Inactive)
ROOT
ATOM      1  C4' PXY d   1       0.747  -3.115   2.802  0.00  0.00     0.077 C 
ATOM      2  C1' PXY d   1      -0.814   0.768  -1.185  0.00  0.00     0.077 C 
ATOM      3  C1  PXY d   1      -0.410  -0.243  -0.130  0.00  0.00    -0.082 A 
ATOM      4  C2  PXY d   1       0.607  -1.057  -0.360  0.00  0.00     0.003 A 
ATOM      5  C3  PXY d   1       0.966  -1.999   0.570  0.00  0.00     0.003 A 
ATOM      6  C4  PXY d   1       0.310  -2.073   1.770  0.00  0.00    -0.082 A 
ATOM      7  C5  PXY d   1      -0.722  -1.238   2.016  0.00  0.00     0.003 A 
ATOM      8  C6  PXY d   1      -1.097  -0.317   1.042  0.00  0.00     0.003 A 
ENDROOT
TORSDOF 0
ENDMDL
