MODEL 1
REMARK minimizedAffinity 2.60100913
REMARK minimizedRMSD -1
REMARK  0 active torsions:
REMARK  status: ('A' for Active; 'I' for Inactive)
ROOT
ATOM      1  C4' PXY d   1      -2.644   2.920  -3.388  0.00  0.00     0.077 C 
ATOM      2  C1' PXY d   1      -5.309  -2.209  -3.358  0.00  0.00     0.077 C 
ATOM      3  C1  PXY d   1      -4.611  -0.864  -3.379  0.00  0.00    -0.082 A 
ATOM      4  C2  PXY d   1      -3.794  -0.535  -2.392  0.00  0.00     0.003 A 
ATOM      5  C3  PXY d   1      -3.180   0.691  -2.378  0.00  0.00     0.003 A 
ATOM      6  C4  PXY d   1      -3.362   1.568  -3.413  0.00  0.00    -0.082 A 
ATOM      7  C5  PXY d   1      -4.186   1.236  -4.430  0.00  0.00     0.003 A 
ATOM      8  C6  PXY d   1      -4.832   0.003  -4.404  0.00  0.00     0.003 A 
ENDROOT
TORSDOF 0
ENDMDL
