MODEL 1
REMARK minimizedAffinity 5.06401396
REMARK minimizedRMSD -1
REMARK  0 active torsions:
REMARK  status: ('A' for Active; 'I' for Inactive)
ROOT
ATOM      1  C4' PXY d   1       2.184  -0.275  -0.470  0.00  0.00     0.077 C 
ATOM      2  C1' PXY d   1      -3.408  -0.561   0.966  0.00  0.00     0.077 C 
ATOM      3  C1  PXY d   1      -1.945  -0.490   0.577  0.00  0.00    -0.082 A 
ATOM      4  C2  PXY d   1      -1.015  -0.563   1.515  0.00  0.00     0.003 A 
ATOM      5  C3  PXY d   1       0.313  -0.469   1.185  0.00  0.00     0.003 A 
ATOM      6  C4  PXY d   1       0.694  -0.352  -0.125  0.00  0.00    -0.082 A 
ATOM      7  C5  PXY d   1      -0.249  -0.287  -1.089  0.00  0.00     0.003 A 
ATOM      8  C6  PXY d   1      -1.592  -0.344  -0.729  0.00  0.00     0.003 A 
ENDROOT
TORSDOF 0
ENDMDL
