MODEL 1
REMARK minimizedAffinity -2.36025977
REMARK minimizedRMSD -1
REMARK  0 active torsions:
REMARK  status: ('A' for Active; 'I' for Inactive)
ROOT
ATOM      1  C4' PXY d   1      -2.138   0.008   1.741  0.00  0.00     0.077 C 
ATOM      2  C1' PXY d   1       2.079  -3.828   2.695  0.00  0.00     0.077 C 
ATOM      3  C1  PXY d   1       0.965  -2.831   2.450  0.00  0.00    -0.082 A 
ATOM      4  C2  PXY d   1       1.108  -1.906   1.514  0.00  0.00     0.003 A 
ATOM      5  C3  PXY d   1       0.124  -0.976   1.301  0.00  0.00     0.003 A 
ATOM      6  C4  PXY d   1      -1.043  -1.025   2.017  0.00  0.00    -0.082 A 
ATOM      7  C5  PXY d   1      -1.201  -1.972   2.966  0.00  0.00     0.003 A 
ATOM      8  C6  PXY d   1      -0.173  -2.882   3.195  0.00  0.00     0.003 A 
ENDROOT
TORSDOF 0
ENDMDL
