MODEL 1
REMARK minimizedAffinity -3.94423413
REMARK minimizedRMSD -1
REMARK  0 active torsions:
REMARK  status: ('A' for Active; 'I' for Inactive)
ROOT
ATOM      1  C   UNL d   1      -0.096   3.014   0.257  0.00  0.00     0.078 C 
ATOM      2  C1  UNL d   1       0.256   1.558   0.328  0.00  0.00    -0.077 A 
ATOM      3  C2  UNL d   1       1.590   1.142   0.426  0.00  0.00    -0.001 A 
ATOM      4  C3  UNL d   1       1.904  -0.217   0.481  0.00  0.00     0.003 A 
ATOM      5  C4  UNL d   1       0.890  -1.171   0.437  0.00  0.00    -0.005 A 
ATOM      6  C5  UNL d   1      -0.440  -0.768   0.338  0.00  0.00     0.003 A 
ATOM      7  C6  UNL d   1      -0.756   0.591   0.282  0.00  0.00    -0.001 A 
ENDROOT
TORSDOF 0
ENDMDL
