MODEL 1
REMARK minimizedAffinity -5.89620256
REMARK minimizedRMSD -1
REMARK  0 active torsions:
REMARK  status: ('A' for Active; 'I' for Inactive)
ROOT
ATOM      1  C   UNL d   1       0.080   3.202   0.083  0.00  0.00     0.078 C 
ATOM      2  C1  UNL d   1       0.479   1.762   0.201  0.00  0.00    -0.077 A 
ATOM      3  C2  UNL d   1       1.828   1.385   0.211  0.00  0.00    -0.001 A 
ATOM      4  C3  UNL d   1       2.184   0.040   0.312  0.00  0.00     0.003 A 
ATOM      5  C4  UNL d   1       1.198  -0.940   0.403  0.00  0.00    -0.005 A 
ATOM      6  C5  UNL d   1      -0.147  -0.576   0.393  0.00  0.00     0.003 A 
ATOM      7  C6  UNL d   1      -0.505   0.769   0.291  0.00  0.00    -0.001 A 
ENDROOT
TORSDOF 0
ENDMDL
