MODEL 1
REMARK minimizedAffinity -5.36322451
REMARK minimizedRMSD -1
REMARK  0 active torsions:
REMARK  status: ('A' for Active; 'I' for Inactive)
ROOT
ATOM      1  C   UNL d   1      -1.788  -0.044   1.034  0.00  0.00     0.078 C 
ATOM      2  C1  UNL d   1      -0.676   0.829   0.533  0.00  0.00    -0.077 A 
ATOM      3  C2  UNL d   1       0.436   0.279  -0.115  0.00  0.00    -0.001 A 
ATOM      4  C3  UNL d   1       1.469   1.103  -0.567  0.00  0.00     0.003 A 
ATOM      5  C4  UNL d   1       1.399   2.481  -0.375  0.00  0.00    -0.005 A 
ATOM      6  C5  UNL d   1       0.297   3.038   0.271  0.00  0.00     0.003 A 
ATOM      7  C6  UNL d   1      -0.737   2.215   0.724  0.00  0.00    -0.001 A 
ENDROOT
TORSDOF 0
ENDMDL
