MODEL 1
REMARK minimizedAffinity -5.40765667
REMARK minimizedRMSD -1
REMARK  0 active torsions:
REMARK  status: ('A' for Active; 'I' for Inactive)
ROOT
ATOM      1  C   UNL d   1       0.147  -1.441  -0.313  0.00  0.00     0.078 C 
ATOM      2  C1  UNL d   1      -0.014   0.034  -0.092  0.00  0.00    -0.077 A 
ATOM      3  C2  UNL d   1      -1.163   0.550   0.520  0.00  0.00    -0.001 A 
ATOM      4  C3  UNL d   1      -1.303   1.926   0.711  0.00  0.00     0.003 A 
ATOM      5  C4  UNL d   1      -0.298   2.796   0.292  0.00  0.00    -0.005 A 
ATOM      6  C5  UNL d   1       0.848   2.292  -0.319  0.00  0.00     0.003 A 
ATOM      7  C6  UNL d   1       0.990   0.917  -0.511  0.00  0.00    -0.001 A 
ENDROOT
TORSDOF 0
ENDMDL
