MODEL 1
REMARK minimizedAffinity -5.87474442
REMARK minimizedRMSD -1
REMARK  0 active torsions:
REMARK  status: ('A' for Active; 'I' for Inactive)
ROOT
ATOM      1  C   UNL d   1       0.372  -1.038  -0.038  0.00  0.00     0.078 C 
ATOM      2  C1  UNL d   1       0.645   0.394   0.310  0.00  0.00    -0.077 A 
ATOM      3  C2  UNL d   1      -0.388   1.340   0.331  0.00  0.00    -0.001 A 
ATOM      4  C3  UNL d   1      -0.118   2.673   0.648  0.00  0.00     0.003 A 
ATOM      5  C4  UNL d   1       1.184   3.072   0.944  0.00  0.00    -0.005 A 
ATOM      6  C5  UNL d   1       2.218   2.138   0.924  0.00  0.00     0.003 A 
ATOM      7  C6  UNL d   1       1.950   0.805   0.607  0.00  0.00    -0.001 A 
ENDROOT
TORSDOF 0
ENDMDL
