MODEL 1
REMARK minimizedAffinity -4.88163614
REMARK minimizedRMSD -1
REMARK  0 active torsions:
REMARK  status: ('A' for Active; 'I' for Inactive)
ROOT
ATOM      1  C   UNL d   1       0.933   2.721  -0.481  0.00  0.00     0.078 C 
ATOM      2  C1  UNL d   1       0.929   1.274  -0.087  0.00  0.00    -0.077 A 
ATOM      3  C2  UNL d   1       2.110   0.629   0.302  0.00  0.00    -0.001 A 
ATOM      4  C3  UNL d   1       2.093  -0.721   0.658  0.00  0.00     0.003 A 
ATOM      5  C4  UNL d   1       0.898  -1.437   0.627  0.00  0.00    -0.005 A 
ATOM      6  C5  UNL d   1      -0.281  -0.805   0.239  0.00  0.00     0.003 A 
ATOM      7  C6  UNL d   1      -0.266   0.545  -0.117  0.00  0.00    -0.001 A 
ENDROOT
TORSDOF 0
ENDMDL
