MODEL 1
REMARK minimizedAffinity -5.04235506
REMARK minimizedRMSD -1
REMARK  0 active torsions:
REMARK  status: ('A' for Active; 'I' for Inactive)
ROOT
ATOM      1  C   UNL d   1      -0.034  -1.334  -0.008  0.00  0.00     0.078 C 
ATOM      2  C1  UNL d   1      -0.083   0.164  -0.054  0.00  0.00    -0.077 A 
ATOM      3  C2  UNL d   1      -1.277   0.855   0.183  0.00  0.00    -0.001 A 
ATOM      4  C3  UNL d   1      -1.310   2.249   0.127  0.00  0.00     0.003 A 
ATOM      5  C4  UNL d   1      -0.151   2.965  -0.167  0.00  0.00    -0.005 A 
ATOM      6  C5  UNL d   1       1.042   2.286  -0.407  0.00  0.00     0.003 A 
ATOM      7  C6  UNL d   1       1.076   0.892  -0.351  0.00  0.00    -0.001 A 
ENDROOT
TORSDOF 0
ENDMDL
