MODEL 1
REMARK minimizedAffinity -4.76122141
REMARK minimizedRMSD -1
REMARK  0 active torsions:
REMARK  status: ('A' for Active; 'I' for Inactive)
ROOT
ATOM      1  C   UNL d   1      -0.047  -1.236  -0.195  0.00  0.00     0.078 C 
ATOM      2  C1  UNL d   1      -0.063   0.262  -0.126  0.00  0.00    -0.077 A 
ATOM      3  C2  UNL d   1      -1.196   0.950   0.324  0.00  0.00    -0.001 A 
ATOM      4  C3  UNL d   1      -1.201   2.345   0.373  0.00  0.00     0.003 A 
ATOM      5  C4  UNL d   1      -0.076   3.063  -0.028  0.00  0.00    -0.005 A 
ATOM      6  C5  UNL d   1       1.055   2.387  -0.479  0.00  0.00     0.003 A 
ATOM      7  C6  UNL d   1       1.062   0.992  -0.529  0.00  0.00    -0.001 A 
ENDROOT
TORSDOF 0
ENDMDL
