MODEL 1
REMARK minimizedAffinity -3.60907888
REMARK minimizedRMSD -1
REMARK  0 active torsions:
REMARK  status: ('A' for Active; 'I' for Inactive)
ROOT
ATOM      1  C   UNL d   1       0.060  -1.613  -0.052  0.00  0.00     0.078 C 
ATOM      2  C1  UNL d   1      -0.091  -0.121  -0.015  0.00  0.00    -0.077 A 
ATOM      3  C2  UNL d   1      -1.117   0.482   0.722  0.00  0.00    -0.001 A 
ATOM      4  C3  UNL d   1      -1.252   1.871   0.739  0.00  0.00     0.003 A 
ATOM      5  C4  UNL d   1      -0.364   2.669   0.020  0.00  0.00    -0.005 A 
ATOM      6  C5  UNL d   1       0.660   2.078  -0.718  0.00  0.00     0.003 A 
ATOM      7  C6  UNL d   1       0.796   0.689  -0.736  0.00  0.00    -0.001 A 
ENDROOT
TORSDOF 0
ENDMDL
