MODEL 1
REMARK minimizedAffinity -4.90601969
REMARK minimizedRMSD -1
REMARK  0 active torsions:
REMARK  status: ('A' for Active; 'I' for Inactive)
ROOT
ATOM      1  C   UNL d   1      -0.142   3.431   0.005  0.00  0.00     0.078 C 
ATOM      2  C1  UNL d   1       0.075   1.952   0.134  0.00  0.00    -0.077 A 
ATOM      3  C2  UNL d   1      -0.998   1.084   0.372  0.00  0.00    -0.001 A 
ATOM      4  C3  UNL d   1      -0.780  -0.289   0.498  0.00  0.00     0.003 A 
ATOM      5  C4  UNL d   1       0.509  -0.805   0.390  0.00  0.00    -0.005 A 
ATOM      6  C5  UNL d   1       1.583   0.051   0.156  0.00  0.00     0.003 A 
ATOM      7  C6  UNL d   1       1.367   1.424   0.029  0.00  0.00    -0.001 A 
ENDROOT
TORSDOF 0
ENDMDL
