MODEL 1
REMARK minimizedAffinity -5.13704205
REMARK minimizedRMSD -1
REMARK  0 active torsions:
REMARK  status: ('A' for Active; 'I' for Inactive)
ROOT
ATOM      1  C   UNL d   1      -0.057   3.002  -0.236  0.00  0.00     0.078 C 
ATOM      2  C1  UNL d   1       0.019   1.510  -0.102  0.00  0.00    -0.077 A 
ATOM      3  C2  UNL d   1       1.207   0.821  -0.373  0.00  0.00    -0.001 A 
ATOM      4  C3  UNL d   1       1.261  -0.568  -0.254  0.00  0.00     0.003 A 
ATOM      5  C4  UNL d   1       0.128  -1.281   0.135  0.00  0.00    -0.005 A 
ATOM      6  C5  UNL d   1      -1.060  -0.605   0.404  0.00  0.00     0.003 A 
ATOM      7  C6  UNL d   1      -1.115   0.785   0.285  0.00  0.00    -0.001 A 
ENDROOT
TORSDOF 0
ENDMDL
