MODEL 1
REMARK minimizedAffinity -4.85341263
REMARK minimizedRMSD -1
REMARK  0 active torsions:
REMARK  status: ('A' for Active; 'I' for Inactive)
ROOT
ATOM      1  C   UNL d   1      -0.011  -1.380  -0.023  0.00  0.00     0.078 C 
ATOM      2  C1  UNL d   1      -0.047   0.118   0.042  0.00  0.00    -0.077 A 
ATOM      3  C2  UNL d   1      -1.238   0.799   0.322  0.00  0.00    -0.001 A 
ATOM      4  C3  UNL d   1      -1.259   2.194   0.370  0.00  0.00     0.003 A 
ATOM      5  C4  UNL d   1      -0.092   2.920   0.137  0.00  0.00    -0.005 A 
ATOM      6  C5  UNL d   1       1.097   2.251  -0.145  0.00  0.00     0.003 A 
ATOM      7  C6  UNL d   1       1.120   0.856  -0.193  0.00  0.00    -0.001 A 
ENDROOT
TORSDOF 0
ENDMDL
