MODEL 1
REMARK minimizedAffinity -3.96243167
REMARK minimizedRMSD -1
REMARK  0 active torsions:
REMARK  status: ('A' for Active; 'I' for Inactive)
ROOT
ATOM      1  C   UNL d   1       1.136   0.403  -0.302  0.00  0.00     0.078 C 
ATOM      2  C1  UNL d   1       0.520  -0.881  -0.770  0.00  0.00    -0.077 A 
ATOM      3  C2  UNL d   1       0.780  -1.381  -2.052  0.00  0.00    -0.001 A 
ATOM      4  C3  UNL d   1       0.192  -2.572  -2.478  0.00  0.00     0.003 A 
ATOM      5  C4  UNL d   1      -0.661  -3.275  -1.629  0.00  0.00    -0.005 A 
ATOM      6  C5  UNL d   1      -0.928  -2.784  -0.352  0.00  0.00     0.003 A 
ATOM      7  C6  UNL d   1      -0.341  -1.593   0.076  0.00  0.00    -0.001 A 
ENDROOT
TORSDOF 0
ENDMDL
