MODEL 1
REMARK minimizedAffinity -4.4969449
REMARK minimizedRMSD -1
REMARK  0 active torsions:
REMARK  status: ('A' for Active; 'I' for Inactive)
ROOT
ATOM      1  C   UNL d   1       0.332   3.388  -0.184  0.00  0.00     0.078 C 
ATOM      2  C1  UNL d   1       0.193   1.921   0.097  0.00  0.00    -0.077 A 
ATOM      3  C2  UNL d   1       1.312   1.079   0.106  0.00  0.00    -0.001 A 
ATOM      4  C3  UNL d   1       1.166  -0.285   0.360  0.00  0.00     0.003 A 
ATOM      5  C4  UNL d   1      -0.097  -0.821   0.605  0.00  0.00    -0.005 A 
ATOM      6  C5  UNL d   1      -1.217   0.009   0.595  0.00  0.00     0.003 A 
ATOM      7  C6  UNL d   1      -1.073   1.374   0.342  0.00  0.00    -0.001 A 
ENDROOT
TORSDOF 0
ENDMDL
