MODEL 1
REMARK minimizedAffinity -3.81717277
REMARK minimizedRMSD -1
REMARK  0 active torsions:
REMARK  status: ('A' for Active; 'I' for Inactive)
ROOT
ATOM      1  C   UNL d   1      -0.071   3.426   0.012  0.00  0.00     0.078 C 
ATOM      2  C1  UNL d   1      -0.116   1.927   0.022  0.00  0.00    -0.077 A 
ATOM      3  C2  UNL d   1      -1.273   1.243   0.416  0.00  0.00    -0.001 A 
ATOM      4  C3  UNL d   1      -1.297  -0.152   0.430  0.00  0.00     0.003 A 
ATOM      5  C4  UNL d   1      -0.168  -0.876   0.051  0.00  0.00    -0.005 A 
ATOM      6  C5  UNL d   1       0.988  -0.203  -0.341  0.00  0.00     0.003 A 
ATOM      7  C6  UNL d   1       1.014   1.192  -0.355  0.00  0.00    -0.001 A 
ENDROOT
TORSDOF 0
ENDMDL
