MODEL 1
REMARK minimizedAffinity -4.55728626
REMARK minimizedRMSD -1
REMARK  0 active torsions:
REMARK  status: ('A' for Active; 'I' for Inactive)
ROOT
ATOM      1  C   UNL d   1      -0.050   3.371  -0.073  0.00  0.00     0.078 C 
ATOM      2  C1  UNL d   1       0.166   1.888  -0.064  0.00  0.00    -0.077 A 
ATOM      3  C2  UNL d   1      -0.912   1.002   0.050  0.00  0.00    -0.001 A 
ATOM      4  C3  UNL d   1      -0.695  -0.377   0.067  0.00  0.00     0.003 A 
ATOM      5  C4  UNL d   1       0.600  -0.882  -0.028  0.00  0.00    -0.005 A 
ATOM      6  C5  UNL d   1       1.680  -0.009  -0.139  0.00  0.00     0.003 A 
ATOM      7  C6  UNL d   1       1.464   1.370  -0.156  0.00  0.00    -0.001 A 
ENDROOT
TORSDOF 0
ENDMDL
