MODEL 1
REMARK minimizedAffinity -3.61584401
REMARK minimizedRMSD -1
REMARK  0 active torsions:
REMARK  status: ('A' for Active; 'I' for Inactive)
ROOT
ATOM      1  C   UNL d   1      -0.471  -0.681  -1.023  0.00  0.00     0.078 C 
ATOM      2  C1  UNL d   1      -0.255   0.691  -0.460  0.00  0.00    -0.077 A 
ATOM      3  C2  UNL d   1       0.404   1.680  -1.201  0.00  0.00    -0.001 A 
ATOM      4  C3  UNL d   1       0.607   2.950  -0.660  0.00  0.00     0.003 A 
ATOM      5  C4  UNL d   1       0.155   3.244   0.625  0.00  0.00    -0.005 A 
ATOM      6  C5  UNL d   1      -0.500   2.266   1.371  0.00  0.00     0.003 A 
ATOM      7  C6  UNL d   1      -0.704   0.995   0.832  0.00  0.00    -0.001 A 
ENDROOT
TORSDOF 0
ENDMDL
