MODEL 1
REMARK minimizedAffinity 26.2862968
REMARK minimizedRMSD -1
REMARK  0 active torsions:
REMARK  status: ('A' for Active; 'I' for Inactive)
ROOT
ATOM      1  C   UNL d   1       0.484   3.092  -2.546  0.00  0.00     0.124 A 
ATOM      2  C1  UNL d   1       0.874   1.907  -1.938  0.00  0.00     0.062 A 
ATOM      3  C2  UNL d   1       0.338   1.543  -0.706  0.00  0.00     0.162 A 
ATOM      4  C3  UNL d   1      -0.595   2.366  -0.074  0.00  0.00    -0.034 A 
ATOM      5  C4  UNL d   1      -0.981   3.557  -0.692  0.00  0.00     0.162 A 
ATOM      6  C5  UNL d   1      -0.442   3.916  -1.923  0.00  0.00     0.062 A 
ATOM      7  F   UNL d   1      -0.820   5.062  -2.509  0.00  0.00    -0.097 F 
ATOM      8  F1  UNL d   1      -1.876   4.371  -0.112  0.00  0.00    -0.096 F 
ATOM      9  I   UNL d   1      -1.399   1.825   1.768  0.00  0.00    -0.060 I 
ATOM     10  F2  UNL d   1       0.732   0.392  -0.142  0.00  0.00    -0.096 F 
ATOM     11  F3  UNL d   1       1.770   1.110  -2.538  0.00  0.00    -0.097 F 
ATOM     12  F4  UNL d   1       1.003   3.441  -3.731  0.00  0.00    -0.092 F 
ENDROOT
TORSDOF 0
ENDMDL
