MODEL 1
REMARK minimizedAffinity 2.30909753
REMARK minimizedRMSD -1
REMARK  0 active torsions:
REMARK  status: ('A' for Active; 'I' for Inactive)
ROOT
ATOM      1  C   UNL d   1      -0.591   1.870   0.803  0.00  0.00     0.124 A 
ATOM      2  C1  UNL d   1       0.340   1.898  -0.226  0.00  0.00     0.062 A 
ATOM      3  C2  UNL d   1       0.707   0.720  -0.871  0.00  0.00     0.162 A 
ATOM      4  C3  UNL d   1       0.141  -0.497  -0.489  0.00  0.00    -0.034 A 
ATOM      5  C4  UNL d   1      -0.794  -0.517   0.548  0.00  0.00     0.162 A 
ATOM      6  C5  UNL d   1      -1.156   0.663   1.189  0.00  0.00     0.062 A 
ATOM      7  F   UNL d   1      -2.056   0.634   2.183  0.00  0.00    -0.097 F 
ATOM      8  F1  UNL d   1      -1.357  -1.669   0.941  0.00  0.00    -0.096 F 
ATOM      9  I   UNL d   1       0.686  -2.260  -1.450  0.00  0.00    -0.060 I 
ATOM     10  F2  UNL d   1       1.608   0.777  -1.862  0.00  0.00    -0.096 F 
ATOM     11  F3  UNL d   1       0.889   3.063  -0.600  0.00  0.00    -0.097 F 
ATOM     12  F4  UNL d   1      -0.940   3.005   1.422  0.00  0.00    -0.092 F 
ENDROOT
TORSDOF 0
ENDMDL
