MODEL 1
REMARK minimizedAffinity -1.53906083
REMARK minimizedRMSD -1
REMARK  0 active torsions:
REMARK  status: ('A' for Active; 'I' for Inactive)
ROOT
ATOM      1  C   UNL d   1      -1.228   3.289  -0.280  0.00  0.00     0.124 A 
ATOM      2  C1  UNL d   1      -0.595   2.362  -1.096  0.00  0.00     0.062 A 
ATOM      3  C2  UNL d   1      -0.171   1.144  -0.574  0.00  0.00     0.162 A 
ATOM      4  C3  UNL d   1      -0.380   0.844   0.772  0.00  0.00    -0.034 A 
ATOM      5  C4  UNL d   1      -1.017   1.782   1.587  0.00  0.00     0.162 A 
ATOM      6  C5  UNL d   1      -1.439   2.998   1.060  0.00  0.00     0.062 A 
ATOM      7  F   UNL d   1      -2.051   3.892   1.850  0.00  0.00    -0.097 F 
ATOM      8  F1  UNL d   1      -1.235   1.526   2.886  0.00  0.00    -0.096 F 
ATOM      9  I   UNL d   1       0.252  -0.977   1.557  0.00  0.00    -0.060 I 
ATOM     10  F2  UNL d   1       0.439   0.267  -1.386  0.00  0.00    -0.096 F 
ATOM     11  F3  UNL d   1      -0.389   2.641  -2.392  0.00  0.00    -0.097 F 
ATOM     12  F4  UNL d   1      -1.634   4.461  -0.785  0.00  0.00    -0.092 F 
ENDROOT
TORSDOF 0
ENDMDL
