MODEL 1
REMARK minimizedAffinity 1.18073964
REMARK minimizedRMSD -1
REMARK  0 active torsions:
REMARK  status: ('A' for Active; 'I' for Inactive)
ROOT
ATOM      1  C   UNL d   1      -1.183   0.738   2.322  0.00  0.00     0.124 A 
ATOM      2  C1  UNL d   1      -1.574   1.793   1.508  0.00  0.00     0.062 A 
ATOM      3  C2  UNL d   1      -1.067   1.906   0.217  0.00  0.00     0.162 A 
ATOM      4  C3  UNL d   1      -0.164   0.961  -0.270  0.00  0.00    -0.034 A 
ATOM      5  C4  UNL d   1       0.226  -0.096   0.555  0.00  0.00     0.162 A 
ATOM      6  C5  UNL d   1      -0.284  -0.205   1.845  0.00  0.00     0.062 A 
ATOM      7  F   UNL d   1       0.095  -1.224   2.630  0.00  0.00    -0.097 F 
ATOM      8  F1  UNL d   1       1.093  -1.022   0.119  0.00  0.00    -0.096 F 
ATOM      9  I   UNL d   1       0.597   1.126  -2.200  0.00  0.00    -0.060 I 
ATOM     10  F2  UNL d   1      -1.463   2.935  -0.547  0.00  0.00    -0.096 F 
ATOM     11  F3  UNL d   1      -2.442   2.706   1.967  0.00  0.00    -0.097 F 
ATOM     12  F4  UNL d   1      -1.672   0.633   3.564  0.00  0.00    -0.092 F 
ENDROOT
TORSDOF 0
ENDMDL
