MODEL 1
REMARK minimizedAffinity -0.150850475
REMARK minimizedRMSD -1
REMARK  0 active torsions:
REMARK  status: ('A' for Active; 'I' for Inactive)
ROOT
ATOM      1  C   UNL d   1       0.922  -0.113  -0.267  0.00  0.00     0.124 A 
ATOM      2  C1  UNL d   1       0.297  -0.243   0.966  0.00  0.00     0.062 A 
ATOM      3  C2  UNL d   1      -0.716   0.639   1.333  0.00  0.00     0.162 A 
ATOM      4  C3  UNL d   1      -1.111   1.657   0.466  0.00  0.00    -0.034 A 
ATOM      5  C4  UNL d   1      -0.477   1.782  -0.771  0.00  0.00     0.162 A 
ATOM      6  C5  UNL d   1       0.535   0.899  -1.134  0.00  0.00     0.062 A 
ATOM      7  F   UNL d   1       1.138   1.025  -2.325  0.00  0.00    -0.097 F 
ATOM      8  F1  UNL d   1      -0.832   2.750  -1.629  0.00  0.00    -0.096 F 
ATOM      9  I   UNL d   1      -2.624   2.977   1.012  0.00  0.00    -0.060 I 
ATOM     10  F2  UNL d   1      -1.302   0.490   2.530  0.00  0.00    -0.096 F 
ATOM     11  F3  UNL d   1       0.670  -1.219   1.806  0.00  0.00    -0.097 F 
ATOM     12  F4  UNL d   1       1.897  -0.962  -0.617  0.00  0.00    -0.092 F 
ENDROOT
TORSDOF 0
ENDMDL
