MODEL 1
REMARK minimizedAffinity -1.7271719
REMARK minimizedRMSD -1
REMARK  0 active torsions:
REMARK  status: ('A' for Active; 'I' for Inactive)
ROOT
ATOM      1  C   UNL d   1      -0.330   1.556   0.788  0.00  0.00     0.124 A 
ATOM      2  C1  UNL d   1       0.100   1.471  -0.529  0.00  0.00     0.062 A 
ATOM      3  C2  UNL d   1       0.369   0.231  -1.099  0.00  0.00     0.162 A 
ATOM      4  C3  UNL d   1       0.206  -0.937  -0.353  0.00  0.00    -0.034 A 
ATOM      5  C4  UNL d   1      -0.226  -0.844   0.971  0.00  0.00     0.162 A 
ATOM      6  C5  UNL d   1      -0.493   0.398   1.537  0.00  0.00     0.062 A 
ATOM      7  F   UNL d   1      -0.908   0.478   2.809  0.00  0.00    -0.097 F 
ATOM      8  F1  UNL d   1      -0.392  -1.947   1.716  0.00  0.00    -0.096 F 
ATOM      9  I   UNL d   1       0.607  -2.794  -1.203  0.00  0.00    -0.060 I 
ATOM     10  F2  UNL d   1       0.783   0.179  -2.374  0.00  0.00    -0.096 F 
ATOM     11  F3  UNL d   1       0.259   2.588  -1.253  0.00  0.00    -0.097 F 
ATOM     12  F4  UNL d   1      -0.586   2.751   1.335  0.00  0.00    -0.092 F 
ENDROOT
TORSDOF 0
ENDMDL
