MODEL 1
REMARK minimizedAffinity -4.56734943
REMARK minimizedRMSD -1
REMARK  0 active torsions:
REMARK  status: ('A' for Active; 'I' for Inactive)
ROOT
ATOM      1  C   UNL d   1       0.953  -0.559  -0.132  0.00  0.00     0.124 A 
ATOM      2  C1  UNL d   1       0.634   0.380  -1.103  0.00  0.00     0.062 A 
ATOM      3  C2  UNL d   1      -0.290   1.384  -0.829  0.00  0.00     0.162 A 
ATOM      4  C3  UNL d   1      -0.902   1.456   0.423  0.00  0.00    -0.034 A 
ATOM      5  C4  UNL d   1      -0.576   0.507   1.394  0.00  0.00     0.162 A 
ATOM      6  C5  UNL d   1       0.348  -0.494   1.115  0.00  0.00     0.062 A 
ATOM      7  F   UNL d   1       0.655  -1.401   2.055  0.00  0.00    -0.097 F 
ATOM      8  F1  UNL d   1      -1.145   0.546   2.608  0.00  0.00    -0.096 F 
ATOM      9  I   UNL d   1      -2.284   2.955   0.836  0.00  0.00    -0.060 I 
ATOM     10  F2  UNL d   1      -0.579   2.278  -1.786  0.00  0.00    -0.096 F 
ATOM     11  F3  UNL d   1       1.217   0.320  -2.309  0.00  0.00    -0.097 F 
ATOM     12  F4  UNL d   1       1.842  -1.524  -0.399  0.00  0.00    -0.092 F 
ENDROOT
TORSDOF 0
ENDMDL
