MODEL 1
REMARK minimizedAffinity 0.53715539
REMARK minimizedRMSD -1
REMARK  0 active torsions:
REMARK  status: ('A' for Active; 'I' for Inactive)
ROOT
ATOM      1  C   UNL d   1       0.717  -2.342  -2.219  0.00  0.00     0.124 A 
ATOM      2  C1  UNL d   1       1.438  -1.289  -1.673  0.00  0.00     0.062 A 
ATOM      3  C2  UNL d   1       0.984  -0.652  -0.522  0.00  0.00     0.162 A 
ATOM      4  C3  UNL d   1      -0.198  -1.067   0.092  0.00  0.00    -0.034 A 
ATOM      5  C4  UNL d   1      -0.918  -2.126  -0.464  0.00  0.00     0.162 A 
ATOM      6  C5  UNL d   1      -0.460  -2.759  -1.614  0.00  0.00     0.062 A 
ATOM      7  F   UNL d   1      -1.158  -3.776  -2.141  0.00  0.00    -0.097 F 
ATOM      8  F1  UNL d   1      -2.059  -2.550   0.101  0.00  0.00    -0.096 F 
ATOM      9  I   UNL d   1      -0.881  -0.117   1.814  0.00  0.00    -0.060 I 
ATOM     10  F2  UNL d   1       1.701   0.362  -0.016  0.00  0.00    -0.096 F 
ATOM     11  F3  UNL d   1       2.576  -0.884  -2.256  0.00  0.00    -0.097 F 
ATOM     12  F4  UNL d   1       1.156  -2.952  -3.328  0.00  0.00    -0.092 F 
ENDROOT
TORSDOF 0
ENDMDL
