MODEL 1
REMARK minimizedAffinity 6.01315498
REMARK minimizedRMSD -1
REMARK  0 active torsions:
REMARK  status: ('A' for Active; 'I' for Inactive)
ROOT
ATOM      1  C   UNL d   1      -0.538   1.305   2.539  0.00  0.00     0.124 A 
ATOM      2  C1  UNL d   1      -0.241   2.331   1.652  0.00  0.00     0.062 A 
ATOM      3  C2  UNL d   1      -0.217   2.088   0.282  0.00  0.00     0.162 A 
ATOM      4  C3  UNL d   1      -0.493   0.812  -0.211  0.00  0.00    -0.034 A 
ATOM      5  C4  UNL d   1      -0.790  -0.215   0.687  0.00  0.00     0.162 A 
ATOM      6  C5  UNL d   1      -0.813   0.034   2.056  0.00  0.00     0.062 A 
ATOM      7  F   UNL d   1      -1.100  -0.959   2.910  0.00  0.00    -0.097 F 
ATOM      8  F1  UNL d   1      -1.060  -1.453   0.247  0.00  0.00    -0.096 F 
ATOM      9  I   UNL d   1      -0.459   0.444  -2.259  0.00  0.00    -0.060 I 
ATOM     10  F2  UNL d   1       0.073   3.098  -0.551  0.00  0.00    -0.096 F 
ATOM     11  F3  UNL d   1       0.026   3.561   2.117  0.00  0.00    -0.097 F 
ATOM     12  F4  UNL d   1      -0.559   1.542   3.857  0.00  0.00    -0.092 F 
ENDROOT
TORSDOF 0
ENDMDL
