MODEL 1
REMARK minimizedAffinity 14.9163523
REMARK minimizedRMSD -1
REMARK  0 active torsions:
REMARK  status: ('A' for Active; 'I' for Inactive)
ROOT
ATOM      1  C   UNL d   1      -0.552  -0.944   1.893  0.00  0.00     0.124 A 
ATOM      2  C1  UNL d   1      -0.964  -0.037   2.860  0.00  0.00     0.062 A 
ATOM      3  C2  UNL d   1      -0.724   1.324   2.691  0.00  0.00     0.162 A 
ATOM      4  C3  UNL d   1      -0.068   1.786   1.549  0.00  0.00    -0.034 A 
ATOM      5  C4  UNL d   1       0.344   0.867   0.582  0.00  0.00     0.162 A 
ATOM      6  C5  UNL d   1       0.101  -0.491   0.756  0.00  0.00     0.062 A 
ATOM      7  F   UNL d   1       0.500  -1.366  -0.179  0.00  0.00    -0.097 F 
ATOM      8  F1  UNL d   1       0.977   1.278  -0.527  0.00  0.00    -0.096 F 
ATOM      9  I   UNL d   1       0.293   3.819   1.293  0.00  0.00    -0.060 I 
ATOM     10  F2  UNL d   1      -1.133   2.177   3.641  0.00  0.00    -0.096 F 
ATOM     11  F3  UNL d   1      -1.595  -0.472   3.960  0.00  0.00    -0.097 F 
ATOM     12  F4  UNL d   1      -0.784  -2.253   2.059  0.00  0.00    -0.092 F 
ENDROOT
TORSDOF 0
ENDMDL
