MODEL 1
REMARK minimizedAffinity -2.71141219
REMARK minimizedRMSD -1
REMARK  0 active torsions:
REMARK  status: ('A' for Active; 'I' for Inactive)
ROOT
ATOM      1  C   UNL d   1       0.633  -0.336   0.014  0.00  0.00     0.124 A 
ATOM      2  C1  UNL d   1      -0.026  -0.364   1.236  0.00  0.00     0.062 A 
ATOM      3  C2  UNL d   1      -0.874   0.678   1.597  0.00  0.00     0.162 A 
ATOM      4  C3  UNL d   1      -1.071   1.757   0.735  0.00  0.00    -0.034 A 
ATOM      5  C4  UNL d   1      -0.405   1.779  -0.491  0.00  0.00     0.162 A 
ATOM      6  C5  UNL d   1       0.442   0.735  -0.848  0.00  0.00     0.062 A 
ATOM      7  F   UNL d   1       1.077   0.764  -2.029  0.00  0.00    -0.097 F 
ATOM      8  F1  UNL d   1      -0.572   2.801  -1.344  0.00  0.00    -0.096 F 
ATOM      9  I   UNL d   1      -2.340   3.317   1.273  0.00  0.00    -0.060 I 
ATOM     10  F2  UNL d   1      -1.497   0.625   2.784  0.00  0.00    -0.096 F 
ATOM     11  F3  UNL d   1       0.157  -1.397   2.071  0.00  0.00    -0.097 F 
ATOM     12  F4  UNL d   1       1.450  -1.339  -0.331  0.00  0.00    -0.092 F 
ENDROOT
TORSDOF 0
ENDMDL
