MODEL 1
REMARK minimizedAffinity 0.531966329
REMARK minimizedRMSD -1
REMARK  0 active torsions:
REMARK  status: ('A' for Active; 'I' for Inactive)
ROOT
ATOM      1  C   UNL d   1      -1.347   1.686   1.217  0.00  0.00     0.124 A 
ATOM      2  C1  UNL d   1      -0.647   0.811   2.036  0.00  0.00     0.062 A 
ATOM      3  C2  UNL d   1       0.053  -0.257   1.482  0.00  0.00     0.162 A 
ATOM      4  C3  UNL d   1       0.058  -0.456   0.102  0.00  0.00    -0.034 A 
ATOM      5  C4  UNL d   1      -0.649   0.428  -0.715  0.00  0.00     0.162 A 
ATOM      6  C5  UNL d   1      -1.348   1.494  -0.157  0.00  0.00     0.062 A 
ATOM      7  F   UNL d   1      -2.024   2.338  -0.950  0.00  0.00    -0.097 F 
ATOM      8  F1  UNL d   1      -0.666   0.266  -2.047  0.00  0.00    -0.096 F 
ATOM      9  I   UNL d   1       1.104  -2.052  -0.730  0.00  0.00    -0.060 I 
ATOM     10  F2  UNL d   1       0.721  -1.087   2.298  0.00  0.00    -0.096 F 
ATOM     11  F3  UNL d   1      -0.645   0.994   3.364  0.00  0.00    -0.097 F 
ATOM     12  F4  UNL d   1      -2.021   2.712   1.752  0.00  0.00    -0.092 F 
ENDROOT
TORSDOF 0
ENDMDL
