MODEL 1
REMARK minimizedAffinity -0.31930396
REMARK minimizedRMSD -1
REMARK  0 active torsions:
REMARK  status: ('A' for Active; 'I' for Inactive)
ROOT
ATOM      1  C   UNL d   1      -1.154   2.374   1.274  0.00  0.00     0.124 A 
ATOM      2  C1  UNL d   1      -1.257   2.315  -0.108  0.00  0.00     0.062 A 
ATOM      3  C2  UNL d   1      -1.007   1.122  -0.779  0.00  0.00     0.162 A 
ATOM      4  C3  UNL d   1      -0.652  -0.024  -0.067  0.00  0.00    -0.034 A 
ATOM      5  C4  UNL d   1      -0.549   0.043   1.323  0.00  0.00     0.162 A 
ATOM      6  C5  UNL d   1      -0.800   1.238   1.989  0.00  0.00     0.062 A 
ATOM      7  F   UNL d   1      -0.700   1.293   3.325  0.00  0.00    -0.097 F 
ATOM      8  F1  UNL d   1      -0.210  -1.040   2.039  0.00  0.00    -0.096 F 
ATOM      9  I   UNL d   1      -0.277  -1.811  -1.066  0.00  0.00    -0.060 I 
ATOM     10  F2  UNL d   1      -1.114   1.094  -2.116  0.00  0.00    -0.096 F 
ATOM     11  F3  UNL d   1      -1.598   3.412  -0.801  0.00  0.00    -0.097 F 
ATOM     12  F4  UNL d   1      -1.395   3.524   1.917  0.00  0.00    -0.092 F 
ENDROOT
TORSDOF 0
ENDMDL
