MODEL 1
REMARK minimizedAffinity -3.18187952
REMARK minimizedRMSD -1
REMARK  0 active torsions:
REMARK  status: ('A' for Active; 'I' for Inactive)
ROOT
ATOM      1  C   UNL d   1      -1.018   1.952   0.863  0.00  0.00     0.124 A 
ATOM      2  C1  UNL d   1      -0.304   2.053  -0.323  0.00  0.00     0.062 A 
ATOM      3  C2  UNL d   1       0.470   0.985  -0.768  0.00  0.00     0.162 A 
ATOM      4  C3  UNL d   1       0.532  -0.195  -0.026  0.00  0.00    -0.034 A 
ATOM      5  C4  UNL d   1      -0.188  -0.289   1.166  0.00  0.00     0.162 A 
ATOM      6  C5  UNL d   1      -0.960   0.782   1.606  0.00  0.00     0.062 A 
ATOM      7  F   UNL d   1      -1.649   0.683   2.752  0.00  0.00    -0.097 F 
ATOM      8  F1  UNL d   1      -0.150  -1.408   1.904  0.00  0.00    -0.096 F 
ATOM      9  I   UNL d   1       1.688  -1.795  -0.687  0.00  0.00    -0.060 I 
ATOM     10  F2  UNL d   1       1.149   1.110  -1.917  0.00  0.00    -0.096 F 
ATOM     11  F3  UNL d   1      -0.358   3.183  -1.043  0.00  0.00    -0.097 F 
ATOM     12  F4  UNL d   1      -1.761   2.982   1.288  0.00  0.00    -0.092 F 
ENDROOT
TORSDOF 0
ENDMDL
