MODEL 1
REMARK minimizedAffinity -0.767781436
REMARK minimizedRMSD -1
REMARK  0 active torsions:
REMARK  status: ('A' for Active; 'I' for Inactive)
ROOT
ATOM      1  C   UNL d   1      -1.211   0.347   2.251  0.00  0.00     0.124 A 
ATOM      2  C1  UNL d   1      -1.764   1.295   1.401  0.00  0.00     0.062 A 
ATOM      3  C2  UNL d   1      -1.102   1.657   0.232  0.00  0.00     0.162 A 
ATOM      4  C3  UNL d   1       0.121   1.070  -0.095  0.00  0.00    -0.034 A 
ATOM      5  C4  UNL d   1       0.671   0.119   0.765  0.00  0.00     0.162 A 
ATOM      6  C5  UNL d   1       0.005  -0.240   1.933  0.00  0.00     0.062 A 
ATOM      7  F   UNL d   1       0.541  -1.155   2.753  0.00  0.00    -0.097 F 
ATOM      8  F1  UNL d   1       1.844  -0.465   0.481  0.00  0.00    -0.096 F 
ATOM      9  I   UNL d   1       1.114   1.609  -1.843  0.00  0.00    -0.060 I 
ATOM     10  F2  UNL d   1      -1.659   2.575  -0.571  0.00  0.00    -0.096 F 
ATOM     11  F3  UNL d   1      -2.939   1.864   1.707  0.00  0.00    -0.097 F 
ATOM     12  F4  UNL d   1      -1.850   0.001   3.377  0.00  0.00    -0.092 F 
ENDROOT
TORSDOF 0
ENDMDL
