MODEL 1
REMARK minimizedAffinity 0.622995019
REMARK minimizedRMSD -1
REMARK  0 active torsions:
REMARK  status: ('A' for Active; 'I' for Inactive)
ROOT
ATOM      1  C   UNL d   1      -0.596   1.501   1.844  0.00  0.00     0.023 A 
ATOM      2  C1  UNL d   1      -0.462   1.425   0.458  0.00  0.00     0.003 A 
ATOM      3  C2  UNL d   1       0.808   1.411  -0.122  0.00  0.00     0.048 A 
ATOM      4  C3  UNL d   1       1.940   1.473   0.691  0.00  0.00     0.023 A 
ATOM      5  C4  UNL d   1       1.810   1.548   2.079  0.00  0.00     0.048 A 
ATOM      6  C5  UNL d   1       0.538   1.563   2.654  0.00  0.00     0.003 A 
ATOM      7  I   UNL d   1       3.832   1.452  -0.170  0.00  0.00    -0.146 I 
ENDROOT
TORSDOF 0
ENDMDL
