MODEL 1
REMARK minimizedAffinity 5.90694857
REMARK minimizedRMSD -1
REMARK  0 active torsions:
REMARK  status: ('A' for Active; 'I' for Inactive)
ROOT
ATOM      1  C   UNL d   1      -0.897  -3.779  -1.561  0.00  0.00     0.023 A 
ATOM      2  C1  UNL d   1      -0.038  -4.107  -0.513  0.00  0.00     0.003 A 
ATOM      3  C2  UNL d   1       1.046  -3.279  -0.211  0.00  0.00     0.048 A 
ATOM      4  C3  UNL d   1       1.263  -2.124  -0.961  0.00  0.00     0.023 A 
ATOM      5  C4  UNL d   1       0.405  -1.791  -2.010  0.00  0.00     0.048 A 
ATOM      6  C5  UNL d   1      -0.676  -2.622  -2.309  0.00  0.00     0.003 A 
ATOM      7  I   UNL d   1       2.875  -0.891  -0.513  0.00  0.00    -0.146 I 
ENDROOT
TORSDOF 0
ENDMDL
