MODEL 1
REMARK minimizedAffinity 4.1023159
REMARK minimizedRMSD -1
REMARK  0 active torsions:
REMARK  status: ('A' for Active; 'I' for Inactive)
ROOT
ATOM      1  C   UNL d   1      -1.008   2.099   2.864  0.00  0.00     0.023 A 
ATOM      2  C1  UNL d   1      -1.011   2.472   1.520  0.00  0.00     0.003 A 
ATOM      3  C2  UNL d   1      -0.087   1.910   0.636  0.00  0.00     0.048 A 
ATOM      4  C3  UNL d   1       0.835   0.974   1.103  0.00  0.00     0.023 A 
ATOM      5  C4  UNL d   1       0.841   0.597   2.447  0.00  0.00     0.048 A 
ATOM      6  C5  UNL d   1      -0.084   1.162   3.327  0.00  0.00     0.003 A 
ATOM      7  I   UNL d   1       2.210   0.135  -0.211  0.00  0.00    -0.146 I 
ENDROOT
TORSDOF 0
ENDMDL
