MODEL 1
REMARK minimizedAffinity 1.9178741
REMARK minimizedRMSD -1
REMARK  0 active torsions:
REMARK  status: ('A' for Active; 'I' for Inactive)
ROOT
ATOM      1  C   UNL d   1      -4.479   3.482   1.344  0.00  0.00     0.023 A 
ATOM      2  C1  UNL d   1      -4.445   2.100   1.529  0.00  0.00     0.003 A 
ATOM      3  C2  UNL d   1      -3.253   1.472   1.896  0.00  0.00     0.048 A 
ATOM      4  C3  UNL d   1      -2.099   2.233   2.077  0.00  0.00     0.023 A 
ATOM      5  C4  UNL d   1      -2.128   3.617   1.894  0.00  0.00     0.048 A 
ATOM      6  C5  UNL d   1      -3.322   4.239   1.526  0.00  0.00     0.003 A 
ATOM      7  I   UNL d   1      -0.323   1.302   2.623  0.00  0.00    -0.146 I 
ENDROOT
TORSDOF 0
ENDMDL
