MODEL 1
REMARK minimizedAffinity 7.65335512
REMARK minimizedRMSD -1
REMARK  0 active torsions:
REMARK  status: ('A' for Active; 'I' for Inactive)
ROOT
ATOM      1  C   UNL d   1       3.954   1.033  -0.082  0.00  0.00     0.023 A 
ATOM      2  C1  UNL d   1       2.580   1.090  -0.321  0.00  0.00     0.003 A 
ATOM      3  C2  UNL d   1       1.872  -0.078  -0.612  0.00  0.00     0.048 A 
ATOM      4  C3  UNL d   1       2.544  -1.299  -0.661  0.00  0.00     0.023 A 
ATOM      5  C4  UNL d   1       3.917  -1.361  -0.422  0.00  0.00     0.048 A 
ATOM      6  C5  UNL d   1       4.621  -0.190  -0.132  0.00  0.00     0.003 A 
ATOM      7  I   UNL d   1       1.492  -3.039  -1.094  0.00  0.00    -0.146 I 
ENDROOT
TORSDOF 0
ENDMDL
