MODEL 1
REMARK minimizedAffinity 8.31060791
REMARK minimizedRMSD -1
REMARK  0 active torsions:
REMARK  status: ('A' for Active; 'I' for Inactive)
ROOT
ATOM      1  C   UNL d   1       5.238   1.174   0.036  0.00  0.00     0.023 A 
ATOM      2  C1  UNL d   1       5.336   0.002   0.785  0.00  0.00     0.003 A 
ATOM      3  C2  UNL d   1       4.382  -1.007   0.634  0.00  0.00     0.048 A 
ATOM      4  C3  UNL d   1       3.333  -0.837  -0.269  0.00  0.00     0.023 A 
ATOM      5  C4  UNL d   1       3.232   0.334  -1.022  0.00  0.00     0.048 A 
ATOM      6  C5  UNL d   1       4.187   1.340  -0.867  0.00  0.00     0.003 A 
ATOM      7  I   UNL d   1       1.913  -2.337  -0.496  0.00  0.00    -0.146 I 
ENDROOT
TORSDOF 0
ENDMDL
