MODEL 1
REMARK minimizedAffinity 3.991817
REMARK minimizedRMSD -1
REMARK  0 active torsions:
REMARK  status: ('A' for Active; 'I' for Inactive)
ROOT
ATOM      1  C   UNL d   1       2.754  -2.118  -1.150  0.00  0.00     0.023 A 
ATOM      2  C1  UNL d   1       2.776  -1.479   0.090  0.00  0.00     0.003 A 
ATOM      3  C2  UNL d   1       3.506  -0.301   0.256  0.00  0.00     0.048 A 
ATOM      4  C3  UNL d   1       4.212   0.233  -0.821  0.00  0.00     0.023 A 
ATOM      5  C4  UNL d   1       4.192  -0.403  -2.064  0.00  0.00     0.048 A 
ATOM      6  C5  UNL d   1       3.461  -1.581  -2.225  0.00  0.00     0.003 A 
ATOM      7  I   UNL d   1       5.301   1.987  -0.576  0.00  0.00    -0.146 I 
ENDROOT
TORSDOF 0
ENDMDL
