MODEL 1
REMARK minimizedAffinity 4.91020918
REMARK minimizedRMSD -1
REMARK  0 active torsions:
REMARK  status: ('A' for Active; 'I' for Inactive)
ROOT
ATOM      1  C   UNL d   1       5.947   1.125  -0.254  0.00  0.00     0.023 A 
ATOM      2  C1  UNL d   1       4.872   1.327  -1.119  0.00  0.00     0.003 A 
ATOM      3  C2  UNL d   1       3.794   0.440  -1.115  0.00  0.00     0.048 A 
ATOM      4  C3  UNL d   1       3.796  -0.646  -0.240  0.00  0.00     0.023 A 
ATOM      5  C4  UNL d   1       4.869  -0.852   0.628  0.00  0.00     0.048 A 
ATOM      6  C5  UNL d   1       5.945   0.037   0.619  0.00  0.00     0.003 A 
ATOM      7  I   UNL d   1       2.191  -1.967  -0.231  0.00  0.00    -0.146 I 
ENDROOT
TORSDOF 0
ENDMDL
