MODEL 1
REMARK minimizedAffinity 8.85451221
REMARK minimizedRMSD -1
REMARK  0 active torsions:
REMARK  status: ('A' for Active; 'I' for Inactive)
ROOT
ATOM      1  C   UNL d   1      -0.846   1.732   1.876  0.00  0.00     0.023 A 
ATOM      2  C1  UNL d   1      -0.717   1.834   0.491  0.00  0.00     0.003 A 
ATOM      3  C2  UNL d   1       0.525   1.627  -0.113  0.00  0.00     0.048 A 
ATOM      4  C3  UNL d   1       1.634   1.317   0.674  0.00  0.00     0.023 A 
ATOM      5  C4  UNL d   1       1.509   1.213   2.060  0.00  0.00     0.048 A 
ATOM      6  C5  UNL d   1       0.266   1.422   2.660  0.00  0.00     0.003 A 
ATOM      7  I   UNL d   1       3.483   1.008  -0.223  0.00  0.00    -0.146 I 
ENDROOT
TORSDOF 0
ENDMDL
