MODEL 1
REMARK minimizedAffinity 4.64004278
REMARK minimizedRMSD -1
REMARK  0 active torsions:
REMARK  status: ('A' for Active; 'I' for Inactive)
ROOT
ATOM      1  C   UNL d   1       3.091  -1.243  -2.168  0.00  0.00     0.023 A 
ATOM      2  C1  UNL d   1       4.010  -0.593  -2.994  0.00  0.00     0.003 A 
ATOM      3  C2  UNL d   1       4.845   0.395  -2.469  0.00  0.00     0.048 A 
ATOM      4  C3  UNL d   1       4.757   0.728  -1.117  0.00  0.00     0.023 A 
ATOM      5  C4  UNL d   1       3.840   0.080  -0.288  0.00  0.00     0.048 A 
ATOM      6  C5  UNL d   1       3.007  -0.906  -0.817  0.00  0.00     0.003 A 
ATOM      7  I   UNL d   1       6.000   2.198  -0.334  0.00  0.00    -0.146 I 
ENDROOT
TORSDOF 0
ENDMDL
