MODEL 1
REMARK minimizedAffinity 6.55860472
REMARK minimizedRMSD -1
REMARK  0 active torsions:
REMARK  status: ('A' for Active; 'I' for Inactive)
ROOT
ATOM      1  C   UNL d   1       0.893  -3.163  -0.794  0.00  0.00     0.023 A 
ATOM      2  C1  UNL d   1       2.003  -3.128   0.049  0.00  0.00     0.003 A 
ATOM      3  C2  UNL d   1       2.924  -2.083  -0.049  0.00  0.00     0.048 A 
ATOM      4  C3  UNL d   1       2.728  -1.075  -0.992  0.00  0.00     0.023 A 
ATOM      5  C4  UNL d   1       1.618  -1.105  -1.838  0.00  0.00     0.048 A 
ATOM      6  C5  UNL d   1       0.701  -2.153  -1.737  0.00  0.00     0.003 A 
ATOM      7  I   UNL d   1       4.096   0.482  -1.140  0.00  0.00    -0.146 I 
ENDROOT
TORSDOF 0
ENDMDL
