MODEL 1
REMARK minimizedAffinity 7.90417767
REMARK minimizedRMSD -1
REMARK  0 active torsions:
REMARK  status: ('A' for Active; 'I' for Inactive)
ROOT
ATOM      1  C1  BNZ d   1       0.666  -0.990   1.988  0.00  0.00     0.000 A 
ATOM      2  C2  BNZ d   1       1.235  -1.155   0.753  0.00  0.00     0.000 A 
ATOM      3  C3  BNZ d   1       2.040  -2.228   0.491  0.00  0.00     0.000 A 
ATOM      4  C4  BNZ d   1       2.308  -3.112   1.473  0.00  0.00     0.000 A 
ATOM      5  C5  BNZ d   1       1.750  -2.955   2.726  0.00  0.00     0.000 A 
ATOM      6  C6  BNZ d   1       0.909  -1.895   2.976  0.00  0.00     0.000 A 
ENDROOT
TORSDOF 0
ENDMDL
