MODEL 1
REMARK minimizedAffinity 1.77597463
REMARK minimizedRMSD -1
REMARK  0 active torsions:
REMARK  status: ('A' for Active; 'I' for Inactive)
ROOT
ATOM      1  C1  BNZ d   1       2.728  -3.378   1.391  0.00  0.00     0.000 A 
ATOM      2  C2  BNZ d   1       1.946  -2.264   1.539  0.00  0.00     0.000 A 
ATOM      3  C3  BNZ d   1       0.678  -2.361   2.041  0.00  0.00     0.000 A 
ATOM      4  C4  BNZ d   1       0.180  -3.575   2.356  0.00  0.00     0.000 A 
ATOM      5  C5  BNZ d   1       0.953  -4.708   2.203  0.00  0.00     0.000 A 
ATOM      6  C6  BNZ d   1       2.243  -4.603   1.734  0.00  0.00     0.000 A 
ENDROOT
TORSDOF 0
ENDMDL
