MODEL 1
REMARK minimizedAffinity 0.313646436
REMARK minimizedRMSD -1
REMARK  0 active torsions:
REMARK  status: ('A' for Active; 'I' for Inactive)
ROOT
ATOM      1  C1  BNZ d   1       4.825   2.993   2.261  0.00  0.00     0.000 A 
ATOM      2  C2  BNZ d   1       6.000   2.378   1.920  0.00  0.00     0.000 A 
ATOM      3  C3  BNZ d   1       5.998   1.198   1.231  0.00  0.00     0.000 A 
ATOM      4  C4  BNZ d   1       4.823   0.614   0.919  0.00  0.00     0.000 A 
ATOM      5  C5  BNZ d   1       3.630   1.217   1.264  0.00  0.00     0.000 A 
ATOM      6  C6  BNZ d   1       3.635   2.425   1.923  0.00  0.00     0.000 A 
ENDROOT
TORSDOF 0
ENDMDL
