MODEL 1
REMARK minimizedAffinity 6.58041668
REMARK minimizedRMSD -1
REMARK  0 active torsions:
REMARK  status: ('A' for Active; 'I' for Inactive)
ROOT
ATOM      1  C1  BNZ d   1       0.427  -0.694   3.107  0.00  0.00     0.000 A 
ATOM      2  C2  BNZ d   1       1.556  -1.176   2.501  0.00  0.00     0.000 A 
ATOM      3  C3  BNZ d   1       1.550  -2.392   1.876  0.00  0.00     0.000 A 
ATOM      4  C4  BNZ d   1       0.428  -3.140   1.893  0.00  0.00     0.000 A 
ATOM      5  C5  BNZ d   1      -0.716  -2.672   2.507  0.00  0.00     0.000 A 
ATOM      6  C6  BNZ d   1      -0.717  -1.431   3.101  0.00  0.00     0.000 A 
ENDROOT
TORSDOF 0
ENDMDL
