MODEL 1
REMARK minimizedAffinity 0.210406363
REMARK minimizedRMSD -1
REMARK  0 active torsions:
REMARK  status: ('A' for Active; 'I' for Inactive)
ROOT
ATOM      1  C1  BNZ d   1       4.826   2.622   2.316  0.00  0.00     0.000 A 
ATOM      2  C2  BNZ d   1       6.000   2.012   1.963  0.00  0.00     0.000 A 
ATOM      3  C3  BNZ d   1       5.999   0.905   1.161  0.00  0.00     0.000 A 
ATOM      4  C4  BNZ d   1       4.825   0.386   0.747  0.00  0.00     0.000 A 
ATOM      5  C5  BNZ d   1       3.633   0.985   1.102  0.00  0.00     0.000 A 
ATOM      6  C6  BNZ d   1       3.639   2.122   1.877  0.00  0.00     0.000 A 
ENDROOT
TORSDOF 0
ENDMDL
