MODEL 1
REMARK minimizedAffinity -0.310747862
REMARK minimizedRMSD -1
REMARK  0 active torsions:
REMARK  status: ('A' for Active; 'I' for Inactive)
ROOT
ATOM      1  C1  BNZ d   1       4.833   2.474   1.151  0.00  0.00     0.000 A 
ATOM      2  C2  BNZ d   1       5.999   1.814   0.870  0.00  0.00     0.000 A 
ATOM      3  C3  BNZ d   1       5.981   0.573   0.297  0.00  0.00     0.000 A 
ATOM      4  C4  BNZ d   1       4.797  -0.023   0.044  0.00  0.00     0.000 A 
ATOM      5  C5  BNZ d   1       3.613   0.626   0.331  0.00  0.00     0.000 A 
ATOM      6  C6  BNZ d   1       3.636   1.891   0.871  0.00  0.00     0.000 A 
ENDROOT
TORSDOF 0
ENDMDL
