MODEL 1
REMARK minimizedAffinity 0.562042952
REMARK minimizedRMSD -1
REMARK  0 active torsions:
REMARK  status: ('A' for Active; 'I' for Inactive)
ROOT
ATOM      1  C1  BNZ d   1       3.161  -3.618   0.668  0.00  0.00     0.000 A 
ATOM      2  C2  BNZ d   1       2.951  -2.291   0.934  0.00  0.00     0.000 A 
ATOM      3  C3  BNZ d   1       1.854  -1.884   1.640  0.00  0.00     0.000 A 
ATOM      4  C4  BNZ d   1       0.949  -2.799   2.045  0.00  0.00     0.000 A 
ATOM      5  C5  BNZ d   1       1.142  -4.139   1.777  0.00  0.00     0.000 A 
ATOM      6  C6  BNZ d   1       2.267  -4.549   1.099  0.00  0.00     0.000 A 
ENDROOT
TORSDOF 0
ENDMDL
