MODEL 1
REMARK minimizedAffinity -3.53656363
REMARK minimizedRMSD -1
REMARK  0 active torsions:
REMARK  status: ('A' for Active; 'I' for Inactive)
ROOT
ATOM      1  C1  BNZ d   1       3.755  -5.233   4.456  0.00  0.00     0.000 A 
ATOM      2  C2  BNZ d   1       4.620  -6.000   5.190  0.00  0.00     0.000 A 
ATOM      3  C3  BNZ d   1       5.574  -5.419   5.978  0.00  0.00     0.000 A 
ATOM      4  C4  BNZ d   1       5.688  -4.075   6.000  0.00  0.00     0.000 A 
ATOM      5  C5  BNZ d   1       4.829  -3.289   5.259  0.00  0.00     0.000 A 
ATOM      6  C6  BNZ d   1       3.845  -3.875   4.497  0.00  0.00     0.000 A 
ENDROOT
TORSDOF 0
ENDMDL
