MODEL 1
REMARK minimizedAffinity 28.2056961
REMARK minimizedRMSD -1
REMARK  0 active torsions:
REMARK  status: ('A' for Active; 'I' for Inactive)
ROOT
ATOM      1  C   UNL d   1       1.831   0.587   2.571  0.00  0.00     0.124 A 
ATOM      2  C1  UNL d   1       3.062   0.919   3.121  0.00  0.00     0.062 A 
ATOM      3  C2  UNL d   1       3.728   0.013   3.941  0.00  0.00     0.162 A 
ATOM      4  C3  UNL d   1       3.166  -1.234   4.215  0.00  0.00    -0.034 A 
ATOM      5  C4  UNL d   1       1.928  -1.560   3.658  0.00  0.00     0.162 A 
ATOM      6  C5  UNL d   1       1.266  -0.651   2.839  0.00  0.00     0.062 A 
ATOM      7  F   UNL d   1       0.077  -0.973   2.308  0.00  0.00    -0.097 F 
ATOM      8  F1  UNL d   1       1.359  -2.750   3.900  0.00  0.00    -0.096 F 
ATOM      9  I   UNL d   1       4.160  -2.592   5.440  0.00  0.00    -0.060 I 
ATOM     10  F2  UNL d   1       4.916   0.359   4.460  0.00  0.00    -0.096 F 
ATOM     11  F3  UNL d   1       3.610   2.115   2.864  0.00  0.00    -0.097 F 
ATOM     12  F4  UNL d   1       1.192   1.462   1.783  0.00  0.00    -0.092 F 
ENDROOT
TORSDOF 0
ENDMDL
