MODEL 1
REMARK minimizedAffinity 15.3123503
REMARK minimizedRMSD -1
REMARK  0 active torsions:
REMARK  status: ('A' for Active; 'I' for Inactive)
ROOT
ATOM      1  C   UNL d   1       4.006   1.936   3.405  0.00  0.00     0.124 A 
ATOM      2  C1  UNL d   1       3.753   3.175   3.977  0.00  0.00     0.062 A 
ATOM      3  C2  UNL d   1       3.904   4.337   3.225  0.00  0.00     0.162 A 
ATOM      4  C3  UNL d   1       4.308   4.265   1.892  0.00  0.00    -0.034 A 
ATOM      5  C4  UNL d   1       4.561   3.015   1.324  0.00  0.00     0.162 A 
ATOM      6  C5  UNL d   1       4.409   1.857   2.079  0.00  0.00     0.062 A 
ATOM      7  F   UNL d   1       4.654   0.661   1.525  0.00  0.00    -0.097 F 
ATOM      8  F1  UNL d   1       4.952   2.910   0.045  0.00  0.00    -0.096 F 
ATOM      9  I   UNL d   1       4.534   6.000   0.764  0.00  0.00    -0.060 I 
ATOM     10  F2  UNL d   1       3.653   5.521   3.804  0.00  0.00    -0.096 F 
ATOM     11  F3  UNL d   1       3.364   3.254   5.257  0.00  0.00    -0.097 F 
ATOM     12  F4  UNL d   1       3.861   0.820   4.131  0.00  0.00    -0.092 F 
ENDROOT
TORSDOF 0
ENDMDL
