MODEL 1
REMARK minimizedAffinity 26.7433014
REMARK minimizedRMSD -1
REMARK  0 active torsions:
REMARK  status: ('A' for Active; 'I' for Inactive)
ROOT
ATOM      1  C   UNL d   1       0.550   0.616   1.965  0.00  0.00     0.124 A 
ATOM      2  C1  UNL d   1      -0.665   1.189   2.313  0.00  0.00     0.062 A 
ATOM      3  C2  UNL d   1      -0.944   2.507   1.960  0.00  0.00     0.162 A 
ATOM      4  C3  UNL d   1      -0.005   3.260   1.254  0.00  0.00    -0.034 A 
ATOM      5  C4  UNL d   1       1.215   2.676   0.909  0.00  0.00     0.162 A 
ATOM      6  C5  UNL d   1       1.489   1.360   1.264  0.00  0.00     0.062 A 
ATOM      7  F   UNL d   1       2.664   0.807   0.928  0.00  0.00    -0.097 F 
ATOM      8  F1  UNL d   1       2.140   3.372   0.231  0.00  0.00    -0.096 F 
ATOM      9  I   UNL d   1      -0.419   5.230   0.725  0.00  0.00    -0.060 I 
ATOM     10  F2  UNL d   1      -2.126   3.035   2.309  0.00  0.00    -0.096 F 
ATOM     11  F3  UNL d   1      -1.573   0.473   2.991  0.00  0.00    -0.097 F 
ATOM     12  F4  UNL d   1       0.816  -0.651   2.307  0.00  0.00    -0.092 F 
ENDROOT
TORSDOF 0
ENDMDL
