MODEL 1
REMARK minimizedAffinity 11.1841831
REMARK minimizedRMSD -1
REMARK  0 active torsions:
REMARK  status: ('A' for Active; 'I' for Inactive)
ROOT
ATOM      1  C   UNL d   1      -2.722  -1.522   3.105  0.00  0.00     0.124 A 
ATOM      2  C1  UNL d   1      -1.606  -2.213   3.557  0.00  0.00     0.062 A 
ATOM      3  C2  UNL d   1      -0.364  -1.585   3.601  0.00  0.00     0.162 A 
ATOM      4  C3  UNL d   1      -0.232  -0.258   3.192  0.00  0.00    -0.034 A 
ATOM      5  C4  UNL d   1      -1.359   0.430   2.738  0.00  0.00     0.162 A 
ATOM      6  C5  UNL d   1      -2.598  -0.202   2.697  0.00  0.00     0.062 A 
ATOM      7  F   UNL d   1      -3.675   0.467   2.260  0.00  0.00    -0.097 F 
ATOM      8  F1  UNL d   1      -1.268   1.707   2.339  0.00  0.00    -0.096 F 
ATOM      9  I   UNL d   1       1.622   0.685   3.256  0.00  0.00    -0.060 I 
ATOM     10  F2  UNL d   1       0.697  -2.277   4.041  0.00  0.00    -0.096 F 
ATOM     11  F3  UNL d   1      -1.723  -3.489   3.951  0.00  0.00    -0.097 F 
ATOM     12  F4  UNL d   1      -3.915  -2.129   3.063  0.00  0.00    -0.092 F 
ENDROOT
TORSDOF 0
ENDMDL
