MODEL 1
REMARK minimizedAffinity 18.6238708
REMARK minimizedRMSD -1
REMARK  0 active torsions:
REMARK  status: ('A' for Active; 'I' for Inactive)
ROOT
ATOM      1  C   UNL d   1       1.174  -0.743   2.716  0.00  0.00     0.124 A 
ATOM      2  C1  UNL d   1       0.206  -0.065   1.988  0.00  0.00     0.062 A 
ATOM      3  C2  UNL d   1      -1.083  -0.579   1.889  0.00  0.00     0.162 A 
ATOM      4  C3  UNL d   1      -1.413  -1.779   2.520  0.00  0.00    -0.034 A 
ATOM      5  C4  UNL d   1      -0.434  -2.456   3.249  0.00  0.00     0.162 A 
ATOM      6  C5  UNL d   1       0.854  -1.937   3.345  0.00  0.00     0.062 A 
ATOM      7  F   UNL d   1       1.788  -2.594   4.049  0.00  0.00    -0.097 F 
ATOM      8  F1  UNL d   1      -0.717  -3.611   3.868  0.00  0.00    -0.096 F 
ATOM      9  I   UNL d   1      -3.340  -2.551   2.374  0.00  0.00    -0.060 I 
ATOM     10  F2  UNL d   1      -1.999   0.097   1.179  0.00  0.00    -0.096 F 
ATOM     11  F3  UNL d   1       0.514   1.089   1.378  0.00  0.00    -0.097 F 
ATOM     12  F4  UNL d   1       2.414  -0.246   2.808  0.00  0.00    -0.092 F 
ENDROOT
TORSDOF 0
ENDMDL
