MODEL 1
REMARK minimizedAffinity 22.8358936
REMARK minimizedRMSD -1
REMARK  0 active torsions:
REMARK  status: ('A' for Active; 'I' for Inactive)
ROOT
ATOM      1  C   UNL d   1       2.941   2.190   2.123  0.00  0.00     0.124 A 
ATOM      2  C1  UNL d   1       3.765   2.183   3.240  0.00  0.00     0.062 A 
ATOM      3  C2  UNL d   1       4.593   3.269   3.506  0.00  0.00     0.162 A 
ATOM      4  C3  UNL d   1       4.601   4.373   2.653  0.00  0.00    -0.034 A 
ATOM      5  C4  UNL d   1       3.770   4.373   1.531  0.00  0.00     0.162 A 
ATOM      6  C5  UNL d   1       2.944   3.285   1.270  0.00  0.00     0.062 A 
ATOM      7  F   UNL d   1       2.149   3.293   0.190  0.00  0.00    -0.097 F 
ATOM      8  F1  UNL d   1       3.753   5.418   0.691  0.00  0.00    -0.096 F 
ATOM      9  I   UNL d   1       5.838   6.000   3.048  0.00  0.00    -0.060 I 
ATOM     10  F2  UNL d   1       5.378   3.235   4.592  0.00  0.00    -0.096 F 
ATOM     11  F3  UNL d   1       3.764   1.126   4.065  0.00  0.00    -0.097 F 
ATOM     12  F4  UNL d   1       2.146   1.143   1.869  0.00  0.00    -0.092 F 
ENDROOT
TORSDOF 0
ENDMDL
