MODEL 1
REMARK minimizedAffinity 15.561552
REMARK minimizedRMSD -1
REMARK  0 active torsions:
REMARK  status: ('A' for Active; 'I' for Inactive)
ROOT
ATOM      1  C   UNL d   1       4.139   4.884   3.794  0.00  0.00     0.124 A 
ATOM      2  C1  UNL d   1       4.134   4.883   2.406  0.00  0.00     0.062 A 
ATOM      3  C2  UNL d   1       4.462   3.725   1.707  0.00  0.00     0.162 A 
ATOM      4  C3  UNL d   1       4.797   2.559   2.394  0.00  0.00    -0.034 A 
ATOM      5  C4  UNL d   1       4.801   2.568   3.790  0.00  0.00     0.162 A 
ATOM      6  C5  UNL d   1       4.472   3.728   4.485  0.00  0.00     0.062 A 
ATOM      7  F   UNL d   1       4.477   3.727   5.826  0.00  0.00    -0.097 F 
ATOM      8  F1  UNL d   1       5.118   1.464   4.482  0.00  0.00    -0.096 F 
ATOM      9  I   UNL d   1       5.289   0.826   1.351  0.00  0.00    -0.060 I 
ATOM     10  F2  UNL d   1       4.449   3.752   0.366  0.00  0.00    -0.096 F 
ATOM     11  F3  UNL d   1       3.813   5.999   1.737  0.00  0.00    -0.097 F 
ATOM     12  F4  UNL d   1       3.823   6.000   4.465  0.00  0.00    -0.092 F 
ENDROOT
TORSDOF 0
ENDMDL
