MODEL 1
REMARK minimizedAffinity 16.157402
REMARK minimizedRMSD -1
REMARK  0 active torsions:
REMARK  status: ('A' for Active; 'I' for Inactive)
ROOT
ATOM      1  C   UNL d   1       1.102   0.325   3.236  0.00  0.00     0.124 A 
ATOM      2  C1  UNL d   1       2.365   0.619   3.731  0.00  0.00     0.062 A 
ATOM      3  C2  UNL d   1       3.041  -0.308   4.520  0.00  0.00     0.162 A 
ATOM      4  C3  UNL d   1       2.455  -1.538   4.818  0.00  0.00    -0.034 A 
ATOM      5  C4  UNL d   1       1.184  -1.826   4.318  0.00  0.00     0.162 A 
ATOM      6  C5  UNL d   1       0.513  -0.896   3.529  0.00  0.00     0.062 A 
ATOM      7  F   UNL d   1      -0.707  -1.182   3.052  0.00  0.00    -0.097 F 
ATOM      8  F1  UNL d   1       0.591  -2.999   4.585  0.00  0.00    -0.096 F 
ATOM      9  I   UNL d   1       3.461  -2.926   5.998  0.00  0.00    -0.060 I 
ATOM     10  F2  UNL d   1       4.260   0.003   4.985  0.00  0.00    -0.096 F 
ATOM     11  F3  UNL d   1       2.937   1.799   3.449  0.00  0.00    -0.097 F 
ATOM     12  F4  UNL d   1       0.454   1.219   2.478  0.00  0.00    -0.092 F 
ENDROOT
TORSDOF 0
ENDMDL
