MODEL 1
REMARK minimizedAffinity 19.9220676
REMARK minimizedRMSD -1
REMARK  0 active torsions:
REMARK  status: ('A' for Active; 'I' for Inactive)
ROOT
ATOM      1  C   UNL d   1       1.827   1.646   5.604  0.00  0.00     0.124 A 
ATOM      2  C1  UNL d   1       2.997   0.960   5.310  0.00  0.00     0.062 A 
ATOM      3  C2  UNL d   1       4.190   1.654   5.129  0.00  0.00     0.162 A 
ATOM      4  C3  UNL d   1       4.219   3.044   5.241  0.00  0.00    -0.034 A 
ATOM      5  C4  UNL d   1       3.038   3.728   5.536  0.00  0.00     0.162 A 
ATOM      6  C5  UNL d   1       1.849   3.029   5.716  0.00  0.00     0.062 A 
ATOM      7  F   UNL d   1       0.719   3.694   6.000  0.00  0.00    -0.097 F 
ATOM      8  F1  UNL d   1       3.030   5.064   5.651  0.00  0.00    -0.096 F 
ATOM      9  I   UNL d   1       6.000   4.086   4.970  0.00  0.00    -0.060 I 
ATOM     10  F2  UNL d   1       5.305   0.965   4.846  0.00  0.00    -0.096 F 
ATOM     11  F3  UNL d   1       2.979  -0.377   5.201  0.00  0.00    -0.097 F 
ATOM     12  F4  UNL d   1       0.681   0.976   5.778  0.00  0.00    -0.092 F 
ENDROOT
TORSDOF 0
ENDMDL
