MODEL 1
REMARK minimizedAffinity 19.5713215
REMARK minimizedRMSD -1
REMARK  0 active torsions:
REMARK  status: ('A' for Active; 'I' for Inactive)
ROOT
ATOM      1  C   UNL d   1      -0.586  -0.849  -4.301  0.00  0.00     0.124 A 
ATOM      2  C1  UNL d   1      -1.557  -1.832  -4.168  0.00  0.00     0.062 A 
ATOM      3  C2  UNL d   1      -1.325  -3.116  -4.653  0.00  0.00     0.162 A 
ATOM      4  C3  UNL d   1      -0.114  -3.425  -5.274  0.00  0.00    -0.034 A 
ATOM      5  C4  UNL d   1       0.857  -2.432  -5.404  0.00  0.00     0.162 A 
ATOM      6  C5  UNL d   1       0.620  -1.150  -4.918  0.00  0.00     0.062 A 
ATOM      7  F   UNL d   1       1.559  -0.202  -5.047  0.00  0.00    -0.097 F 
ATOM      8  F1  UNL d   1       2.032  -2.695  -5.996  0.00  0.00    -0.096 F 
ATOM      9  I   UNL d   1       0.238  -5.344  -5.999  0.00  0.00    -0.060 I 
ATOM     10  F2  UNL d   1      -2.281  -4.046  -4.511  0.00  0.00    -0.096 F 
ATOM     11  F3  UNL d   1      -2.724  -1.544  -3.573  0.00  0.00    -0.097 F 
ATOM     12  F4  UNL d   1      -0.813   0.385  -3.835  0.00  0.00    -0.092 F 
ENDROOT
TORSDOF 0
ENDMDL
