MODEL 1
REMARK minimizedAffinity 16.823328
REMARK minimizedRMSD -1
REMARK  0 active torsions:
REMARK  status: ('A' for Active; 'I' for Inactive)
ROOT
ATOM      1  C   UNL d   1      -0.865  -2.193   3.276  0.00  0.00     0.124 A 
ATOM      2  C1  UNL d   1      -0.698  -1.013   2.565  0.00  0.00     0.062 A 
ATOM      3  C2  UNL d   1       0.510  -0.326   2.623  0.00  0.00     0.162 A 
ATOM      4  C3  UNL d   1       1.563  -0.817   3.395  0.00  0.00    -0.034 A 
ATOM      5  C4  UNL d   1       1.388  -2.004   4.109  0.00  0.00     0.162 A 
ATOM      6  C5  UNL d   1       0.178  -2.688   4.047  0.00  0.00     0.062 A 
ATOM      7  F   UNL d   1       0.018  -3.828   4.735  0.00  0.00    -0.097 F 
ATOM      8  F1  UNL d   1       2.379  -2.505   4.861  0.00  0.00    -0.096 F 
ATOM      9  I   UNL d   1       3.372   0.208   3.485  0.00  0.00    -0.060 I 
ATOM     10  F2  UNL d   1       0.643   0.812   1.925  0.00  0.00    -0.096 F 
ATOM     11  F3  UNL d   1      -1.705  -0.533   1.820  0.00  0.00    -0.097 F 
ATOM     12  F4  UNL d   1      -2.030  -2.853   3.219  0.00  0.00    -0.092 F 
ENDROOT
TORSDOF 0
ENDMDL
