MODEL 1
REMARK minimizedAffinity 16.0898762
REMARK minimizedRMSD -1
REMARK  0 active torsions:
REMARK  status: ('A' for Active; 'I' for Inactive)
ROOT
ATOM      1  C   UNL d   1       2.440  -0.821   4.641  0.00  0.00     0.124 A 
ATOM      2  C1  UNL d   1       2.041   0.319   3.956  0.00  0.00     0.062 A 
ATOM      3  C2  UNL d   1       0.873   0.308   3.199  0.00  0.00     0.162 A 
ATOM      4  C3  UNL d   1       0.094  -0.846   3.123  0.00  0.00    -0.034 A 
ATOM      5  C4  UNL d   1       0.502  -1.989   3.813  0.00  0.00     0.162 A 
ATOM      6  C5  UNL d   1       1.670  -1.974   4.569  0.00  0.00     0.062 A 
ATOM      7  F   UNL d   1       2.054  -3.076   5.229  0.00  0.00    -0.097 F 
ATOM      8  F1  UNL d   1      -0.223  -3.116   3.762  0.00  0.00    -0.096 F 
ATOM      9  I   UNL d   1      -1.653  -0.866   1.992  0.00  0.00    -0.060 I 
ATOM     10  F2  UNL d   1       0.512   1.424   2.548  0.00  0.00    -0.096 F 
ATOM     11  F3  UNL d   1       2.783   1.434   4.024  0.00  0.00    -0.097 F 
ATOM     12  F4  UNL d   1       3.564  -0.808   5.367  0.00  0.00    -0.092 F 
ENDROOT
TORSDOF 0
ENDMDL
