MODEL 1
REMARK minimizedAffinity 12.7144556
REMARK minimizedRMSD -1
REMARK  0 active torsions:
REMARK  status: ('A' for Active; 'I' for Inactive)
ROOT
ATOM      1  C   UNL d   1       2.195  -1.087   4.330  0.00  0.00     0.124 A 
ATOM      2  C1  UNL d   1       1.437  -2.242   4.466  0.00  0.00     0.062 A 
ATOM      3  C2  UNL d   1       0.176  -2.324   3.883  0.00  0.00     0.162 A 
ATOM      4  C3  UNL d   1      -0.335  -1.249   3.157  0.00  0.00    -0.034 A 
ATOM      5  C4  UNL d   1       0.432  -0.090   3.024  0.00  0.00     0.162 A 
ATOM      6  C5  UNL d   1       1.692  -0.013   3.609  0.00  0.00     0.062 A 
ATOM      7  F   UNL d   1       2.423   1.104   3.476  0.00  0.00    -0.097 F 
ATOM      8  F1  UNL d   1      -0.029   0.962   2.333  0.00  0.00    -0.096 F 
ATOM      9  I   UNL d   1      -2.221  -1.369   2.283  0.00  0.00    -0.060 I 
ATOM     10  F2  UNL d   1      -0.534  -3.453   4.031  0.00  0.00    -0.096 F 
ATOM     11  F3  UNL d   1       1.920  -3.280   5.163  0.00  0.00    -0.097 F 
ATOM     12  F4  UNL d   1       3.407  -1.009   4.893  0.00  0.00    -0.092 F 
ENDROOT
TORSDOF 0
ENDMDL
