MODEL 1
REMARK minimizedAffinity 0.167624354
REMARK minimizedRMSD -1
REMARK  0 active torsions:
REMARK  status: ('A' for Active; 'I' for Inactive)
ROOT
ATOM      1  C   UNL d   1      -5.528  -0.889  -1.398  0.00  0.00     0.172 C 
ATOM      2  N   UNL d   1      -4.459  -0.667  -0.453  0.00  0.00    -0.070 N 
ATOM      3  C1  UNL d   1      -4.481   0.229   0.582  0.00  0.00    -0.004 A 
ATOM      4  C2  UNL d   1      -3.277   0.137   1.246  0.00  0.00    -0.047 A 
ATOM      5  C3  UNL d   1      -2.504  -0.848   0.587  0.00  0.00    -0.047 A 
ATOM      6  C4  UNL d   1      -3.259  -1.329  -0.461  0.00  0.00    -0.004 A 
ENDROOT
TORSDOF 0
ENDMDL
