MODEL 1
REMARK minimizedAffinity 2.01610088
REMARK minimizedRMSD -1
REMARK  0 active torsions:
REMARK  status: ('A' for Active; 'I' for Inactive)
ROOT
ATOM      1  C   UNL d   1      -1.822  -0.876   4.165  0.00  0.00     0.172 C 
ATOM      2  N   UNL d   1      -2.112  -1.120   2.771  0.00  0.00    -0.070 N 
ATOM      3  C1  UNL d   1      -2.533  -0.181   1.867  0.00  0.00    -0.004 A 
ATOM      4  C2  UNL d   1      -2.697  -0.809   0.652  0.00  0.00    -0.047 A 
ATOM      5  C3  UNL d   1      -2.365  -2.173   0.832  0.00  0.00    -0.047 A 
ATOM      6  C4  UNL d   1      -2.007  -2.338   2.153  0.00  0.00    -0.004 A 
ENDROOT
TORSDOF 0
ENDMDL
