MODEL 1
REMARK minimizedAffinity 2.21001697
REMARK minimizedRMSD -1
REMARK  0 active torsions:
REMARK  status: ('A' for Active; 'I' for Inactive)
ROOT
ATOM      1  C   UNL d   1      -1.509  -1.196   5.970  0.00  0.00     0.172 C 
ATOM      2  N   UNL d   1      -0.409  -2.132   5.977  0.00  0.00    -0.070 N 
ATOM      3  C1  UNL d   1       0.920  -1.801   5.966  0.00  0.00    -0.004 A 
ATOM      4  C2  UNL d   1       1.646  -2.973   5.979  0.00  0.00    -0.047 A 
ATOM      5  C3  UNL d   1       0.722  -4.044   5.997  0.00  0.00    -0.047 A 
ATOM      6  C4  UNL d   1      -0.543  -3.495   5.996  0.00  0.00    -0.004 A 
ENDROOT
TORSDOF 0
ENDMDL
