MODEL 1
REMARK minimizedAffinity 7.92342949
REMARK minimizedRMSD -1
REMARK  0 active torsions:
REMARK  status: ('A' for Active; 'I' for Inactive)
ROOT
ATOM      1  C   UNL d   1      -2.243  -2.705   0.631  0.00  0.00     0.172 C 
ATOM      2  N   UNL d   1      -1.669  -4.010   0.405  0.00  0.00    -0.070 N 
ATOM      3  C1  UNL d   1      -1.209  -4.859   1.376  0.00  0.00    -0.004 A 
ATOM      4  C2  UNL d   1      -0.743  -5.997   0.755  0.00  0.00    -0.047 A 
ATOM      5  C3  UNL d   1      -0.927  -5.827  -0.637  0.00  0.00    -0.047 A 
ATOM      6  C4  UNL d   1      -1.503  -4.588  -0.826  0.00  0.00    -0.004 A 
ENDROOT
TORSDOF 0
ENDMDL
