MODEL 1
REMARK minimizedAffinity 8.77833652
REMARK minimizedRMSD -1
REMARK  0 active torsions:
REMARK  status: ('A' for Active; 'I' for Inactive)
ROOT
ATOM      1  C   UNL d   1       1.876  -4.413   5.888  0.00  0.00     0.172 C 
ATOM      2  N   UNL d   1       1.220  -3.161   5.593  0.00  0.00    -0.070 N 
ATOM      3  C1  UNL d   1       0.066  -3.015   4.870  0.00  0.00    -0.004 A 
ATOM      4  C2  UNL d   1      -0.230  -1.670   4.815  0.00  0.00    -0.047 A 
ATOM      5  C3  UNL d   1       0.781  -0.984   5.529  0.00  0.00    -0.047 A 
ATOM      6  C4  UNL d   1       1.666  -1.931   6.000  0.00  0.00    -0.004 A 
ENDROOT
TORSDOF 0
ENDMDL
