MODEL 1
REMARK minimizedAffinity 9.10589314
REMARK minimizedRMSD -1
REMARK  0 active torsions:
REMARK  status: ('A' for Active; 'I' for Inactive)
ROOT
ATOM      1  C   UNL d   1      -6.000  -1.537  -0.082  0.00  0.00     0.172 C 
ATOM      2  N   UNL d   1      -4.742  -0.829  -0.039  0.00  0.00    -0.070 N 
ATOM      3  C1  UNL d   1      -4.159  -0.305   1.084  0.00  0.00    -0.004 A 
ATOM      4  C2  UNL d   1      -2.973   0.287   0.706  0.00  0.00    -0.047 A 
ATOM      5  C3  UNL d   1      -2.839   0.114  -0.692  0.00  0.00    -0.047 A 
ATOM      6  C4  UNL d   1      -3.948  -0.581  -1.127  0.00  0.00    -0.004 A 
ENDROOT
TORSDOF 0
ENDMDL
