MODEL 1
REMARK minimizedAffinity 11.5973883
REMARK minimizedRMSD -1
REMARK  0 active torsions:
REMARK  status: ('A' for Active; 'I' for Inactive)
ROOT
ATOM      1  C   UNL d   1      -5.999  -0.716  -1.489  0.00  0.00     0.172 C 
ATOM      2  N   UNL d   1      -5.082  -0.251  -0.475  0.00  0.00    -0.070 N 
ATOM      3  C1  UNL d   1      -4.133  -1.014   0.152  0.00  0.00    -0.004 A 
ATOM      4  C2  UNL d   1      -3.467  -0.205   1.048  0.00  0.00    -0.047 A 
ATOM      5  C3  UNL d   1      -4.036   1.087   0.956  0.00  0.00    -0.047 A 
ATOM      6  C4  UNL d   1      -5.034   1.030   0.006  0.00  0.00    -0.004 A 
ENDROOT
TORSDOF 0
ENDMDL
