MODEL 1
REMARK minimizedAffinity 3.60422373
REMARK minimizedRMSD -1
REMARK  0 active torsions:
REMARK  status: ('A' for Active; 'I' for Inactive)
ROOT
ATOM      1  C   UNL d   1       0.879   2.328   3.776  0.00  0.00     0.172 C 
ATOM      2  N   UNL d   1       1.534   3.596   3.556  0.00  0.00    -0.070 N 
ATOM      3  C1  UNL d   1       2.834   3.888   3.872  0.00  0.00    -0.004 A 
ATOM      4  C2  UNL d   1       3.074   5.195   3.505  0.00  0.00    -0.047 A 
ATOM      5  C3  UNL d   1       1.877   5.706   2.950  0.00  0.00    -0.047 A 
ATOM      6  C4  UNL d   1       0.940   4.695   2.993  0.00  0.00    -0.004 A 
ENDROOT
TORSDOF 0
ENDMDL
