MODEL 1
REMARK minimizedAffinity 4.23917913
REMARK minimizedRMSD -1
REMARK  2 active torsions:
REMARK  status: ('A' for Active; 'I' for Inactive)
REMARK    1  A    between atoms: C1_2  and  C2_3 
REMARK    2  A    between atoms: C2_3  and  C3_4 
ROOT
ATOM      1  C3  UNL d   1       0.078   0.153   0.740  0.00  0.00    -0.075 A 
ATOM      2  C4  UNL d   1      -0.671  -0.234  -0.381  0.00  0.00     0.002 A 
ATOM      3  C5  UNL d   1      -2.062  -0.122  -0.376  0.00  0.00     0.002 A 
ATOM      4  C6  UNL d   1      -2.720   0.367   0.749  0.00  0.00    -0.004 A 
ATOM      5  C7  UNL d   1      -1.988   0.739   1.874  0.00  0.00     0.002 A 
ATOM      6  C8  UNL d   1      -0.596   0.632   1.871  0.00  0.00     0.002 A 
ENDROOT
BRANCH   1   7
ATOM      7  C2  UNL d   1       1.585   0.062   0.731  0.00  0.00     0.056 C 
BRANCH   7   8
ATOM      8  C1  UNL d   1       2.278   1.245   0.046  0.00  0.00     0.007 C 
ATOM      9  C   UNL d   1       2.799   2.286   1.028  0.00  0.00     0.009 C 
ENDBRANCH   7   8
ENDBRANCH   1   7
TORSDOF 2
ENDMDL
