MODEL 1
REMARK minimizedAffinity 7.03749704
REMARK minimizedRMSD -1
REMARK  2 active torsions:
REMARK  status: ('A' for Active; 'I' for Inactive)
REMARK    1  A    between atoms: C1_2  and  C2_3 
REMARK    2  A    between atoms: C2_3  and  C3_4 
ROOT
ATOM      1  C3  UNL d   1      -0.978  -0.777   3.823  0.00  0.00    -0.075 A 
ATOM      2  C4  UNL d   1      -1.173   0.181   2.816  0.00  0.00     0.002 A 
ATOM      3  C5  UNL d   1      -2.375   0.232   2.110  0.00  0.00     0.002 A 
ATOM      4  C6  UNL d   1      -3.391  -0.678   2.392  0.00  0.00    -0.004 A 
ATOM      5  C7  UNL d   1      -3.203  -1.643   3.379  0.00  0.00     0.002 A 
ATOM      6  C8  UNL d   1      -2.003  -1.694   4.090  0.00  0.00     0.002 A 
ENDROOT
BRANCH   1   7
ATOM      7  C2  UNL d   1       0.309  -0.819   4.611  0.00  0.00     0.056 C 
BRANCH   7   8
ATOM      8  C1  UNL d   1       1.570  -0.892   3.743  0.00  0.00     0.007 C 
ATOM      9  C   UNL d   1       2.841  -1.125   4.549  0.00  0.00     0.009 C 
ENDBRANCH   7   8
ENDBRANCH   1   7
TORSDOF 2
ENDMDL
