MODEL 1
REMARK minimizedAffinity 9.17609119
REMARK minimizedRMSD -1
REMARK  2 active torsions:
REMARK  status: ('A' for Active; 'I' for Inactive)
REMARK    1  A    between atoms: C1_2  and  C2_3 
REMARK    2  A    between atoms: C2_3  and  C3_4 
ROOT
ATOM      1  C3  UNL d   1       3.291   2.674   1.292  0.00  0.00    -0.075 A 
ATOM      2  C4  UNL d   1       2.290   1.729   1.559  0.00  0.00     0.002 A 
ATOM      3  C5  UNL d   1       1.953   0.766   0.608  0.00  0.00     0.002 A 
ATOM      4  C6  UNL d   1       2.604   0.742  -0.624  0.00  0.00    -0.004 A 
ATOM      5  C7  UNL d   1       3.588   1.687  -0.906  0.00  0.00     0.002 A 
ATOM      6  C8  UNL d   1       3.930   2.649   0.046  0.00  0.00     0.002 A 
ENDROOT
BRANCH   1   7
ATOM      7  C2  UNL d   1       3.680   3.700   2.329  0.00  0.00     0.056 C 
BRANCH   7   8
ATOM      8  C1  UNL d   1       4.923   3.324   3.143  0.00  0.00     0.007 C 
ATOM      9  C   UNL d   1       4.595   2.577   4.429  0.00  0.00     0.009 C 
ENDBRANCH   7   8
ENDBRANCH   1   7
TORSDOF 2
ENDMDL
