MODEL 1
REMARK minimizedAffinity 4.74998283
REMARK minimizedRMSD -1
REMARK  2 active torsions:
REMARK  status: ('A' for Active; 'I' for Inactive)
REMARK    1  A    between atoms: C1_2  and  C2_3 
REMARK    2  A    between atoms: C2_3  and  C3_4 
ROOT
ATOM      1  C3  UNL d   1      -1.362   0.251   1.241  0.00  0.00    -0.075 A 
ATOM      2  C4  UNL d   1       0.005  -0.041   1.361  0.00  0.00     0.002 A 
ATOM      3  C5  UNL d   1       0.812  -0.134   0.227  0.00  0.00     0.002 A 
ATOM      4  C6  UNL d   1       0.263   0.054  -1.040  0.00  0.00    -0.004 A 
ATOM      5  C7  UNL d   1      -1.097   0.328  -1.172  0.00  0.00     0.002 A 
ATOM      6  C8  UNL d   1      -1.906   0.426  -0.039  0.00  0.00     0.002 A 
ENDROOT
BRANCH   1   7
ATOM      7  C2  UNL d   1      -2.235   0.381   2.466  0.00  0.00     0.056 C 
BRANCH   7   8
ATOM      8  C1  UNL d   1      -2.026  -0.728   3.502  0.00  0.00     0.007 C 
ATOM      9  C   UNL d   1      -3.289  -1.528   3.788  0.00  0.00     0.009 C 
ENDBRANCH   7   8
ENDBRANCH   1   7
TORSDOF 2
ENDMDL
