MODEL 1
REMARK minimizedAffinity 1.07413077
REMARK minimizedRMSD -1
REMARK  2 active torsions:
REMARK  status: ('A' for Active; 'I' for Inactive)
REMARK    1  A    between atoms: C1_2  and  C2_3 
REMARK    2  A    between atoms: C2_3  and  C3_4 
ROOT
ATOM      1  C3  UNL d   1      -2.321  -0.321   2.640  0.00  0.00    -0.075 A 
ATOM      2  C4  UNL d   1      -3.300  -0.976   3.403  0.00  0.00     0.002 A 
ATOM      3  C5  UNL d   1      -2.935  -1.796   4.470  0.00  0.00     0.002 A 
ATOM      4  C6  UNL d   1      -1.590  -1.981   4.782  0.00  0.00    -0.004 A 
ATOM      5  C7  UNL d   1      -0.609  -1.350   4.021  0.00  0.00     0.002 A 
ATOM      6  C8  UNL d   1      -0.971  -0.525   2.955  0.00  0.00     0.002 A 
ENDROOT
BRANCH   1   7
ATOM      7  C2  UNL d   1      -2.711   0.591   1.502  0.00  0.00     0.056 C 
BRANCH   7   8
ATOM      8  C1  UNL d   1      -2.105   0.197   0.151  0.00  0.00     0.007 C 
ATOM      9  C   UNL d   1      -3.117  -0.424  -0.802  0.00  0.00     0.009 C 
ENDBRANCH   7   8
ENDBRANCH   1   7
TORSDOF 2
ENDMDL
