MODEL 1
REMARK minimizedAffinity 14.1581469
REMARK minimizedRMSD -1
REMARK  2 active torsions:
REMARK  status: ('A' for Active; 'I' for Inactive)
REMARK    1  A    between atoms: C1_2  and  C2_3 
REMARK    2  A    between atoms: C2_3  and  C3_4 
ROOT
ATOM      1  C3  UNL d   1       3.083   2.557   0.933  0.00  0.00    -0.075 A 
ATOM      2  C4  UNL d   1       2.248   1.430   0.913  0.00  0.00     0.002 A 
ATOM      3  C5  UNL d   1       2.005   0.751  -0.281  0.00  0.00     0.002 A 
ATOM      4  C6  UNL d   1       2.582   1.194  -1.469  0.00  0.00    -0.004 A 
ATOM      5  C7  UNL d   1       3.400   2.322  -1.463  0.00  0.00     0.002 A 
ATOM      6  C8  UNL d   1       3.649   3.001  -0.269  0.00  0.00     0.002 A 
ENDROOT
BRANCH   1   7
ATOM      7  C2  UNL d   1       3.375   3.279   2.227  0.00  0.00     0.056 C 
BRANCH   7   8
ATOM      8  C1  UNL d   1       4.104   2.424   3.268  0.00  0.00     0.007 C 
ATOM      9  C   UNL d   1       4.482   3.198   4.524  0.00  0.00     0.009 C 
ENDBRANCH   7   8
ENDBRANCH   1   7
TORSDOF 2
ENDMDL
