MODEL 1
REMARK minimizedAffinity -0.0515383221
REMARK minimizedRMSD -1
REMARK  2 active torsions:
REMARK  status: ('A' for Active; 'I' for Inactive)
REMARK    1  A    between atoms: C1_2  and  C2_3 
REMARK    2  A    between atoms: C2_3  and  C3_4 
ROOT
ATOM      1  C3  UNL d   1      -0.641  -0.332   2.914  0.00  0.00    -0.075 A 
ATOM      2  C4  UNL d   1      -1.896   0.264   3.105  0.00  0.00     0.002 A 
ATOM      3  C5  UNL d   1      -2.611   0.772   2.020  0.00  0.00     0.002 A 
ATOM      4  C6  UNL d   1      -2.077   0.701   0.735  0.00  0.00    -0.004 A 
ATOM      5  C7  UNL d   1      -0.824   0.126   0.536  0.00  0.00     0.002 A 
ATOM      6  C8  UNL d   1      -0.108  -0.388   1.619  0.00  0.00     0.002 A 
ENDROOT
BRANCH   1   7
ATOM      7  C2  UNL d   1       0.125  -0.911   4.080  0.00  0.00     0.056 C 
BRANCH   7   8
ATOM      8  C1  UNL d   1       1.536  -1.391   3.723  0.00  0.00     0.007 C 
ATOM      9  C   UNL d   1       2.520  -1.271   4.879  0.00  0.00     0.009 C 
ENDBRANCH   7   8
ENDBRANCH   1   7
TORSDOF 2
ENDMDL
