MODEL 1
REMARK minimizedAffinity 2.89363337
REMARK minimizedRMSD -1
REMARK  0 active torsions:
REMARK  status: ('A' for Active; 'I' for Inactive)
ROOT
ATOM      1  C   UNL d   1      -0.859  -2.517   0.993  0.00  0.00     0.124 A 
ATOM      2  C1  UNL d   1      -0.138  -1.343   0.831  0.00  0.00     0.062 A 
ATOM      3  C2  UNL d   1      -0.801  -0.127   0.698  0.00  0.00     0.162 A 
ATOM      4  C3  UNL d   1      -2.195  -0.078   0.727  0.00  0.00    -0.034 A 
ATOM      5  C4  UNL d   1      -2.914  -1.264   0.890  0.00  0.00     0.162 A 
ATOM      6  C5  UNL d   1      -2.246  -2.477   1.022  0.00  0.00     0.062 A 
ATOM      7  F   UNL d   1      -2.945  -3.611   1.179  0.00  0.00    -0.097 F 
ATOM      8  F1  UNL d   1      -4.255  -1.253   0.922  0.00  0.00    -0.096 F 
ATOM      9  I   UNL d   1      -3.191   1.739   0.529  0.00  0.00    -0.060 I 
ATOM     10  F2  UNL d   1      -0.078   0.993   0.543  0.00  0.00    -0.096 F 
ATOM     11  F3  UNL d   1       1.202  -1.380   0.802  0.00  0.00    -0.097 F 
ATOM     12  F4  UNL d   1      -0.219  -3.687   1.120  0.00  0.00    -0.092 F 
ENDROOT
TORSDOF 0
ENDMDL
