MODEL 1
REMARK minimizedAffinity -2.77415538
REMARK minimizedRMSD -1
REMARK  0 active torsions:
REMARK  status: ('A' for Active; 'I' for Inactive)
ROOT
ATOM      1  C   UNL d   1       0.745   2.053  -0.951  0.00  0.00     0.124 A 
ATOM      2  C1  UNL d   1       0.896   1.743   0.394  0.00  0.00     0.062 A 
ATOM      3  C2  UNL d   1       0.724   0.434   0.835  0.00  0.00     0.162 A 
ATOM      4  C3  UNL d   1       0.400  -0.576  -0.071  0.00  0.00    -0.034 A 
ATOM      5  C4  UNL d   1       0.249  -0.257  -1.421  0.00  0.00     0.162 A 
ATOM      6  C5  UNL d   1       0.422   1.053  -1.857  0.00  0.00     0.062 A 
ATOM      7  F   UNL d   1       0.276   1.350  -3.156  0.00  0.00    -0.097 F 
ATOM      8  F1  UNL d   1      -0.062  -1.204  -2.319  0.00  0.00    -0.096 F 
ATOM      9  I   UNL d   1       0.142  -2.535   0.584  0.00  0.00    -0.060 I 
ATOM     10  F2  UNL d   1       0.875   0.164   2.140  0.00  0.00    -0.096 F 
ATOM     11  F3  UNL d   1       1.207   2.708   1.272  0.00  0.00    -0.097 F 
ATOM     12  F4  UNL d   1       0.910   3.314  -1.372  0.00  0.00    -0.092 F 
ENDROOT
TORSDOF 0
ENDMDL
