MODEL 1
REMARK minimizedAffinity 1.45115077
REMARK minimizedRMSD -1
REMARK  0 active torsions:
REMARK  status: ('A' for Active; 'I' for Inactive)
ROOT
ATOM      1  C   UNL d   1       0.048  -1.199   1.365  0.00  0.00     0.124 A 
ATOM      2  C1  UNL d   1      -0.297  -0.854   0.065  0.00  0.00     0.062 A 
ATOM      3  C2  UNL d   1       0.158   0.340  -0.486  0.00  0.00     0.162 A 
ATOM      4  C3  UNL d   1       0.964   1.199   0.262  0.00  0.00    -0.034 A 
ATOM      5  C4  UNL d   1       1.305   0.846   1.569  0.00  0.00     0.162 A 
ATOM      6  C5  UNL d   1       0.848  -0.349   2.115  0.00  0.00     0.062 A 
ATOM      7  F   UNL d   1       1.182  -0.680   3.371  0.00  0.00    -0.097 F 
ATOM      8  F1  UNL d   1       2.078   1.648   2.316  0.00  0.00    -0.096 F 
ATOM      9  I   UNL d   1       1.646   2.986  -0.558  0.00  0.00    -0.060 I 
ATOM     10  F2  UNL d   1      -0.190   0.648  -1.744  0.00  0.00    -0.096 F 
ATOM     11  F3  UNL d   1      -1.070  -1.673  -0.661  0.00  0.00    -0.097 F 
ATOM     12  F4  UNL d   1      -0.392  -2.348   1.893  0.00  0.00    -0.092 F 
ENDROOT
TORSDOF 0
ENDMDL
