MODEL 1
REMARK minimizedAffinity -2.7286613
REMARK minimizedRMSD -1
REMARK  0 active torsions:
REMARK  status: ('A' for Active; 'I' for Inactive)
ROOT
ATOM      1  C   UNL d   1       0.433  -1.300  -0.913  0.00  0.00     0.124 A 
ATOM      2  C1  UNL d   1      -0.007  -2.296  -0.052  0.00  0.00     0.062 A 
ATOM      3  C2  UNL d   1      -0.900  -1.991   0.972  0.00  0.00     0.162 A 
ATOM      4  C3  UNL d   1      -1.359  -0.685   1.140  0.00  0.00    -0.034 A 
ATOM      5  C4  UNL d   1      -0.911   0.311   0.271  0.00  0.00     0.162 A 
ATOM      6  C5  UNL d   1      -0.019   0.002  -0.751  0.00  0.00     0.062 A 
ATOM      7  F   UNL d   1       0.406   0.965  -1.582  0.00  0.00    -0.097 F 
ATOM      8  F1  UNL d   1      -1.332   1.577   0.404  0.00  0.00    -0.096 F 
ATOM      9  I   UNL d   1      -2.694  -0.226   2.669  0.00  0.00    -0.060 I 
ATOM     10  F2  UNL d   1      -1.309  -2.973   1.789  0.00  0.00    -0.096 F 
ATOM     11  F3  UNL d   1       0.429  -3.554  -0.205  0.00  0.00    -0.097 F 
ATOM     12  F4  UNL d   1       1.293  -1.596  -1.896  0.00  0.00    -0.092 F 
ENDROOT
TORSDOF 0
ENDMDL
