MODEL 1
REMARK minimizedAffinity -3.444767
REMARK minimizedRMSD -1
REMARK  0 active torsions:
REMARK  status: ('A' for Active; 'I' for Inactive)
ROOT
ATOM      1  C   UNL d   1      -0.681  -0.861   1.544  0.00  0.00     0.124 A 
ATOM      2  C1  UNL d   1      -1.856  -0.621   2.242  0.00  0.00     0.062 A 
ATOM      3  C2  UNL d   1      -2.807   0.257   1.730  0.00  0.00     0.162 A 
ATOM      4  C3  UNL d   1      -2.587   0.900   0.511  0.00  0.00    -0.034 A 
ATOM      5  C4  UNL d   1      -1.402   0.654  -0.184  0.00  0.00     0.162 A 
ATOM      6  C5  UNL d   1      -0.455  -0.225   0.332  0.00  0.00     0.062 A 
ATOM      7  F   UNL d   1       0.680  -0.456  -0.343  0.00  0.00    -0.097 F 
ATOM      8  F1  UNL d   1      -1.158   1.255  -1.358  0.00  0.00    -0.096 F 
ATOM      9  I   UNL d   1      -4.006   2.213  -0.258  0.00  0.00    -0.060 I 
ATOM     10  F2  UNL d   1      -3.934   0.471   2.425  0.00  0.00    -0.096 F 
ATOM     11  F3  UNL d   1      -2.076  -1.234   3.414  0.00  0.00    -0.097 F 
ATOM     12  F4  UNL d   1       0.233  -1.706   2.040  0.00  0.00    -0.092 F 
ENDROOT
TORSDOF 0
ENDMDL
