MODEL 1
REMARK minimizedAffinity -0.973793447
REMARK minimizedRMSD -1
REMARK  0 active torsions:
REMARK  status: ('A' for Active; 'I' for Inactive)
ROOT
ATOM      1  C   UNL d   1      -0.327  -2.850   1.013  0.00  0.00     0.124 A 
ATOM      2  C1  UNL d   1      -0.682  -1.619   1.547  0.00  0.00     0.062 A 
ATOM      3  C2  UNL d   1      -0.409  -0.447   0.848  0.00  0.00     0.162 A 
ATOM      4  C3  UNL d   1       0.222  -0.500  -0.395  0.00  0.00    -0.034 A 
ATOM      5  C4  UNL d   1       0.577  -1.742  -0.925  0.00  0.00     0.162 A 
ATOM      6  C5  UNL d   1       0.302  -2.910  -0.223  0.00  0.00     0.062 A 
ATOM      7  F   UNL d   1       0.646  -4.098  -0.740  0.00  0.00    -0.097 F 
ATOM      8  F1  UNL d   1       1.186  -1.829  -2.118  0.00  0.00    -0.096 F 
ATOM      9  I   UNL d   1       0.633   1.250  -1.444  0.00  0.00    -0.060 I 
ATOM     10  F2  UNL d   1      -0.763   0.728   1.388  0.00  0.00    -0.096 F 
ATOM     11  F3  UNL d   1      -1.290  -1.558   2.741  0.00  0.00    -0.097 F 
ATOM     12  F4  UNL d   1      -0.590  -3.976   1.688  0.00  0.00    -0.092 F 
ENDROOT
TORSDOF 0
ENDMDL
