MODEL 1
REMARK minimizedAffinity -1.85999441
REMARK minimizedRMSD -1
REMARK  0 active torsions:
REMARK  status: ('A' for Active; 'I' for Inactive)
ROOT
ATOM      1  C   UNL d   1       0.031  -0.344  -1.698  0.00  0.00     0.124 A 
ATOM      2  C1  UNL d   1       0.266  -0.817  -0.415  0.00  0.00     0.062 A 
ATOM      3  C2  UNL d   1       0.633   0.062   0.600  0.00  0.00     0.162 A 
ATOM      4  C3  UNL d   1       0.767   1.425   0.335  0.00  0.00    -0.034 A 
ATOM      5  C4  UNL d   1       0.531   1.894  -0.958  0.00  0.00     0.162 A 
ATOM      6  C5  UNL d   1       0.164   1.011  -1.969  0.00  0.00     0.062 A 
ATOM      7  F   UNL d   1      -0.062   1.470  -3.208  0.00  0.00    -0.097 F 
ATOM      8  F1  UNL d   1       0.651   3.198  -1.247  0.00  0.00    -0.096 F 
ATOM      9  I   UNL d   1       1.316   2.743   1.850  0.00  0.00    -0.060 I 
ATOM     10  F2  UNL d   1       0.853  -0.423   1.831  0.00  0.00    -0.096 F 
ATOM     11  F3  UNL d   1       0.139  -2.126  -0.151  0.00  0.00    -0.097 F 
ATOM     12  F4  UNL d   1      -0.321  -1.192  -2.673  0.00  0.00    -0.092 F 
ENDROOT
TORSDOF 0
ENDMDL
