MODEL 1
REMARK minimizedAffinity -1.57034016
REMARK minimizedRMSD -1
REMARK  0 active torsions:
REMARK  status: ('A' for Active; 'I' for Inactive)
ROOT
ATOM      1  C   UNL d   1       0.304   1.634   0.841  0.00  0.00     0.124 A 
ATOM      2  C1  UNL d   1      -0.158   0.717  -0.093  0.00  0.00     0.062 A 
ATOM      3  C2  UNL d   1      -0.375  -0.608   0.275  0.00  0.00     0.162 A 
ATOM      4  C3  UNL d   1      -0.130  -1.024   1.584  0.00  0.00    -0.034 A 
ATOM      5  C4  UNL d   1       0.335  -0.096   2.517  0.00  0.00     0.162 A 
ATOM      6  C5  UNL d   1       0.550   1.227   2.145  0.00  0.00     0.062 A 
ATOM      7  F   UNL d   1       0.997   2.111   3.048  0.00  0.00    -0.097 F 
ATOM      8  F1  UNL d   1       0.580  -0.462   3.784  0.00  0.00    -0.096 F 
ATOM      9  I   UNL d   1      -0.453  -3.004   2.138  0.00  0.00    -0.060 I 
ATOM     10  F2  UNL d   1      -0.822  -1.473  -0.648  0.00  0.00    -0.096 F 
ATOM     11  F3  UNL d   1      -0.395   1.107  -1.353  0.00  0.00    -0.097 F 
ATOM     12  F4  UNL d   1       0.513   2.908   0.484  0.00  0.00    -0.092 F 
ENDROOT
TORSDOF 0
ENDMDL
