MODEL 1
REMARK minimizedAffinity 0.667403758
REMARK minimizedRMSD -1
REMARK  0 active torsions:
REMARK  status: ('A' for Active; 'I' for Inactive)
ROOT
ATOM      1  C   UNL d   1       0.903   1.973   0.389  0.00  0.00     0.124 A 
ATOM      2  C1  UNL d   1       0.732   1.271  -0.796  0.00  0.00     0.062 A 
ATOM      3  C2  UNL d   1       0.261  -0.039  -0.771  0.00  0.00     0.162 A 
ATOM      4  C3  UNL d   1      -0.042  -0.655   0.443  0.00  0.00    -0.034 A 
ATOM      5  C4  UNL d   1       0.134   0.057   1.631  0.00  0.00     0.162 A 
ATOM      6  C5  UNL d   1       0.604   1.366   1.601  0.00  0.00     0.062 A 
ATOM      7  F   UNL d   1       0.769   2.043   2.746  0.00  0.00    -0.097 F 
ATOM      8  F1  UNL d   1      -0.148  -0.505   2.815  0.00  0.00    -0.096 F 
ATOM      9  I   UNL d   1      -0.746  -2.613   0.484  0.00  0.00    -0.060 I 
ATOM     10  F2  UNL d   1       0.105  -0.694  -1.931  0.00  0.00    -0.096 F 
ATOM     11  F3  UNL d   1       1.021   1.855  -1.967  0.00  0.00    -0.097 F 
ATOM     12  F4  UNL d   1       1.357   3.233   0.363  0.00  0.00    -0.092 F 
ENDROOT
TORSDOF 0
ENDMDL
