MODEL 1
REMARK minimizedAffinity -1.3450278
REMARK minimizedRMSD -1
REMARK  0 active torsions:
REMARK  status: ('A' for Active; 'I' for Inactive)
ROOT
ATOM      1  C   UNL d   1      -1.150  -0.963   2.075  0.00  0.00     0.124 A 
ATOM      2  C1  UNL d   1      -1.406  -2.049   1.249  0.00  0.00     0.062 A 
ATOM      3  C2  UNL d   1      -0.868  -2.095  -0.034  0.00  0.00     0.162 A 
ATOM      4  C3  UNL d   1      -0.067  -1.052  -0.499  0.00  0.00    -0.034 A 
ATOM      5  C4  UNL d   1       0.186   0.037   0.336  0.00  0.00     0.162 A 
ATOM      6  C5  UNL d   1      -0.354   0.079   1.618  0.00  0.00     0.062 A 
ATOM      7  F   UNL d   1      -0.106   1.129   2.414  0.00  0.00    -0.097 F 
ATOM      8  F1  UNL d   1       0.951   1.057  -0.080  0.00  0.00    -0.096 F 
ATOM      9  I   UNL d   1       0.739  -1.118  -2.417  0.00  0.00    -0.060 I 
ATOM     10  F2  UNL d   1      -1.132  -3.157  -0.810  0.00  0.00    -0.096 F 
ATOM     11  F3  UNL d   1      -2.175  -3.056   1.688  0.00  0.00    -0.097 F 
ATOM     12  F4  UNL d   1      -1.669  -0.920   3.308  0.00  0.00    -0.092 F 
ENDROOT
TORSDOF 0
ENDMDL
