MODEL 1
REMARK minimizedAffinity -0.641095221
REMARK minimizedRMSD -1
REMARK  0 active torsions:
REMARK  status: ('A' for Active; 'I' for Inactive)
ROOT
ATOM      1  C   UNL d   1      -0.993  -2.633   0.674  0.00  0.00     0.124 A 
ATOM      2  C1  UNL d   1       0.372  -2.483   0.470  0.00  0.00     0.062 A 
ATOM      3  C2  UNL d   1       0.958  -1.224   0.557  0.00  0.00     0.162 A 
ATOM      4  C3  UNL d   1       0.180  -0.104   0.851  0.00  0.00    -0.034 A 
ATOM      5  C4  UNL d   1      -1.192  -0.263   1.053  0.00  0.00     0.162 A 
ATOM      6  C5  UNL d   1      -1.774  -1.524   0.965  0.00  0.00     0.062 A 
ATOM      7  F   UNL d   1      -3.092  -1.667   1.162  0.00  0.00    -0.097 F 
ATOM      8  F1  UNL d   1      -1.970   0.792   1.337  0.00  0.00    -0.096 F 
ATOM      9  I   UNL d   1       1.053   1.781   0.982  0.00  0.00    -0.060 I 
ATOM     10  F2  UNL d   1       2.279  -1.108   0.356  0.00  0.00    -0.096 F 
ATOM     11  F3  UNL d   1       1.128  -3.554   0.188  0.00  0.00    -0.097 F 
ATOM     12  F4  UNL d   1      -1.555  -3.846   0.588  0.00  0.00    -0.092 F 
ENDROOT
TORSDOF 0
ENDMDL
