MODEL 1
REMARK minimizedAffinity 4.2151432
REMARK minimizedRMSD -1
REMARK  0 active torsions:
REMARK  status: ('A' for Active; 'I' for Inactive)
ROOT
ATOM      1  C   UNL d   1      -0.289  -1.211  -0.476  0.00  0.00     0.124 A 
ATOM      2  C1  UNL d   1      -0.228  -0.718   0.819  0.00  0.00     0.062 A 
ATOM      3  C2  UNL d   1       0.140   0.605   1.048  0.00  0.00     0.162 A 
ATOM      4  C3  UNL d   1       0.447   1.445  -0.022  0.00  0.00    -0.034 A 
ATOM      5  C4  UNL d   1       0.385   0.941  -1.323  0.00  0.00     0.162 A 
ATOM      6  C5  UNL d   1       0.017  -0.382  -1.546  0.00  0.00     0.062 A 
ATOM      7  F   UNL d   1      -0.041  -0.857  -2.799  0.00  0.00    -0.097 F 
ATOM      8  F1  UNL d   1       0.674   1.721  -2.375  0.00  0.00    -0.096 F 
ATOM      9  I   UNL d   1       0.997   3.424   0.315  0.00  0.00    -0.060 I 
ATOM     10  F2  UNL d   1       0.190   1.055   2.311  0.00  0.00    -0.096 F 
ATOM     11  F3  UNL d   1      -0.522  -1.518   1.855  0.00  0.00    -0.097 F 
ATOM     12  F4  UNL d   1      -0.641  -2.485  -0.693  0.00  0.00    -0.092 F 
ENDROOT
TORSDOF 0
ENDMDL
