MODEL 1
REMARK minimizedAffinity -0.665752649
REMARK minimizedRMSD -1
REMARK  0 active torsions:
REMARK  status: ('A' for Active; 'I' for Inactive)
ROOT
ATOM      1  C   UNL d   1       0.202   0.580  -1.837  0.00  0.00     0.124 A 
ATOM      2  C1  UNL d   1      -0.082   1.090  -0.578  0.00  0.00     0.062 A 
ATOM      3  C2  UNL d   1      -0.165   0.238   0.520  0.00  0.00     0.162 A 
ATOM      4  C3  UNL d   1       0.037  -1.133   0.363  0.00  0.00    -0.034 A 
ATOM      5  C4  UNL d   1       0.321  -1.639  -0.907  0.00  0.00     0.162 A 
ATOM      6  C5  UNL d   1       0.403  -0.784  -2.001  0.00  0.00     0.062 A 
ATOM      7  F   UNL d   1       0.676  -1.278  -3.217  0.00  0.00    -0.097 F 
ATOM      8  F1  UNL d   1       0.520  -2.952  -1.093  0.00  0.00    -0.096 F 
ATOM      9  I   UNL d   1      -0.086  -2.410   2.002  0.00  0.00    -0.060 I 
ATOM     10  F2  UNL d   1      -0.440   0.758   1.725  0.00  0.00    -0.096 F 
ATOM     11  F3  UNL d   1      -0.277   2.407  -0.418  0.00  0.00    -0.097 F 
ATOM     12  F4  UNL d   1       0.280   1.402  -2.892  0.00  0.00    -0.092 F 
ENDROOT
TORSDOF 0
ENDMDL
