MODEL 1
REMARK minimizedAffinity 12.3423729
REMARK minimizedRMSD -1
REMARK  0 active torsions:
REMARK  status: ('A' for Active; 'I' for Inactive)
ROOT
ATOM      1  C   UNL d   1       0.087   0.752  -0.459  0.00  0.00     0.124 A 
ATOM      2  C1  UNL d   1      -0.682   1.734  -1.068  0.00  0.00     0.062 A 
ATOM      3  C2  UNL d   1      -1.845   2.192  -0.457  0.00  0.00     0.162 A 
ATOM      4  C3  UNL d   1      -2.246   1.669   0.773  0.00  0.00    -0.034 A 
ATOM      5  C4  UNL d   1      -1.468   0.681   1.379  0.00  0.00     0.162 A 
ATOM      6  C5  UNL d   1      -0.307   0.227   0.764  0.00  0.00     0.062 A 
ATOM      7  F   UNL d   1       0.435  -0.722   1.354  0.00  0.00    -0.097 F 
ATOM      8  F1  UNL d   1      -1.825   0.157   2.561  0.00  0.00    -0.096 F 
ATOM      9  I   UNL d   1      -3.985   2.351   1.690  0.00  0.00    -0.060 I 
ATOM     10  F2  UNL d   1      -2.569   3.141  -1.068  0.00  0.00    -0.096 F 
ATOM     11  F3  UNL d   1      -0.304   2.242  -2.250  0.00  0.00    -0.097 F 
ATOM     12  F4  UNL d   1       1.206   0.313  -1.050  0.00  0.00    -0.092 F 
ENDROOT
TORSDOF 0
ENDMDL
