MODEL 1
REMARK minimizedAffinity 12.6321306
REMARK minimizedRMSD -1
REMARK  0 active torsions:
REMARK  status: ('A' for Active; 'I' for Inactive)
ROOT
ATOM      1  C   UNL d   1       3.539   3.093  -2.133  0.00  0.00     0.124 A 
ATOM      2  C1  UNL d   1       4.046   3.941  -1.158  0.00  0.00     0.062 A 
ATOM      3  C2  UNL d   1       3.330   4.168   0.013  0.00  0.00     0.162 A 
ATOM      4  C3  UNL d   1       2.097   3.547   0.216  0.00  0.00    -0.034 A 
ATOM      5  C4  UNL d   1       1.593   2.696  -0.770  0.00  0.00     0.162 A 
ATOM      6  C5  UNL d   1       2.314   2.472  -1.939  0.00  0.00     0.062 A 
ATOM      7  F   UNL d   1       1.822   1.653  -2.880  0.00  0.00    -0.097 F 
ATOM      8  F1  UNL d   1       0.412   2.083  -0.607  0.00  0.00    -0.096 F 
ATOM      9  I   UNL d   1       1.022   3.885   1.966  0.00  0.00    -0.060 I 
ATOM     10  F2  UNL d   1       3.844   4.992   0.938  0.00  0.00    -0.096 F 
ATOM     11  F3  UNL d   1       5.230   4.543  -1.345  0.00  0.00    -0.097 F 
ATOM     12  F4  UNL d   1       4.231   2.877  -3.260  0.00  0.00    -0.092 F 
ENDROOT
TORSDOF 0
ENDMDL
