MODEL 1
REMARK minimizedAffinity 8.22256851
REMARK minimizedRMSD -1
REMARK  0 active torsions:
REMARK  status: ('A' for Active; 'I' for Inactive)
ROOT
ATOM      1  C   UNL d   1       3.814  -1.143  -2.493  0.00  0.00     0.124 A 
ATOM      2  C1  UNL d   1       3.472  -1.540  -1.207  0.00  0.00     0.062 A 
ATOM      3  C2  UNL d   1       3.710  -0.694  -0.128  0.00  0.00     0.162 A 
ATOM      4  C3  UNL d   1       4.291   0.558  -0.328  0.00  0.00    -0.034 A 
ATOM      5  C4  UNL d   1       4.632   0.950  -1.624  0.00  0.00     0.162 A 
ATOM      6  C5  UNL d   1       4.393   0.101  -2.700  0.00  0.00     0.062 A 
ATOM      7  F   UNL d   1       4.723   0.487  -3.941  0.00  0.00    -0.097 F 
ATOM      8  F1  UNL d   1       5.193   2.147  -1.853  0.00  0.00    -0.096 F 
ATOM      9  I   UNL d   1       4.648   1.825   1.284  0.00  0.00    -0.060 I 
ATOM     10  F2  UNL d   1       3.370  -1.104   1.104  0.00  0.00    -0.096 F 
ATOM     11  F3  UNL d   1       2.913  -2.741  -1.005  0.00  0.00    -0.097 F 
ATOM     12  F4  UNL d   1       3.585  -1.958  -3.530  0.00  0.00    -0.092 F 
ENDROOT
TORSDOF 0
ENDMDL
