MODEL 1
REMARK minimizedAffinity 6.82047081
REMARK minimizedRMSD -1
REMARK  0 active torsions:
REMARK  status: ('A' for Active; 'I' for Inactive)
ROOT
ATOM      1  C   UNL d   1       4.824   2.466   5.475  0.00  0.00     0.124 A 
ATOM      2  C1  UNL d   1       4.841   3.853   5.433  0.00  0.00     0.062 A 
ATOM      3  C2  UNL d   1       3.660   4.572   5.583  0.00  0.00     0.162 A 
ATOM      4  C3  UNL d   1       2.449   3.906   5.776  0.00  0.00    -0.034 A 
ATOM      5  C4  UNL d   1       2.440   2.511   5.816  0.00  0.00     0.162 A 
ATOM      6  C5  UNL d   1       3.624   1.796   5.666  0.00  0.00     0.062 A 
ATOM      7  F   UNL d   1       3.605   0.456   5.706  0.00  0.00    -0.097 F 
ATOM      8  F1  UNL d   1       1.294   1.838   6.000  0.00  0.00    -0.096 F 
ATOM      9  I   UNL d   1       0.680   4.978   6.000  0.00  0.00    -0.060 I 
ATOM     10  F2  UNL d   1       3.706   5.912   5.539  0.00  0.00    -0.096 F 
ATOM     11  F3  UNL d   1       6.000   4.502   5.248  0.00  0.00    -0.097 F 
ATOM     12  F4  UNL d   1       5.963   1.776   5.330  0.00  0.00    -0.092 F 
ENDROOT
TORSDOF 0
ENDMDL
