MODEL 1
REMARK minimizedAffinity 11.6800013
REMARK minimizedRMSD -1
REMARK  0 active torsions:
REMARK  status: ('A' for Active; 'I' for Inactive)
ROOT
ATOM      1  C   UNL d   1       2.282   2.398   5.982  0.00  0.00     0.124 A 
ATOM      2  C1  UNL d   1       1.992   3.755   5.987  0.00  0.00     0.062 A 
ATOM      3  C2  UNL d   1       3.023   4.691   5.979  0.00  0.00     0.162 A 
ATOM      4  C3  UNL d   1       4.353   4.273   5.967  0.00  0.00    -0.034 A 
ATOM      5  C4  UNL d   1       4.637   2.906   5.963  0.00  0.00     0.162 A 
ATOM      6  C5  UNL d   1       3.604   1.975   5.970  0.00  0.00     0.062 A 
ATOM      7  F   UNL d   1       3.886   0.664   5.966  0.00  0.00    -0.097 F 
ATOM      8  F1  UNL d   1       5.905   2.469   5.951  0.00  0.00    -0.096 F 
ATOM      9  I   UNL d   1       5.897   5.669   5.956  0.00  0.00    -0.060 I 
ATOM     10  F2  UNL d   1       2.713   5.996   5.984  0.00  0.00    -0.096 F 
ATOM     11  F3  UNL d   1       0.716   4.167   5.999  0.00  0.00    -0.097 F 
ATOM     12  F4  UNL d   1       1.289   1.500   5.990  0.00  0.00    -0.092 F 
ENDROOT
TORSDOF 0
ENDMDL
