MODEL 1
REMARK minimizedAffinity 3.02244353
REMARK minimizedRMSD -1
REMARK  0 active torsions:
REMARK  status: ('A' for Active; 'I' for Inactive)
ROOT
ATOM      1  C   UNL d   1       2.026   2.195   5.982  0.00  0.00     0.124 A 
ATOM      2  C1  UNL d   1       1.524   3.489   5.987  0.00  0.00     0.062 A 
ATOM      3  C2  UNL d   1       2.392   4.577   5.982  0.00  0.00     0.162 A 
ATOM      4  C3  UNL d   1       3.772   4.375   5.970  0.00  0.00    -0.034 A 
ATOM      5  C4  UNL d   1       4.270   3.071   5.965  0.00  0.00     0.162 A 
ATOM      6  C5  UNL d   1       3.398   1.987   5.971  0.00  0.00     0.062 A 
ATOM      7  F   UNL d   1       3.884   0.738   5.966  0.00  0.00    -0.097 F 
ATOM      8  F1  UNL d   1       5.591   2.841   5.954  0.00  0.00    -0.096 F 
ATOM      9  I   UNL d   1       5.074   5.999   5.961  0.00  0.00    -0.060 I 
ATOM     10  F2  UNL d   1       1.879   5.816   5.987  0.00  0.00    -0.096 F 
ATOM     11  F3  UNL d   1       0.199   3.693   5.999  0.00  0.00    -0.097 F 
ATOM     12  F4  UNL d   1       1.188   1.151   5.988  0.00  0.00    -0.092 F 
ENDROOT
TORSDOF 0
ENDMDL
