MODEL 1
REMARK minimizedAffinity 18.4503193
REMARK minimizedRMSD -1
REMARK  0 active torsions:
REMARK  status: ('A' for Active; 'I' for Inactive)
ROOT
ATOM      1  C   UNL d   1       1.092  -1.456   3.032  0.00  0.00     0.124 A 
ATOM      2  C1  UNL d   1       0.233  -1.316   4.113  0.00  0.00     0.062 A 
ATOM      3  C2  UNL d   1      -0.006  -2.393   4.962  0.00  0.00     0.162 A 
ATOM      4  C3  UNL d   1       0.616  -3.620   4.733  0.00  0.00    -0.034 A 
ATOM      5  C4  UNL d   1       1.477  -3.754   3.643  0.00  0.00     0.162 A 
ATOM      6  C5  UNL d   1       1.713  -2.675   2.798  0.00  0.00     0.062 A 
ATOM      7  F   UNL d   1       2.543  -2.813   1.753  0.00  0.00    -0.097 F 
ATOM      8  F1  UNL d   1       2.091  -4.921   3.394  0.00  0.00    -0.096 F 
ATOM      9  I   UNL d   1       0.261  -5.233   6.000  0.00  0.00    -0.060 I 
ATOM     10  F2  UNL d   1      -0.840  -2.228   5.999  0.00  0.00    -0.096 F 
ATOM     11  F3  UNL d   1      -0.369  -0.140   4.341  0.00  0.00    -0.097 F 
ATOM     12  F4  UNL d   1       1.319  -0.419   2.216  0.00  0.00    -0.092 F 
ENDROOT
TORSDOF 0
ENDMDL
