MODEL 1
REMARK minimizedAffinity 19.961174
REMARK minimizedRMSD -1
REMARK  0 active torsions:
REMARK  status: ('A' for Active; 'I' for Inactive)
ROOT
ATOM      1  C   UNL d   1      -3.389   1.501  -4.690  0.00  0.00     0.124 A 
ATOM      2  C1  UNL d   1      -4.554   1.999  -4.123  0.00  0.00     0.062 A 
ATOM      3  C2  UNL d   1      -4.868   1.708  -2.799  0.00  0.00     0.162 A 
ATOM      4  C3  UNL d   1      -4.015   0.915  -2.031  0.00  0.00    -0.034 A 
ATOM      5  C4  UNL d   1      -2.846   0.417  -2.608  0.00  0.00     0.162 A 
ATOM      6  C5  UNL d   1      -2.536   0.710  -3.932  0.00  0.00     0.062 A 
ATOM      7  F   UNL d   1      -1.411   0.227  -4.478  0.00  0.00    -0.097 F 
ATOM      8  F1  UNL d   1      -2.004  -0.349  -1.899  0.00  0.00    -0.096 F 
ATOM      9  I   UNL d   1      -4.481   0.478  -0.050  0.00  0.00    -0.060 I 
ATOM     10  F2  UNL d   1      -6.000   2.204  -2.277  0.00  0.00    -0.096 F 
ATOM     11  F3  UNL d   1      -5.379   2.762  -4.853  0.00  0.00    -0.097 F 
ATOM     12  F4  UNL d   1      -3.090   1.781  -5.965  0.00  0.00    -0.092 F 
ENDROOT
TORSDOF 0
ENDMDL
