MODEL 1
REMARK minimizedAffinity 5.87092304
REMARK minimizedRMSD -1
REMARK  0 active torsions:
REMARK  status: ('A' for Active; 'I' for Inactive)
ROOT
ATOM      1  C   UNL d   1       1.128   3.435   5.916  0.00  0.00     0.124 A 
ATOM      2  C1  UNL d   1       1.901   2.282   5.921  0.00  0.00     0.062 A 
ATOM      3  C2  UNL d   1       3.288   2.369   5.848  0.00  0.00     0.162 A 
ATOM      4  C3  UNL d   1       3.912   3.614   5.770  0.00  0.00    -0.034 A 
ATOM      5  C4  UNL d   1       3.128   4.769   5.764  0.00  0.00     0.162 A 
ATOM      6  C5  UNL d   1       1.742   4.677   5.837  0.00  0.00     0.062 A 
ATOM      7  F   UNL d   1       0.997   5.792   5.832  0.00  0.00    -0.097 F 
ATOM      8  F1  UNL d   1       3.696   5.982   5.690  0.00  0.00    -0.096 F 
ATOM      9  I   UNL d   1       5.986   3.748   5.660  0.00  0.00    -0.060 I 
ATOM     10  F2  UNL d   1       4.010   1.238   5.855  0.00  0.00    -0.096 F 
ATOM     11  F3  UNL d   1       1.310   1.081   5.996  0.00  0.00    -0.097 F 
ATOM     12  F4  UNL d   1      -0.207   3.348   5.985  0.00  0.00    -0.092 F 
ENDROOT
TORSDOF 0
ENDMDL
