MODEL 1
REMARK minimizedAffinity 26.6356411
REMARK minimizedRMSD -1
REMARK  0 active torsions:
REMARK  status: ('A' for Active; 'I' for Inactive)
ROOT
ATOM      1  C   UNL d   1      -4.765   2.635  -4.548  0.00  0.00     0.124 A 
ATOM      2  C1  UNL d   1      -3.672   3.169  -3.880  0.00  0.00     0.062 A 
ATOM      3  C2  UNL d   1      -2.757   2.329  -3.252  0.00  0.00     0.162 A 
ATOM      4  C3  UNL d   1      -2.930   0.945  -3.291  0.00  0.00    -0.034 A 
ATOM      5  C4  UNL d   1      -4.032   0.416  -3.965  0.00  0.00     0.162 A 
ATOM      6  C5  UNL d   1      -4.944   1.259  -4.590  0.00  0.00     0.062 A 
ATOM      7  F   UNL d   1      -5.999   0.741  -5.236  0.00  0.00    -0.097 F 
ATOM      8  F1  UNL d   1      -4.228  -0.910  -4.021  0.00  0.00    -0.096 F 
ATOM      9  I   UNL d   1      -1.563  -0.314  -2.353  0.00  0.00    -0.060 I 
ATOM     10  F2  UNL d   1      -1.710   2.873  -2.613  0.00  0.00    -0.096 F 
ATOM     11  F3  UNL d   1      -3.498   4.498  -3.837  0.00  0.00    -0.097 F 
ATOM     12  F4  UNL d   1      -5.645   3.445  -5.151  0.00  0.00    -0.092 F 
ENDROOT
TORSDOF 0
ENDMDL
