MODEL 1
REMARK minimizedAffinity 9.66060162
REMARK minimizedRMSD -1
REMARK  0 active torsions:
REMARK  status: ('A' for Active; 'I' for Inactive)
ROOT
ATOM      1  C   UNL d   1       3.631   4.406   5.957  0.00  0.00     0.124 A 
ATOM      2  C1  UNL d   1       2.347   3.880   5.975  0.00  0.00     0.062 A 
ATOM      3  C2  UNL d   1       2.155   2.501   5.981  0.00  0.00     0.162 A 
ATOM      4  C3  UNL d   1       3.251   1.638   5.970  0.00  0.00    -0.034 A 
ATOM      5  C4  UNL d   1       4.540   2.175   5.950  0.00  0.00     0.162 A 
ATOM      6  C5  UNL d   1       4.726   3.554   5.944  0.00  0.00     0.062 A 
ATOM      7  F   UNL d   1       5.967   4.060   5.926  0.00  0.00    -0.097 F 
ATOM      8  F1  UNL d   1       5.616   1.374   5.939  0.00  0.00    -0.096 F 
ATOM      9  I   UNL d   1       2.969  -0.424   5.979  0.00  0.00    -0.060 I 
ATOM     10  F2  UNL d   1       0.903   2.020   5.999  0.00  0.00    -0.096 F 
ATOM     11  F3  UNL d   1       1.287   4.701   5.986  0.00  0.00    -0.097 F 
ATOM     12  F4  UNL d   1       3.812   5.733   5.950  0.00  0.00    -0.092 F 
ENDROOT
TORSDOF 0
ENDMDL
