MODEL 1
REMARK minimizedAffinity 21.0509548
REMARK minimizedRMSD -1
REMARK  0 active torsions:
REMARK  status: ('A' for Active; 'I' for Inactive)
ROOT
ATOM      1  C   UNL d   1       3.726   4.662   5.734  0.00  0.00     0.124 A 
ATOM      2  C1  UNL d   1       2.390   4.300   5.833  0.00  0.00     0.062 A 
ATOM      3  C2  UNL d   1       2.031   2.957   5.905  0.00  0.00     0.162 A 
ATOM      4  C3  UNL d   1       3.011   1.965   5.879  0.00  0.00    -0.034 A 
ATOM      5  C4  UNL d   1       4.353   2.336   5.779  0.00  0.00     0.162 A 
ATOM      6  C5  UNL d   1       4.706   3.680   5.707  0.00  0.00     0.062 A 
ATOM      7  F   UNL d   1       5.998   4.027   5.612  0.00  0.00    -0.097 F 
ATOM      8  F1  UNL d   1       5.321   1.408   5.752  0.00  0.00    -0.096 F 
ATOM      9  I   UNL d   1       2.479  -0.044   5.987  0.00  0.00    -0.060 I 
ATOM     10  F2  UNL d   1       0.732   2.637   5.999  0.00  0.00    -0.096 F 
ATOM     11  F3  UNL d   1       1.441   5.247   5.858  0.00  0.00    -0.097 F 
ATOM     12  F4  UNL d   1       4.068   5.955   5.664  0.00  0.00    -0.092 F 
ENDROOT
TORSDOF 0
ENDMDL
