MODEL 1
REMARK minimizedAffinity 16.0177364
REMARK minimizedRMSD -1
REMARK  0 active torsions:
REMARK  status: ('A' for Active; 'I' for Inactive)
ROOT
ATOM      1  C   UNL d   1       4.453   3.180   4.524  0.00  0.00     0.124 A 
ATOM      2  C1  UNL d   1       3.564   2.125   4.369  0.00  0.00     0.062 A 
ATOM      3  C2  UNL d   1       3.358   1.562   3.113  0.00  0.00     0.162 A 
ATOM      4  C3  UNL d   1       4.043   2.052   2.001  0.00  0.00    -0.034 A 
ATOM      5  C4  UNL d   1       4.934   3.114   2.164  0.00  0.00     0.162 A 
ATOM      6  C5  UNL d   1       5.137   3.673   3.422  0.00  0.00     0.062 A 
ATOM      7  F   UNL d   1       5.995   4.693   3.570  0.00  0.00    -0.097 F 
ATOM      8  F1  UNL d   1       5.609   3.610   1.117  0.00  0.00    -0.096 F 
ATOM      9  I   UNL d   1       3.737   1.213   0.121  0.00  0.00    -0.060 I 
ATOM     10  F2  UNL d   1       2.494   0.543   2.993  0.00  0.00    -0.096 F 
ATOM     11  F3  UNL d   1       2.901   1.647   5.432  0.00  0.00    -0.097 F 
ATOM     12  F4  UNL d   1       4.648   3.720   5.734  0.00  0.00    -0.092 F 
ENDROOT
TORSDOF 0
ENDMDL
