MODEL 1
REMARK minimizedAffinity 20.1755371
REMARK minimizedRMSD -1
REMARK  0 active torsions:
REMARK  status: ('A' for Active; 'I' for Inactive)
ROOT
ATOM      1  C   UNL d   1      -0.199   0.770   0.391  0.00  0.00     0.124 A 
ATOM      2  C1  UNL d   1       0.733  -0.076  -0.193  0.00  0.00     0.062 A 
ATOM      3  C2  UNL d   1       1.703  -0.696   0.589  0.00  0.00     0.162 A 
ATOM      4  C3  UNL d   1       1.746  -0.472   1.965  0.00  0.00    -0.034 A 
ATOM      5  C4  UNL d   1       0.806   0.382   2.546  0.00  0.00     0.162 A 
ATOM      6  C5  UNL d   1      -0.162   0.998   1.759  0.00  0.00     0.062 A 
ATOM      7  F   UNL d   1      -1.062   1.816   2.325  0.00  0.00    -0.097 F 
ATOM      8  F1  UNL d   1       0.818   0.619   3.866  0.00  0.00    -0.096 F 
ATOM      9  I   UNL d   1       3.195  -1.396   3.139  0.00  0.00    -0.060 I 
ATOM     10  F2  UNL d   1       2.591  -1.509  -0.002  0.00  0.00    -0.096 F 
ATOM     11  F3  UNL d   1       0.700  -0.298  -1.515  0.00  0.00    -0.097 F 
ATOM     12  F4  UNL d   1      -1.131   1.366  -0.364  0.00  0.00    -0.092 F 
ENDROOT
TORSDOF 0
ENDMDL
