MODEL 1
REMARK minimizedAffinity 17.4235916
REMARK minimizedRMSD -1
REMARK  0 active torsions:
REMARK  status: ('A' for Active; 'I' for Inactive)
ROOT
ATOM      1  C   UNL d   1       0.388   0.171  -1.342  0.00  0.00     0.124 A 
ATOM      2  C1  UNL d   1       1.408  -0.544  -0.730  0.00  0.00     0.062 A 
ATOM      3  C2  UNL d   1       1.527  -0.547   0.657  0.00  0.00     0.162 A 
ATOM      4  C3  UNL d   1       0.623   0.168   1.442  0.00  0.00    -0.034 A 
ATOM      5  C4  UNL d   1      -0.400   0.885   0.819  0.00  0.00     0.162 A 
ATOM      6  C5  UNL d   1      -0.515   0.885  -0.567  0.00  0.00     0.062 A 
ATOM      7  F   UNL d   1      -1.501   1.576  -1.156  0.00  0.00    -0.097 F 
ATOM      8  F1  UNL d   1      -1.287   1.583   1.544  0.00  0.00    -0.096 F 
ATOM      9  I   UNL d   1       0.797   0.167   3.516  0.00  0.00    -0.060 I 
ATOM     10  F2  UNL d   1       2.523  -1.247   1.221  0.00  0.00    -0.096 F 
ATOM     11  F3  UNL d   1       2.283  -1.234  -1.476  0.00  0.00    -0.097 F 
ATOM     12  F4  UNL d   1       0.277   0.172  -2.676  0.00  0.00    -0.092 F 
ENDROOT
TORSDOF 0
ENDMDL
