MODEL 1
REMARK minimizedAffinity 12.1913614
REMARK minimizedRMSD -1
REMARK  0 active torsions:
REMARK  status: ('A' for Active; 'I' for Inactive)
ROOT
ATOM      1  C   UNL d   1       1.616  -0.395   1.247  0.00  0.00     0.124 A 
ATOM      2  C1  UNL d   1       0.557   0.230   1.892  0.00  0.00     0.062 A 
ATOM      3  C2  UNL d   1      -0.483   0.786   1.154  0.00  0.00     0.162 A 
ATOM      4  C3  UNL d   1      -0.471   0.719  -0.239  0.00  0.00    -0.034 A 
ATOM      5  C4  UNL d   1       0.597   0.090  -0.882  0.00  0.00     0.162 A 
ATOM      6  C5  UNL d   1       1.634  -0.464  -0.139  0.00  0.00     0.062 A 
ATOM      7  F   UNL d   1       2.656  -1.067  -0.765  0.00  0.00    -0.097 F 
ATOM      8  F1  UNL d   1       0.640   0.008  -2.220  0.00  0.00    -0.096 F 
ATOM      9  I   UNL d   1      -2.025   1.549  -1.347  0.00  0.00    -0.060 I 
ATOM     10  F2  UNL d   1      -1.493   1.383   1.804  0.00  0.00    -0.096 F 
ATOM     11  F3  UNL d   1       0.538   0.299   3.231  0.00  0.00    -0.097 F 
ATOM     12  F4  UNL d   1       2.616  -0.928   1.960  0.00  0.00    -0.092 F 
ENDROOT
TORSDOF 0
ENDMDL
