MODEL 1
REMARK minimizedAffinity 9.38842678
REMARK minimizedRMSD -1
REMARK  0 active torsions:
REMARK  status: ('A' for Active; 'I' for Inactive)
ROOT
ATOM      1  C   UNL d   1       1.593  -0.059   1.209  0.00  0.00     0.124 A 
ATOM      2  C1  UNL d   1       1.502  -0.298  -0.156  0.00  0.00     0.062 A 
ATOM      3  C2  UNL d   1       0.459   0.253  -0.895  0.00  0.00     0.162 A 
ATOM      4  C3  UNL d   1      -0.502   1.049  -0.271  0.00  0.00    -0.034 A 
ATOM      5  C4  UNL d   1      -0.404   1.284   1.102  0.00  0.00     0.162 A 
ATOM      6  C5  UNL d   1       0.640   0.731   1.836  0.00  0.00     0.062 A 
ATOM      7  F   UNL d   1       0.726   0.963   3.154  0.00  0.00    -0.097 F 
ATOM      8  F1  UNL d   1      -1.311   2.045   1.733  0.00  0.00    -0.096 F 
ATOM      9  I   UNL d   1      -2.063   1.874  -1.373  0.00  0.00    -0.060 I 
ATOM     10  F2  UNL d   1       0.396   0.005  -2.211  0.00  0.00    -0.096 F 
ATOM     11  F3  UNL d   1       2.421  -1.062  -0.764  0.00  0.00    -0.097 F 
ATOM     12  F4  UNL d   1       2.597  -0.591   1.918  0.00  0.00    -0.092 F 
ENDROOT
TORSDOF 0
ENDMDL
