MODEL 1
REMARK minimizedAffinity 10.9736271
REMARK minimizedRMSD -1
REMARK  0 active torsions:
REMARK  status: ('A' for Active; 'I' for Inactive)
ROOT
ATOM      1  C   UNL d   1      -4.462   1.772  -4.979  0.00  0.00     0.124 A 
ATOM      2  C1  UNL d   1      -3.898   2.916  -4.433  0.00  0.00     0.062 A 
ATOM      3  C2  UNL d   1      -3.003   2.818  -3.371  0.00  0.00     0.162 A 
ATOM      4  C3  UNL d   1      -2.666   1.569  -2.848  0.00  0.00    -0.034 A 
ATOM      5  C4  UNL d   1      -3.238   0.422  -3.402  0.00  0.00     0.162 A 
ATOM      6  C5  UNL d   1      -4.132   0.526  -4.463  0.00  0.00     0.062 A 
ATOM      7  F   UNL d   1      -4.676  -0.581  -4.990  0.00  0.00    -0.097 F 
ATOM      8  F1  UNL d   1      -2.936  -0.794  -2.924  0.00  0.00    -0.096 F 
ATOM      9  I   UNL d   1      -1.329   1.418  -1.261  0.00  0.00    -0.060 I 
ATOM     10  F2  UNL d   1      -2.474   3.940  -2.863  0.00  0.00    -0.096 F 
ATOM     11  F3  UNL d   1      -4.216   4.121  -4.928  0.00  0.00    -0.097 F 
ATOM     12  F4  UNL d   1      -5.323   1.869  -6.000  0.00  0.00    -0.092 F 
ENDROOT
TORSDOF 0
ENDMDL
