MODEL 1
REMARK minimizedAffinity 7.98410892
REMARK minimizedRMSD -1
REMARK  0 active torsions:
REMARK  status: ('A' for Active; 'I' for Inactive)
ROOT
ATOM      1  C   UNL d   1       0.045   1.364   0.195  0.00  0.00     0.124 A 
ATOM      2  C1  UNL d   1       0.990   0.626  -0.505  0.00  0.00     0.062 A 
ATOM      3  C2  UNL d   1       1.998  -0.047   0.178  0.00  0.00     0.162 A 
ATOM      4  C3  UNL d   1       2.067   0.013   1.570  0.00  0.00    -0.034 A 
ATOM      5  C4  UNL d   1       1.113   0.757   2.267  0.00  0.00     0.162 A 
ATOM      6  C5  UNL d   1       0.107   1.429   1.580  0.00  0.00     0.062 A 
ATOM      7  F   UNL d   1      -0.805   2.141   2.258  0.00  0.00    -0.097 F 
ATOM      8  F1  UNL d   1       1.150   0.836   3.606  0.00  0.00    -0.096 F 
ATOM      9  I   UNL d   1       3.573  -0.993   2.595  0.00  0.00    -0.060 I 
ATOM     10  F2  UNL d   1       2.898  -0.752  -0.524  0.00  0.00    -0.096 F 
ATOM     11  F3  UNL d   1       0.932   0.563  -1.843  0.00  0.00    -0.097 F 
ATOM     12  F4  UNL d   1      -0.924   2.012  -0.465  0.00  0.00    -0.092 F 
ENDROOT
TORSDOF 0
ENDMDL
