MODEL 1
REMARK minimizedAffinity 24.8865433
REMARK minimizedRMSD -1
REMARK  0 active torsions:
REMARK  status: ('A' for Active; 'I' for Inactive)
ROOT
ATOM      1  C   UNL d   1      -2.885   2.025  -3.243  0.00  0.00     0.124 A 
ATOM      2  C1  UNL d   1      -2.722   0.657  -3.079  0.00  0.00     0.062 A 
ATOM      3  C2  UNL d   1      -1.921   0.166  -2.052  0.00  0.00     0.162 A 
ATOM      4  C3  UNL d   1      -1.278   1.044  -1.180  0.00  0.00    -0.034 A 
ATOM      5  C4  UNL d   1      -1.446   2.419  -1.352  0.00  0.00     0.162 A 
ATOM      6  C5  UNL d   1      -2.247   2.905  -2.380  0.00  0.00     0.062 A 
ATOM      7  F   UNL d   1      -2.404   4.227  -2.538  0.00  0.00    -0.097 F 
ATOM      8  F1  UNL d   1      -0.842   3.291  -0.532  0.00  0.00    -0.096 F 
ATOM      9  I   UNL d   1      -0.079   0.314   0.357  0.00  0.00    -0.060 I 
ATOM     10  F2  UNL d   1      -1.781  -1.162  -1.917  0.00  0.00    -0.096 F 
ATOM     11  F3  UNL d   1      -3.336  -0.195  -3.912  0.00  0.00    -0.097 F 
ATOM     12  F4  UNL d   1      -3.655   2.495  -4.233  0.00  0.00    -0.092 F 
ENDROOT
TORSDOF 0
ENDMDL
