MODEL 1
REMARK minimizedAffinity 9.65299702
REMARK minimizedRMSD -1
REMARK  0 active torsions:
REMARK  status: ('A' for Active; 'I' for Inactive)
ROOT
ATOM      1  C   UNL d   1      -0.036   1.729   1.040  0.00  0.00     0.124 A 
ATOM      2  C1  UNL d   1      -0.231   1.358  -0.283  0.00  0.00     0.062 A 
ATOM      3  C2  UNL d   1       0.400   0.226  -0.792  0.00  0.00     0.162 A 
ATOM      4  C3  UNL d   1       1.232  -0.542   0.022  0.00  0.00    -0.034 A 
ATOM      5  C4  UNL d   1       1.424  -0.162   1.351  0.00  0.00     0.162 A 
ATOM      6  C5  UNL d   1       0.791   0.970   1.856  0.00  0.00     0.062 A 
ATOM      7  F   UNL d   1       0.981   1.327   3.134  0.00  0.00    -0.097 F 
ATOM      8  F1  UNL d   1       2.217  -0.878   2.161  0.00  0.00    -0.096 F 
ATOM      9  I   UNL d   1       2.177  -2.235  -0.737  0.00  0.00    -0.060 I 
ATOM     10  F2  UNL d   1       0.193  -0.109  -2.074  0.00  0.00    -0.096 F 
ATOM     11  F3  UNL d   1      -1.029   2.090  -1.073  0.00  0.00    -0.097 F 
ATOM     12  F4  UNL d   1      -0.643   2.819   1.528  0.00  0.00    -0.092 F 
ENDROOT
TORSDOF 0
ENDMDL
