MODEL 1
REMARK minimizedAffinity 7.64133787
REMARK minimizedRMSD -1
REMARK  0 active torsions:
REMARK  status: ('A' for Active; 'I' for Inactive)
ROOT
ATOM      1  C   UNL d   1      -0.040   1.003  -0.469  0.00  0.00     0.124 A 
ATOM      2  C1  UNL d   1       0.511   1.801   0.525  0.00  0.00     0.062 A 
ATOM      3  C2  UNL d   1       0.898   1.240   1.738  0.00  0.00     0.162 A 
ATOM      4  C3  UNL d   1       0.736  -0.127   1.965  0.00  0.00    -0.034 A 
ATOM      5  C4  UNL d   1       0.181  -0.922   0.962  0.00  0.00     0.162 A 
ATOM      6  C5  UNL d   1      -0.205  -0.357  -0.249  0.00  0.00     0.062 A 
ATOM      7  F   UNL d   1      -0.737  -1.129  -1.208  0.00  0.00    -0.097 F 
ATOM      8  F1  UNL d   1       0.012  -2.240   1.146  0.00  0.00    -0.096 F 
ATOM      9  I   UNL d   1       1.314  -0.970   3.778  0.00  0.00    -0.060 I 
ATOM     10  F2  UNL d   1       1.427   2.034   2.681  0.00  0.00    -0.096 F 
ATOM     11  F3  UNL d   1       0.669   3.116   0.316  0.00  0.00    -0.097 F 
ATOM     12  F4  UNL d   1      -0.413   1.546  -1.635  0.00  0.00    -0.092 F 
ENDROOT
TORSDOF 0
ENDMDL
