MODEL 1
REMARK minimizedAffinity 12.4928656
REMARK minimizedRMSD -1
REMARK  0 active torsions:
REMARK  status: ('A' for Active; 'I' for Inactive)
ROOT
ATOM      1  C   UNL d   1       0.985   0.276   1.522  0.00  0.00     0.124 A 
ATOM      2  C1  UNL d   1      -0.317   0.324   1.043  0.00  0.00     0.062 A 
ATOM      3  C2  UNL d   1      -0.810  -0.710   0.252  0.00  0.00     0.162 A 
ATOM      4  C3  UNL d   1      -0.001  -1.801  -0.065  0.00  0.00    -0.034 A 
ATOM      5  C4  UNL d   1       1.307  -1.842   0.420  0.00  0.00     0.162 A 
ATOM      6  C5  UNL d   1       1.796  -0.806   1.210  0.00  0.00     0.062 A 
ATOM      7  F   UNL d   1       3.054  -0.854   1.671  0.00  0.00    -0.097 F 
ATOM      8  F1  UNL d   1       2.112  -2.876   0.134  0.00  0.00    -0.096 F 
ATOM      9  I   UNL d   1      -0.735  -3.349  -1.247  0.00  0.00    -0.060 I 
ATOM     10  F2  UNL d   1      -2.072  -0.637  -0.197  0.00  0.00    -0.096 F 
ATOM     11  F3  UNL d   1      -1.102   1.369   1.342  0.00  0.00    -0.097 F 
ATOM     12  F4  UNL d   1       1.458   1.272   2.282  0.00  0.00    -0.092 F 
ENDROOT
TORSDOF 0
ENDMDL
