MODEL 1
REMARK minimizedAffinity 6.76785135
REMARK minimizedRMSD -1
REMARK  0 active torsions:
REMARK  status: ('A' for Active; 'I' for Inactive)
ROOT
ATOM      1  C   UNL d   1      -1.159  -2.315   4.678  0.00  0.00     0.124 A 
ATOM      2  C1  UNL d   1      -1.770  -1.855   3.520  0.00  0.00     0.062 A 
ATOM      3  C2  UNL d   1      -1.030  -1.166   2.564  0.00  0.00     0.162 A 
ATOM      4  C3  UNL d   1       0.332  -0.934   2.761  0.00  0.00    -0.034 A 
ATOM      5  C4  UNL d   1       0.939  -1.399   3.929  0.00  0.00     0.162 A 
ATOM      6  C5  UNL d   1       0.195  -2.087   4.881  0.00  0.00     0.062 A 
ATOM      7  F   UNL d   1       0.788  -2.530   6.000  0.00  0.00    -0.097 F 
ATOM      8  F1  UNL d   1       2.246  -1.193   4.150  0.00  0.00    -0.096 F 
ATOM      9  I   UNL d   1       1.442   0.095   1.333  0.00  0.00    -0.060 I 
ATOM     10  F2  UNL d   1      -1.647  -0.733   1.455  0.00  0.00    -0.096 F 
ATOM     11  F3  UNL d   1      -3.078  -2.073   3.322  0.00  0.00    -0.097 F 
ATOM     12  F4  UNL d   1      -1.874  -2.976   5.597  0.00  0.00    -0.092 F 
ENDROOT
TORSDOF 0
ENDMDL
