MODEL 1
REMARK minimizedAffinity 14.0360975
REMARK minimizedRMSD -1
REMARK  0 active torsions:
REMARK  status: ('A' for Active; 'I' for Inactive)
ROOT
ATOM      1  C   UNL d   1       2.860  -0.737   4.101  0.00  0.00     0.124 A 
ATOM      2  C1  UNL d   1       1.967  -1.652   4.642  0.00  0.00     0.062 A 
ATOM      3  C2  UNL d   1       0.733  -1.867   4.036  0.00  0.00     0.162 A 
ATOM      4  C3  UNL d   1       0.384  -1.166   2.882  0.00  0.00    -0.034 A 
ATOM      5  C4  UNL d   1       1.286  -0.247   2.344  0.00  0.00     0.162 A 
ATOM      6  C5  UNL d   1       2.519  -0.035   2.954  0.00  0.00     0.062 A 
ATOM      7  F   UNL d   1       3.380   0.849   2.430  0.00  0.00    -0.097 F 
ATOM      8  F1  UNL d   1       0.983   0.444   1.236  0.00  0.00    -0.096 F 
ATOM      9  I   UNL d   1      -1.461  -1.485   1.973  0.00  0.00    -0.060 I 
ATOM     10  F2  UNL d   1      -0.110  -2.757   4.580  0.00  0.00    -0.096 F 
ATOM     11  F3  UNL d   1       2.294  -2.330   5.751  0.00  0.00    -0.097 F 
ATOM     12  F4  UNL d   1       4.047  -0.531   4.687  0.00  0.00    -0.092 F 
ENDROOT
TORSDOF 0
ENDMDL
