MODEL 1
REMARK minimizedAffinity 5.75325489
REMARK minimizedRMSD -1
REMARK  0 active torsions:
REMARK  status: ('A' for Active; 'I' for Inactive)
ROOT
ATOM      1  C   UNL d   1      -1.407  -0.826   2.129  0.00  0.00     0.124 A 
ATOM      2  C1  UNL d   1      -1.852  -1.504   3.255  0.00  0.00     0.062 A 
ATOM      3  C2  UNL d   1      -0.949  -1.898   4.238  0.00  0.00     0.162 A 
ATOM      4  C3  UNL d   1       0.410  -1.613   4.100  0.00  0.00    -0.034 A 
ATOM      5  C4  UNL d   1       0.850  -0.932   2.964  0.00  0.00     0.162 A 
ATOM      6  C5  UNL d   1      -0.057  -0.540   1.985  0.00  0.00     0.062 A 
ATOM      7  F   UNL d   1       0.375   0.115   0.897  0.00  0.00    -0.097 F 
ATOM      8  F1  UNL d   1       2.150  -0.642   2.799  0.00  0.00    -0.096 F 
ATOM      9  I   UNL d   1       1.764  -2.200   5.567  0.00  0.00    -0.060 I 
ATOM     10  F2  UNL d   1      -1.407  -2.552   5.316  0.00  0.00    -0.096 F 
ATOM     11  F3  UNL d   1      -3.156  -1.782   3.397  0.00  0.00    -0.097 F 
ATOM     12  F4  UNL d   1      -2.278  -0.449   1.185  0.00  0.00    -0.092 F 
ENDROOT
TORSDOF 0
ENDMDL
