MODEL 1
REMARK minimizedAffinity 10.6665373
REMARK minimizedRMSD -1
REMARK  0 active torsions:
REMARK  status: ('A' for Active; 'I' for Inactive)
ROOT
ATOM      1  C   UNL d   1       3.497  -1.629   4.979  0.00  0.00     0.124 A 
ATOM      2  C1  UNL d   1       3.419  -0.507   4.166  0.00  0.00     0.062 A 
ATOM      3  C2  UNL d   1       2.289  -0.287   3.383  0.00  0.00     0.162 A 
ATOM      4  C3  UNL d   1       1.227  -1.191   3.410  0.00  0.00    -0.034 A 
ATOM      5  C4  UNL d   1       1.313  -2.318   4.230  0.00  0.00     0.162 A 
ATOM      6  C5  UNL d   1       2.444  -2.533   5.010  0.00  0.00     0.062 A 
ATOM      7  F   UNL d   1       2.518  -3.618   5.795  0.00  0.00    -0.097 F 
ATOM      8  F1  UNL d   1       0.310  -3.207   4.280  0.00  0.00    -0.096 F 
ATOM      9  I   UNL d   1      -0.464  -0.866   2.241  0.00  0.00    -0.060 I 
ATOM     10  F2  UNL d   1       2.241   0.806   2.606  0.00  0.00    -0.096 F 
ATOM     11  F3  UNL d   1       4.435   0.367   4.133  0.00  0.00    -0.097 F 
ATOM     12  F4  UNL d   1       4.585  -1.839   5.730  0.00  0.00    -0.092 F 
ENDROOT
TORSDOF 0
ENDMDL
