MODEL 1
REMARK minimizedAffinity 6.98658419
REMARK minimizedRMSD -1
REMARK  0 active torsions:
REMARK  status: ('A' for Active; 'I' for Inactive)
ROOT
ATOM      1  C   UNL d   1       3.400  -0.822   4.532  0.00  0.00     0.124 A 
ATOM      2  C1  UNL d   1       4.240   0.222   4.892  0.00  0.00     0.062 A 
ATOM      3  C2  UNL d   1       4.309   1.369   4.106  0.00  0.00     0.162 A 
ATOM      4  C3  UNL d   1       3.533   1.478   2.952  0.00  0.00    -0.034 A 
ATOM      5  C4  UNL d   1       2.691   0.423   2.596  0.00  0.00     0.162 A 
ATOM      6  C5  UNL d   1       2.626  -0.720   3.385  0.00  0.00     0.062 A 
ATOM      7  F   UNL d   1       1.813  -1.728   3.036  0.00  0.00    -0.097 F 
ATOM      8  F1  UNL d   1       1.931   0.495   1.492  0.00  0.00    -0.096 F 
ATOM      9  I   UNL d   1       3.633   3.190   1.773  0.00  0.00    -0.060 I 
ATOM     10  F2  UNL d   1       5.130   2.362   4.478  0.00  0.00    -0.096 F 
ATOM     11  F3  UNL d   1       4.990   0.127   6.000  0.00  0.00    -0.097 F 
ATOM     12  F4  UNL d   1       3.336  -1.924   5.290  0.00  0.00    -0.092 F 
ENDROOT
TORSDOF 0
ENDMDL
