MODEL 1
REMARK minimizedAffinity 15.8111
REMARK minimizedRMSD -1
REMARK  0 active torsions:
REMARK  status: ('A' for Active; 'I' for Inactive)
ROOT
ATOM      1  C   UNL d   1      -2.921   0.162  -0.918  0.00  0.00     0.124 A 
ATOM      2  C1  UNL d   1      -2.559  -1.161  -0.706  0.00  0.00     0.062 A 
ATOM      3  C2  UNL d   1      -1.657  -1.486   0.304  0.00  0.00     0.162 A 
ATOM      4  C3  UNL d   1      -1.113  -0.486   1.110  0.00  0.00    -0.034 A 
ATOM      5  C4  UNL d   1      -1.482   0.842   0.889  0.00  0.00     0.162 A 
ATOM      6  C5  UNL d   1      -2.383   1.162  -0.121  0.00  0.00     0.062 A 
ATOM      7  F   UNL d   1      -2.732   2.440  -0.325  0.00  0.00    -0.097 F 
ATOM      8  F1  UNL d   1      -0.977   1.828   1.646  0.00  0.00    -0.096 F 
ATOM      9  I   UNL d   1       0.235  -0.968   2.620  0.00  0.00    -0.060 I 
ATOM     10  F2  UNL d   1      -1.325  -2.773   0.487  0.00  0.00    -0.096 F 
ATOM     11  F3  UNL d   1      -3.077  -2.129  -1.475  0.00  0.00    -0.097 F 
ATOM     12  F4  UNL d   1      -3.788   0.472  -1.891  0.00  0.00    -0.092 F 
ENDROOT
TORSDOF 0
ENDMDL
