MODEL 1
REMARK minimizedAffinity -2.99232483
REMARK minimizedRMSD -1
REMARK  1 active torsions:
REMARK  status: ('A' for Active; 'I' for Inactive)
REMARK    1  A    between atoms: C1_2  and  C2_3 
ROOT
ATOM      1  C2  UNL d   1       1.640   0.626  -1.084  0.00  0.00    -0.081 A 
ATOM      2  C3  UNL d   1       0.765   1.601  -0.588  0.00  0.00     0.006 A 
ATOM      3  C4  UNL d   1      -0.456   1.233  -0.018  0.00  0.00     0.002 A 
ATOM      4  C5  UNL d   1      -0.819  -0.115   0.073  0.00  0.00    -0.080 A 
ATOM      5  C6  UNL d   1      -2.114  -0.525   0.710  0.00  0.00     0.076 C 
ATOM      6  C7  UNL d   1       0.046  -1.088  -0.438  0.00  0.00     0.002 A 
ATOM      7  C8  UNL d   1       1.267  -0.721  -1.009  0.00  0.00     0.006 A 
ENDROOT
BRANCH   1   8
ATOM      8  C1  UNL d   1       2.985   1.015  -1.640  0.00  0.00     0.054 C 
ATOM      9  C   UNL d   1       3.434   2.369  -1.108  0.00  0.00     0.018 C 
ENDBRANCH   1   8
TORSDOF 1
ENDMDL
