MODEL 1
REMARK minimizedAffinity 6.35608292
REMARK minimizedRMSD -1
REMARK  1 active torsions:
REMARK  status: ('A' for Active; 'I' for Inactive)
REMARK    1  A    between atoms: C1_2  and  C2_3 
ROOT
ATOM      1  C2  UNL d   1       1.066  -1.809   0.311  0.00  0.00    -0.081 A 
ATOM      2  C3  UNL d   1       0.430  -1.965   1.549  0.00  0.00     0.006 A 
ATOM      3  C4  UNL d   1      -0.789  -1.332   1.803  0.00  0.00     0.002 A 
ATOM      4  C5  UNL d   1      -1.397  -0.540   0.822  0.00  0.00    -0.080 A 
ATOM      5  C6  UNL d   1      -2.720   0.120   1.071  0.00  0.00     0.076 C 
ATOM      6  C7  UNL d   1      -0.753  -0.371  -0.408  0.00  0.00     0.002 A 
ATOM      7  C8  UNL d   1       0.466  -1.003  -0.663  0.00  0.00     0.006 A 
ENDROOT
BRANCH   1   8
ATOM      8  C1  UNL d   1       2.348  -2.542   0.011  0.00  0.00     0.054 C 
ATOM      9  C   UNL d   1       2.366  -3.916   0.665  0.00  0.00     0.018 C 
ENDBRANCH   1   8
TORSDOF 1
ENDMDL
