MODEL 1
REMARK minimizedAffinity 2.48775125
REMARK minimizedRMSD -1
REMARK  1 active torsions:
REMARK  status: ('A' for Active; 'I' for Inactive)
REMARK    1  A    between atoms: C1_2  and  C2_3 
ROOT
ATOM      1  C2  UNL d   1       2.380  -4.896   1.126  0.00  0.00    -0.081 A 
ATOM      2  C3  UNL d   1       1.603  -5.890   1.732  0.00  0.00     0.006 A 
ATOM      3  C4  UNL d   1       0.419  -5.558   2.395  0.00  0.00     0.002 A 
ATOM      4  C5  UNL d   1      -0.011  -4.229   2.456  0.00  0.00    -0.080 A 
ATOM      5  C6  UNL d   1      -1.296  -3.863   3.138  0.00  0.00     0.076 C 
ATOM      6  C7  UNL d   1       0.774  -3.233   1.865  0.00  0.00     0.002 A 
ATOM      7  C8  UNL d   1       1.958  -3.564   1.203  0.00  0.00     0.006 A 
ENDROOT
BRANCH   1   8
ATOM      8  C1  UNL d   1       3.624  -5.258   0.355  0.00  0.00     0.054 C 
ATOM      9  C   UNL d   1       4.337  -4.016  -0.160  0.00  0.00     0.018 C 
ENDBRANCH   1   8
TORSDOF 1
ENDMDL
