MODEL 1
REMARK minimizedAffinity 3.38777351
REMARK minimizedRMSD -1
REMARK  1 active torsions:
REMARK  status: ('A' for Active; 'I' for Inactive)
REMARK    1  A    between atoms: C1_2  and  C2_3 
ROOT
ATOM      1  C2  UNL d   1       1.079  -1.726   0.569  0.00  0.00    -0.081 A 
ATOM      2  C3  UNL d   1       0.538  -1.829   1.856  0.00  0.00     0.006 A 
ATOM      3  C4  UNL d   1      -0.682  -1.220   2.162  0.00  0.00     0.002 A 
ATOM      4  C5  UNL d   1      -1.384  -0.506   1.185  0.00  0.00    -0.080 A 
ATOM      5  C6  UNL d   1      -2.709   0.126   1.492  0.00  0.00     0.076 C 
ATOM      6  C7  UNL d   1      -0.835  -0.389  -0.097  0.00  0.00     0.002 A 
ATOM      7  C8  UNL d   1       0.385  -0.997  -0.403  0.00  0.00     0.006 A 
ENDROOT
BRANCH   1   8
ATOM      8  C1  UNL d   1       2.362  -2.436   0.218  0.00  0.00     0.054 C 
ATOM      9  C   UNL d   1       2.431  -3.809   0.871  0.00  0.00     0.018 C 
ENDBRANCH   1   8
TORSDOF 1
ENDMDL
