MODEL 1
REMARK minimizedAffinity 4.30198908
REMARK minimizedRMSD -1
REMARK  1 active torsions:
REMARK  status: ('A' for Active; 'I' for Inactive)
REMARK    1  A    between atoms: C1_2  and  C2_3 
ROOT
ATOM      1  C2  UNL d   1       3.158  -4.704   0.620  0.00  0.00    -0.081 A 
ATOM      2  C3  UNL d   1       3.843  -3.940  -0.333  0.00  0.00     0.006 A 
ATOM      3  C4  UNL d   1       3.333  -2.710  -0.755  0.00  0.00     0.002 A 
ATOM      4  C5  UNL d   1       2.134  -2.220  -0.226  0.00  0.00    -0.080 A 
ATOM      5  C6  UNL d   1       1.590  -0.887  -0.649  0.00  0.00     0.076 C 
ATOM      6  C7  UNL d   1       1.440  -2.991   0.712  0.00  0.00     0.002 A 
ATOM      7  C8  UNL d   1       1.949  -4.221   1.134  0.00  0.00     0.006 A 
ENDROOT
BRANCH   1   8
ATOM      8  C1  UNL d   1       3.738  -6.000   1.125  0.00  0.00     0.054 C 
ATOM      9  C   UNL d   1       5.257  -6.000   1.031  0.00  0.00     0.018 C 
ENDBRANCH   1   8
TORSDOF 1
ENDMDL
