MODEL 1
REMARK minimizedAffinity 0.134243548
REMARK minimizedRMSD -1
REMARK  1 active torsions:
REMARK  status: ('A' for Active; 'I' for Inactive)
REMARK    1  A    between atoms: C1_2  and  C2_3 
ROOT
ATOM      1  C2  UNL d   1       1.324  -2.499   1.392  0.00  0.00    -0.081 A 
ATOM      2  C3  UNL d   1       0.570  -2.339   2.561  0.00  0.00     0.006 A 
ATOM      3  C4  UNL d   1      -0.314  -1.265   2.692  0.00  0.00     0.002 A 
ATOM      4  C5  UNL d   1      -0.463  -0.338   1.654  0.00  0.00    -0.080 A 
ATOM      5  C6  UNL d   1      -1.431   0.802   1.770  0.00  0.00     0.076 C 
ATOM      6  C7  UNL d   1       0.303  -0.489   0.494  0.00  0.00     0.002 A 
ATOM      7  C8  UNL d   1       1.187  -1.562   0.363  0.00  0.00     0.006 A 
ENDROOT
BRANCH   1   8
ATOM      8  C1  UNL d   1       2.230  -3.692   1.222  0.00  0.00     0.054 C 
ATOM      9  C   UNL d   1       3.242  -3.464   0.109  0.00  0.00     0.018 C 
ENDBRANCH   1   8
TORSDOF 1
ENDMDL
