MODEL 1
REMARK minimizedAffinity 6.77345419
REMARK minimizedRMSD -1
REMARK  0 active torsions:
REMARK  status: ('A' for Active; 'I' for Inactive)
ROOT
ATOM      1  C   UNL d   1      -0.299   0.263   1.017  0.00  0.00     0.023 A 
ATOM      2  C1  UNL d   1      -1.101   0.131   2.151  0.00  0.00     0.003 A 
ATOM      3  C2  UNL d   1      -0.581  -0.439   3.314  0.00  0.00     0.048 A 
ATOM      4  C3  UNL d   1       0.744  -0.874   3.338  0.00  0.00     0.023 A 
ATOM      5  C4  UNL d   1       1.551  -0.743   2.207  0.00  0.00     0.048 A 
ATOM      6  C5  UNL d   1       1.026  -0.173   1.045  0.00  0.00     0.003 A 
ATOM      7  I   UNL d   1       1.521  -1.723   5.068  0.00  0.00    -0.146 I 
ENDROOT
TORSDOF 0
ENDMDL
