MODEL 1
REMARK minimizedAffinity 8.08136082
REMARK minimizedRMSD -1
REMARK  0 active torsions:
REMARK  status: ('A' for Active; 'I' for Inactive)
ROOT
ATOM      1  C   UNL d   1      -2.223   1.137   0.300  0.00  0.00     0.023 A 
ATOM      2  C1  UNL d   1      -1.239   1.858   0.978  0.00  0.00     0.003 A 
ATOM      3  C2  UNL d   1      -0.306   1.191   1.773  0.00  0.00     0.048 A 
ATOM      4  C3  UNL d   1      -0.361  -0.198   1.886  0.00  0.00     0.023 A 
ATOM      5  C4  UNL d   1      -1.343  -0.924   1.210  0.00  0.00     0.048 A 
ATOM      6  C5  UNL d   1      -2.275  -0.252   0.416  0.00  0.00     0.003 A 
ATOM      7  I   UNL d   1       1.027  -1.194   3.070  0.00  0.00    -0.146 I 
ENDROOT
TORSDOF 0
ENDMDL
