MODEL 1
REMARK minimizedAffinity 1.69124353
REMARK minimizedRMSD -1
REMARK  0 active torsions:
REMARK  status: ('A' for Active; 'I' for Inactive)
ROOT
ATOM      1  C   UNL d   1       3.224  -2.463   5.605  0.00  0.00     0.023 A 
ATOM      2  C1  UNL d   1       2.061  -3.194   5.364  0.00  0.00     0.003 A 
ATOM      3  C2  UNL d   1       1.078  -2.685   4.513  0.00  0.00     0.048 A 
ATOM      4  C3  UNL d   1       1.265  -1.444   3.906  0.00  0.00     0.023 A 
ATOM      5  C4  UNL d   1       2.427  -0.709   4.143  0.00  0.00     0.048 A 
ATOM      6  C5  UNL d   1       3.407  -1.222   4.996  0.00  0.00     0.003 A 
ATOM      7  I   UNL d   1      -0.197  -0.683   2.638  0.00  0.00    -0.146 I 
ENDROOT
TORSDOF 0
ENDMDL
