MODEL 1
REMARK minimizedAffinity 3.24775553
REMARK minimizedRMSD -1
REMARK  0 active torsions:
REMARK  status: ('A' for Active; 'I' for Inactive)
ROOT
ATOM      1  C   UNL d   1       1.458  -0.997   2.988  0.00  0.00     0.023 A 
ATOM      2  C1  UNL d   1       1.810  -0.604   1.697  0.00  0.00     0.003 A 
ATOM      3  C2  UNL d   1       0.827  -0.172   0.804  0.00  0.00     0.048 A 
ATOM      4  C3  UNL d   1      -0.507  -0.136   1.210  0.00  0.00     0.023 A 
ATOM      5  C4  UNL d   1      -0.864  -0.527   2.501  0.00  0.00     0.048 A 
ATOM      6  C5  UNL d   1       0.123  -0.959   3.390  0.00  0.00     0.003 A 
ATOM      7  I   UNL d   1      -1.973   0.506  -0.116  0.00  0.00    -0.146 I 
ENDROOT
TORSDOF 0
ENDMDL
