MODEL 1
REMARK minimizedAffinity 0.929972351
REMARK minimizedRMSD -1
REMARK  0 active torsions:
REMARK  status: ('A' for Active; 'I' for Inactive)
ROOT
ATOM      1  C   UNL d   1      -1.418   0.762   1.048  0.00  0.00     0.023 A 
ATOM      2  C1  UNL d   1      -0.107   1.217   1.192  0.00  0.00     0.003 A 
ATOM      3  C2  UNL d   1       0.759   0.585   2.087  0.00  0.00     0.048 A 
ATOM      4  C3  UNL d   1       0.307  -0.501   2.836  0.00  0.00     0.023 A 
ATOM      5  C4  UNL d   1      -1.003  -0.960   2.695  0.00  0.00     0.048 A 
ATOM      6  C5  UNL d   1      -1.865  -0.325   1.799  0.00  0.00     0.003 A 
ATOM      7  I   UNL d   1       1.594  -1.443   4.169  0.00  0.00    -0.146 I 
ENDROOT
TORSDOF 0
ENDMDL
