MODEL 1
REMARK minimizedAffinity 2.50721049
REMARK minimizedRMSD -1
REMARK  0 active torsions:
REMARK  status: ('A' for Active; 'I' for Inactive)
ROOT
ATOM      1  C   UNL d   1      -4.490   0.331  -3.815  0.00  0.00     0.023 A 
ATOM      2  C1  UNL d   1      -3.426   0.399  -2.914  0.00  0.00     0.003 A 
ATOM      3  C2  UNL d   1      -2.111   0.392  -3.383  0.00  0.00     0.048 A 
ATOM      4  C3  UNL d   1      -1.866   0.317  -4.754  0.00  0.00     0.023 A 
ATOM      5  C4  UNL d   1      -2.927   0.250  -5.659  0.00  0.00     0.048 A 
ATOM      6  C5  UNL d   1      -4.240   0.257  -5.185  0.00  0.00     0.003 A 
ATOM      7  I   UNL d   1       0.091   0.306  -5.454  0.00  0.00    -0.146 I 
ENDROOT
TORSDOF 0
ENDMDL
