MODEL 1
REMARK minimizedAffinity 9.9010849
REMARK minimizedRMSD -1
REMARK  0 active torsions:
REMARK  status: ('A' for Active; 'I' for Inactive)
ROOT
ATOM      1  C   UNL d   1      -1.359   0.519   1.057  0.00  0.00     0.023 A 
ATOM      2  C1  UNL d   1      -0.251   1.199   1.561  0.00  0.00     0.003 A 
ATOM      3  C2  UNL d   1       0.576   0.587   2.505  0.00  0.00     0.048 A 
ATOM      4  C3  UNL d   1       0.289  -0.707   2.940  0.00  0.00     0.023 A 
ATOM      5  C4  UNL d   1      -0.818  -1.392   2.438  0.00  0.00     0.048 A 
ATOM      6  C5  UNL d   1      -1.643  -0.775   1.495  0.00  0.00     0.003 A 
ATOM      7  I   UNL d   1       1.519  -1.621   4.344  0.00  0.00    -0.146 I 
ENDROOT
TORSDOF 0
ENDMDL
