MODEL 1
REMARK minimizedAffinity -3.67818975
REMARK minimizedRMSD -1
REMARK  0 active torsions:
REMARK  status: ('A' for Active; 'I' for Inactive)
ROOT
ATOM      1  C   UNL d   1      -1.169  -3.050   0.490  0.00  0.00     0.078 C 
ATOM      2  C1  UNL d   1      -0.788  -1.648   0.120  0.00  0.00    -0.077 A 
ATOM      3  C2  UNL d   1      -1.244  -0.556   0.868  0.00  0.00    -0.001 A 
ATOM      4  C3  UNL d   1      -0.889   0.745   0.506  0.00  0.00     0.003 A 
ATOM      5  C4  UNL d   1      -0.079   0.965  -0.606  0.00  0.00    -0.005 A 
ATOM      6  C5  UNL d   1       0.377  -0.116  -1.358  0.00  0.00     0.003 A 
ATOM      7  C6  UNL d   1       0.024  -1.417  -0.997  0.00  0.00    -0.001 A 
ENDROOT
TORSDOF 0
ENDMDL
