MODEL 1
REMARK minimizedAffinity -5.48786259
REMARK minimizedRMSD -1
REMARK  0 active torsions:
REMARK  status: ('A' for Active; 'I' for Inactive)
ROOT
ATOM      1  C   UNL d   1       0.734  -2.950   0.584  0.00  0.00     0.078 C 
ATOM      2  C1  UNL d   1       0.311  -1.641  -0.015  0.00  0.00    -0.077 A 
ATOM      3  C2  UNL d   1      -0.466  -0.732   0.713  0.00  0.00    -0.001 A 
ATOM      4  C3  UNL d   1      -0.860   0.478   0.140  0.00  0.00     0.003 A 
ATOM      5  C4  UNL d   1      -0.482   0.790  -1.164  0.00  0.00    -0.005 A 
ATOM      6  C5  UNL d   1       0.289  -0.109  -1.898  0.00  0.00     0.003 A 
ATOM      7  C6  UNL d   1       0.684  -1.320  -1.326  0.00  0.00    -0.001 A 
ENDROOT
TORSDOF 0
ENDMDL
