MODEL 1
REMARK minimizedAffinity -5.33985662
REMARK minimizedRMSD -1
REMARK  0 active torsions:
REMARK  status: ('A' for Active; 'I' for Inactive)
ROOT
ATOM      1  C   UNL d   1       0.515   1.201  -0.421  0.00  0.00     0.078 C 
ATOM      2  C1  UNL d   1       0.154  -0.219  -0.102  0.00  0.00    -0.077 A 
ATOM      3  C2  UNL d   1      -0.610  -0.533   1.028  0.00  0.00    -0.001 A 
ATOM      4  C3  UNL d   1      -0.931  -1.860   1.318  0.00  0.00     0.003 A 
ATOM      5  C4  UNL d   1      -0.491  -2.884   0.482  0.00  0.00    -0.005 A 
ATOM      6  C5  UNL d   1       0.272  -2.582  -0.644  0.00  0.00     0.003 A 
ATOM      7  C6  UNL d   1       0.593  -1.256  -0.936  0.00  0.00    -0.001 A 
ENDROOT
TORSDOF 0
ENDMDL
