MODEL 1
REMARK minimizedAffinity -5.35073233
REMARK minimizedRMSD -1
REMARK  0 active torsions:
REMARK  status: ('A' for Active; 'I' for Inactive)
ROOT
ATOM      1  C   UNL d   1       0.116  -3.229   0.347  0.00  0.00     0.078 C 
ATOM      2  C1  UNL d   1      -0.331  -1.821   0.090  0.00  0.00    -0.077 A 
ATOM      3  C2  UNL d   1      -1.084  -1.118   1.039  0.00  0.00    -0.001 A 
ATOM      4  C3  UNL d   1      -1.502   0.188   0.782  0.00  0.00     0.003 A 
ATOM      5  C4  UNL d   1      -1.172   0.804  -0.424  0.00  0.00    -0.005 A 
ATOM      6  C5  UNL d   1      -0.425   0.112  -1.375  0.00  0.00     0.003 A 
ATOM      7  C6  UNL d   1      -0.006  -1.195  -1.120  0.00  0.00    -0.001 A 
ENDROOT
TORSDOF 0
ENDMDL
