MODEL 1
REMARK minimizedAffinity -4.50773191
REMARK minimizedRMSD -1
REMARK  0 active torsions:
REMARK  status: ('A' for Active; 'I' for Inactive)
ROOT
ATOM      1  C   UNL d   1      -0.225  -3.314   0.088  0.00  0.00     0.078 C 
ATOM      2  C1  UNL d   1      -0.279  -1.819  -0.018  0.00  0.00    -0.077 A 
ATOM      3  C2  UNL d   1      -0.042  -1.173  -1.237  0.00  0.00    -0.001 A 
ATOM      4  C3  UNL d   1      -0.086   0.220  -1.318  0.00  0.00     0.003 A 
ATOM      5  C4  UNL d   1      -0.366   0.979  -0.184  0.00  0.00    -0.005 A 
ATOM      6  C5  UNL d   1      -0.601   0.345   1.035  0.00  0.00     0.003 A 
ATOM      7  C6  UNL d   1      -0.558  -1.048   1.118  0.00  0.00    -0.001 A 
ENDROOT
TORSDOF 0
ENDMDL
