MODEL 1
REMARK minimizedAffinity -5.51819277
REMARK minimizedRMSD -1
REMARK  0 active torsions:
REMARK  status: ('A' for Active; 'I' for Inactive)
ROOT
ATOM      1  C   UNL d   1       0.086   1.408  -0.253  0.00  0.00     0.078 C 
ATOM      2  C1  UNL d   1      -0.014  -0.075  -0.050  0.00  0.00    -0.077 A 
ATOM      3  C2  UNL d   1      -0.903  -0.616   0.887  0.00  0.00    -0.001 A 
ATOM      4  C3  UNL d   1      -0.978  -1.998   1.072  0.00  0.00     0.003 A 
ATOM      5  C4  UNL d   1      -0.167  -2.849   0.324  0.00  0.00    -0.005 A 
ATOM      6  C5  UNL d   1       0.722  -2.319  -0.609  0.00  0.00     0.003 A 
ATOM      7  C6  UNL d   1       0.799  -0.938  -0.795  0.00  0.00    -0.001 A 
ENDROOT
TORSDOF 0
ENDMDL
