MODEL 1
REMARK minimizedAffinity -4.74680996
REMARK minimizedRMSD -1
REMARK  0 active torsions:
REMARK  status: ('A' for Active; 'I' for Inactive)
ROOT
ATOM      1  C   UNL d   1       0.253  -3.441   0.417  0.00  0.00     0.078 C 
ATOM      2  C1  UNL d   1      -0.045  -1.979   0.565  0.00  0.00    -0.077 A 
ATOM      3  C2  UNL d   1      -0.028  -1.123  -0.544  0.00  0.00    -0.001 A 
ATOM      4  C3  UNL d   1      -0.299   0.237  -0.390  0.00  0.00     0.003 A 
ATOM      5  C4  UNL d   1      -0.587   0.755   0.871  0.00  0.00    -0.005 A 
ATOM      6  C5  UNL d   1      -0.603  -0.088   1.981  0.00  0.00     0.003 A 
ATOM      7  C6  UNL d   1      -0.333  -1.449   1.829  0.00  0.00    -0.001 A 
ENDROOT
TORSDOF 0
ENDMDL
