MODEL 1
REMARK minimizedAffinity -3.15005541
REMARK minimizedRMSD -1
REMARK  0 active torsions:
REMARK  status: ('A' for Active; 'I' for Inactive)
ROOT
ATOM      1  C   UNL d   1       0.454   1.340  -0.266  0.00  0.00     0.078 C 
ATOM      2  C1  UNL d   1      -0.168  -0.001  -0.012  0.00  0.00    -0.077 A 
ATOM      3  C2  UNL d   1      -1.347  -0.120   0.733  0.00  0.00    -0.001 A 
ATOM      4  C3  UNL d   1      -1.909  -1.376   0.970  0.00  0.00     0.003 A 
ATOM      5  C4  UNL d   1      -1.298  -2.522   0.465  0.00  0.00    -0.005 A 
ATOM      6  C5  UNL d   1      -0.124  -2.414  -0.276  0.00  0.00     0.003 A 
ATOM      7  C6  UNL d   1       0.440  -1.159  -0.514  0.00  0.00    -0.001 A 
ENDROOT
TORSDOF 0
ENDMDL
