MODEL 1
REMARK minimizedAffinity -5.22980642
REMARK minimizedRMSD -1
REMARK  0 active torsions:
REMARK  status: ('A' for Active; 'I' for Inactive)
ROOT
ATOM      1  C   UNL d   1       0.255  -2.924   0.556  0.00  0.00     0.078 C 
ATOM      2  C1  UNL d   1       0.058  -1.553  -0.017  0.00  0.00    -0.077 A 
ATOM      3  C2  UNL d   1       0.285  -1.299  -1.375  0.00  0.00    -0.001 A 
ATOM      4  C3  UNL d   1       0.107  -0.015  -1.893  0.00  0.00     0.003 A 
ATOM      5  C4  UNL d   1      -0.299   1.026  -1.059  0.00  0.00    -0.005 A 
ATOM      6  C5  UNL d   1      -0.526   0.783   0.294  0.00  0.00     0.003 A 
ATOM      7  C6  UNL d   1      -0.348  -0.500   0.813  0.00  0.00    -0.001 A 
ENDROOT
TORSDOF 0
ENDMDL
