MODEL 1
REMARK minimizedAffinity -5.28011131
REMARK minimizedRMSD -1
REMARK  0 active torsions:
REMARK  status: ('A' for Active; 'I' for Inactive)
ROOT
ATOM      1  C   UNL d   1       0.574   1.625   0.072  0.00  0.00     0.078 C 
ATOM      2  C1  UNL d   1       0.219   0.185   0.292  0.00  0.00    -0.077 A 
ATOM      3  C2  UNL d   1       0.655  -0.808  -0.593  0.00  0.00    -0.001 A 
ATOM      4  C3  UNL d   1       0.309  -2.144  -0.382  0.00  0.00     0.003 A 
ATOM      5  C4  UNL d   1      -0.475  -2.498   0.714  0.00  0.00    -0.005 A 
ATOM      6  C5  UNL d   1      -0.915  -1.516   1.600  0.00  0.00     0.003 A 
ATOM      7  C6  UNL d   1      -0.570  -0.180   1.390  0.00  0.00    -0.001 A 
ENDROOT
TORSDOF 0
ENDMDL
