MODEL 1
REMARK minimizedAffinity -3.23126554
REMARK minimizedRMSD -1
REMARK  0 active torsions:
REMARK  status: ('A' for Active; 'I' for Inactive)
ROOT
ATOM      1  C   UNL d   1       0.453   1.923   0.024  0.00  0.00     0.078 C 
ATOM      2  C1  UNL d   1       0.017   0.496   0.172  0.00  0.00    -0.077 A 
ATOM      3  C2  UNL d   1      -0.743   0.085   1.274  0.00  0.00    -0.001 A 
ATOM      4  C3  UNL d   1      -1.134  -1.249   1.404  0.00  0.00     0.003 A 
ATOM      5  C4  UNL d   1      -0.768  -2.182   0.436  0.00  0.00    -0.005 A 
ATOM      6  C5  UNL d   1      -0.010  -1.783  -0.663  0.00  0.00     0.003 A 
ATOM      7  C6  UNL d   1       0.381  -0.450  -0.794  0.00  0.00    -0.001 A 
ENDROOT
TORSDOF 0
ENDMDL
