MODEL 1
REMARK minimizedAffinity -5.36041546
REMARK minimizedRMSD -1
REMARK  0 active torsions:
REMARK  status: ('A' for Active; 'I' for Inactive)
ROOT
ATOM      1  C   UNL d   1      -0.023   1.340  -0.005  0.00  0.00     0.078 C 
ATOM      2  C1  UNL d   1      -0.139  -0.143   0.186  0.00  0.00    -0.077 A 
ATOM      3  C2  UNL d   1      -0.667  -0.679   1.367  0.00  0.00    -0.001 A 
ATOM      4  C3  UNL d   1      -0.760  -2.061   1.535  0.00  0.00     0.003 A 
ATOM      5  C4  UNL d   1      -0.325  -2.919   0.526  0.00  0.00    -0.005 A 
ATOM      6  C5  UNL d   1       0.205  -2.395  -0.651  0.00  0.00     0.003 A 
ATOM      7  C6  UNL d   1       0.298  -1.013  -0.821  0.00  0.00    -0.001 A 
ENDROOT
TORSDOF 0
ENDMDL
