MODEL 1
REMARK minimizedAffinity -5.1373229
REMARK minimizedRMSD -1
REMARK  0 active torsions:
REMARK  status: ('A' for Active; 'I' for Inactive)
ROOT
ATOM      1  C   UNL d   1       0.172   1.282  -0.053  0.00  0.00     0.078 C 
ATOM      2  C1  UNL d   1      -0.051  -0.183   0.176  0.00  0.00    -0.077 A 
ATOM      3  C2  UNL d   1      -1.109  -0.636   0.974  0.00  0.00    -0.001 A 
ATOM      4  C3  UNL d   1      -1.299  -2.002   1.186  0.00  0.00     0.003 A 
ATOM      5  C4  UNL d   1      -0.435  -2.927   0.605  0.00  0.00    -0.005 A 
ATOM      6  C5  UNL d   1       0.622  -2.486  -0.189  0.00  0.00     0.003 A 
ATOM      7  C6  UNL d   1       0.814  -1.120  -0.402  0.00  0.00    -0.001 A 
ENDROOT
TORSDOF 0
ENDMDL
