MODEL 1
REMARK minimizedAffinity -6.16933823
REMARK minimizedRMSD -1
REMARK  0 active torsions:
REMARK  status: ('A' for Active; 'I' for Inactive)
ROOT
ATOM      1  C   UNL d   1       0.220   1.102  -0.427  0.00  0.00     0.078 C 
ATOM      2  C1  UNL d   1       0.009  -0.382  -0.384  0.00  0.00    -0.077 A 
ATOM      3  C2  UNL d   1      -0.617  -0.990   0.711  0.00  0.00    -0.001 A 
ATOM      4  C3  UNL d   1      -0.798  -2.374   0.743  0.00  0.00     0.003 A 
ATOM      5  C4  UNL d   1      -0.354  -3.161  -0.317  0.00  0.00    -0.005 A 
ATOM      6  C5  UNL d   1       0.272  -2.566  -1.410  0.00  0.00     0.003 A 
ATOM      7  C6  UNL d   1       0.454  -1.183  -1.444  0.00  0.00    -0.001 A 
ENDROOT
TORSDOF 0
ENDMDL
