MODEL 1
REMARK minimizedAffinity -3.68248796
REMARK minimizedRMSD -1
REMARK  0 active torsions:
REMARK  status: ('A' for Active; 'I' for Inactive)
ROOT
ATOM      1  C   UNL d   1       0.451   0.124  -1.683  0.00  0.00     0.078 C 
ATOM      2  C1  UNL d   1       0.446  -1.156  -0.902  0.00  0.00    -0.077 A 
ATOM      3  C2  UNL d   1       1.642  -1.806  -0.575  0.00  0.00    -0.001 A 
ATOM      4  C3  UNL d   1       1.622  -3.003   0.143  0.00  0.00     0.003 A 
ATOM      5  C4  UNL d   1       0.408  -3.560   0.540  0.00  0.00    -0.005 A 
ATOM      6  C5  UNL d   1      -0.787  -2.922   0.217  0.00  0.00     0.003 A 
ATOM      7  C6  UNL d   1      -0.769  -1.725  -0.501  0.00  0.00    -0.001 A 
ENDROOT
TORSDOF 0
ENDMDL
