MODEL 1
REMARK minimizedAffinity -4.11080599
REMARK minimizedRMSD -1
REMARK  1 active torsions:
REMARK  status: ('A' for Active; 'I' for Inactive)
REMARK    1  A    between atoms: C1_2  and  C2_3 
ROOT
ATOM      1  C2  UNL d   1      -0.738   0.718   0.433  0.00  0.00    -0.073 A 
ATOM      2  C3  UNL d   1      -1.048   1.647  -0.567  0.00  0.00    -0.002 A 
ATOM      3  C4  UNL d   1      -0.058   2.096  -1.443  0.00  0.00     0.004 A 
ATOM      4  C5  UNL d   1       1.247   1.617  -1.333  0.00  0.00    -0.004 A 
ATOM      5  C6  UNL d   1       1.573   0.680  -0.347  0.00  0.00    -0.075 A 
ATOM      6  C7  UNL d   1       2.973   0.156  -0.214  0.00  0.00     0.076 C 
ATOM      7  C8  UNL d   1       0.575   0.236   0.530  0.00  0.00     0.001 A 
ENDROOT
BRANCH   1   8
ATOM      8  C1  UNL d   1      -1.804   0.226   1.377  0.00  0.00     0.053 C 
ATOM      9  C   UNL d   1      -2.022   1.181   2.540  0.00  0.00     0.018 C 
ENDBRANCH   1   8
TORSDOF 1
ENDMDL
