MODEL 1
REMARK minimizedAffinity -2.9709115
REMARK minimizedRMSD -1
REMARK  1 active torsions:
REMARK  status: ('A' for Active; 'I' for Inactive)
REMARK    1  A    between atoms: C1_2  and  C2_3 
ROOT
ATOM      1  C2  UNL d   1       0.453  -0.420   0.225  0.00  0.00    -0.073 A 
ATOM      2  C3  UNL d   1       0.464   0.568  -0.766  0.00  0.00    -0.002 A 
ATOM      3  C4  UNL d   1      -0.573   1.498  -0.846  0.00  0.00     0.004 A 
ATOM      4  C5  UNL d   1      -1.628   1.453   0.066  0.00  0.00    -0.004 A 
ATOM      5  C6  UNL d   1      -1.651   0.481   1.071  0.00  0.00    -0.075 A 
ATOM      6  C7  UNL d   1      -2.779   0.418   2.058  0.00  0.00     0.076 C 
ATOM      7  C8  UNL d   1      -0.606  -0.451   1.143  0.00  0.00     0.001 A 
ENDROOT
BRANCH   1   8
ATOM      8  C1  UNL d   1       1.575  -1.422   0.319  0.00  0.00     0.053 C 
ATOM      9  C   UNL d   1       2.608  -1.226  -0.779  0.00  0.00     0.018 C 
ENDBRANCH   1   8
TORSDOF 1
ENDMDL
