MODEL 1
REMARK minimizedAffinity -3.07092929
REMARK minimizedRMSD -1
REMARK  1 active torsions:
REMARK  status: ('A' for Active; 'I' for Inactive)
REMARK    1  A    between atoms: C1_2  and  C2_3 
ROOT
ATOM      1  C2  UNL d   1      -0.154  -0.553  -0.079  0.00  0.00    -0.073 A 
ATOM      2  C3  UNL d   1      -0.813   0.656  -0.332  0.00  0.00    -0.002 A 
ATOM      3  C4  UNL d   1      -0.137   1.712  -0.944  0.00  0.00     0.004 A 
ATOM      4  C5  UNL d   1       1.200   1.569  -1.316  0.00  0.00    -0.004 A 
ATOM      5  C6  UNL d   1       1.872   0.365  -1.083  0.00  0.00    -0.075 A 
ATOM      6  C7  UNL d   1       3.310   0.196  -1.474  0.00  0.00     0.076 C 
ATOM      7  C8  UNL d   1       1.187  -0.690  -0.465  0.00  0.00     0.001 A 
ENDROOT
BRANCH   1   8
ATOM      8  C1  UNL d   1      -0.881  -1.698   0.576  0.00  0.00     0.053 C 
ATOM      9  C   UNL d   1      -0.039  -2.964   0.609  0.00  0.00     0.018 C 
ENDBRANCH   1   8
TORSDOF 1
ENDMDL
