MODEL 1
REMARK minimizedAffinity -5.13984966
REMARK minimizedRMSD -1
REMARK  1 active torsions:
REMARK  status: ('A' for Active; 'I' for Inactive)
REMARK    1  A    between atoms: C1_2  and  C2_3 
ROOT
ATOM      1  C2  UNL d   1       0.679  -0.149  -0.339  0.00  0.00    -0.073 A 
ATOM      2  C3  UNL d   1       1.636  -1.033  -0.851  0.00  0.00    -0.002 A 
ATOM      3  C4  UNL d   1       2.449  -0.651  -1.919  0.00  0.00     0.004 A 
ATOM      4  C5  UNL d   1       2.318   0.619  -2.481  0.00  0.00    -0.004 A 
ATOM      5  C6  UNL d   1       1.376   1.521  -1.976  0.00  0.00    -0.075 A 
ATOM      6  C7  UNL d   1       1.221   2.889  -2.571  0.00  0.00     0.076 C 
ATOM      7  C8  UNL d   1       0.561   1.128  -0.905  0.00  0.00     0.001 A 
ENDROOT
BRANCH   1   8
ATOM      8  C1  UNL d   1      -0.196  -0.555   0.818  0.00  0.00     0.053 C 
ATOM      9  C   UNL d   1      -1.395   0.367   0.978  0.00  0.00     0.018 C 
ENDBRANCH   1   8
TORSDOF 1
ENDMDL
