MODEL 1
REMARK minimizedAffinity -2.41616607
REMARK minimizedRMSD -1
REMARK  1 active torsions:
REMARK  status: ('A' for Active; 'I' for Inactive)
REMARK    1  A    between atoms: C1_2  and  C2_3 
ROOT
ATOM      1  C2  UNL d   1      -1.025   0.981   1.629  0.00  0.00    -0.073 A 
ATOM      2  C3  UNL d   1      -1.772  -0.173   1.368  0.00  0.00    -0.002 A 
ATOM      3  C4  UNL d   1      -1.319  -1.111   0.440  0.00  0.00     0.004 A 
ATOM      4  C5  UNL d   1      -0.113  -0.909  -0.231  0.00  0.00    -0.004 A 
ATOM      5  C6  UNL d   1       0.654   0.232   0.025  0.00  0.00    -0.075 A 
ATOM      6  C7  UNL d   1       1.953   0.465  -0.689  0.00  0.00     0.076 C 
ATOM      7  C8  UNL d   1       0.191   1.171   0.957  0.00  0.00     0.001 A 
ENDROOT
BRANCH   1   8
ATOM      8  C1  UNL d   1      -1.507   1.994   2.635  0.00  0.00     0.053 C 
ATOM      9  C   UNL d   1      -2.255   1.342   3.787  0.00  0.00     0.018 C 
ENDBRANCH   1   8
TORSDOF 1
ENDMDL
