MODEL 1
REMARK minimizedAffinity -3.47258067
REMARK minimizedRMSD -1
REMARK  1 active torsions:
REMARK  status: ('A' for Active; 'I' for Inactive)
REMARK    1  A    between atoms: C1_2  and  C2_3 
ROOT
ATOM      1  C2  UNL d   1      -0.051   0.021   0.645  0.00  0.00    -0.073 A 
ATOM      2  C3  UNL d   1      -0.724  -1.120   0.193  0.00  0.00    -0.002 A 
ATOM      3  C4  UNL d   1      -0.132  -1.960  -0.751  0.00  0.00     0.004 A 
ATOM      4  C5  UNL d   1       1.139  -1.673  -1.247  0.00  0.00    -0.004 A 
ATOM      5  C6  UNL d   1       1.833  -0.543  -0.800  0.00  0.00    -0.075 A 
ATOM      6  C7  UNL d   1       3.200  -0.219  -1.326  0.00  0.00     0.076 C 
ATOM      7  C8  UNL d   1       1.231   0.297   0.146  0.00  0.00     0.001 A 
ENDROOT
BRANCH   1   8
ATOM      8  C1  UNL d   1      -0.683   0.928   1.669  0.00  0.00     0.053 C 
ATOM      9  C   UNL d   1      -1.382   0.145   2.769  0.00  0.00     0.018 C 
ENDBRANCH   1   8
TORSDOF 1
ENDMDL
