MODEL 1
REMARK minimizedAffinity -3.53837609
REMARK minimizedRMSD -1
REMARK  1 active torsions:
REMARK  status: ('A' for Active; 'I' for Inactive)
REMARK    1  A    between atoms: C1_2  and  C2_3 
ROOT
ATOM      1  C2  UNL d   1       1.193   0.242  -0.411  0.00  0.00    -0.073 A 
ATOM      2  C3  UNL d   1       0.958   1.299  -1.298  0.00  0.00    -0.002 A 
ATOM      3  C4  UNL d   1      -0.196   2.075  -1.179  0.00  0.00     0.004 A 
ATOM      4  C5  UNL d   1      -1.122   1.806  -0.171  0.00  0.00    -0.004 A 
ATOM      5  C6  UNL d   1      -0.899   0.762   0.732  0.00  0.00    -0.075 A 
ATOM      6  C7  UNL d   1      -1.886   0.459   1.821  0.00  0.00     0.076 C 
ATOM      7  C8  UNL d   1       0.261  -0.014   0.605  0.00  0.00     0.001 A 
ENDROOT
BRANCH   1   8
ATOM      8  C1  UNL d   1       2.441  -0.594  -0.531  0.00  0.00     0.053 C 
ATOM      9  C   UNL d   1       2.443  -1.437  -1.796  0.00  0.00     0.018 C 
ENDBRANCH   1   8
TORSDOF 1
ENDMDL
