MODEL 1
REMARK minimizedAffinity -1.37548649
REMARK minimizedRMSD -1
REMARK  1 active torsions:
REMARK  status: ('A' for Active; 'I' for Inactive)
REMARK    1  A    between atoms: C3_4  and  O_7 
ROOT
ATOM      1  C   UNL d   1      -3.586   1.761  -4.873  0.00  0.00    -0.033 A 
ATOM      2  C1  UNL d   1      -4.934   1.759  -4.506  0.00  0.00     0.039 A 
ATOM      3  C2  UNL d   1      -5.762   2.819  -4.879  0.00  0.00    -0.080 A 
ATOM      4  C3  UNL d   1      -5.232   3.873  -5.617  0.00  0.00     0.150 A 
ATOM      5  C4  UNL d   1      -3.891   3.880  -5.989  0.00  0.00    -0.007 A 
ATOM      6  C5  UNL d   1      -3.066   2.821  -5.616  0.00  0.00     0.039 A 
ENDROOT
BRANCH   4   7
ATOM      7  O   UNL d   1      -6.000   4.933  -6.000  0.00  0.00    -0.526 OA
ATOM      8  H5  UNL d   1      -6.897   4.805  -5.648  0.00  0.00     0.418 HD
ENDBRANCH   4   7
TORSDOF 1
ENDMDL
