MODEL 1
REMARK minimizedAffinity -3.01660609
REMARK minimizedRMSD -1
REMARK  1 active torsions:
REMARK  status: ('A' for Active; 'I' for Inactive)
REMARK    1  A    between atoms: C3_4  and  O_7 
ROOT
ATOM      1  C   UNL d   1      -5.561   0.663  -4.884  0.00  0.00    -0.033 A 
ATOM      2  C1  UNL d   1      -5.998   1.663  -4.013  0.00  0.00     0.039 A 
ATOM      3  C2  UNL d   1      -5.501   2.962  -4.133  0.00  0.00    -0.080 A 
ATOM      4  C3  UNL d   1      -4.569   3.248  -5.126  0.00  0.00     0.150 A 
ATOM      5  C4  UNL d   1      -4.132   2.258  -6.000  0.00  0.00    -0.007 A 
ATOM      6  C5  UNL d   1      -4.629   0.961  -5.878  0.00  0.00     0.039 A 
ENDROOT
BRANCH   4   7
ATOM      7  O   UNL d   1      -4.052   4.500  -5.279  0.00  0.00    -0.526 OA
ATOM      8  H5  UNL d   1      -4.424   5.073  -4.588  0.00  0.00     0.418 HD
ENDBRANCH   4   7
TORSDOF 1
ENDMDL
