MODEL 1
REMARK minimizedAffinity -0.482423156
REMARK minimizedRMSD -1
REMARK  1 active torsions:
REMARK  status: ('A' for Active; 'I' for Inactive)
REMARK    1  A    between atoms: C3_4  and  O_7 
ROOT
ATOM      1  C   UNL d   1      -5.955   1.853  -5.461  0.00  0.00    -0.033 A 
ATOM      2  C1  UNL d   1      -4.750   1.324  -4.993  0.00  0.00     0.039 A 
ATOM      3  C2  UNL d   1      -3.587   2.095  -5.031  0.00  0.00    -0.080 A 
ATOM      4  C3  UNL d   1      -3.641   3.391  -5.536  0.00  0.00     0.150 A 
ATOM      5  C4  UNL d   1      -4.839   3.926  -5.999  0.00  0.00    -0.007 A 
ATOM      6  C5  UNL d   1      -6.000   3.154  -5.962  0.00  0.00     0.039 A 
ENDROOT
BRANCH   4   7
ATOM      7  O   UNL d   1      -2.531   4.180  -5.596  0.00  0.00    -0.526 OA
ATOM      8  H5  UNL d   1      -1.772   3.669  -5.269  0.00  0.00     0.418 HD
ENDBRANCH   4   7
TORSDOF 1
ENDMDL
