MODEL 1
REMARK minimizedAffinity 1.24523604
REMARK minimizedRMSD -1
REMARK  1 active torsions:
REMARK  status: ('A' for Active; 'I' for Inactive)
REMARK    1  A    between atoms: C3_4  and  O_7 
ROOT
ATOM      1  C   UNL d   1       0.101   2.338  -0.471  0.00  0.00    -0.033 A 
ATOM      2  C1  UNL d   1       0.529   1.055  -0.820  0.00  0.00     0.039 A 
ATOM      3  C2  UNL d   1       0.914   0.152   0.173  0.00  0.00    -0.080 A 
ATOM      4  C3  UNL d   1       0.866   0.543   1.508  0.00  0.00     0.150 A 
ATOM      5  C4  UNL d   1       0.437   1.818   1.863  0.00  0.00    -0.007 A 
ATOM      6  C5  UNL d   1       0.054   2.718   0.870  0.00  0.00     0.039 A 
ENDROOT
BRANCH   4   7
ATOM      7  O   UNL d   1       1.237  -0.302   2.512  0.00  0.00    -0.526 OA
ATOM      8  H5  UNL d   1       1.538  -1.137   2.116  0.00  0.00     0.418 HD
ENDBRANCH   4   7
TORSDOF 1
ENDMDL
