MODEL 1
REMARK minimizedAffinity 0.293223888
REMARK minimizedRMSD -1
REMARK  1 active torsions:
REMARK  status: ('A' for Active; 'I' for Inactive)
REMARK    1  A    between atoms: C3_4  and  O_7 
ROOT
ATOM      1  C   UNL d   1      -5.999   2.688  -5.147  0.00  0.00    -0.033 A 
ATOM      2  C1  UNL d   1      -4.791   2.058  -4.843  0.00  0.00     0.039 A 
ATOM      3  C2  UNL d   1      -3.580   2.696  -5.119  0.00  0.00    -0.080 A 
ATOM      4  C3  UNL d   1      -3.591   3.962  -5.698  0.00  0.00     0.150 A 
ATOM      5  C4  UNL d   1      -4.791   4.597  -6.000  0.00  0.00    -0.007 A 
ATOM      6  C5  UNL d   1      -5.999   3.958  -5.724  0.00  0.00     0.039 A 
ENDROOT
BRANCH   4   7
ATOM      7  O   UNL d   1      -2.435   4.622  -5.990  0.00  0.00    -0.526 OA
ATOM      8  H5  UNL d   1      -1.686   4.051  -5.753  0.00  0.00     0.418 HD
ENDBRANCH   4   7
TORSDOF 1
ENDMDL
