MODEL 1
REMARK minimizedAffinity 0.64102155
REMARK minimizedRMSD -1
REMARK  1 active torsions:
REMARK  status: ('A' for Active; 'I' for Inactive)
REMARK    1  A    between atoms: C3_4  and  O_7 
ROOT
ATOM      1  C   UNL d   1      -5.276   3.741  -4.826  0.00  0.00    -0.033 A 
ATOM      2  C1  UNL d   1      -6.000   3.102  -5.835  0.00  0.00     0.039 A 
ATOM      3  C2  UNL d   1      -5.898   1.719  -6.000  0.00  0.00    -0.080 A 
ATOM      4  C3  UNL d   1      -5.072   0.988  -5.151  0.00  0.00     0.150 A 
ATOM      5  C4  UNL d   1      -4.352   1.618  -4.141  0.00  0.00    -0.007 A 
ATOM      6  C5  UNL d   1      -4.453   2.999  -3.978  0.00  0.00     0.039 A 
ENDROOT
BRANCH   4   7
ATOM      7  O   UNL d   1      -4.937  -0.363  -5.276  0.00  0.00    -0.526 OA
ATOM      8  H5  UNL d   1      -5.471  -0.656  -6.033  0.00  0.00     0.418 HD
ENDBRANCH   4   7
TORSDOF 1
ENDMDL
