MODEL 1
REMARK minimizedAffinity -0.437956065
REMARK minimizedRMSD -1
REMARK  1 active torsions:
REMARK  status: ('A' for Active; 'I' for Inactive)
REMARK    1  A    between atoms: C3_4  and  O_7 
ROOT
ATOM      1  C   UNL d   1      -1.957   2.324  -3.722  0.00  0.00    -0.033 A 
ATOM      2  C1  UNL d   1      -3.298   1.950  -3.823  0.00  0.00     0.039 A 
ATOM      3  C2  UNL d   1      -4.186   2.726  -4.570  0.00  0.00    -0.080 A 
ATOM      4  C3  UNL d   1      -3.721   3.871  -5.210  0.00  0.00     0.150 A 
ATOM      5  C4  UNL d   1      -2.386   4.247  -5.117  0.00  0.00    -0.007 A 
ATOM      6  C5  UNL d   1      -1.500   3.472  -4.370  0.00  0.00     0.039 A 
ENDROOT
BRANCH   4   7
ATOM      7  O   UNL d   1      -4.552   4.663  -5.947  0.00  0.00    -0.526 OA
ATOM      8  H5  UNL d   1      -5.450   4.296  -5.898  0.00  0.00     0.418 HD
ENDBRANCH   4   7
TORSDOF 1
ENDMDL
