MODEL 1
REMARK minimizedAffinity 3.84234142
REMARK minimizedRMSD -1
REMARK  1 active torsions:
REMARK  status: ('A' for Active; 'I' for Inactive)
REMARK    1  A    between atoms: C3_4  and  O_7 
ROOT
ATOM      1  C   UNL d   1      -4.941   1.464  -4.498  0.00  0.00    -0.033 A 
ATOM      2  C1  UNL d   1      -4.142   2.488  -3.986  0.00  0.00     0.039 A 
ATOM      3  C2  UNL d   1      -4.269   3.788  -4.480  0.00  0.00    -0.080 A 
ATOM      4  C3  UNL d   1      -5.198   4.050  -5.483  0.00  0.00     0.150 A 
ATOM      5  C4  UNL d   1      -6.000   3.035  -5.994  0.00  0.00    -0.007 A 
ATOM      6  C5  UNL d   1      -5.871   1.738  -5.501  0.00  0.00     0.039 A 
ENDROOT
BRANCH   4   7
ATOM      7  O   UNL d   1      -5.355   5.302  -6.000  0.00  0.00    -0.526 OA
ATOM      8  H5  UNL d   1      -4.715   5.894  -5.571  0.00  0.00     0.418 HD
ENDBRANCH   4   7
TORSDOF 1
ENDMDL
