MODEL 1
REMARK minimizedAffinity 1.77149606
REMARK minimizedRMSD -1
REMARK  1 active torsions:
REMARK  status: ('A' for Active; 'I' for Inactive)
REMARK    1  A    between atoms: C3_4  and  O_7 
ROOT
ATOM      1  C   UNL d   1      -5.086   1.440  -4.380  0.00  0.00    -0.033 A 
ATOM      2  C1  UNL d   1      -4.299   2.459  -3.839  0.00  0.00     0.039 A 
ATOM      3  C2  UNL d   1      -4.359   3.748  -4.372  0.00  0.00    -0.080 A 
ATOM      4  C3  UNL d   1      -5.210   4.005  -5.443  0.00  0.00     0.150 A 
ATOM      5  C4  UNL d   1      -6.000   2.997  -5.985  0.00  0.00    -0.007 A 
ATOM      6  C5  UNL d   1      -5.938   1.710  -5.452  0.00  0.00     0.039 A 
ENDROOT
BRANCH   4   7
ATOM      7  O   UNL d   1      -5.299   5.247  -6.000  0.00  0.00    -0.526 OA
ATOM      8  H5  UNL d   1      -4.675   5.835  -5.542  0.00  0.00     0.418 HD
ENDBRANCH   4   7
TORSDOF 1
ENDMDL
