MODEL 1
REMARK minimizedAffinity 4.44809866
REMARK minimizedRMSD -1
REMARK  1 active torsions:
REMARK  status: ('A' for Active; 'I' for Inactive)
REMARK    1  A    between atoms: C3_4  and  O_7 
ROOT
ATOM      1  C   UNL d   1      -6.000   1.124  -5.829  0.00  0.00    -0.033 A 
ATOM      2  C1  UNL d   1      -5.954   2.509  -5.999  0.00  0.00     0.039 A 
ATOM      3  C2  UNL d   1      -5.017   3.270  -5.296  0.00  0.00    -0.080 A 
ATOM      4  C3  UNL d   1      -4.132   2.634  -4.430  0.00  0.00     0.150 A 
ATOM      5  C4  UNL d   1      -4.169   1.254  -4.260  0.00  0.00    -0.007 A 
ATOM      6  C5  UNL d   1      -5.106   0.496  -4.961  0.00  0.00     0.039 A 
ENDROOT
BRANCH   4   7
ATOM      7  O   UNL d   1      -3.203   3.334  -3.720  0.00  0.00    -0.526 OA
ATOM      8  H5  UNL d   1      -3.314   4.280  -3.917  0.00  0.00     0.418 HD
ENDBRANCH   4   7
TORSDOF 1
ENDMDL
