MODEL 1
REMARK minimizedAffinity 3.91026759
REMARK minimizedRMSD -1
REMARK  1 active torsions:
REMARK  status: ('A' for Active; 'I' for Inactive)
REMARK    1  A    between atoms: C3_4  and  O_7 
ROOT
ATOM      1  C   UNL d   1      -0.047   1.785   1.873  0.00  0.00    -0.033 A 
ATOM      2  C1  UNL d   1      -0.175   0.508   1.325  0.00  0.00     0.039 A 
ATOM      3  C2  UNL d   1      -0.014   0.316  -0.049  0.00  0.00    -0.080 A 
ATOM      4  C3  UNL d   1       0.277   1.409  -0.861  0.00  0.00     0.150 A 
ATOM      5  C4  UNL d   1       0.410   2.683  -0.321  0.00  0.00    -0.007 A 
ATOM      6  C5  UNL d   1       0.248   2.873   1.050  0.00  0.00     0.039 A 
ENDROOT
BRANCH   4   7
ATOM      7  O   UNL d   1       0.439   1.272  -2.208  0.00  0.00    -0.526 OA
ATOM      8  H5  UNL d   1       0.290   0.341  -2.443  0.00  0.00     0.418 HD
ENDBRANCH   4   7
TORSDOF 1
ENDMDL
