MODEL 1
REMARK minimizedAffinity 4.59024572
REMARK minimizedRMSD -1
REMARK  1 active torsions:
REMARK  status: ('A' for Active; 'I' for Inactive)
REMARK    1  A    between atoms: C3_4  and  O_7 
ROOT
ATOM      1  C   UNL d   1      -5.613   1.875  -4.870  0.00  0.00    -0.033 A 
ATOM      2  C1  UNL d   1      -4.796   1.947  -3.740  0.00  0.00     0.039 A 
ATOM      3  C2  UNL d   1      -3.675   2.779  -3.740  0.00  0.00    -0.080 A 
ATOM      4  C3  UNL d   1      -3.383   3.534  -4.873  0.00  0.00     0.150 A 
ATOM      5  C4  UNL d   1      -4.195   3.470  -6.000  0.00  0.00    -0.007 A 
ATOM      6  C5  UNL d   1      -5.314   2.637  -5.999  0.00  0.00     0.039 A 
ENDROOT
BRANCH   4   7
ATOM      7  O   UNL d   1      -2.298   4.357  -4.921  0.00  0.00    -0.526 OA
ATOM      8  H5  UNL d   1      -1.814   4.277  -4.082  0.00  0.00     0.418 HD
ENDBRANCH   4   7
TORSDOF 1
ENDMDL
