MODEL 1
REMARK minimizedAffinity -0.356110156
REMARK minimizedRMSD -1
REMARK  1 active torsions:
REMARK  status: ('A' for Active; 'I' for Inactive)
REMARK    1  A    between atoms: C3_4  and  O_7 
ROOT
ATOM      1  C   UNL d   1      -4.518   1.772  -4.465  0.00  0.00    -0.033 A 
ATOM      2  C1  UNL d   1      -5.502   1.741  -5.455  0.00  0.00     0.039 A 
ATOM      3  C2  UNL d   1      -5.999   2.934  -5.985  0.00  0.00    -0.080 A 
ATOM      4  C3  UNL d   1      -5.504   4.148  -5.517  0.00  0.00     0.150 A 
ATOM      5  C4  UNL d   1      -4.521   4.185  -4.534  0.00  0.00    -0.007 A 
ATOM      6  C5  UNL d   1      -4.027   2.994  -4.006  0.00  0.00     0.039 A 
ENDROOT
BRANCH   4   7
ATOM      7  O   UNL d   1      -5.962   5.338  -6.000  0.00  0.00    -0.526 OA
ATOM      8  H5  UNL d   1      -6.659   5.157  -6.653  0.00  0.00     0.418 HD
ENDBRANCH   4   7
TORSDOF 1
ENDMDL
