MODEL 1
REMARK minimizedAffinity -1.4799732
REMARK minimizedRMSD -1
REMARK  1 active torsions:
REMARK  status: ('A' for Active; 'I' for Inactive)
REMARK    1  A    between atoms: C3_4  and  O_7 
ROOT
ATOM      1  C   UNL d   1      -6.000   1.600  -6.000  0.00  0.00    -0.033 A 
ATOM      2  C1  UNL d   1      -5.633   2.947  -5.979  0.00  0.00     0.039 A 
ATOM      3  C2  UNL d   1      -4.919   3.461  -4.895  0.00  0.00    -0.080 A 
ATOM      4  C3  UNL d   1      -4.578   2.619  -3.840  0.00  0.00     0.150 A 
ATOM      5  C4  UNL d   1      -4.937   1.275  -3.856  0.00  0.00    -0.007 A 
ATOM      6  C5  UNL d   1      -5.650   0.764  -4.939  0.00  0.00     0.039 A 
ENDROOT
BRANCH   4   7
ATOM      7  O   UNL d   1      -3.886   3.077  -2.758  0.00  0.00    -0.526 OA
ATOM      8  H5  UNL d   1      -3.732   4.029  -2.872  0.00  0.00     0.418 HD
ENDBRANCH   4   7
TORSDOF 1
ENDMDL
