MODEL 1
REMARK minimizedAffinity 8.47463512
REMARK minimizedRMSD -1
REMARK  1 active torsions:
REMARK  status: ('A' for Active; 'I' for Inactive)
REMARK    1  A    between atoms: C3_4  and  O_7 
ROOT
ATOM      1  C   UNL d   1      -4.723   0.906  -3.140  0.00  0.00    -0.033 A 
ATOM      2  C1  UNL d   1      -5.667   0.736  -4.155  0.00  0.00     0.039 A 
ATOM      3  C2  UNL d   1      -5.884   1.752  -5.087  0.00  0.00    -0.080 A 
ATOM      4  C3  UNL d   1      -5.152   2.933  -4.993  0.00  0.00     0.150 A 
ATOM      5  C4  UNL d   1      -4.208   3.108  -3.987  0.00  0.00    -0.007 A 
ATOM      6  C5  UNL d   1      -3.993   2.092  -3.057  0.00  0.00     0.039 A 
ENDROOT
BRANCH   4   7
ATOM      7  O   UNL d   1      -5.332   3.955  -5.877  0.00  0.00    -0.526 OA
ATOM      8  H5  UNL d   1      -6.036   3.704  -6.498  0.00  0.00     0.418 HD
ENDBRANCH   4   7
TORSDOF 1
ENDMDL
