MODEL 1
REMARK minimizedAffinity 3.17256474
REMARK minimizedRMSD -1
REMARK  1 active torsions:
REMARK  status: ('A' for Active; 'I' for Inactive)
REMARK    1  A    between atoms: C3_4  and  O_7 
ROOT
ATOM      1  C   UNL d   1      -0.260   1.315   0.336  0.00  0.00    -0.033 A 
ATOM      2  C1  UNL d   1      -0.172   1.094   1.712  0.00  0.00     0.039 A 
ATOM      3  C2  UNL d   1       0.325   2.093   2.551  0.00  0.00    -0.080 A 
ATOM      4  C3  UNL d   1       0.730   3.307   2.003  0.00  0.00     0.150 A 
ATOM      5  C4  UNL d   1       0.642   3.536   0.634  0.00  0.00    -0.007 A 
ATOM      6  C5  UNL d   1       0.146   2.537  -0.203  0.00  0.00     0.039 A 
ENDROOT
BRANCH   4   7
ATOM      7  O   UNL d   1       1.226   4.310   2.782  0.00  0.00    -0.526 OA
ATOM      8  H5  UNL d   1       1.255   4.000   3.702  0.00  0.00     0.418 HD
ENDBRANCH   4   7
TORSDOF 1
ENDMDL
