MODEL 1
REMARK minimizedAffinity 17.2309227
REMARK minimizedRMSD -1
REMARK  0 active torsions:
REMARK  status: ('A' for Active; 'I' for Inactive)
ROOT
ATOM      1  O1  BZF d   1       4.453   5.998   5.055  0.00  0.00    -0.204 OA
ATOM      2  C2  BZF d   1       3.391   5.824   5.921  0.00  0.00     0.174 A 
ATOM      3  C3  BZF d   1       3.045   4.523   5.999  0.00  0.00    -0.012 A 
ATOM      4  C3A BZF d   1       4.006   3.829   5.198  0.00  0.00    -0.107 A 
ATOM      5  C4  BZF d   1       4.200   2.512   4.895  0.00  0.00     0.055 A 
ATOM      6  C5  BZF d   1       5.187   2.173   4.025  0.00  0.00    -0.016 A 
ATOM      7  C6  BZF d   1       5.994   3.124   3.435  0.00  0.00     0.022 A 
ATOM      8  C7  BZF d   1       5.843   4.443   3.709  0.00  0.00     0.029 A 
ATOM      9  C7A BZF d   1       4.868   4.786   4.614  0.00  0.00     0.058 A 
ENDROOT
TORSDOF 0
ENDMDL
