MODEL 1
REMARK minimizedAffinity 16.0991383
REMARK minimizedRMSD -1
REMARK  0 active torsions:
REMARK  status: ('A' for Active; 'I' for Inactive)
ROOT
ATOM      1  O1  BZF d   1      -4.484  -1.686   0.264  0.00  0.00    -0.204 OA
ATOM      2  C2  BZF d   1      -5.329  -2.669   0.743  0.00  0.00     0.174 A 
ATOM      3  C3  BZF d   1      -4.638  -3.786   1.049  0.00  0.00    -0.012 A 
ATOM      4  C3A BZF d   1      -3.265  -3.451   0.830  0.00  0.00    -0.107 A 
ATOM      5  C4  BZF d   1      -2.095  -4.142   0.975  0.00  0.00     0.055 A 
ATOM      6  C5  BZF d   1      -0.929  -3.550   0.605  0.00  0.00    -0.016 A 
ATOM      7  C6  BZF d   1      -0.896  -2.274   0.083  0.00  0.00     0.022 A 
ATOM      8  C7  BZF d   1      -2.030  -1.548  -0.075  0.00  0.00     0.029 A 
ATOM      9  C7A BZF d   1      -3.206  -2.130   0.328  0.00  0.00     0.058 A 
ENDROOT
TORSDOF 0
ENDMDL
