MODEL 1
REMARK minimizedAffinity 14.3620405
REMARK minimizedRMSD -1
REMARK  0 active torsions:
REMARK  status: ('A' for Active; 'I' for Inactive)
ROOT
ATOM      1  O1  BZF d   1      -2.022  -1.055  -2.082  0.00  0.00    -0.204 OA
ATOM      2  C2  BZF d   1      -1.449  -1.638  -3.196  0.00  0.00     0.174 A 
ATOM      3  C3  BZF d   1      -0.735  -2.729  -2.851  0.00  0.00    -0.012 A 
ATOM      4  C3A BZF d   1      -0.947  -2.888  -1.445  0.00  0.00    -0.107 A 
ATOM      5  C4  BZF d   1      -0.513  -3.803  -0.528  0.00  0.00     0.055 A 
ATOM      6  C5  BZF d   1      -0.841  -3.633   0.780  0.00  0.00    -0.016 A 
ATOM      7  C6  BZF d   1      -1.594  -2.559   1.206  0.00  0.00     0.022 A 
ATOM      8  C7  BZF d   1      -2.051  -1.628   0.333  0.00  0.00     0.029 A 
ATOM      9  C7A BZF d   1      -1.750  -1.815  -0.994  0.00  0.00     0.058 A 
ENDROOT
TORSDOF 0
ENDMDL
