MODEL 1
REMARK minimizedAffinity 14.8055954
REMARK minimizedRMSD -1
REMARK  0 active torsions:
REMARK  status: ('A' for Active; 'I' for Inactive)
ROOT
ATOM      1  O1  BZF d   1      -1.740  -4.585   3.547  0.00  0.00    -0.204 OA
ATOM      2  C2  BZF d   1      -2.645  -3.789   4.222  0.00  0.00     0.174 A 
ATOM      3  C3  BZF d   1      -3.080  -2.785   3.433  0.00  0.00    -0.012 A 
ATOM      4  C3A BZF d   1      -2.476  -3.020   2.158  0.00  0.00    -0.107 A 
ATOM      5  C4  BZF d   1      -2.536  -2.373   0.957  0.00  0.00     0.055 A 
ATOM      6  C5  BZF d   1      -1.768  -2.817  -0.072  0.00  0.00    -0.016 A 
ATOM      7  C6  BZF d   1      -0.924  -3.900   0.066  0.00  0.00     0.022 A 
ATOM      8  C7  BZF d   1      -0.834  -4.577   1.236  0.00  0.00     0.029 A 
ATOM      9  C7A BZF d   1      -1.634  -4.151   2.268  0.00  0.00     0.058 A 
ENDROOT
TORSDOF 0
ENDMDL
