MODEL 1
REMARK minimizedAffinity 7.7274828
REMARK minimizedRMSD -1
REMARK  0 active torsions:
REMARK  status: ('A' for Active; 'I' for Inactive)
ROOT
ATOM      1  O1  BZF d   1      -1.104  -4.849  -1.103  0.00  0.00    -0.204 OA
ATOM      2  C2  BZF d   1      -1.029  -5.547   0.087  0.00  0.00     0.174 A 
ATOM      3  C3  BZF d   1      -1.178  -4.717   1.139  0.00  0.00    -0.012 A 
ATOM      4  C3A BZF d   1      -1.451  -3.433   0.570  0.00  0.00    -0.107 A 
ATOM      5  C4  BZF d   1      -1.706  -2.204   1.107  0.00  0.00     0.055 A 
ATOM      6  C5  BZF d   1      -1.857  -1.139   0.276  0.00  0.00    -0.016 A 
ATOM      7  C6  BZF d   1      -1.754  -1.266  -1.094  0.00  0.00     0.022 A 
ATOM      8  C7  BZF d   1      -1.507  -2.467  -1.673  0.00  0.00     0.029 A 
ATOM      9  C7A BZF d   1      -1.386  -3.550  -0.837  0.00  0.00     0.058 A 
ENDROOT
TORSDOF 0
ENDMDL
