MODEL 1
REMARK minimizedAffinity 7.30767488
REMARK minimizedRMSD -1
REMARK  0 active torsions:
REMARK  status: ('A' for Active; 'I' for Inactive)
ROOT
ATOM      1  O1  BZF d   1      -0.813  -3.391  -0.172  0.00  0.00    -0.204 OA
ATOM      2  C2  BZF d   1      -1.553  -2.243   0.040  0.00  0.00     0.174 A 
ATOM      3  C3  BZF d   1      -2.195  -2.300   1.224  0.00  0.00    -0.012 A 
ATOM      4  C3A BZF d   1      -1.761  -3.521   1.830  0.00  0.00    -0.107 A 
ATOM      5  C4  BZF d   1      -2.035  -4.127   3.023  0.00  0.00     0.055 A 
ATOM      6  C5  BZF d   1      -1.504  -5.351   3.279  0.00  0.00    -0.016 A 
ATOM      7  C6  BZF d   1      -0.700  -5.999   2.365  0.00  0.00     0.022 A 
ATOM      8  C7  BZF d   1      -0.395  -5.436   1.171  0.00  0.00     0.029 A 
ATOM      9  C7A BZF d   1      -0.903  -4.184   0.923  0.00  0.00     0.058 A 
ENDROOT
TORSDOF 0
ENDMDL
