MODEL 1
REMARK minimizedAffinity 6.44976616
REMARK minimizedRMSD -1
REMARK  0 active torsions:
REMARK  status: ('A' for Active; 'I' for Inactive)
ROOT
ATOM      1  O1  BZF d   1      -2.155  -1.464  -1.135  0.00  0.00    -0.204 OA
ATOM      2  C2  BZF d   1      -2.731  -0.829  -0.051  0.00  0.00     0.174 A 
ATOM      3  C3  BZF d   1      -2.531  -1.537   1.079  0.00  0.00    -0.012 A 
ATOM      4  C3A BZF d   1      -1.705  -2.640   0.692  0.00  0.00    -0.107 A 
ATOM      5  C4  BZF d   1      -1.156  -3.686   1.375  0.00  0.00     0.055 A 
ATOM      6  C5  BZF d   1      -0.460  -4.631   0.689  0.00  0.00    -0.016 A 
ATOM      7  C6  BZF d   1      -0.300  -4.563  -0.679  0.00  0.00     0.022 A 
ATOM      8  C7  BZF d   1      -0.822  -3.541  -1.400  0.00  0.00     0.029 A 
ATOM      9  C7A BZF d   1      -1.498  -2.567  -0.705  0.00  0.00     0.058 A 
ENDROOT
TORSDOF 0
ENDMDL
