MODEL 1
REMARK minimizedAffinity 10.5422468
REMARK minimizedRMSD -1
REMARK  0 active torsions:
REMARK  status: ('A' for Active; 'I' for Inactive)
ROOT
ATOM      1  O1  BZF d   1      -0.515  -5.112  -0.211  0.00  0.00    -0.204 OA
ATOM      2  C2  BZF d   1      -0.673  -5.913   0.903  0.00  0.00     0.174 A 
ATOM      3  C3  BZF d   1      -1.194  -5.208   1.929  0.00  0.00    -0.012 A 
ATOM      4  C3A BZF d   1      -1.458  -3.907   1.395  0.00  0.00    -0.107 A 
ATOM      5  C4  BZF d   1      -1.992  -2.766   1.923  0.00  0.00     0.055 A 
ATOM      6  C5  BZF d   1      -2.044  -1.645   1.157  0.00  0.00    -0.016 A 
ATOM      7  C6  BZF d   1      -1.569  -1.628  -0.138  0.00  0.00     0.022 A 
ATOM      8  C7  BZF d   1      -1.035  -2.736  -0.707  0.00  0.00     0.029 A 
ATOM      9  C7A BZF d   1      -1.011  -3.879   0.054  0.00  0.00     0.058 A 
ENDROOT
TORSDOF 0
ENDMDL
