MODEL 1
REMARK minimizedAffinity 10.6913128
REMARK minimizedRMSD -1
REMARK  0 active torsions:
REMARK  status: ('A' for Active; 'I' for Inactive)
ROOT
ATOM      1  O1  BZF d   1       5.998   1.664  -2.455  0.00  0.00    -0.204 OA
ATOM      2  C2  BZF d   1       5.990   0.790  -3.525  0.00  0.00     0.174 A 
ATOM      3  C3  BZF d   1       4.815   0.132  -3.597  0.00  0.00    -0.012 A 
ATOM      4  C3A BZF d   1       4.006   0.692  -2.558  0.00  0.00    -0.107 A 
ATOM      5  C4  BZF d   1       2.727   0.463  -2.137  0.00  0.00     0.055 A 
ATOM      6  C5  BZF d   1       2.261   1.127  -1.047  0.00  0.00    -0.016 A 
ATOM      7  C6  BZF d   1       3.047   2.023  -0.353  0.00  0.00     0.022 A 
ATOM      8  C7  BZF d   1       4.320   2.288  -0.735  0.00  0.00     0.029 A 
ATOM      9  C7A BZF d   1       4.783   1.642  -1.856  0.00  0.00     0.058 A 
ENDROOT
TORSDOF 0
ENDMDL
