MODEL 1
REMARK minimizedAffinity 14.480546
REMARK minimizedRMSD -1
REMARK  0 active torsions:
REMARK  status: ('A' for Active; 'I' for Inactive)
ROOT
ATOM      1  O1  BZF d   1      -1.959   1.247   5.867  0.00  0.00    -0.204 OA
ATOM      2  C2  BZF d   1      -1.972  -0.135   5.881  0.00  0.00     0.174 A 
ATOM      3  C3  BZF d   1      -3.234  -0.600   5.982  0.00  0.00    -0.012 A 
ATOM      4  C3A BZF d   1      -4.068   0.561   5.941  0.00  0.00    -0.107 A 
ATOM      5  C4  BZF d   1      -5.420   0.748   5.984  0.00  0.00     0.055 A 
ATOM      6  C5  BZF d   1      -5.911   2.015   5.996  0.00  0.00    -0.016 A 
ATOM      7  C6  BZF d   1      -5.081   3.116   5.972  0.00  0.00     0.022 A 
ATOM      8  C7  BZF d   1      -3.733   2.981   5.924  0.00  0.00     0.029 A 
ATOM      9  C7A BZF d   1      -3.235   1.702   5.878  0.00  0.00     0.058 A 
ENDROOT
TORSDOF 0
ENDMDL
