MODEL 1
REMARK minimizedAffinity 13.0128937
REMARK minimizedRMSD -1
REMARK  0 active torsions:
REMARK  status: ('A' for Active; 'I' for Inactive)
ROOT
ATOM      1  O1  BZF d   1       2.233   0.110  -0.749  0.00  0.00    -0.204 OA
ATOM      2  C2  BZF d   1       1.880   0.743  -1.925  0.00  0.00     0.174 A 
ATOM      3  C3  BZF d   1       2.286   2.029  -1.917  0.00  0.00    -0.012 A 
ATOM      4  C3A BZF d   1       3.014   2.186  -0.695  0.00  0.00    -0.107 A 
ATOM      5  C4  BZF d   1       3.676   3.235  -0.125  0.00  0.00     0.055 A 
ATOM      6  C5  BZF d   1       4.220   3.080   1.111  0.00  0.00    -0.016 A 
ATOM      7  C6  BZF d   1       4.116   1.893   1.806  0.00  0.00     0.022 A 
ATOM      8  C7  BZF d   1       3.473   0.823   1.279  0.00  0.00     0.029 A 
ATOM      9  C7A BZF d   1       2.951   0.966   0.017  0.00  0.00     0.058 A 
ENDROOT
TORSDOF 0
ENDMDL
