MODEL 1
REMARK minimizedAffinity 10.5838928
REMARK minimizedRMSD -1
REMARK  0 active torsions:
REMARK  status: ('A' for Active; 'I' for Inactive)
ROOT
ATOM      1  O1  BZF d   1      -1.501  -0.533   5.116  0.00  0.00    -0.204 OA
ATOM      2  C2  BZF d   1      -1.638  -1.901   5.259  0.00  0.00     0.174 A 
ATOM      3  C3  BZF d   1      -2.885  -2.217   5.664  0.00  0.00    -0.012 A 
ATOM      4  C3A BZF d   1      -3.597  -0.976   5.692  0.00  0.00    -0.107 A 
ATOM      5  C4  BZF d   1      -4.884  -0.639   6.000  0.00  0.00     0.055 A 
ATOM      6  C5  BZF d   1      -5.242   0.672   5.999  0.00  0.00    -0.016 A 
ATOM      7  C6  BZF d   1      -4.339   1.671   5.702  0.00  0.00     0.022 A 
ATOM      8  C7  BZF d   1      -3.052   1.386   5.385  0.00  0.00     0.029 A 
ATOM      9  C7A BZF d   1      -2.696   0.059   5.353  0.00  0.00     0.058 A 
ENDROOT
TORSDOF 0
ENDMDL
