MODEL 1
REMARK minimizedAffinity 4.12957144
REMARK minimizedRMSD -1
REMARK  0 active torsions:
REMARK  status: ('A' for Active; 'I' for Inactive)
ROOT
ATOM      1  O1  BZF d   1      -3.145   2.751  -5.251  0.00  0.00    -0.204 OA
ATOM      2  C2  BZF d   1      -2.081   3.210  -4.499  0.00  0.00     0.174 A 
ATOM      3  C3  BZF d   1      -2.269   4.496  -4.140  0.00  0.00    -0.012 A 
ATOM      4  C3A BZF d   1      -3.572   4.836  -4.625  0.00  0.00    -0.107 A 
ATOM      5  C4  BZF d   1      -4.330   5.970  -4.565  0.00  0.00     0.055 A 
ATOM      6  C5  BZF d   1      -5.529   5.997  -5.203  0.00  0.00    -0.016 A 
ATOM      7  C6  BZF d   1      -5.999   4.912  -5.913  0.00  0.00     0.022 A 
ATOM      8  C7  BZF d   1      -5.285   3.763  -5.996  0.00  0.00     0.029 A 
ATOM      9  C7A BZF d   1      -4.087   3.721  -5.325  0.00  0.00     0.058 A 
ENDROOT
TORSDOF 0
ENDMDL
