MODEL 1
REMARK minimizedAffinity 4.26433277
REMARK minimizedRMSD -1
REMARK  0 active torsions:
REMARK  status: ('A' for Active; 'I' for Inactive)
ROOT
ATOM      1  O1  BZF d   1      -3.712   0.898  -3.261  0.00  0.00    -0.204 OA
ATOM      2  C2  BZF d   1      -3.163   1.609  -4.311  0.00  0.00     0.174 A 
ATOM      3  C3  BZF d   1      -1.821   1.475  -4.330  0.00  0.00    -0.012 A 
ATOM      4  C3A BZF d   1      -1.520   0.552  -3.278  0.00  0.00    -0.107 A 
ATOM      5  C4  BZF d   1      -0.358   0.007  -2.811  0.00  0.00     0.055 A 
ATOM      6  C5  BZF d   1      -0.401  -0.805  -1.722  0.00  0.00    -0.016 A 
ATOM      7  C6  BZF d   1      -1.585  -1.088  -1.073  0.00  0.00     0.022 A 
ATOM      8  C7  BZF d   1      -2.763  -0.575  -1.503  0.00  0.00     0.029 A 
ATOM      9  C7A BZF d   1      -2.728   0.219  -2.623  0.00  0.00     0.058 A 
ENDROOT
TORSDOF 0
ENDMDL
