MODEL 1
REMARK minimizedAffinity 22.6112461
REMARK minimizedRMSD -1
REMARK  0 active torsions:
REMARK  status: ('A' for Active; 'I' for Inactive)
ROOT
ATOM      1  O1  BZF d   1      -4.204  -0.577  -0.428  0.00  0.00    -0.204 OA
ATOM      2  C2  BZF d   1      -4.238  -0.787   0.937  0.00  0.00     0.174 A 
ATOM      3  C3  BZF d   1      -3.101  -1.379   1.358  0.00  0.00    -0.012 A 
ATOM      4  C3A BZF d   1      -2.269  -1.465   0.197  0.00  0.00    -0.107 A 
ATOM      5  C4  BZF d   1      -1.009  -1.943  -0.021  0.00  0.00     0.055 A 
ATOM      6  C5  BZF d   1      -0.514  -1.948  -1.287  0.00  0.00    -0.016 A 
ATOM      7  C6  BZF d   1      -1.253  -1.487  -2.357  0.00  0.00     0.022 A 
ATOM      8  C7  BZF d   1      -2.506  -0.999  -2.189  0.00  0.00     0.029 A 
ATOM      9  C7A BZF d   1      -2.997  -0.962  -0.907  0.00  0.00     0.058 A 
ENDROOT
TORSDOF 0
ENDMDL
