MODEL 1
REMARK minimizedAffinity -5.48048401
REMARK minimizedRMSD -1
REMARK  3 active torsions:
REMARK  status: ('A' for Active; 'I' for Inactive)
REMARK    1  A    between atoms: C3'_2  and  C2'_3 
REMARK    2  A    between atoms: C2'_3  and  C1'_4 
REMARK    3  A    between atoms: C1'_4  and  C1_5 
ROOT
ATOM      1  C1  N4B d   1       0.005   0.425  -0.323  0.00  0.00    -0.075 A 
ATOM      2  C2  N4B d   1       0.126  -0.839  -0.940  0.00  0.00     0.002 A 
ATOM      3  C3  N4B d   1       0.949  -0.997  -2.028  0.00  0.00     0.002 A 
ATOM      4  C4  N4B d   1       1.644   0.095  -2.526  0.00  0.00    -0.004 A 
ATOM      5  C5  N4B d   1       1.541   1.308  -1.909  0.00  0.00     0.002 A 
ATOM      6  C6  N4B d   1       0.721   1.479  -0.812  0.00  0.00     0.002 A 
ENDROOT
BRANCH   1   7
ATOM      7  C1' N4B d   1      -0.948   0.666   0.816  0.00  0.00     0.057 C 
BRANCH   7   8
ATOM      8  C2' N4B d   1      -2.175  -0.224   0.638  0.00  0.00     0.009 C 
BRANCH   8   9
ATOM      9  C3' N4B d   1      -3.459   0.501   1.000  0.00  0.00     0.004 C 
ATOM     10  C4' N4B d   1      -3.226   1.922   1.421  0.00  0.00     0.003 C 
ENDBRANCH   8   9
ENDBRANCH   7   8
ENDBRANCH   1   7
TORSDOF 3
ENDMDL
