MODEL 1
REMARK minimizedAffinity -6.14235258
REMARK minimizedRMSD -1
REMARK  3 active torsions:
REMARK  status: ('A' for Active; 'I' for Inactive)
REMARK    1  A    between atoms: C3'_2  and  C2'_3 
REMARK    2  A    between atoms: C2'_3  and  C1'_4 
REMARK    3  A    between atoms: C1'_4  and  C1_5 
ROOT
ATOM      1  C1  N4B d   1       0.016  -0.247  -0.221  0.00  0.00    -0.075 A 
ATOM      2  C2  N4B d   1       0.399   1.108  -0.321  0.00  0.00     0.002 A 
ATOM      3  C3  N4B d   1       1.142   1.534  -1.395  0.00  0.00     0.002 A 
ATOM      4  C4  N4B d   1       1.526   0.623  -2.367  0.00  0.00    -0.004 A 
ATOM      5  C5  N4B d   1       1.130  -0.680  -2.276  0.00  0.00     0.002 A 
ATOM      6  C6  N4B d   1       0.380  -1.121  -1.204  0.00  0.00     0.002 A 
ENDROOT
BRANCH   1   7
ATOM      7  C1' N4B d   1      -0.723  -0.777   0.978  0.00  0.00     0.057 C 
BRANCH   7   8
ATOM      8  C2' N4B d   1      -1.629   0.318   1.532  0.00  0.00     0.009 C 
BRANCH   8   9
ATOM      9  C3' N4B d   1      -3.082   0.106   1.142  0.00  0.00     0.004 C 
ATOM     10  C4' N4B d   1      -4.024   0.979   1.915  0.00  0.00     0.003 C 
ENDBRANCH   8   9
ENDBRANCH   7   8
ENDBRANCH   1   7
TORSDOF 3
ENDMDL
