MODEL 1
REMARK minimizedAffinity -5.96032763
REMARK minimizedRMSD -1
REMARK  3 active torsions:
REMARK  status: ('A' for Active; 'I' for Inactive)
REMARK    1  A    between atoms: C3'_2  and  C2'_3 
REMARK    2  A    between atoms: C2'_3  and  C1'_4 
REMARK    3  A    between atoms: C1'_4  and  C1_5 
ROOT
ATOM      1  C1  N4B d   1       0.051   0.037   0.091  0.00  0.00    -0.075 A 
ATOM      2  C2  N4B d   1       0.845   1.199  -0.024  0.00  0.00     0.002 A 
ATOM      3  C3  N4B d   1       1.663   1.366  -1.114  0.00  0.00     0.002 A 
ATOM      4  C4  N4B d   1       1.718   0.381  -2.088  0.00  0.00    -0.004 A 
ATOM      5  C5  N4B d   1       0.929  -0.727  -1.982  0.00  0.00     0.002 A 
ATOM      6  C6  N4B d   1       0.099  -0.907  -0.894  0.00  0.00     0.002 A 
ENDROOT
BRANCH   1   7
ATOM      7  C1' N4B d   1      -0.794  -0.231   1.307  0.00  0.00     0.057 C 
BRANCH   7   8
ATOM      8  C2' N4B d   1      -2.266  -0.076   0.937  0.00  0.00     0.009 C 
BRANCH   8   9
ATOM      9  C3' N4B d   1      -3.082   0.498   2.083  0.00  0.00     0.004 C 
ATOM     10  C4' N4B d   1      -4.101   1.499   1.626  0.00  0.00     0.003 C 
ENDBRANCH   8   9
ENDBRANCH   7   8
ENDBRANCH   1   7
TORSDOF 3
ENDMDL
