MODEL 1
REMARK minimizedAffinity -3.56513309
REMARK minimizedRMSD -1
REMARK  3 active torsions:
REMARK  status: ('A' for Active; 'I' for Inactive)
REMARK    1  A    between atoms: C3'_2  and  C2'_3 
REMARK    2  A    between atoms: C2'_3  and  C1'_4 
REMARK    3  A    between atoms: C1'_4  and  C1_5 
ROOT
ATOM      1  C1  N4B d   1      -2.121   0.178   2.224  0.00  0.00    -0.075 A 
ATOM      2  C2  N4B d   1      -2.366   1.492   2.681  0.00  0.00     0.002 A 
ATOM      3  C3  N4B d   1      -3.626   2.029   2.583  0.00  0.00     0.002 A 
ATOM      4  C4  N4B d   1      -4.648   1.281   2.017  0.00  0.00    -0.004 A 
ATOM      5  C5  N4B d   1      -4.409   0.004   1.601  0.00  0.00     0.002 A 
ATOM      6  C6  N4B d   1      -3.148  -0.550   1.697  0.00  0.00     0.002 A 
ENDROOT
BRANCH   1   7
ATOM      7  C1' N4B d   1      -0.741  -0.421   2.232  0.00  0.00     0.057 C 
BRANCH   7   8
ATOM      8  C2' N4B d   1      -0.383  -0.870   0.819  0.00  0.00     0.009 C 
BRANCH   8   9
ATOM      9  C3' N4B d   1      -0.000   0.301  -0.070  0.00  0.00     0.004 C 
ATOM     10  C4' N4B d   1       1.089   1.146   0.519  0.00  0.00     0.003 C 
ENDBRANCH   8   9
ENDBRANCH   7   8
ENDBRANCH   1   7
TORSDOF 3
ENDMDL
