MODEL 1
REMARK minimizedAffinity -3.85608721
REMARK minimizedRMSD -1
REMARK  0 active torsions:
REMARK  status: ('A' for Active; 'I' for Inactive)
ROOT
ATOM      1  C   UNL d   1      -0.761   0.738   0.419  0.00  0.00     0.172 C 
ATOM      2  N   UNL d   1      -0.300   0.731   1.788  0.00  0.00    -0.070 N 
ATOM      3  C1  UNL d   1      -1.014   1.164   2.873  0.00  0.00    -0.004 A 
ATOM      4  C2  UNL d   1      -0.229   0.991   3.992  0.00  0.00    -0.047 A 
ATOM      5  C3  UNL d   1       1.001   0.436   3.564  0.00  0.00    -0.047 A 
ATOM      6  C4  UNL d   1       0.929   0.285   2.196  0.00  0.00    -0.004 A 
ENDROOT
TORSDOF 0
ENDMDL
