MODEL 1
REMARK minimizedAffinity -3.7631588
REMARK minimizedRMSD -1
REMARK  0 active torsions:
REMARK  status: ('A' for Active; 'I' for Inactive)
ROOT
ATOM      1  C   UNL d   1       0.125  -0.141  -1.182  0.00  0.00     0.172 C 
ATOM      2  N   UNL d   1      -0.300   0.261   0.138  0.00  0.00    -0.070 N 
ATOM      3  C1  UNL d   1       0.500   0.818   1.099  0.00  0.00    -0.004 A 
ATOM      4  C2  UNL d   1      -0.279   1.056   2.211  0.00  0.00    -0.047 A 
ATOM      5  C3  UNL d   1      -1.593   0.626   1.907  0.00  0.00    -0.047 A 
ATOM      6  C4  UNL d   1      -1.578   0.138   0.618  0.00  0.00    -0.004 A 
ENDROOT
TORSDOF 0
ENDMDL
