MODEL 1
REMARK minimizedAffinity -4.12791348
REMARK minimizedRMSD -1
REMARK  0 active torsions:
REMARK  status: ('A' for Active; 'I' for Inactive)
ROOT
ATOM      1  C   UNL d   1       0.665  -0.323  -0.617  0.00  0.00     0.172 C 
ATOM      2  N   UNL d   1       0.008   0.193   0.561  0.00  0.00    -0.070 N 
ATOM      3  C1  UNL d   1       0.635   0.685   1.674  0.00  0.00    -0.004 A 
ATOM      4  C2  UNL d   1      -0.338   1.075   2.569  0.00  0.00    -0.047 A 
ATOM      5  C3  UNL d   1      -1.593   0.807   1.973  0.00  0.00    -0.047 A 
ATOM      6  C4  UNL d   1      -1.350   0.262   0.731  0.00  0.00    -0.004 A 
ENDROOT
TORSDOF 0
ENDMDL
