MODEL 1
REMARK minimizedAffinity -2.69428468
REMARK minimizedRMSD -1
REMARK  0 active torsions:
REMARK  status: ('A' for Active; 'I' for Inactive)
ROOT
ATOM      1  C   UNL d   1       0.884  -1.342  -1.288  0.00  0.00     0.172 C 
ATOM      2  N   UNL d   1       0.798  -0.604  -2.527  0.00  0.00    -0.070 N 
ATOM      3  C1  UNL d   1      -0.306  -0.520  -3.332  0.00  0.00    -0.004 A 
ATOM      4  C2  UNL d   1       0.017   0.274  -4.411  0.00  0.00    -0.047 A 
ATOM      5  C3  UNL d   1       1.363   0.681  -4.249  0.00  0.00    -0.047 A 
ATOM      6  C4  UNL d   1       1.822   0.123  -3.074  0.00  0.00    -0.004 A 
ENDROOT
TORSDOF 0
ENDMDL
