MODEL 1
REMARK minimizedAffinity -2.38482571
REMARK minimizedRMSD -1
REMARK  0 active torsions:
REMARK  status: ('A' for Active; 'I' for Inactive)
ROOT
ATOM      1  C   UNL d   1       0.662  -0.445  -1.545  0.00  0.00     0.172 C 
ATOM      2  N   UNL d   1      -0.028  -0.019  -0.351  0.00  0.00    -0.070 N 
ATOM      3  C1  UNL d   1      -1.337  -0.286  -0.047  0.00  0.00    -0.004 A 
ATOM      4  C2  UNL d   1      -1.613   0.291   1.174  0.00  0.00    -0.047 A 
ATOM      5  C3  UNL d   1      -0.430   0.928   1.618  0.00  0.00    -0.047 A 
ATOM      6  C4  UNL d   1       0.535   0.720   0.655  0.00  0.00    -0.004 A 
ENDROOT
TORSDOF 0
ENDMDL
