MODEL 1
REMARK minimizedAffinity -3.54169869
REMARK minimizedRMSD -1
REMARK  0 active torsions:
REMARK  status: ('A' for Active; 'I' for Inactive)
ROOT
ATOM      1  C   UNL d   1      -0.070   0.200  -0.161  0.00  0.00     0.172 C 
ATOM      2  N   UNL d   1      -0.060   0.388   1.271  0.00  0.00    -0.070 N 
ATOM      3  C1  UNL d   1       1.050   0.357   2.073  0.00  0.00    -0.004 A 
ATOM      4  C2  UNL d   1       0.640   0.579   3.370  0.00  0.00    -0.047 A 
ATOM      5  C3  UNL d   1      -0.765   0.749   3.347  0.00  0.00    -0.047 A 
ATOM      6  C4  UNL d   1      -1.172   0.626   2.035  0.00  0.00    -0.004 A 
ENDROOT
TORSDOF 0
ENDMDL
