MODEL 1
REMARK minimizedAffinity -3.05303717
REMARK minimizedRMSD -1
REMARK  0 active torsions:
REMARK  status: ('A' for Active; 'I' for Inactive)
ROOT
ATOM      1  C   UNL d   1       1.075  -0.416   0.546  0.00  0.00     0.172 C 
ATOM      2  N   UNL d   1       0.334   0.055   1.692  0.00  0.00    -0.070 N 
ATOM      3  C1  UNL d   1       0.661  -0.171   3.002  0.00  0.00    -0.004 A 
ATOM      4  C2  UNL d   1      -0.292   0.443   3.787  0.00  0.00    -0.047 A 
ATOM      5  C3  UNL d   1      -1.224   1.058   2.918  0.00  0.00    -0.047 A 
ATOM      6  C4  UNL d   1      -0.812   0.803   1.627  0.00  0.00    -0.004 A 
ENDROOT
TORSDOF 0
ENDMDL
