MODEL 1
REMARK minimizedAffinity -2.26333809
REMARK minimizedRMSD -1
REMARK  0 active torsions:
REMARK  status: ('A' for Active; 'I' for Inactive)
ROOT
ATOM      1  C   UNL d   1      -1.316   1.082   2.269  0.00  0.00     0.172 C 
ATOM      2  N   UNL d   1      -0.590   0.568   1.131  0.00  0.00    -0.070 N 
ATOM      3  C1  UNL d   1      -1.151   0.066  -0.013  0.00  0.00    -0.004 A 
ATOM      4  C2  UNL d   1      -0.126  -0.318  -0.851  0.00  0.00    -0.047 A 
ATOM      5  C3  UNL d   1       1.092  -0.039  -0.187  0.00  0.00    -0.047 A 
ATOM      6  C4  UNL d   1       0.775   0.509   1.038  0.00  0.00    -0.004 A 
ENDROOT
TORSDOF 0
ENDMDL
