MODEL 1
REMARK minimizedAffinity -2.56009436
REMARK minimizedRMSD -1
REMARK  0 active torsions:
REMARK  status: ('A' for Active; 'I' for Inactive)
ROOT
ATOM      1  C   UNL d   1      -1.312   0.921   2.538  0.00  0.00     0.172 C 
ATOM      2  N   UNL d   1      -0.589   0.292   1.458  0.00  0.00    -0.070 N 
ATOM      3  C1  UNL d   1       0.747  -0.010   1.460  0.00  0.00    -0.004 A 
ATOM      4  C2  UNL d   1       1.049  -0.599   0.252  0.00  0.00    -0.047 A 
ATOM      5  C3  UNL d   1      -0.146  -0.651  -0.504  0.00  0.00    -0.047 A 
ATOM      6  C4  UNL d   1      -1.144  -0.093   0.266  0.00  0.00    -0.004 A 
ENDROOT
TORSDOF 0
ENDMDL
