MODEL 1
REMARK minimizedAffinity 8.63863659
REMARK minimizedRMSD -1
REMARK  1 active torsions:
REMARK  status: ('A' for Active; 'I' for Inactive)
REMARK    1  A    between atoms: C1_2  and  C2_3 
ROOT
ATOM      1  C2  UNL d   1       0.127   4.896  -0.752  0.00  0.00    -0.076 A 
ATOM      2  C3  UNL d   1      -0.739   3.839  -0.422  0.00  0.00     0.004 A 
ATOM      3  C4  UNL d   1      -0.311   2.785   0.383  0.00  0.00    -0.003 A 
ATOM      4  C5  UNL d   1       0.990   2.771   0.872  0.00  0.00     0.000 A 
ATOM      5  C6  UNL d   1       1.858   3.820   0.570  0.00  0.00     0.000 A 
ATOM      6  C7  UNL d   1       1.437   4.898  -0.227  0.00  0.00    -0.073 A 
ATOM      7  C8  UNL d   1       2.417   6.000  -0.526  0.00  0.00     0.078 C 
ENDROOT
BRANCH   1   8
ATOM      8  C1  UNL d   1      -0.384   5.998  -1.651  0.00  0.00     0.053 C 
ATOM      9  C   UNL d   1      -1.593   5.570  -2.468  0.00  0.00     0.018 C 
ENDBRANCH   1   8
TORSDOF 1
ENDMDL
