MODEL 1
REMARK minimizedAffinity 21.0710068
REMARK minimizedRMSD -1
REMARK  1 active torsions:
REMARK  status: ('A' for Active; 'I' for Inactive)
REMARK    1  A    between atoms: C1_2  and  C2_3 
ROOT
ATOM      1  C2  UNL d   1      -0.114   4.031  -0.696  0.00  0.00    -0.076 A 
ATOM      2  C3  UNL d   1      -0.737   5.011   0.097  0.00  0.00     0.004 A 
ATOM      3  C4  UNL d   1      -1.554   5.984  -0.475  0.00  0.00    -0.003 A 
ATOM      4  C5  UNL d   1      -1.762   5.994  -1.850  0.00  0.00     0.000 A 
ATOM      5  C6  UNL d   1      -1.167   5.019  -2.650  0.00  0.00     0.000 A 
ATOM      6  C7  UNL d   1      -0.353   4.021  -2.087  0.00  0.00    -0.073 A 
ATOM      7  C8  UNL d   1       0.269   2.998  -2.997  0.00  0.00     0.078 C 
ENDROOT
BRANCH   1   8
ATOM      8  C1  UNL d   1       0.783   3.017  -0.022  0.00  0.00     0.053 C 
ATOM      9  C   UNL d   1       0.218   2.528   1.302  0.00  0.00     0.018 C 
ENDBRANCH   1   8
TORSDOF 1
ENDMDL
