MODEL 1
REMARK minimizedAffinity 9.44993877
REMARK minimizedRMSD -1
REMARK  1 active torsions:
REMARK  status: ('A' for Active; 'I' for Inactive)
REMARK    1  A    between atoms: C1_2  and  C2_3 
ROOT
ATOM      1  C2  UNL d   1      -3.647   4.102  -2.576  0.00  0.00    -0.076 A 
ATOM      2  C3  UNL d   1      -3.672   4.399  -3.950  0.00  0.00     0.004 A 
ATOM      3  C4  UNL d   1      -4.834   4.227  -4.700  0.00  0.00    -0.003 A 
ATOM      4  C5  UNL d   1      -5.990   3.756  -4.089  0.00  0.00     0.000 A 
ATOM      5  C6  UNL d   1      -5.989   3.472  -2.724  0.00  0.00     0.000 A 
ATOM      6  C7  UNL d   1      -4.830   3.655  -1.949  0.00  0.00    -0.073 A 
ATOM      7  C8  UNL d   1      -4.883   3.328  -0.482  0.00  0.00     0.078 C 
ENDROOT
BRANCH   1   8
ATOM      8  C1  UNL d   1      -2.351   4.282  -1.820  0.00  0.00     0.053 C 
ATOM      9  C   UNL d   1      -1.348   5.138  -2.577  0.00  0.00     0.018 C 
ENDBRANCH   1   8
TORSDOF 1
ENDMDL
