MODEL 1
REMARK minimizedAffinity 12.2323952
REMARK minimizedRMSD -1
REMARK  1 active torsions:
REMARK  status: ('A' for Active; 'I' for Inactive)
REMARK    1  A    between atoms: C1_2  and  C2_3 
ROOT
ATOM      1  C2  UNL d   1      -4.624   4.153  -2.888  0.00  0.00    -0.076 A 
ATOM      2  C3  UNL d   1      -4.396   4.296  -4.268  0.00  0.00     0.004 A 
ATOM      3  C4  UNL d   1      -4.953   3.404  -5.183  0.00  0.00    -0.003 A 
ATOM      4  C5  UNL d   1      -5.748   2.355  -4.733  0.00  0.00     0.000 A 
ATOM      5  C6  UNL d   1      -5.998   2.209  -3.369  0.00  0.00     0.000 A 
ATOM      6  C7  UNL d   1      -5.457   3.109  -2.435  0.00  0.00    -0.073 A 
ATOM      7  C8  UNL d   1      -5.755   2.900  -0.975  0.00  0.00     0.078 C 
ENDROOT
BRANCH   1   8
ATOM      8  C1  UNL d   1      -3.971   5.135  -1.942  0.00  0.00     0.053 C 
ATOM      9  C   UNL d   1      -2.461   5.194  -2.113  0.00  0.00     0.018 C 
ENDBRANCH   1   8
TORSDOF 1
ENDMDL
