MODEL 1
REMARK minimizedAffinity -1.31057692
REMARK minimizedRMSD -1
REMARK  0 active torsions:
REMARK  status: ('A' for Active; 'I' for Inactive)
ROOT
ATOM      1  C1  DEN d   1       2.802   1.901   5.991  0.00  0.00     0.130 A 
ATOM      2  C2  DEN d   1       4.180   1.573   5.635  0.00  0.00    -0.031 A 
ATOM      3  C3  DEN d   1       4.861   2.824   5.248  0.00  0.00     0.027 A 
ATOM      4  C4  DEN d   1       3.923   5.225   5.170  0.00  0.00     0.027 A 
ATOM      5  C5  DEN d   1       2.802   6.000   5.372  0.00  0.00    -0.003 A 
ATOM      6  C6  DEN d   1       1.603   5.462   5.759  0.00  0.00     0.001 A 
ATOM      7  C7  DEN d   1       1.509   4.117   6.000  0.00  0.00     0.017 A 
ATOM      8  C8  DEN d   1       2.633   3.329   5.791  0.00  0.00    -0.094 A 
ATOM      9  C9  DEN d   1       3.839   3.893   5.412  0.00  0.00    -0.072 A 
ENDROOT
TORSDOF 0
ENDMDL
