MODEL 1
REMARK minimizedAffinity 9.0010519
REMARK minimizedRMSD -1
REMARK  0 active torsions:
REMARK  status: ('A' for Active; 'I' for Inactive)
ROOT
ATOM      1  C1  DEN d   1       2.560   2.179   5.999  0.00  0.00     0.130 A 
ATOM      2  C2  DEN d   1       3.189   0.861   5.999  0.00  0.00    -0.031 A 
ATOM      3  C3  DEN d   1       4.653   1.054   5.974  0.00  0.00     0.027 A 
ATOM      4  C4  DEN d   1       5.999   3.253   5.940  0.00  0.00     0.027 A 
ATOM      5  C5  DEN d   1       5.905   4.627   5.920  0.00  0.00    -0.003 A 
ATOM      6  C6  DEN d   1       4.698   5.276   5.891  0.00  0.00     0.001 A 
ATOM      7  C7  DEN d   1       3.537   4.550   5.927  0.00  0.00     0.017 A 
ATOM      8  C8  DEN d   1       3.624   3.164   5.939  0.00  0.00    -0.094 A 
ATOM      9  C9  DEN d   1       4.853   2.528   5.981  0.00  0.00    -0.072 A 
ENDROOT
TORSDOF 0
ENDMDL
