MODEL 1
REMARK minimizedAffinity 0.261675328
REMARK minimizedRMSD -1
REMARK  0 active torsions:
REMARK  status: ('A' for Active; 'I' for Inactive)
ROOT
ATOM      1  C1  DEN d   1       1.789   3.543   5.999  0.00  0.00     0.130 A 
ATOM      2  C2  DEN d   1       1.993   4.982   5.864  0.00  0.00    -0.031 A 
ATOM      3  C3  DEN d   1       3.438   5.223   5.677  0.00  0.00     0.027 A 
ATOM      4  C4  DEN d   1       5.368   3.515   5.579  0.00  0.00     0.027 A 
ATOM      5  C5  DEN d   1       5.689   2.178   5.656  0.00  0.00    -0.003 A 
ATOM      6  C6  DEN d   1       4.744   1.212   5.885  0.00  0.00     0.001 A 
ATOM      7  C7  DEN d   1       3.426   1.567   6.000  0.00  0.00     0.017 A 
ATOM      8  C8  DEN d   1       3.096   2.914   5.931  0.00  0.00    -0.094 A 
ATOM      9  C9  DEN d   1       4.064   3.873   5.686  0.00  0.00    -0.072 A 
ENDROOT
TORSDOF 0
ENDMDL
