MODEL 1
REMARK minimizedAffinity 5.48019648
REMARK minimizedRMSD -1
REMARK  0 active torsions:
REMARK  status: ('A' for Active; 'I' for Inactive)
ROOT
ATOM      1  C2' OXE d   1       2.213   3.660  -1.514  0.00  0.00     0.078 C 
ATOM      2  C1' OXE d   1       0.647   2.506  -3.538  0.00  0.00     0.078 C 
ATOM      3  C1  OXE d   1       0.964   1.664  -2.328  0.00  0.00    -0.078 A 
ATOM      4  C2  OXE d   1       1.769   2.221  -1.364  0.00  0.00    -0.078 A 
ATOM      5  C3  OXE d   1       2.047   1.507  -0.201  0.00  0.00     0.003 A 
ATOM      6  C4  OXE d   1       1.641   0.173  -0.074  0.00  0.00    -0.002 A 
ATOM      7  C5  OXE d   1       0.853  -0.426  -1.063  0.00  0.00    -0.002 A 
ATOM      8  C6  OXE d   1       0.471   0.318  -2.173  0.00  0.00     0.003 A 
ENDROOT
TORSDOF 0
ENDMDL
