MODEL 1
REMARK minimizedAffinity -6.35277319
REMARK minimizedRMSD -1
REMARK  0 active torsions:
REMARK  status: ('A' for Active; 'I' for Inactive)
ROOT
ATOM      1  C2' OXE d   1       0.593   0.852   1.658  0.00  0.00     0.078 C 
ATOM      2  C1' OXE d   1       0.677  -0.167  -0.956  0.00  0.00     0.078 C 
ATOM      3  C1  OXE d   1       0.905   1.312  -0.771  0.00  0.00    -0.078 A 
ATOM      4  C2  OXE d   1       0.816   1.810   0.507  0.00  0.00    -0.078 A 
ATOM      5  C3  OXE d   1       1.072   3.158   0.741  0.00  0.00     0.003 A 
ATOM      6  C4  OXE d   1       1.267   4.039  -0.330  0.00  0.00    -0.002 A 
ATOM      7  C5  OXE d   1       1.322   3.559  -1.643  0.00  0.00    -0.002 A 
ATOM      8  C6  OXE d   1       1.185   2.195  -1.876  0.00  0.00     0.003 A 
ENDROOT
TORSDOF 0
ENDMDL
