MODEL 1
REMARK minimizedAffinity 0.995103419
REMARK minimizedRMSD -1
REMARK  0 active torsions:
REMARK  status: ('A' for Active; 'I' for Inactive)
ROOT
ATOM      1  C2' OXE d   1       1.462  -0.308  -0.805  0.00  0.00     0.078 C 
ATOM      2  C1' OXE d   1       2.753  -2.773  -0.431  0.00  0.00     0.078 C 
ATOM      3  C1  OXE d   1       1.343  -2.791  -0.965  0.00  0.00    -0.078 A 
ATOM      4  C2  OXE d   1       0.702  -1.583  -1.101  0.00  0.00    -0.078 A 
ATOM      5  C3  OXE d   1      -0.580  -1.540  -1.641  0.00  0.00     0.003 A 
ATOM      6  C4  OXE d   1      -1.279  -2.724  -1.903  0.00  0.00    -0.002 A 
ATOM      7  C5  OXE d   1      -0.659  -3.967  -1.734  0.00  0.00    -0.002 A 
ATOM      8  C6  OXE d   1       0.663  -4.016  -1.308  0.00  0.00     0.003 A 
ENDROOT
TORSDOF 0
ENDMDL
