MODEL 1
REMARK minimizedAffinity -2.3047123
REMARK minimizedRMSD -1
REMARK  0 active torsions:
REMARK  status: ('A' for Active; 'I' for Inactive)
ROOT
ATOM      1  C2' OXE d   1       0.891  -0.411  -0.817  0.00  0.00     0.078 C 
ATOM      2  C1' OXE d   1       1.326   1.038   1.547  0.00  0.00     0.078 C 
ATOM      3  C1  OXE d   1       1.237   1.811   0.255  0.00  0.00    -0.078 A 
ATOM      4  C2  OXE d   1       1.070   1.089  -0.903  0.00  0.00    -0.078 A 
ATOM      5  C3  OXE d   1       0.927   1.756  -2.116  0.00  0.00     0.003 A 
ATOM      6  C4  OXE d   1       1.104   3.143  -2.188  0.00  0.00    -0.002 A 
ATOM      7  C5  OXE d   1       1.315   3.893  -1.025  0.00  0.00    -0.002 A 
ATOM      8  C6  OXE d   1       1.341   3.248   0.206  0.00  0.00     0.003 A 
ENDROOT
TORSDOF 0
ENDMDL
