MODEL 1
REMARK minimizedAffinity -1.92318296
REMARK minimizedRMSD -1
REMARK  0 active torsions:
REMARK  status: ('A' for Active; 'I' for Inactive)
ROOT
ATOM      1  C2' OXE d   1       0.873  -0.331  -0.674  0.00  0.00     0.078 C 
ATOM      2  C1' OXE d   1       1.360   1.257   1.589  0.00  0.00     0.078 C 
ATOM      3  C1  OXE d   1       1.396   1.928   0.239  0.00  0.00    -0.078 A 
ATOM      4  C2  OXE d   1       1.203   1.134  -0.866  0.00  0.00    -0.078 A 
ATOM      5  C3  OXE d   1       1.172   1.711  -2.133  0.00  0.00     0.003 A 
ATOM      6  C4  OXE d   1       1.488   3.064  -2.303  0.00  0.00    -0.002 A 
ATOM      7  C5  OXE d   1       1.727   3.882  -1.194  0.00  0.00    -0.002 A 
ATOM      8  C6  OXE d   1       1.643   3.340   0.084  0.00  0.00     0.003 A 
ENDROOT
TORSDOF 0
ENDMDL
