MODEL 1
REMARK minimizedAffinity 0.857838809
REMARK minimizedRMSD -1
REMARK  0 active torsions:
REMARK  status: ('A' for Active; 'I' for Inactive)
ROOT
ATOM      1  C2' OXE d   1       1.318   3.989  -0.940  0.00  0.00     0.078 C 
ATOM      2  C1' OXE d   1       1.334   2.108  -3.023  0.00  0.00     0.078 C 
ATOM      3  C1  OXE d   1       1.251   1.590  -1.609  0.00  0.00    -0.078 A 
ATOM      4  C2  OXE d   1       1.291   2.516  -0.594  0.00  0.00    -0.078 A 
ATOM      5  C3  OXE d   1       1.164   2.096   0.727  0.00  0.00     0.003 A 
ATOM      6  C4  OXE d   1       1.149   0.731   1.039  0.00  0.00    -0.002 A 
ATOM      7  C5  OXE d   1       1.148  -0.229   0.022  0.00  0.00    -0.002 A 
ATOM      8  C6  OXE d   1       1.155   0.184  -1.306  0.00  0.00     0.003 A 
ENDROOT
TORSDOF 0
ENDMDL
