MODEL 1
REMARK minimizedAffinity 11.4988136
REMARK minimizedRMSD -1
REMARK  0 active torsions:
REMARK  status: ('A' for Active; 'I' for Inactive)
ROOT
ATOM      1  C2' OXE d   1       1.715   3.800  -1.418  0.00  0.00     0.078 C 
ATOM      2  C1' OXE d   1       0.303   2.288  -3.315  0.00  0.00     0.078 C 
ATOM      3  C1  OXE d   1       0.934   1.553  -2.158  0.00  0.00    -0.078 A 
ATOM      4  C2  OXE d   1       1.663   2.296  -1.260  0.00  0.00    -0.078 A 
ATOM      5  C3  OXE d   1       2.220   1.676  -0.145  0.00  0.00     0.003 A 
ATOM      6  C4  OXE d   1       2.175   0.283  -0.012  0.00  0.00    -0.002 A 
ATOM      7  C5  OXE d   1       1.472  -0.496  -0.936  0.00  0.00    -0.002 A 
ATOM      8  C6  OXE d   1       0.811   0.127  -1.990  0.00  0.00     0.003 A 
ENDROOT
TORSDOF 0
ENDMDL
