MODEL 1
REMARK minimizedAffinity 8.99416733
REMARK minimizedRMSD -1
REMARK  0 active torsions:
REMARK  status: ('A' for Active; 'I' for Inactive)
ROOT
ATOM      1  C2' OXE d   1       1.610   1.192   1.114  0.00  0.00     0.078 C 
ATOM      2  C1' OXE d   1       0.669   0.565  -1.455  0.00  0.00     0.078 C 
ATOM      3  C1  OXE d   1      -0.264   1.298  -0.524  0.00  0.00    -0.078 A 
ATOM      4  C2  OXE d   1       0.189   1.560   0.747  0.00  0.00    -0.078 A 
ATOM      5  C3  OXE d   1      -0.611   2.282   1.628  0.00  0.00     0.003 A 
ATOM      6  C4  OXE d   1      -1.928   2.609   1.284  0.00  0.00    -0.002 A 
ATOM      7  C5  OXE d   1      -2.423   2.317   0.009  0.00  0.00    -0.002 A 
ATOM      8  C6  OXE d   1      -1.591   1.701  -0.920  0.00  0.00     0.003 A 
ENDROOT
TORSDOF 0
ENDMDL
