MODEL 1
REMARK minimizedAffinity -1.5770365
REMARK minimizedRMSD -1
REMARK  0 active torsions:
REMARK  status: ('A' for Active; 'I' for Inactive)
ROOT
ATOM      1  C2' OXE d   1       1.231   3.350   1.320  0.00  0.00     0.078 C 
ATOM      2  C1' OXE d   1       1.420   3.849  -1.436  0.00  0.00     0.078 C 
ATOM      3  C1  OXE d   1       1.266   2.417  -0.990  0.00  0.00    -0.078 A 
ATOM      4  C2  OXE d   1       1.221   2.178   0.363  0.00  0.00    -0.078 A 
ATOM      5  C3  OXE d   1       1.025   0.880   0.827  0.00  0.00     0.003 A 
ATOM      6  C4  OXE d   1       1.028  -0.200  -0.064  0.00  0.00    -0.002 A 
ATOM      7  C5  OXE d   1       1.113   0.019  -1.444  0.00  0.00    -0.002 A 
ATOM      8  C6  OXE d   1       1.189   1.321  -1.924  0.00  0.00     0.003 A 
ENDROOT
TORSDOF 0
ENDMDL
