MODEL 1
REMARK minimizedAffinity -1.90608394
REMARK minimizedRMSD -1
REMARK  0 active torsions:
REMARK  status: ('A' for Active; 'I' for Inactive)
ROOT
ATOM      1  C2' OXE d   1       0.818   1.829   1.605  0.00  0.00     0.078 C 
ATOM      2  C1' OXE d   1       1.048   0.006  -0.516  0.00  0.00     0.078 C 
ATOM      3  C1  OXE d   1       1.285   1.465  -0.814  0.00  0.00    -0.078 A 
ATOM      4  C2  OXE d   1       1.124   2.356   0.220  0.00  0.00    -0.078 A 
ATOM      5  C3  OXE d   1       1.383   3.708   0.012  0.00  0.00     0.003 A 
ATOM      6  C4  OXE d   1       1.656   4.187  -1.275  0.00  0.00    -0.002 A 
ATOM      7  C5  OXE d   1       1.784   3.302  -2.350  0.00  0.00    -0.002 A 
ATOM      8  C6  OXE d   1       1.644   1.936  -2.129  0.00  0.00     0.003 A 
ENDROOT
TORSDOF 0
ENDMDL
