MODEL 1
REMARK minimizedAffinity 3.58811188
REMARK minimizedRMSD -1
REMARK  0 active torsions:
REMARK  status: ('A' for Active; 'I' for Inactive)
ROOT
ATOM      1  C2' OXE d   1       1.485   0.256  -0.692  0.00  0.00     0.078 C 
ATOM      2  C1' OXE d   1       1.661   1.861   1.604  0.00  0.00     0.078 C 
ATOM      3  C1  OXE d   1       1.581   2.553   0.266  0.00  0.00    -0.078 A 
ATOM      4  C2  OXE d   1       1.542   1.760  -0.855  0.00  0.00    -0.078 A 
ATOM      5  C3  OXE d   1       1.413   2.346  -2.111  0.00  0.00     0.003 A 
ATOM      6  C4  OXE d   1       1.477   3.738  -2.253  0.00  0.00    -0.002 A 
ATOM      7  C5  OXE d   1       1.557   4.564  -1.127  0.00  0.00    -0.002 A 
ATOM      8  C6  OXE d   1       1.567   3.990   0.140  0.00  0.00     0.003 A 
ENDROOT
TORSDOF 0
ENDMDL
