MODEL 1
REMARK minimizedAffinity -2.6010437
REMARK minimizedRMSD -1
REMARK  0 active torsions:
REMARK  status: ('A' for Active; 'I' for Inactive)
ROOT
ATOM      1  C2' OXE d   1       1.901   5.243  -0.945  0.00  0.00     0.078 C 
ATOM      2  C1' OXE d   1       1.695   4.390   1.721  0.00  0.00     0.078 C 
ATOM      3  C1  OXE d   1       1.565   3.349   0.637  0.00  0.00    -0.078 A 
ATOM      4  C2  OXE d   1       1.620   3.783  -0.666  0.00  0.00    -0.078 A 
ATOM      5  C3  OXE d   1       1.560   2.857  -1.703  0.00  0.00     0.003 A 
ATOM      6  C4  OXE d   1       1.289   1.509  -1.436  0.00  0.00    -0.002 A 
ATOM      7  C5  OXE d   1       1.190   1.053  -0.118  0.00  0.00    -0.002 A 
ATOM      8  C6  OXE d   1       1.367   1.951   0.929  0.00  0.00     0.003 A 
ENDROOT
TORSDOF 0
ENDMDL
