MODEL 1
REMARK minimizedAffinity 3.26656675
REMARK minimizedRMSD -1
REMARK  0 active torsions:
REMARK  status: ('A' for Active; 'I' for Inactive)
ROOT
ATOM      1  C2' OXE d   1       3.308  -0.286  -0.021  0.00  0.00     0.078 C 
ATOM      2  C1' OXE d   1       2.852   1.677   1.934  0.00  0.00     0.078 C 
ATOM      3  C1  OXE d   1       2.234   1.882   0.573  0.00  0.00    -0.078 A 
ATOM      4  C2  OXE d   1       2.500   0.940  -0.391  0.00  0.00    -0.078 A 
ATOM      5  C3  OXE d   1       1.911   1.053  -1.647  0.00  0.00     0.003 A 
ATOM      6  C4  OXE d   1       1.174   2.195  -1.984  0.00  0.00    -0.002 A 
ATOM      7  C5  OXE d   1       0.923   3.186  -1.028  0.00  0.00    -0.002 A 
ATOM      8  C6  OXE d   1       1.409   3.024   0.265  0.00  0.00     0.003 A 
ENDROOT
TORSDOF 0
ENDMDL
