MODEL 1
REMARK minimizedAffinity -2.42823482
REMARK minimizedRMSD -1
REMARK  0 active torsions:
REMARK  status: ('A' for Active; 'I' for Inactive)
ROOT
ATOM      1  C2' OXE d   1       1.121   4.448  -1.132  0.00  0.00     0.078 C 
ATOM      2  C1' OXE d   1       1.010   3.428   1.481  0.00  0.00     0.078 C 
ATOM      3  C1  OXE d   1       1.193   2.447   0.350  0.00  0.00    -0.078 A 
ATOM      4  C2  OXE d   1       1.199   2.950  -0.929  0.00  0.00    -0.078 A 
ATOM      5  C3  OXE d   1       1.420   2.095  -2.005  0.00  0.00     0.003 A 
ATOM      6  C4  OXE d   1       1.481   0.710  -1.809  0.00  0.00    -0.002 A 
ATOM      7  C5  OXE d   1       1.437   0.173  -0.518  0.00  0.00    -0.002 A 
ATOM      8  C6  OXE d   1       1.336   1.029   0.573  0.00  0.00     0.003 A 
ENDROOT
TORSDOF 0
ENDMDL
