MODEL 1
REMARK minimizedAffinity 3.80132699
REMARK minimizedRMSD -1
REMARK  0 active torsions:
REMARK  status: ('A' for Active; 'I' for Inactive)
ROOT
ATOM      1  C2' OXE d   1       0.798  -0.143  -2.685  0.00  0.00     0.078 C 
ATOM      2  C1' OXE d   1       0.244   2.598  -2.439  0.00  0.00     0.078 C 
ATOM      3  C1  OXE d   1       0.785   1.878  -1.229  0.00  0.00    -0.078 A 
ATOM      4  C2  OXE d   1       1.009   0.527  -1.345  0.00  0.00    -0.078 A 
ATOM      5  C3  OXE d   1       1.559  -0.174  -0.276  0.00  0.00     0.003 A 
ATOM      6  C4  OXE d   1       1.741   0.451   0.964  0.00  0.00    -0.002 A 
ATOM      7  C5  OXE d   1       1.482   1.817   1.115  0.00  0.00    -0.002 A 
ATOM      8  C6  OXE d   1       1.044   2.553   0.019  0.00  0.00     0.003 A 
ENDROOT
TORSDOF 0
ENDMDL
