MODEL 1
REMARK minimizedAffinity -0.728108346
REMARK minimizedRMSD -1
REMARK  0 active torsions:
REMARK  status: ('A' for Active; 'I' for Inactive)
ROOT
ATOM      1  C2' OXE d   1       0.937   3.215   1.345  0.00  0.00     0.078 C 
ATOM      2  C1' OXE d   1       2.118   0.808   2.176  0.00  0.00     0.078 C 
ATOM      3  C1  OXE d   1       1.540   0.864   0.784  0.00  0.00    -0.078 A 
ATOM      4  C2  OXE d   1       0.922   2.031   0.403  0.00  0.00    -0.078 A 
ATOM      5  C3  OXE d   1       0.421   2.154  -0.890  0.00  0.00     0.003 A 
ATOM      6  C4  OXE d   1       0.402   1.051  -1.752  0.00  0.00    -0.002 A 
ATOM      7  C5  OXE d   1       0.991  -0.159  -1.368  0.00  0.00    -0.002 A 
ATOM      8  C6  OXE d   1       1.600  -0.256  -0.122  0.00  0.00     0.003 A 
ENDROOT
TORSDOF 0
ENDMDL
