MODEL 1
REMARK minimizedAffinity 4.87987566
REMARK minimizedRMSD -1
REMARK  0 active torsions:
REMARK  status: ('A' for Active; 'I' for Inactive)
ROOT
ATOM      1  C2' OXE d   1       1.270   4.157  -0.847  0.00  0.00     0.078 C 
ATOM      2  C1' OXE d   1      -0.245   2.969  -2.890  0.00  0.00     0.078 C 
ATOM      3  C1  OXE d   1       0.433   2.059  -1.897  0.00  0.00    -0.078 A 
ATOM      4  C2  OXE d   1       1.210   2.647  -0.928  0.00  0.00    -0.078 A 
ATOM      5  C3  OXE d   1       1.814   1.856   0.046  0.00  0.00     0.003 A 
ATOM      6  C4  OXE d   1       1.762   0.460  -0.042  0.00  0.00    -0.002 A 
ATOM      7  C5  OXE d   1       1.009  -0.161  -1.045  0.00  0.00    -0.002 A 
ATOM      8  C6  OXE d   1       0.305   0.623  -1.952  0.00  0.00     0.003 A 
ENDROOT
TORSDOF 0
ENDMDL
