MODEL 1
REMARK minimizedAffinity 6.15517998
REMARK minimizedRMSD -1
REMARK  0 active torsions:
REMARK  status: ('A' for Active; 'I' for Inactive)
ROOT
ATOM      1  C2' OXE d   1      -0.770   3.215  -2.840  0.00  0.00     0.078 C 
ATOM      2  C1' OXE d   1       0.939   4.200  -0.842  0.00  0.00     0.078 C 
ATOM      3  C1  OXE d   1       1.015   2.730  -1.171  0.00  0.00    -0.078 A 
ATOM      4  C2  OXE d   1       0.143   2.248  -2.117  0.00  0.00    -0.078 A 
ATOM      5  C3  OXE d   1       0.209   0.910  -2.497  0.00  0.00     0.003 A 
ATOM      6  C4  OXE d   1       1.048   0.021  -1.817  0.00  0.00    -0.002 A 
ATOM      7  C5  OXE d   1       1.917   0.483  -0.823  0.00  0.00    -0.002 A 
ATOM      8  C6  OXE d   1       1.943   1.840  -0.518  0.00  0.00     0.003 A 
ENDROOT
TORSDOF 0
ENDMDL
