MODEL 1
REMARK minimizedAffinity -2.59049153
REMARK minimizedRMSD -1
REMARK  0 active torsions:
REMARK  status: ('A' for Active; 'I' for Inactive)
ROOT
ATOM      1  C   UNL d   1      -2.852  -1.287   3.518  0.00  0.00    -0.002 A 
ATOM      2  C1  UNL d   1      -1.990  -2.291   3.102  0.00  0.00     0.010 A 
ATOM      3  C2  UNL d   1      -1.145  -2.093   2.008  0.00  0.00     0.041 A 
ATOM      4  C3  UNL d   1      -1.181  -0.857   1.334  0.00  0.00    -0.075 A 
ATOM      5  S   UNL d   1      -0.236  -0.389  -0.031  0.00  0.00     0.015 SA
ATOM      6  C4  UNL d   1      -0.955   1.155  -0.093  0.00  0.00     0.022 A 
ATOM      7  C5  UNL d   1      -1.894   1.327   0.896  0.00  0.00     0.026 A 
ATOM      8  C6  UNL d   1      -2.040   0.170   1.735  0.00  0.00    -0.082 A 
ATOM      9  C7  UNL d   1      -2.885  -0.061   2.847  0.00  0.00     0.045 A 
ENDROOT
TORSDOF 0
ENDMDL
