MODEL 1
REMARK minimizedAffinity -2.97109532
REMARK minimizedRMSD -1
REMARK  0 active torsions:
REMARK  status: ('A' for Active; 'I' for Inactive)
ROOT
ATOM      1  C   UNL d   1       3.106   2.274   0.368  0.00  0.00    -0.002 A 
ATOM      2  C1  UNL d   1       3.038   0.888   0.352  0.00  0.00     0.010 A 
ATOM      3  C2  UNL d   1       1.805   0.237   0.421  0.00  0.00     0.041 A 
ATOM      4  C3  UNL d   1       0.630   1.010   0.505  0.00  0.00    -0.075 A 
ATOM      5  S   UNL d   1      -0.991   0.430   0.599  0.00  0.00     0.015 SA
ATOM      6  C4  UNL d   1      -1.631   2.008   0.661  0.00  0.00     0.022 A 
ATOM      7  C5  UNL d   1      -0.646   2.966   0.613  0.00  0.00     0.026 A 
ATOM      8  C6  UNL d   1       0.673   2.407   0.522  0.00  0.00    -0.082 A 
ATOM      9  C7  UNL d   1       1.939   3.037   0.452  0.00  0.00     0.045 A 
ENDROOT
TORSDOF 0
ENDMDL
