MODEL 1
REMARK minimizedAffinity -5.42663908
REMARK minimizedRMSD -1
REMARK  0 active torsions:
REMARK  status: ('A' for Active; 'I' for Inactive)
ROOT
ATOM      1  C   UNL d   1      -0.975   2.933  -0.287  0.00  0.00    -0.002 A 
ATOM      2  C1  UNL d   1       0.218   2.578  -0.901  0.00  0.00     0.010 A 
ATOM      3  C2  UNL d   1       0.799   1.332  -0.657  0.00  0.00     0.041 A 
ATOM      4  C3  UNL d   1       0.155   0.440   0.222  0.00  0.00    -0.075 A 
ATOM      5  S   UNL d   1       0.682  -1.139   0.670  0.00  0.00     0.015 SA
ATOM      6  C4  UNL d   1      -0.664  -1.381   1.687  0.00  0.00     0.022 A 
ATOM      7  C5  UNL d   1      -1.505  -0.293   1.697  0.00  0.00     0.026 A 
ATOM      8  C6  UNL d   1      -1.047   0.774   0.852  0.00  0.00    -0.082 A 
ATOM      9  C7  UNL d   1      -1.611   2.045   0.585  0.00  0.00     0.045 A 
ENDROOT
TORSDOF 0
ENDMDL
