MODEL 1
REMARK minimizedAffinity -2.20808911
REMARK minimizedRMSD -1
REMARK  0 active torsions:
REMARK  status: ('A' for Active; 'I' for Inactive)
ROOT
ATOM      1  C   UNL d   1      -1.918  -2.928  -2.262  0.00  0.00    -0.002 A 
ATOM      2  C1  UNL d   1      -0.582  -3.284  -2.383  0.00  0.00     0.010 A 
ATOM      3  C2  UNL d   1       0.400  -2.622  -1.643  0.00  0.00     0.041 A 
ATOM      4  C3  UNL d   1       0.012  -1.588  -0.769  0.00  0.00    -0.075 A 
ATOM      5  S   UNL d   1       1.040  -0.639   0.239  0.00  0.00     0.015 SA
ATOM      6  C4  UNL d   1      -0.269   0.261   0.855  0.00  0.00     0.022 A 
ATOM      7  C5  UNL d   1      -1.469  -0.139   0.316  0.00  0.00     0.026 A 
ATOM      8  C6  UNL d   1      -1.327  -1.212  -0.628  0.00  0.00    -0.082 A 
ATOM      9  C7  UNL d   1      -2.298  -1.901  -1.393  0.00  0.00     0.045 A 
ENDROOT
TORSDOF 0
ENDMDL
