MODEL 1
REMARK minimizedAffinity 13.9434128
REMARK minimizedRMSD -1
REMARK  0 active torsions:
REMARK  status: ('A' for Active; 'I' for Inactive)
ROOT
ATOM      1  C   UNL d   1       5.999   3.684  -4.194  0.00  0.00    -0.002 A 
ATOM      2  C1  UNL d   1       5.772   4.325  -2.985  0.00  0.00     0.010 A 
ATOM      3  C2  UNL d   1       4.730   3.916  -2.149  0.00  0.00     0.041 A 
ATOM      4  C3  UNL d   1       3.914   2.841  -2.553  0.00  0.00    -0.075 A 
ATOM      5  S   UNL d   1       2.581   2.167  -1.693  0.00  0.00     0.015 SA
ATOM      6  C4  UNL d   1       2.283   1.013  -2.910  0.00  0.00     0.022 A 
ATOM      7  C5  UNL d   1       3.169   1.124  -3.955  0.00  0.00     0.026 A 
ATOM      8  C6  UNL d   1       4.125   2.179  -3.766  0.00  0.00    -0.082 A 
ATOM      9  C7  UNL d   1       5.188   2.618  -4.592  0.00  0.00     0.045 A 
ENDROOT
TORSDOF 0
ENDMDL
