MODEL 1
REMARK minimizedAffinity 3.10764837
REMARK minimizedRMSD -1
REMARK  0 active torsions:
REMARK  status: ('A' for Active; 'I' for Inactive)
ROOT
ATOM      1  C   UNL d   1      -1.478   3.444  -4.217  0.00  0.00    -0.002 A 
ATOM      2  C1  UNL d   1      -1.494   4.722  -3.678  0.00  0.00     0.010 A 
ATOM      3  C2  UNL d   1      -2.576   5.575  -3.904  0.00  0.00     0.041 A 
ATOM      4  C3  UNL d   1      -3.653   5.116  -4.689  0.00  0.00    -0.075 A 
ATOM      5  S   UNL d   1      -5.085   5.985  -5.098  0.00  0.00     0.015 SA
ATOM      6  C4  UNL d   1      -5.708   4.680  -5.999  0.00  0.00     0.022 A 
ATOM      7  C5  UNL d   1      -4.858   3.599  -5.998  0.00  0.00     0.026 A 
ATOM      8  C6  UNL d   1      -3.660   3.833  -5.242  0.00  0.00    -0.082 A 
ATOM      9  C7  UNL d   1      -2.548   2.993  -4.995  0.00  0.00     0.045 A 
ENDROOT
TORSDOF 0
ENDMDL
