MODEL 1
REMARK minimizedAffinity 4.66499424
REMARK minimizedRMSD -1
REMARK  0 active torsions:
REMARK  status: ('A' for Active; 'I' for Inactive)
ROOT
ATOM      1  C   UNL d   1      -0.596   3.685  -5.997  0.00  0.00    -0.002 A 
ATOM      2  C1  UNL d   1      -1.011   2.361  -5.997  0.00  0.00     0.010 A 
ATOM      3  C2  UNL d   1      -0.077   1.324  -5.999  0.00  0.00     0.041 A 
ATOM      4  C3  UNL d   1       1.296   1.643  -5.999  0.00  0.00    -0.075 A 
ATOM      5  S   UNL d   1       2.619   0.538  -6.000  0.00  0.00     0.015 SA
ATOM      6  C4  UNL d   1       3.767   1.798  -5.999  0.00  0.00     0.022 A 
ATOM      7  C5  UNL d   1       3.173   3.037  -5.998  0.00  0.00     0.026 A 
ATOM      8  C6  UNL d   1       1.738   2.968  -5.997  0.00  0.00    -0.082 A 
ATOM      9  C7  UNL d   1       0.766   3.998  -5.997  0.00  0.00     0.045 A 
ENDROOT
TORSDOF 0
ENDMDL
