MODEL 1
REMARK minimizedAffinity -2.1531167
REMARK minimizedRMSD -1
REMARK  0 active torsions:
REMARK  status: ('A' for Active; 'I' for Inactive)
ROOT
ATOM      1  C   UNL d   1      -0.389   2.999  -3.878  0.00  0.00    -0.002 A 
ATOM      2  C1  UNL d   1      -0.419   2.996  -5.266  0.00  0.00     0.010 A 
ATOM      3  C2  UNL d   1       0.734   2.711  -6.000  0.00  0.00     0.041 A 
ATOM      4  C3  UNL d   1       1.929   2.425  -5.309  0.00  0.00    -0.075 A 
ATOM      5  S   UNL d   1       3.463   2.047  -5.998  0.00  0.00     0.015 SA
ATOM      6  C4  UNL d   1       4.193   1.880  -4.467  0.00  0.00     0.022 A 
ATOM      7  C5  UNL d   1       3.303   2.104  -3.444  0.00  0.00     0.026 A 
ATOM      8  C6  UNL d   1       1.983   2.422  -3.912  0.00  0.00    -0.082 A 
ATOM      9  C7  UNL d   1       0.797   2.715  -3.197  0.00  0.00     0.045 A 
ENDROOT
TORSDOF 0
ENDMDL
