MODEL 1
REMARK minimizedAffinity -1.64177108
REMARK minimizedRMSD -1
REMARK  0 active torsions:
REMARK  status: ('A' for Active; 'I' for Inactive)
ROOT
ATOM      1  C   UNL d   1       1.183  -0.877   0.139  0.00  0.00    -0.002 A 
ATOM      2  C1  UNL d   1       2.240   0.012   0.266  0.00  0.00     0.010 A 
ATOM      3  C2  UNL d   1       2.006   1.385   0.362  0.00  0.00     0.041 A 
ATOM      4  C3  UNL d   1       0.677   1.854   0.330  0.00  0.00    -0.075 A 
ATOM      5  S   UNL d   1       0.150   3.492   0.432  0.00  0.00     0.015 SA
ATOM      6  C4  UNL d   1      -1.492   3.049   0.310  0.00  0.00     0.022 A 
ATOM      7  C5  UNL d   1      -1.651   1.689   0.193  0.00  0.00     0.026 A 
ATOM      8  C6  UNL d   1      -0.404   0.977   0.203  0.00  0.00    -0.082 A 
ATOM      9  C7  UNL d   1      -0.133  -0.409   0.107  0.00  0.00     0.045 A 
ENDROOT
TORSDOF 0
ENDMDL
