MODEL 1
REMARK minimizedAffinity -2.77307439
REMARK minimizedRMSD -1
REMARK  0 active torsions:
REMARK  status: ('A' for Active; 'I' for Inactive)
ROOT
ATOM      1  C   UNL d   1      -1.696   2.015   1.982  0.00  0.00     0.023 A 
ATOM      2  C1  UNL d   1      -1.776   2.051   0.590  0.00  0.00     0.003 A 
ATOM      3  C2  UNL d   1      -1.077   1.115  -0.175  0.00  0.00     0.048 A 
ATOM      4  C3  UNL d   1      -0.301   0.145   0.458  0.00  0.00     0.023 A 
ATOM      5  C4  UNL d   1      -0.219   0.104   1.851  0.00  0.00     0.048 A 
ATOM      6  C5  UNL d   1      -0.918   1.043   2.612  0.00  0.00     0.003 A 
ATOM      7  I   UNL d   1       0.739  -1.250  -0.678  0.00  0.00    -0.146 I 
ENDROOT
TORSDOF 0
ENDMDL
