MODEL 1
REMARK minimizedAffinity -0.336894363
REMARK minimizedRMSD -1
REMARK  0 active torsions:
REMARK  status: ('A' for Active; 'I' for Inactive)
ROOT
ATOM      1  C   UNL d   1       1.019  -0.021  -1.189  0.00  0.00     0.023 A 
ATOM      2  C1  UNL d   1       1.013   1.366  -1.331  0.00  0.00     0.003 A 
ATOM      3  C2  UNL d   1       0.223   2.152  -0.489  0.00  0.00     0.048 A 
ATOM      4  C3  UNL d   1      -0.558   1.544   0.492  0.00  0.00     0.023 A 
ATOM      5  C4  UNL d   1      -0.555   0.156   0.639  0.00  0.00     0.048 A 
ATOM      6  C5  UNL d   1       0.236  -0.626  -0.205  0.00  0.00     0.003 A 
ATOM      7  I   UNL d   1      -1.735   2.711   1.746  0.00  0.00    -0.146 I 
ENDROOT
TORSDOF 0
ENDMDL
