MODEL 1
REMARK minimizedAffinity -0.686184287
REMARK minimizedRMSD -1
REMARK  0 active torsions:
REMARK  status: ('A' for Active; 'I' for Inactive)
ROOT
ATOM      1  C   UNL d   1       1.134  -0.231  -1.340  0.00  0.00     0.023 A 
ATOM      2  C1  UNL d   1       0.806   1.118  -1.473  0.00  0.00     0.003 A 
ATOM      3  C2  UNL d   1      -0.024   1.732  -0.532  0.00  0.00     0.048 A 
ATOM      4  C3  UNL d   1      -0.522   0.991   0.539  0.00  0.00     0.023 A 
ATOM      5  C4  UNL d   1      -0.196  -0.359   0.676  0.00  0.00     0.048 A 
ATOM      6  C5  UNL d   1       0.634  -0.969  -0.267  0.00  0.00     0.003 A 
ATOM      7  I   UNL d   1      -1.758   1.902   1.940  0.00  0.00    -0.146 I 
ENDROOT
TORSDOF 0
ENDMDL
