MODEL 1
REMARK minimizedAffinity -2.86070442
REMARK minimizedRMSD -1
REMARK  0 active torsions:
REMARK  status: ('A' for Active; 'I' for Inactive)
ROOT
ATOM      1  C   UNL d   1      -1.952   1.882   1.766  0.00  0.00     0.023 A 
ATOM      2  C1  UNL d   1      -2.091   1.735   0.386  0.00  0.00     0.003 A 
ATOM      3  C2  UNL d   1      -1.207   0.920  -0.323  0.00  0.00     0.048 A 
ATOM      4  C3  UNL d   1      -0.186   0.253   0.354  0.00  0.00     0.023 A 
ATOM      5  C4  UNL d   1      -0.044   0.396   1.735  0.00  0.00     0.048 A 
ATOM      6  C5  UNL d   1      -0.930   1.213   2.440  0.00  0.00     0.003 A 
ATOM      7  I   UNL d   1       1.132  -0.960  -0.699  0.00  0.00    -0.146 I 
ENDROOT
TORSDOF 0
ENDMDL
