MODEL 1
REMARK minimizedAffinity -3.17333603
REMARK minimizedRMSD -1
REMARK  0 active torsions:
REMARK  status: ('A' for Active; 'I' for Inactive)
ROOT
ATOM      1  C   UNL d   1       1.924  -0.002  -1.488  0.00  0.00     0.023 A 
ATOM      2  C1  UNL d   1       1.268  -0.784  -0.538  0.00  0.00     0.003 A 
ATOM      3  C2  UNL d   1       0.145  -0.284   0.126  0.00  0.00     0.048 A 
ATOM      4  C3  UNL d   1      -0.316   0.999  -0.166  0.00  0.00     0.023 A 
ATOM      5  C4  UNL d   1       0.337   1.785  -1.117  0.00  0.00     0.048 A 
ATOM      6  C5  UNL d   1       1.459   1.281  -1.778  0.00  0.00     0.003 A 
ATOM      7  I   UNL d   1      -1.986   1.745   0.820  0.00  0.00    -0.146 I 
ENDROOT
TORSDOF 0
ENDMDL
