MODEL 1
REMARK minimizedAffinity -2.76542616
REMARK minimizedRMSD -1
REMARK  0 active torsions:
REMARK  status: ('A' for Active; 'I' for Inactive)
ROOT
ATOM      1  C   UNL d   1      -1.501   1.437   2.169  0.00  0.00     0.023 A 
ATOM      2  C1  UNL d   1      -0.968   1.971   0.996  0.00  0.00     0.003 A 
ATOM      3  C2  UNL d   1      -0.249   1.156   0.120  0.00  0.00     0.048 A 
ATOM      4  C3  UNL d   1      -0.066  -0.193   0.423  0.00  0.00     0.023 A 
ATOM      5  C4  UNL d   1      -0.597  -0.732   1.596  0.00  0.00     0.048 A 
ATOM      6  C5  UNL d   1      -1.315   0.087   2.469  0.00  0.00     0.003 A 
ATOM      7  I   UNL d   1       1.005  -1.408  -0.879  0.00  0.00    -0.146 I 
ENDROOT
TORSDOF 0
ENDMDL
