MODEL 1
REMARK minimizedAffinity -2.48404956
REMARK minimizedRMSD -1
REMARK  0 active torsions:
REMARK  status: ('A' for Active; 'I' for Inactive)
ROOT
ATOM      1  C   UNL d   1      -0.661   1.536   1.886  0.00  0.00     0.023 A 
ATOM      2  C1  UNL d   1       0.379   0.613   1.999  0.00  0.00     0.003 A 
ATOM      3  C2  UNL d   1       0.473  -0.448   1.096  0.00  0.00     0.048 A 
ATOM      4  C3  UNL d   1      -0.475  -0.579   0.082  0.00  0.00     0.023 A 
ATOM      5  C4  UNL d   1      -1.517   0.343  -0.035  0.00  0.00     0.048 A 
ATOM      6  C5  UNL d   1      -1.607   1.402   0.871  0.00  0.00     0.003 A 
ATOM      7  I   UNL d   1      -0.338  -2.157  -1.264  0.00  0.00    -0.146 I 
ENDROOT
TORSDOF 0
ENDMDL
