MODEL 1
REMARK minimizedAffinity -1.45652115
REMARK minimizedRMSD -1
REMARK  0 active torsions:
REMARK  status: ('A' for Active; 'I' for Inactive)
ROOT
ATOM      1  C   UNL d   1      -0.292   0.892   1.097  0.00  0.00     0.023 A 
ATOM      2  C1  UNL d   1       0.760  -0.021   1.178  0.00  0.00     0.003 A 
ATOM      3  C2  UNL d   1       0.821  -1.098   0.291  0.00  0.00     0.048 A 
ATOM      4  C3  UNL d   1      -0.172  -1.256  -0.675  0.00  0.00     0.023 A 
ATOM      5  C4  UNL d   1      -1.226  -0.345  -0.760  0.00  0.00     0.048 A 
ATOM      6  C5  UNL d   1      -1.284   0.730   0.129  0.00  0.00     0.003 A 
ATOM      7  I   UNL d   1      -0.082  -2.859  -1.995  0.00  0.00    -0.146 I 
ENDROOT
TORSDOF 0
ENDMDL
