MODEL 1
REMARK minimizedAffinity -3.71767497
REMARK minimizedRMSD -1
REMARK  0 active torsions:
REMARK  status: ('A' for Active; 'I' for Inactive)
ROOT
ATOM      1  C   UNL d   1      -1.417   2.007   1.689  0.00  0.00     0.023 A 
ATOM      2  C1  UNL d   1      -0.810   0.977   2.408  0.00  0.00     0.003 A 
ATOM      3  C2  UNL d   1      -0.221  -0.094   1.733  0.00  0.00     0.048 A 
ATOM      4  C3  UNL d   1      -0.241  -0.129   0.339  0.00  0.00     0.023 A 
ATOM      5  C4  UNL d   1      -0.847   0.899  -0.384  0.00  0.00     0.048 A 
ATOM      6  C5  UNL d   1      -1.436   1.968   0.294  0.00  0.00     0.003 A 
ATOM      7  I   UNL d   1       0.635  -1.722  -0.667  0.00  0.00    -0.146 I 
ENDROOT
TORSDOF 0
ENDMDL
