MODEL 1
REMARK minimizedAffinity -2.02910161
REMARK minimizedRMSD -1
REMARK  0 active torsions:
REMARK  status: ('A' for Active; 'I' for Inactive)
ROOT
ATOM      1  C   UNL d   1       1.614  -0.794  -1.370  0.00  0.00     0.023 A 
ATOM      2  C1  UNL d   1       1.278  -1.563  -0.256  0.00  0.00     0.003 A 
ATOM      3  C2  UNL d   1       0.430  -1.042   0.724  0.00  0.00     0.048 A 
ATOM      4  C3  UNL d   1      -0.079   0.249   0.583  0.00  0.00     0.023 A 
ATOM      5  C4  UNL d   1       0.254   1.021  -0.531  0.00  0.00     0.048 A 
ATOM      6  C5  UNL d   1       1.103   0.497  -1.507  0.00  0.00     0.003 A 
ATOM      7  I   UNL d   1      -1.341   1.026   2.039  0.00  0.00    -0.146 I 
ENDROOT
TORSDOF 0
ENDMDL
