MODEL 1
REMARK minimizedAffinity -4.05145264
REMARK minimizedRMSD -1
REMARK  0 active torsions:
REMARK  status: ('A' for Active; 'I' for Inactive)
ROOT
ATOM      1  C   UNL d   1      -2.459   1.271   1.944  0.00  0.00     0.023 A 
ATOM      2  C1  UNL d   1      -1.335   0.815   2.633  0.00  0.00     0.003 A 
ATOM      3  C2  UNL d   1      -0.216   0.367   1.927  0.00  0.00     0.048 A 
ATOM      4  C3  UNL d   1      -0.228   0.379   0.533  0.00  0.00     0.023 A 
ATOM      5  C4  UNL d   1      -1.351   0.835  -0.160  0.00  0.00     0.048 A 
ATOM      6  C5  UNL d   1      -2.467   1.281   0.550  0.00  0.00     0.003 A 
ATOM      7  I   UNL d   1       1.435  -0.287  -0.520  0.00  0.00    -0.146 I 
ENDROOT
TORSDOF 0
ENDMDL
