MODEL 1
REMARK minimizedAffinity -0.0493072085
REMARK minimizedRMSD -1
REMARK  0 active torsions:
REMARK  status: ('A' for Active; 'I' for Inactive)
ROOT
ATOM      1  C   UNL d   1      -0.750   2.167  -1.398  0.00  0.00     0.023 A 
ATOM      2  C1  UNL d   1      -1.804   1.832  -0.547  0.00  0.00     0.003 A 
ATOM      3  C2  UNL d   1      -1.558   1.098   0.615  0.00  0.00     0.048 A 
ATOM      4  C3  UNL d   1      -0.256   0.703   0.921  0.00  0.00     0.023 A 
ATOM      5  C4  UNL d   1       0.801   1.036   0.073  0.00  0.00     0.048 A 
ATOM      6  C5  UNL d   1       0.550   1.769  -1.088  0.00  0.00     0.003 A 
ATOM      7  I   UNL d   1       0.112  -0.390   2.650  0.00  0.00    -0.146 I 
ENDROOT
TORSDOF 0
ENDMDL
