MODEL 1
REMARK minimizedAffinity -0.923744023
REMARK minimizedRMSD -1
REMARK  0 active torsions:
REMARK  status: ('A' for Active; 'I' for Inactive)
ROOT
ATOM      1  C   UNL d   1      -1.125   1.721   2.214  0.00  0.00     0.023 A 
ATOM      2  C1  UNL d   1      -0.249   0.718   2.633  0.00  0.00     0.003 A 
ATOM      3  C2  UNL d   1       0.311  -0.156   1.699  0.00  0.00     0.048 A 
ATOM      4  C3  UNL d   1      -0.008  -0.021   0.348  0.00  0.00     0.023 A 
ATOM      5  C4  UNL d   1      -0.882   0.980  -0.075  0.00  0.00     0.048 A 
ATOM      6  C5  UNL d   1      -1.441   1.851   0.862  0.00  0.00     0.003 A 
ATOM      7  I   UNL d   1       0.825  -1.321  -1.044  0.00  0.00    -0.146 I 
ENDROOT
TORSDOF 0
ENDMDL
