MODEL 1
REMARK minimizedAffinity -2.44024515
REMARK minimizedRMSD -1
REMARK  0 active torsions:
REMARK  status: ('A' for Active; 'I' for Inactive)
ROOT
ATOM      1  C   UNL d   1      -0.763   1.325   1.460  0.00  0.00     0.023 A 
ATOM      2  C1  UNL d   1      -0.003   1.575   0.317  0.00  0.00     0.003 A 
ATOM      3  C2  UNL d   1       0.349   0.524  -0.532  0.00  0.00     0.048 A 
ATOM      4  C3  UNL d   1      -0.064  -0.774  -0.234  0.00  0.00     0.023 A 
ATOM      5  C4  UNL d   1      -0.826  -1.028   0.908  0.00  0.00     0.048 A 
ATOM      6  C5  UNL d   1      -1.174   0.025   1.755  0.00  0.00     0.003 A 
ATOM      7  I   UNL d   1       0.458  -2.339  -1.497  0.00  0.00    -0.146 I 
ENDROOT
TORSDOF 0
ENDMDL
