MODEL 1
REMARK minimizedAffinity -3.2598381
REMARK minimizedRMSD -1
REMARK  0 active torsions:
REMARK  status: ('A' for Active; 'I' for Inactive)
ROOT
ATOM      1  C   UNL d   1      -1.699   1.479   2.443  0.00  0.00     0.023 A 
ATOM      2  C1  UNL d   1      -1.276   2.045   1.241  0.00  0.00     0.003 A 
ATOM      3  C2  UNL d   1      -0.572   1.273   0.314  0.00  0.00     0.048 A 
ATOM      4  C3  UNL d   1      -0.297  -0.065   0.596  0.00  0.00     0.023 A 
ATOM      5  C4  UNL d   1      -0.719  -0.635   1.797  0.00  0.00     0.048 A 
ATOM      6  C5  UNL d   1      -1.422   0.141   2.721  0.00  0.00     0.003 A 
ATOM      7  I   UNL d   1       0.750  -1.216  -0.782  0.00  0.00    -0.146 I 
ENDROOT
TORSDOF 0
ENDMDL
