MODEL 1
REMARK minimizedAffinity 9.39690876
REMARK minimizedRMSD -1
REMARK  1 active torsions:
REMARK  status: ('A' for Active; 'I' for Inactive)
REMARK    1  A    between atoms: N_2  and  C1_3 
ROOT
ATOM      1  C1  UNL d   1      -3.634  -5.632  -4.970  0.00  0.00     0.143 A 
ATOM      2  C2  UNL d   1      -3.912  -5.047  -3.730  0.00  0.00    -0.057 A 
ATOM      3  C3  UNL d   1      -2.895  -4.794  -2.802  0.00  0.00     0.033 A 
ATOM      4  C4  UNL d   1      -1.581  -5.150  -3.087  0.00  0.00    -0.042 A 
ATOM      5  C5  UNL d   1      -1.285  -5.755  -4.303  0.00  0.00     0.033 A 
ATOM      6  C6  UNL d   1      -2.304  -5.999  -5.228  0.00  0.00    -0.057 A 
ENDROOT
BRANCH   1   7
ATOM      7  N   UNL d   1      -4.615  -5.999  -5.895  0.00  0.00    -0.732 N 
ATOM      8  C   UNL d   1      -6.000  -5.638  -5.682  0.00  0.00     0.284 C 
ATOM      9  H3  UNL d   1      -4.300  -5.893  -6.857  0.00  0.00     0.395 HD
ENDBRANCH   1   7
TORSDOF 1
ENDMDL
