MODEL 1
REMARK minimizedAffinity 7.17955351
REMARK minimizedRMSD -1
REMARK  1 active torsions:
REMARK  status: ('A' for Active; 'I' for Inactive)
REMARK    1  A    between atoms: N_2  and  C1_3 
ROOT
ATOM      1  C1  UNL d   1       2.096   0.454   0.075  0.00  0.00     0.143 A 
ATOM      2  C2  UNL d   1       1.847   0.509   1.451  0.00  0.00    -0.057 A 
ATOM      3  C3  UNL d   1       0.593   0.884   1.948  0.00  0.00     0.033 A 
ATOM      4  C4  UNL d   1      -0.429   1.241   1.074  0.00  0.00    -0.042 A 
ATOM      5  C5  UNL d   1      -0.197   1.217  -0.296  0.00  0.00     0.033 A 
ATOM      6  C6  UNL d   1       1.056   0.835  -0.786  0.00  0.00    -0.057 A 
ENDROOT
BRANCH   1   7
ATOM      7  N   UNL d   1       3.350   0.183  -0.478  0.00  0.00    -0.732 N 
ATOM      8  C   UNL d   1       4.066  -1.024  -0.127  0.00  0.00     0.284 C 
ATOM      9  H3  UNL d   1       3.399   0.423  -1.466  0.00  0.00     0.395 HD
ENDBRANCH   1   7
TORSDOF 1
ENDMDL
