MODEL 1
REMARK minimizedAffinity 6.11425972
REMARK minimizedRMSD -1
REMARK  1 active torsions:
REMARK  status: ('A' for Active; 'I' for Inactive)
REMARK    1  A    between atoms: N_2  and  C1_3 
ROOT
ATOM      1  C1  UNL d   1       4.808   1.496  -1.251  0.00  0.00     0.143 A 
ATOM      2  C2  UNL d   1       3.635   0.745  -1.120  0.00  0.00    -0.057 A 
ATOM      3  C3  UNL d   1       3.634  -0.491  -0.462  0.00  0.00     0.033 A 
ATOM      4  C4  UNL d   1       4.816  -1.012   0.054  0.00  0.00    -0.042 A 
ATOM      5  C5  UNL d   1       5.999  -0.294  -0.087  0.00  0.00     0.033 A 
ATOM      6  C6  UNL d   1       5.992   0.942  -0.739  0.00  0.00    -0.057 A 
ENDROOT
BRANCH   1   7
ATOM      7  N   UNL d   1       4.894   2.685  -1.981  0.00  0.00    -0.732 N 
ATOM      8  C   UNL d   1       5.221   3.931  -1.323  0.00  0.00     0.284 C 
ATOM      9  H3  UNL d   1       5.352   2.556  -2.880  0.00  0.00     0.395 HD
ENDBRANCH   1   7
TORSDOF 1
ENDMDL
