MODEL 1
REMARK minimizedAffinity 8.39069557
REMARK minimizedRMSD -1
REMARK  1 active torsions:
REMARK  status: ('A' for Active; 'I' for Inactive)
REMARK    1  A    between atoms: N_2  and  C1_3 
ROOT
ATOM      1  C1  UNL d   1       3.827  -1.340  -0.746  0.00  0.00     0.143 A 
ATOM      2  C2  UNL d   1       5.213  -1.434  -0.584  0.00  0.00    -0.057 A 
ATOM      3  C3  UNL d   1       6.000  -0.292  -0.386  0.00  0.00     0.033 A 
ATOM      4  C4  UNL d   1       5.415   0.970  -0.376  0.00  0.00    -0.042 A 
ATOM      5  C5  UNL d   1       4.042   1.088  -0.560  0.00  0.00     0.033 A 
ATOM      6  C6  UNL d   1       3.261  -0.056  -0.750  0.00  0.00    -0.057 A 
ENDROOT
BRANCH   1   7
ATOM      7  N   UNL d   1       3.004  -2.429  -1.044  0.00  0.00    -0.732 N 
ATOM      8  C   UNL d   1       2.999  -3.008  -2.370  0.00  0.00     0.284 C 
ATOM      9  H3  UNL d   1       2.977  -3.113  -0.292  0.00  0.00     0.395 HD
ENDBRANCH   1   7
TORSDOF 1
ENDMDL
