MODEL 1
REMARK minimizedAffinity 3.75717211
REMARK minimizedRMSD -1
REMARK  1 active torsions:
REMARK  status: ('A' for Active; 'I' for Inactive)
REMARK    1  A    between atoms: N_2  and  C1_3 
ROOT
ATOM      1  C1  UNL d   1       3.953   4.848   4.961  0.00  0.00     0.143 A 
ATOM      2  C2  UNL d   1       4.972   4.655   5.900  0.00  0.00    -0.057 A 
ATOM      3  C3  UNL d   1       5.736   3.482   5.910  0.00  0.00     0.033 A 
ATOM      4  C4  UNL d   1       5.475   2.466   4.997  0.00  0.00    -0.042 A 
ATOM      5  C5  UNL d   1       4.451   2.626   4.070  0.00  0.00     0.033 A 
ATOM      6  C6  UNL d   1       3.696   3.803   4.060  0.00  0.00    -0.057 A 
ENDROOT
BRANCH   1   7
ATOM      7  N   UNL d   1       3.094   5.950   4.961  0.00  0.00    -0.732 N 
ATOM      8  C   UNL d   1       1.959   6.000   4.065  0.00  0.00     0.284 C 
ATOM      9  H3  UNL d   1       2.896   6.288   5.901  0.00  0.00     0.395 HD
ENDBRANCH   1   7
TORSDOF 1
ENDMDL
