MODEL 1
REMARK minimizedAffinity 0.393024892
REMARK minimizedRMSD -1
REMARK  1 active torsions:
REMARK  status: ('A' for Active; 'I' for Inactive)
REMARK    1  A    between atoms: N_2  and  C1_3 
ROOT
ATOM      1  C1  UNL d   1       4.805  -0.951  -1.887  0.00  0.00     0.143 A 
ATOM      2  C2  UNL d   1       3.823  -1.398  -0.997  0.00  0.00    -0.057 A 
ATOM      3  C3  UNL d   1       3.127  -2.592  -1.223  0.00  0.00     0.033 A 
ATOM      4  C4  UNL d   1       3.382  -3.348  -2.363  0.00  0.00    -0.042 A 
ATOM      5  C5  UNL d   1       4.336  -2.909  -3.275  0.00  0.00     0.033 A 
ATOM      6  C6  UNL d   1       5.032  -1.720  -3.040  0.00  0.00    -0.057 A 
ENDROOT
BRANCH   1   7
ATOM      7  N   UNL d   1       5.461   0.277  -1.769  0.00  0.00    -0.732 N 
ATOM      8  C   UNL d   1       4.793   1.416  -1.178  0.00  0.00     0.284 C 
ATOM      9  H3  UNL d   1       6.433   0.172  -1.486  0.00  0.00     0.395 HD
ENDBRANCH   1   7
TORSDOF 1
ENDMDL
