MODEL 1
REMARK minimizedAffinity 9.5484457
REMARK minimizedRMSD -1
REMARK  1 active torsions:
REMARK  status: ('A' for Active; 'I' for Inactive)
REMARK    1  A    between atoms: N_2  and  C1_3 
ROOT
ATOM      1  C1  UNL d   1       3.199  -0.939  -1.441  0.00  0.00     0.143 A 
ATOM      2  C2  UNL d   1       2.649  -0.266  -0.345  0.00  0.00    -0.057 A 
ATOM      3  C3  UNL d   1       3.183   0.948   0.105  0.00  0.00     0.033 A 
ATOM      4  C4  UNL d   1       4.299   1.496  -0.518  0.00  0.00    -0.042 A 
ATOM      5  C5  UNL d   1       4.878   0.832  -1.594  0.00  0.00     0.033 A 
ATOM      6  C6  UNL d   1       4.335  -0.376  -2.042  0.00  0.00    -0.057 A 
ENDROOT
BRANCH   1   7
ATOM      7  N   UNL d   1       2.774  -2.198  -1.874  0.00  0.00    -0.732 N 
ATOM      8  C   UNL d   1       2.227  -3.154  -0.936  0.00  0.00     0.284 C 
ATOM      9  H3  UNL d   1       2.279  -2.156  -2.762  0.00  0.00     0.395 HD
ENDBRANCH   1   7
TORSDOF 1
ENDMDL
