MODEL 1
REMARK minimizedAffinity 6.9677701
REMARK minimizedRMSD -1
REMARK  1 active torsions:
REMARK  status: ('A' for Active; 'I' for Inactive)
REMARK    1  A    between atoms: N_2  and  C1_3 
ROOT
ATOM      1  C1  UNL d   1       0.270  -1.426  -0.602  0.00  0.00     0.143 A 
ATOM      2  C2  UNL d   1      -0.720  -0.666  -1.235  0.00  0.00    -0.057 A 
ATOM      3  C3  UNL d   1      -0.919   0.681  -0.909  0.00  0.00     0.033 A 
ATOM      4  C4  UNL d   1      -0.149   1.285   0.079  0.00  0.00    -0.042 A 
ATOM      5  C5  UNL d   1       0.824   0.542   0.739  0.00  0.00     0.033 A 
ATOM      6  C6  UNL d   1       1.022  -0.801   0.404  0.00  0.00    -0.057 A 
ENDROOT
BRANCH   1   7
ATOM      7  N   UNL d   1       0.451  -2.796  -0.812  0.00  0.00    -0.732 N 
ATOM      8  C   UNL d   1      -0.631  -3.727  -0.575  0.00  0.00     0.284 C 
ATOM      9  H3  UNL d   1       0.993  -2.992  -1.651  0.00  0.00     0.395 HD
ENDBRANCH   1   7
TORSDOF 1
ENDMDL
