MODEL 1
REMARK minimizedAffinity 13.5192661
REMARK minimizedRMSD -1
REMARK  1 active torsions:
REMARK  status: ('A' for Active; 'I' for Inactive)
REMARK    1  A    between atoms: N_2  and  C1_3 
ROOT
ATOM      1  C1  UNL d   1       2.931  -1.445  -1.859  0.00  0.00     0.143 A 
ATOM      2  C2  UNL d   1       2.806  -1.334  -0.470  0.00  0.00    -0.057 A 
ATOM      3  C3  UNL d   1       3.396  -0.274   0.230  0.00  0.00     0.033 A 
ATOM      4  C4  UNL d   1       4.148   0.681  -0.447  0.00  0.00    -0.042 A 
ATOM      5  C5  UNL d   1       4.307   0.576  -1.824  0.00  0.00     0.033 A 
ATOM      6  C6  UNL d   1       3.710  -0.481  -2.518  0.00  0.00    -0.057 A 
ENDROOT
BRANCH   1   7
ATOM      7  N   UNL d   1       2.451  -2.529  -2.599  0.00  0.00    -0.732 N 
ATOM      8  C   UNL d   1       3.155  -2.985  -3.778  0.00  0.00     0.284 C 
ATOM      9  H3  UNL d   1       2.102  -3.279  -2.007  0.00  0.00     0.395 HD
ENDBRANCH   1   7
TORSDOF 1
ENDMDL
