MODEL 1
REMARK minimizedAffinity -1.65845668
REMARK minimizedRMSD -1
REMARK  1 active torsions:
REMARK  status: ('A' for Active; 'I' for Inactive)
REMARK    1  A    between atoms: N_2  and  C1_3 
ROOT
ATOM      1  C1  UNL d   1       4.129  -0.772  -4.545  0.00  0.00     0.143 A 
ATOM      2  C2  UNL d   1       3.378   0.403  -4.661  0.00  0.00    -0.057 A 
ATOM      3  C3  UNL d   1       3.852   1.499  -5.392  0.00  0.00     0.033 A 
ATOM      4  C4  UNL d   1       5.103   1.450  -5.998  0.00  0.00    -0.042 A 
ATOM      5  C5  UNL d   1       5.878   0.302  -5.875  0.00  0.00     0.033 A 
ATOM      6  C6  UNL d   1       5.396  -0.792  -5.149  0.00  0.00    -0.057 A 
ENDROOT
BRANCH   1   7
ATOM      7  N   UNL d   1       3.756  -1.858  -3.750  0.00  0.00    -0.732 N 
ATOM      8  C   UNL d   1       2.512  -1.839  -3.012  0.00  0.00     0.284 C 
ATOM      9  H3  UNL d   1       3.964  -2.751  -4.191  0.00  0.00     0.395 HD
ENDBRANCH   1   7
TORSDOF 1
ENDMDL
