MODEL 1
REMARK minimizedAffinity -2.16795301
REMARK minimizedRMSD -1
REMARK  1 active torsions:
REMARK  status: ('A' for Active; 'I' for Inactive)
REMARK    1  A    between atoms: N_2  and  C1_3 
ROOT
ATOM      1  C1  UNL d   1       4.420   5.403  -4.184  0.00  0.00     0.143 A 
ATOM      2  C2  UNL d   1       5.077   6.000  -3.103  0.00  0.00    -0.057 A 
ATOM      3  C3  UNL d   1       4.728   5.693  -1.782  0.00  0.00     0.033 A 
ATOM      4  C4  UNL d   1       3.692   4.802  -1.519  0.00  0.00    -0.042 A 
ATOM      5  C5  UNL d   1       3.009   4.216  -2.579  0.00  0.00     0.033 A 
ATOM      6  C6  UNL d   1       3.367   4.522  -3.896  0.00  0.00    -0.057 A 
ENDROOT
BRANCH   1   7
ATOM      7  N   UNL d   1       4.655   5.741  -5.519  0.00  0.00    -0.732 N 
ATOM      8  C   UNL d   1       6.000   5.997  -5.990  0.00  0.00     0.284 C 
ATOM      9  H3  UNL d   1       4.086   5.198  -6.164  0.00  0.00     0.395 HD
ENDBRANCH   1   7
TORSDOF 1
ENDMDL
