MODEL 1
REMARK minimizedAffinity 11.9897432
REMARK minimizedRMSD -1
REMARK  1 active torsions:
REMARK  status: ('A' for Active; 'I' for Inactive)
REMARK    1  A    between atoms: N_2  and  C1_3 
ROOT
ATOM      1  C1  UNL d   1       1.351   2.030   1.806  0.00  0.00     0.143 A 
ATOM      2  C2  UNL d   1       0.935   0.732   1.494  0.00  0.00    -0.057 A 
ATOM      3  C3  UNL d   1      -0.346   0.482   0.986  0.00  0.00     0.033 A 
ATOM      4  C4  UNL d   1      -1.246   1.527   0.808  0.00  0.00    -0.042 A 
ATOM      5  C5  UNL d   1      -0.863   2.823   1.135  0.00  0.00     0.033 A 
ATOM      6  C6  UNL d   1       0.420   3.067   1.636  0.00  0.00    -0.057 A 
ENDROOT
BRANCH   1   7
ATOM      7  N   UNL d   1       2.576   2.331   2.407  0.00  0.00    -0.732 N 
ATOM      8  C   UNL d   1       2.652   2.619   3.823  0.00  0.00     0.284 C 
ATOM      9  H3  UNL d   1       3.332   1.746   2.061  0.00  0.00     0.395 HD
ENDBRANCH   1   7
TORSDOF 1
ENDMDL
