MODEL 1
REMARK minimizedAffinity 0.682491362
REMARK minimizedRMSD -1
REMARK  1 active torsions:
REMARK  status: ('A' for Active; 'I' for Inactive)
REMARK    1  A    between atoms: N_2  and  C1_3 
ROOT
ATOM      1  C1  UNL d   1       3.307  -1.836   1.991  0.00  0.00     0.143 A 
ATOM      2  C2  UNL d   1       2.820  -2.347   0.783  0.00  0.00    -0.057 A 
ATOM      3  C3  UNL d   1       3.684  -2.890  -0.176  0.00  0.00     0.033 A 
ATOM      4  C4  UNL d   1       5.057  -2.904   0.044  0.00  0.00    -0.042 A 
ATOM      5  C5  UNL d   1       5.566  -2.379   1.227  0.00  0.00     0.033 A 
ATOM      6  C6  UNL d   1       4.698  -1.845   2.184  0.00  0.00    -0.057 A 
ENDROOT
BRANCH   1   7
ATOM      7  N   UNL d   1       2.510  -1.195   2.942  0.00  0.00    -0.732 N 
ATOM      8  C   UNL d   1       1.194  -0.705   2.591  0.00  0.00     0.284 C 
ATOM      9  H3  UNL d   1       2.558  -1.642   3.855  0.00  0.00     0.395 HD
ENDBRANCH   1   7
TORSDOF 1
ENDMDL
