MODEL 1
REMARK minimizedAffinity 4.27844048
REMARK minimizedRMSD -1
REMARK  2 active torsions:
REMARK  status: ('A' for Active; 'I' for Inactive)
REMARK    1  A    between atoms: C1_2  and  C2_3 
REMARK    2  A    between atoms: C2_3  and  C3_4 
ROOT
ATOM      1  C3  UNL d   1       1.381  -1.177   0.871  0.00  0.00    -0.075 A 
ATOM      2  C4  UNL d   1       2.187  -2.149   0.260  0.00  0.00     0.002 A 
ATOM      3  C5  UNL d   1       3.212  -1.774  -0.610  0.00  0.00     0.002 A 
ATOM      4  C6  UNL d   1       3.437  -0.427  -0.887  0.00  0.00    -0.004 A 
ATOM      5  C7  UNL d   1       2.632   0.545  -0.298  0.00  0.00     0.002 A 
ATOM      6  C8  UNL d   1       1.609   0.174   0.575  0.00  0.00     0.002 A 
ENDROOT
BRANCH   1   7
ATOM      7  C2  UNL d   1       0.289  -1.574   1.835  0.00  0.00     0.056 C 
BRANCH   7   8
ATOM      8  C1  UNL d   1       0.444  -0.971   3.235  0.00  0.00     0.007 C 
ATOM      9  C   UNL d   1      -0.466   0.226   3.477  0.00  0.00     0.009 C 
ENDBRANCH   7   8
ENDBRANCH   1   7
TORSDOF 2
ENDMDL
