MODEL 1
REMARK minimizedAffinity 5.00030327
REMARK minimizedRMSD -1
REMARK  2 active torsions:
REMARK  status: ('A' for Active; 'I' for Inactive)
REMARK    1  A    between atoms: C1_2  and  C2_3 
REMARK    2  A    between atoms: C2_3  and  C3_4 
ROOT
ATOM      1  C3  UNL d   1      -0.572   1.173  -0.496  0.00  0.00    -0.075 A 
ATOM      2  C4  UNL d   1      -1.314   2.191   0.120  0.00  0.00     0.002 A 
ATOM      3  C5  UNL d   1      -2.655   2.389  -0.210  0.00  0.00     0.002 A 
ATOM      4  C6  UNL d   1      -3.267   1.581  -1.166  0.00  0.00    -0.004 A 
ATOM      5  C7  UNL d   1      -2.534   0.577  -1.796  0.00  0.00     0.002 A 
ATOM      6  C8  UNL d   1      -1.194   0.374  -1.464  0.00  0.00     0.002 A 
ENDROOT
BRANCH   1   7
ATOM      7  C2  UNL d   1       0.872   0.934  -0.121  0.00  0.00     0.056 C 
BRANCH   7   8
ATOM      8  C1  UNL d   1       1.473  -0.335  -0.734  0.00  0.00     0.007 C 
ATOM      9  C   UNL d   1       2.947  -0.523  -0.398  0.00  0.00     0.009 C 
ENDBRANCH   7   8
ENDBRANCH   1   7
TORSDOF 2
ENDMDL
