MODEL 1
REMARK minimizedAffinity 2.40968132
REMARK minimizedRMSD -1
REMARK  2 active torsions:
REMARK  status: ('A' for Active; 'I' for Inactive)
REMARK    1  A    between atoms: C1_2  and  C2_3 
REMARK    2  A    between atoms: C2_3  and  C3_4 
ROOT
ATOM      1  C3  UNL d   1       2.569  -2.213  -0.453  0.00  0.00    -0.075 A 
ATOM      2  C4  UNL d   1       3.014  -0.997   0.085  0.00  0.00     0.002 A 
ATOM      3  C5  UNL d   1       3.976  -0.238  -0.581  0.00  0.00     0.002 A 
ATOM      4  C6  UNL d   1       4.512  -0.688  -1.785  0.00  0.00    -0.004 A 
ATOM      5  C7  UNL d   1       4.089  -1.902  -2.321  0.00  0.00     0.002 A 
ATOM      6  C8  UNL d   1       3.123  -2.662  -1.659  0.00  0.00     0.002 A 
ENDROOT
BRANCH   1   7
ATOM      7  C2  UNL d   1       1.506  -3.026   0.248  0.00  0.00     0.056 C 
BRANCH   7   8
ATOM      8  C1  UNL d   1       0.113  -2.904  -0.379  0.00  0.00     0.007 C 
ATOM      9  C   UNL d   1      -0.487  -4.246  -0.776  0.00  0.00     0.009 C 
ENDBRANCH   7   8
ENDBRANCH   1   7
TORSDOF 2
ENDMDL
