MODEL 1
REMARK minimizedAffinity 2.78888106
REMARK minimizedRMSD -1
REMARK  2 active torsions:
REMARK  status: ('A' for Active; 'I' for Inactive)
REMARK    1  A    between atoms: C1_2  and  C2_3 
REMARK    2  A    between atoms: C2_3  and  C3_4 
ROOT
ATOM      1  C3  UNL d   1       2.231  -2.100  -0.561  0.00  0.00    -0.075 A 
ATOM      2  C4  UNL d   1       2.690  -0.909   0.021  0.00  0.00     0.002 A 
ATOM      3  C5  UNL d   1       3.777  -0.227  -0.526  0.00  0.00     0.002 A 
ATOM      4  C6  UNL d   1       4.425  -0.730  -1.652  0.00  0.00    -0.004 A 
ATOM      5  C7  UNL d   1       3.988  -1.921  -2.228  0.00  0.00     0.002 A 
ATOM      6  C8  UNL d   1       2.897  -2.603  -1.687  0.00  0.00     0.002 A 
ENDROOT
BRANCH   1   7
ATOM      7  C2  UNL d   1       1.036  -2.828   0.007  0.00  0.00     0.056 C 
BRANCH   7   8
ATOM      8  C1  UNL d   1      -0.101  -3.041  -0.998  0.00  0.00     0.007 C 
ATOM      9  C   UNL d   1      -0.950  -4.268  -0.691  0.00  0.00     0.009 C 
ENDBRANCH   7   8
ENDBRANCH   1   7
TORSDOF 2
ENDMDL
