MODEL 1
REMARK minimizedAffinity -4.60225534
REMARK minimizedRMSD -1
REMARK  0 active torsions:
REMARK  status: ('A' for Active; 'I' for Inactive)
ROOT
ATOM      1  C   UNL d   1      -1.158   2.554   1.694  0.00  0.00     0.023 A 
ATOM      2  C1  UNL d   1      -0.008   1.851   2.055  0.00  0.00     0.003 A 
ATOM      3  C2  UNL d   1       0.383   0.727   1.324  0.00  0.00     0.048 A 
ATOM      4  C3  UNL d   1      -0.379   0.313   0.233  0.00  0.00     0.023 A 
ATOM      5  C4  UNL d   1      -1.530   1.014  -0.133  0.00  0.00     0.048 A 
ATOM      6  C5  UNL d   1      -1.918   2.136   0.602  0.00  0.00     0.003 A 
ATOM      7  I   UNL d   1       0.201  -1.359  -0.857  0.00  0.00    -0.146 I 
ENDROOT
TORSDOF 0
ENDMDL
