MODEL 1
REMARK minimizedAffinity -4.66048241
REMARK minimizedRMSD -1
REMARK  0 active torsions:
REMARK  status: ('A' for Active; 'I' for Inactive)
ROOT
ATOM      1  C   UNL d   1      -0.982   3.004   1.662  0.00  0.00     0.023 A 
ATOM      2  C1  UNL d   1      -1.559   2.613   0.453  0.00  0.00     0.003 A 
ATOM      3  C2  UNL d   1      -1.089   1.479  -0.211  0.00  0.00     0.048 A 
ATOM      4  C3  UNL d   1      -0.043   0.739   0.339  0.00  0.00     0.023 A 
ATOM      5  C4  UNL d   1       0.537   1.126   1.548  0.00  0.00     0.048 A 
ATOM      6  C5  UNL d   1       0.065   2.261   2.208  0.00  0.00     0.003 A 
ATOM      7  I   UNL d   1       0.658  -0.951  -0.649  0.00  0.00    -0.146 I 
ENDROOT
TORSDOF 0
ENDMDL
