MODEL 1
REMARK minimizedAffinity 10.0014448
REMARK minimizedRMSD -1
REMARK  0 active torsions:
REMARK  status: ('A' for Active; 'I' for Inactive)
ROOT
ATOM      1  C   UNL d   1      -1.296   2.925   1.901  0.00  0.00     0.023 A 
ATOM      2  C1  UNL d   1      -1.945   3.110   0.680  0.00  0.00     0.003 A 
ATOM      3  C2  UNL d   1      -1.497   2.437  -0.459  0.00  0.00     0.048 A 
ATOM      4  C3  UNL d   1      -0.401   1.580  -0.369  0.00  0.00     0.023 A 
ATOM      5  C4  UNL d   1       0.250   1.390   0.851  0.00  0.00     0.048 A 
ATOM      6  C5  UNL d   1      -0.200   2.066   1.987  0.00  0.00     0.003 A 
ATOM      7  I   UNL d   1       0.267   0.576  -2.062  0.00  0.00    -0.146 I 
ENDROOT
TORSDOF 0
ENDMDL
