MODEL 1
REMARK minimizedAffinity -3.32341194
REMARK minimizedRMSD -1
REMARK  0 active torsions:
REMARK  status: ('A' for Active; 'I' for Inactive)
ROOT
ATOM      1  C   UNL d   1      -0.384   1.774   1.971  0.00  0.00     0.023 A 
ATOM      2  C1  UNL d   1       0.405   0.684   2.339  0.00  0.00     0.003 A 
ATOM      3  C2  UNL d   1       0.610  -0.365   1.441  0.00  0.00     0.048 A 
ATOM      4  C3  UNL d   1       0.025  -0.317   0.176  0.00  0.00     0.023 A 
ATOM      5  C4  UNL d   1      -0.764   0.772  -0.197  0.00  0.00     0.048 A 
ATOM      6  C5  UNL d   1      -0.967   1.818   0.705  0.00  0.00     0.003 A 
ATOM      7  I   UNL d   1       0.329  -1.878  -1.163  0.00  0.00    -0.146 I 
ENDROOT
TORSDOF 0
ENDMDL
