MODEL 1
REMARK minimizedAffinity -3.2539854
REMARK minimizedRMSD -1
REMARK  0 active torsions:
REMARK  status: ('A' for Active; 'I' for Inactive)
ROOT
ATOM      1  C   UNL d   1      -0.533   2.412   1.422  0.00  0.00     0.023 A 
ATOM      2  C1  UNL d   1       0.161   1.344   1.990  0.00  0.00     0.003 A 
ATOM      3  C2  UNL d   1       0.384   0.182   1.249  0.00  0.00     0.048 A 
ATOM      4  C3  UNL d   1      -0.087   0.095  -0.060  0.00  0.00     0.023 A 
ATOM      5  C4  UNL d   1      -0.781   1.162  -0.633  0.00  0.00     0.048 A 
ATOM      6  C5  UNL d   1      -1.003   2.322   0.112  0.00  0.00     0.003 A 
ATOM      7  I   UNL d   1       0.245  -1.634  -1.165  0.00  0.00    -0.146 I 
ENDROOT
TORSDOF 0
ENDMDL
