MODEL 1
REMARK minimizedAffinity -1.95407987
REMARK minimizedRMSD -1
REMARK  0 active torsions:
REMARK  status: ('A' for Active; 'I' for Inactive)
ROOT
ATOM      1  C   UNL d   1       0.615  -1.410  -0.656  0.00  0.00     0.023 A 
ATOM      2  C1  UNL d   1       0.956  -1.151   0.672  0.00  0.00     0.003 A 
ATOM      3  C2  UNL d   1       0.488   0.005   1.301  0.00  0.00     0.048 A 
ATOM      4  C3  UNL d   1      -0.321   0.896   0.597  0.00  0.00     0.023 A 
ATOM      5  C4  UNL d   1      -0.666   0.640  -0.731  0.00  0.00     0.048 A 
ATOM      6  C5  UNL d   1      -0.196  -0.516  -1.356  0.00  0.00     0.003 A 
ATOM      7  I   UNL d   1      -1.019   2.616   1.532  0.00  0.00    -0.146 I 
ENDROOT
TORSDOF 0
ENDMDL
