MODEL 1
REMARK minimizedAffinity -3.60102558
REMARK minimizedRMSD -1
REMARK  0 active torsions:
REMARK  status: ('A' for Active; 'I' for Inactive)
ROOT
ATOM      1  C   UNL d   1      -0.896   1.949   1.640  0.00  0.00     0.023 A 
ATOM      2  C1  UNL d   1       0.123   1.163   2.177  0.00  0.00     0.003 A 
ATOM      3  C2  UNL d   1       0.530   0.001   1.519  0.00  0.00     0.048 A 
ATOM      4  C3  UNL d   1      -0.085  -0.369   0.323  0.00  0.00     0.023 A 
ATOM      5  C4  UNL d   1      -1.105   0.416  -0.219  0.00  0.00     0.048 A 
ATOM      6  C5  UNL d   1      -1.509   1.577   0.444  0.00  0.00     0.003 A 
ATOM      7  I   UNL d   1       0.519  -2.098  -0.659  0.00  0.00    -0.146 I 
ENDROOT
TORSDOF 0
ENDMDL
