MODEL 1
REMARK minimizedAffinity -3.08687258
REMARK minimizedRMSD -1
REMARK  0 active torsions:
REMARK  status: ('A' for Active; 'I' for Inactive)
ROOT
ATOM      1  C   UNL d   1      -1.118   2.998   1.550  0.00  0.00     0.023 A 
ATOM      2  C1  UNL d   1      -0.431   2.023   2.273  0.00  0.00     0.003 A 
ATOM      3  C2  UNL d   1       0.012   0.862   1.637  0.00  0.00     0.048 A 
ATOM      4  C3  UNL d   1      -0.234   0.683   0.276  0.00  0.00     0.023 A 
ATOM      5  C4  UNL d   1      -0.921   1.656  -0.452  0.00  0.00     0.048 A 
ATOM      6  C5  UNL d   1      -1.362   2.815   0.189  0.00  0.00     0.003 A 
ATOM      7  I   UNL d   1       0.424  -1.045  -0.674  0.00  0.00    -0.146 I 
ENDROOT
TORSDOF 0
ENDMDL
