MODEL 1
REMARK minimizedAffinity -4.15648222
REMARK minimizedRMSD -1
REMARK  0 active torsions:
REMARK  status: ('A' for Active; 'I' for Inactive)
ROOT
ATOM      1  C   UNL d   1      -1.359   3.433   0.904  0.00  0.00     0.023 A 
ATOM      2  C1  UNL d   1      -1.098   2.470   1.878  0.00  0.00     0.003 A 
ATOM      3  C2  UNL d   1      -0.527   1.247   1.517  0.00  0.00     0.048 A 
ATOM      4  C3  UNL d   1      -0.219   0.996   0.181  0.00  0.00     0.023 A 
ATOM      5  C4  UNL d   1      -0.478   1.957  -0.797  0.00  0.00     0.048 A 
ATOM      6  C5  UNL d   1      -1.050   3.178  -0.432  0.00  0.00     0.003 A 
ATOM      7  I   UNL d   1       0.631  -0.823  -0.359  0.00  0.00    -0.146 I 
ENDROOT
TORSDOF 0
ENDMDL
