MODEL 1
REMARK minimizedAffinity -1.0511744
REMARK minimizedRMSD -1
REMARK  0 active torsions:
REMARK  status: ('A' for Active; 'I' for Inactive)
ROOT
ATOM      1  C   UNL d   1       0.114   1.386   0.664  0.00  0.00     0.023 A 
ATOM      2  C1  UNL d   1       0.127   1.278  -0.727  0.00  0.00     0.003 A 
ATOM      3  C2  UNL d   1       0.043   0.023  -1.332  0.00  0.00     0.048 A 
ATOM      4  C3  UNL d   1      -0.055  -1.121  -0.541  0.00  0.00     0.023 A 
ATOM      5  C4  UNL d   1      -0.069  -1.019   0.851  0.00  0.00     0.048 A 
ATOM      6  C5  UNL d   1       0.016   0.239   1.452  0.00  0.00     0.003 A 
ATOM      7  I   UNL d   1      -0.181  -2.991  -1.439  0.00  0.00    -0.146 I 
ENDROOT
TORSDOF 0
ENDMDL
