MODEL 1
REMARK minimizedAffinity -1.32572842
REMARK minimizedRMSD -1
REMARK  0 active torsions:
REMARK  status: ('A' for Active; 'I' for Inactive)
ROOT
ATOM      1  N1  IND d   1      -1.136   0.385   0.463  0.00  0.00    -0.196 N 
ATOM      2  C2  IND d   1      -0.989   1.073  -0.709  0.00  0.00     0.054 A 
ATOM      3  C3  IND d   1       0.269   0.932  -1.183  0.00  0.00    -0.031 A 
ATOM      4  C4  IND d   1       2.220  -0.466  -0.253  0.00  0.00     0.051 A 
ATOM      5  C5  IND d   1       2.578  -1.239   0.816  0.00  0.00    -0.031 A 
ATOM      6  C6  IND d   1       1.698  -1.518   1.841  0.00  0.00     0.015 A 
ATOM      7  C7  IND d   1       0.417  -1.042   1.830  0.00  0.00    -0.016 A 
ATOM      8  C8  IND d   1       0.053  -0.251   0.750  0.00  0.00    -0.047 A 
ATOM      9  C9  IND d   1       0.955   0.071  -0.273  0.00  0.00    -0.096 A 
ATOM     10  HN1 IND d   1      -1.850   0.354   0.941  0.00  0.00     0.298 HD
ENDROOT
TORSDOF 0
ENDMDL
