MODEL 1
REMARK minimizedAffinity -2.92202616
REMARK minimizedRMSD -1
REMARK  0 active torsions:
REMARK  status: ('A' for Active; 'I' for Inactive)
ROOT
ATOM      1  N1  IND d   1      -1.236  -0.765   2.634  0.00  0.00    -0.196 N 
ATOM      2  C2  IND d   1      -0.517  -1.606   3.437  0.00  0.00     0.054 A 
ATOM      3  C3  IND d   1       0.625  -1.984   2.820  0.00  0.00    -0.031 A 
ATOM      4  C4  IND d   1       1.564  -1.264   0.533  0.00  0.00     0.051 A 
ATOM      5  C5  IND d   1       1.248  -0.537  -0.580  0.00  0.00    -0.031 A 
ATOM      6  C6  IND d   1       0.066   0.167  -0.681  0.00  0.00     0.015 A 
ATOM      7  C7  IND d   1      -0.844   0.179   0.338  0.00  0.00    -0.016 A 
ATOM      8  C8  IND d   1      -0.530  -0.563   1.468  0.00  0.00    -0.047 A 
ATOM      9  C9  IND d   1       0.649  -1.313   1.559  0.00  0.00    -0.096 A 
ATOM     10  HN1 IND d   1      -2.000  -0.421   2.824  0.00  0.00     0.298 HD
ENDROOT
TORSDOF 0
ENDMDL
