MODEL 1
REMARK minimizedAffinity -2.55201054
REMARK minimizedRMSD -1
REMARK  0 active torsions:
REMARK  status: ('A' for Active; 'I' for Inactive)
ROOT
ATOM      1  N1  IND d   1      -0.960  -0.027   1.458  0.00  0.00    -0.196 N 
ATOM      2  C2  IND d   1      -1.321   0.942   0.565  0.00  0.00     0.054 A 
ATOM      3  C3  IND d   1      -0.362   1.096  -0.376  0.00  0.00    -0.031 A 
ATOM      4  C4  IND d   1       1.834  -0.208  -0.700  0.00  0.00     0.051 A 
ATOM      5  C5  IND d   1       2.615  -1.164  -0.115  0.00  0.00    -0.031 A 
ATOM      6  C6  IND d   1       2.236  -1.806   1.047  0.00  0.00     0.015 A 
ATOM      7  C7  IND d   1       1.050  -1.521   1.663  0.00  0.00    -0.016 A 
ATOM      8  C8  IND d   1       0.257  -0.545   1.075  0.00  0.00    -0.047 A 
ATOM      9  C9  IND d   1       0.657   0.139  -0.080  0.00  0.00    -0.096 A 
ATOM     10  HN1 IND d   1      -1.417  -0.272   2.144  0.00  0.00     0.298 HD
ENDROOT
TORSDOF 0
ENDMDL
