MODEL 1
REMARK minimizedAffinity -3.06943655
REMARK minimizedRMSD -1
REMARK  0 active torsions:
REMARK  status: ('A' for Active; 'I' for Inactive)
ROOT
ATOM      1  N1  IND d   1      -0.625   0.373   0.426  0.00  0.00    -0.196 N 
ATOM      2  C2  IND d   1      -0.513   1.452  -0.407  0.00  0.00     0.054 A 
ATOM      3  C3  IND d   1       0.694   1.453  -1.015  0.00  0.00    -0.031 A 
ATOM      4  C4  IND d   1       2.601  -0.271  -0.870  0.00  0.00     0.051 A 
ATOM      5  C5  IND d   1       2.977  -1.408  -0.212  0.00  0.00    -0.031 A 
ATOM      6  C6  IND d   1       2.154  -2.023   0.709  0.00  0.00     0.015 A 
ATOM      7  C7  IND d   1       0.914  -1.528   0.999  0.00  0.00    -0.016 A 
ATOM      8  C8  IND d   1       0.531  -0.370   0.338  0.00  0.00    -0.047 A 
ATOM      9  C9  IND d   1       1.379   0.283  -0.567  0.00  0.00    -0.096 A 
ATOM     10  HN1 IND d   1      -1.304   0.190   0.921  0.00  0.00     0.298 HD
ENDROOT
TORSDOF 0
ENDMDL
