MODEL 1
REMARK minimizedAffinity -2.38997984
REMARK minimizedRMSD -1
REMARK  0 active torsions:
REMARK  status: ('A' for Active; 'I' for Inactive)
ROOT
ATOM      1  N1  IND d   1      -0.040  -0.442  -1.074  0.00  0.00    -0.196 N 
ATOM      2  C2  IND d   1       0.385   0.325  -0.025  0.00  0.00     0.054 A 
ATOM      3  C3  IND d   1      -0.130   1.571  -0.115  0.00  0.00    -0.031 A 
ATOM      4  C4  IND d   1      -1.774   2.541  -1.843  0.00  0.00     0.051 A 
ATOM      5  C5  IND d   1      -2.417   2.233  -3.009  0.00  0.00    -0.031 A 
ATOM      6  C6  IND d   1      -2.301   0.991  -3.600  0.00  0.00     0.015 A 
ATOM      7  C7  IND d   1      -1.542   0.004  -3.038  0.00  0.00    -0.016 A 
ATOM      8  C8  IND d   1      -0.882   0.315  -1.858  0.00  0.00    -0.047 A 
ATOM      9  C9  IND d   1      -0.962   1.587  -1.276  0.00  0.00    -0.096 A 
ATOM     10  HN1 IND d   1       0.182  -1.260  -1.219  0.00  0.00     0.298 HD
ENDROOT
TORSDOF 0
ENDMDL
