MODEL 1
REMARK minimizedAffinity -1.22358119
REMARK minimizedRMSD -1
REMARK  0 active torsions:
REMARK  status: ('A' for Active; 'I' for Inactive)
ROOT
ATOM      1  N1  IND d   1      -1.742   0.401   1.642  0.00  0.00    -0.196 N 
ATOM      2  C2  IND d   1      -1.179  -0.773   2.060  0.00  0.00     0.054 A 
ATOM      3  C3  IND d   1      -0.298  -1.226   1.140  0.00  0.00    -0.031 A 
ATOM      4  C4  IND d   1       0.452  -0.149  -1.075  0.00  0.00     0.051 A 
ATOM      5  C5  IND d   1       0.192   0.907  -1.902  0.00  0.00    -0.031 A 
ATOM      6  C6  IND d   1      -0.743   1.871  -1.582  0.00  0.00     0.015 A 
ATOM      7  C7  IND d   1      -1.447   1.819  -0.412  0.00  0.00    -0.016 A 
ATOM      8  C8  IND d   1      -1.191   0.743   0.426  0.00  0.00    -0.047 A 
ATOM      9  C9  IND d   1      -0.274  -0.260   0.087  0.00  0.00    -0.096 A 
ATOM     10  HN1 IND d   1      -2.339   0.851   2.067  0.00  0.00     0.298 HD
ENDROOT
TORSDOF 0
ENDMDL
