MODEL 1
REMARK minimizedAffinity -4.81818867
REMARK minimizedRMSD -1
REMARK  0 active torsions:
REMARK  status: ('A' for Active; 'I' for Inactive)
ROOT
ATOM      1  N1  IND d   1       0.041  -1.117   1.613  0.00  0.00    -0.196 N 
ATOM      2  C2  IND d   1      -0.844  -0.344   0.915  0.00  0.00     0.054 A 
ATOM      3  C3  IND d   1      -0.187   0.449   0.039  0.00  0.00    -0.031 A 
ATOM      4  C4  IND d   1       2.330   0.570  -0.488  0.00  0.00     0.051 A 
ATOM      5  C5  IND d   1       3.540   0.082  -0.083  0.00  0.00    -0.031 A 
ATOM      6  C6  IND d   1       3.648  -0.852   0.927  0.00  0.00     0.015 A 
ATOM      7  C7  IND d   1       2.543  -1.343   1.565  0.00  0.00    -0.016 A 
ATOM      8  C8  IND d   1       1.313  -0.844   1.160  0.00  0.00    -0.047 A 
ATOM      9  C9  IND d   1       1.201   0.135   0.165  0.00  0.00    -0.096 A 
ATOM     10  HN1 IND d   1      -0.162  -1.680   2.231  0.00  0.00     0.298 HD
ENDROOT
TORSDOF 0
ENDMDL
