MODEL 1
REMARK minimizedAffinity -3.7723043
REMARK minimizedRMSD -1
REMARK  0 active torsions:
REMARK  status: ('A' for Active; 'I' for Inactive)
ROOT
ATOM      1  N1  IND d   1      -0.015   1.035   0.014  0.00  0.00    -0.196 N 
ATOM      2  C2  IND d   1      -1.149   0.549   0.603  0.00  0.00     0.054 A 
ATOM      3  C3  IND d   1      -0.916  -0.672   1.135  0.00  0.00    -0.031 A 
ATOM      4  C4  IND d   1       1.276  -2.017   1.246  0.00  0.00     0.051 A 
ATOM      5  C5  IND d   1       2.573  -2.001   0.814  0.00  0.00    -0.031 A 
ATOM      6  C6  IND d   1       3.084  -0.950   0.081  0.00  0.00     0.015 A 
ATOM      7  C7  IND d   1       2.317   0.135  -0.239  0.00  0.00    -0.016 A 
ATOM      8  C8  IND d   1       0.998   0.119   0.192  0.00  0.00    -0.047 A 
ATOM      9  C9  IND d   1       0.462  -0.965   0.899  0.00  0.00    -0.096 A 
ATOM     10  HN1 IND d   1       0.054   1.787  -0.397  0.00  0.00     0.298 HD
ENDROOT
TORSDOF 0
ENDMDL
