MODEL 1
REMARK minimizedAffinity -4.44621277
REMARK minimizedRMSD -1
REMARK  0 active torsions:
REMARK  status: ('A' for Active; 'I' for Inactive)
ROOT
ATOM      1  N1  IND d   1       2.158  -2.091   0.851  0.00  0.00    -0.196 N 
ATOM      2  C2  IND d   1       1.997  -3.218   1.608  0.00  0.00     0.054 A 
ATOM      3  C3  IND d   1       0.726  -3.301   2.062  0.00  0.00    -0.031 A 
ATOM      4  C4  IND d   1      -1.280  -1.755   1.602  0.00  0.00     0.051 A 
ATOM      5  C5  IND d   1      -1.615  -0.576   0.996  0.00  0.00    -0.031 A 
ATOM      6  C6  IND d   1      -0.691   0.172   0.295  0.00  0.00     0.015 A 
ATOM      7  C7  IND d   1       0.605  -0.239   0.163  0.00  0.00    -0.016 A 
ATOM      8  C8  IND d   1       0.950  -1.432   0.782  0.00  0.00    -0.047 A 
ATOM      9  C9  IND d   1       0.028  -2.174   1.531  0.00  0.00    -0.096 A 
ATOM     10  HN1 IND d   1       2.891  -1.836   0.480  0.00  0.00     0.298 HD
ENDROOT
TORSDOF 0
ENDMDL
