MODEL 1
REMARK minimizedAffinity -5.29904604
REMARK minimizedRMSD -1
REMARK  0 active torsions:
REMARK  status: ('A' for Active; 'I' for Inactive)
ROOT
ATOM      1  N1  IND d   1      -1.281  -0.839  -0.822  0.00  0.00    -0.196 N 
ATOM      2  C2  IND d   1      -1.404   0.501  -1.067  0.00  0.00     0.054 A 
ATOM      3  C3  IND d   1      -0.257   1.143  -0.751  0.00  0.00    -0.031 A 
ATOM      4  C4  IND d   1       1.980   0.181   0.086  0.00  0.00     0.051 A 
ATOM      5  C5  IND d   1       2.565  -0.984   0.495  0.00  0.00    -0.031 A 
ATOM      6  C6  IND d   1       1.886  -2.185   0.482  0.00  0.00     0.015 A 
ATOM      7  C7  IND d   1       0.593  -2.268   0.048  0.00  0.00    -0.016 A 
ATOM      8  C8  IND d   1      -0.007  -1.086  -0.361  0.00  0.00    -0.047 A 
ATOM      9  C9  IND d   1       0.664   0.143  -0.310  0.00  0.00    -0.096 A 
ATOM     10  HN1 IND d   1      -1.897  -1.428  -0.937  0.00  0.00     0.298 HD
ENDROOT
TORSDOF 0
ENDMDL
