MODEL 1
REMARK minimizedAffinity -4.89809799
REMARK minimizedRMSD -1
REMARK  0 active torsions:
REMARK  status: ('A' for Active; 'I' for Inactive)
ROOT
ATOM      1  N1  IND d   1      -1.064  -0.456  -0.545  0.00  0.00    -0.196 N 
ATOM      2  C2  IND d   1      -0.211   0.201   0.297  0.00  0.00     0.054 A 
ATOM      3  C3  IND d   1       0.107   1.414  -0.208  0.00  0.00    -0.031 A 
ATOM      4  C4  IND d   1      -0.737   2.566  -2.350  0.00  0.00     0.051 A 
ATOM      5  C5  IND d   1      -1.501   2.347  -3.462  0.00  0.00    -0.031 A 
ATOM      6  C6  IND d   1      -2.174   1.159  -3.661  0.00  0.00     0.015 A 
ATOM      7  C7  IND d   1      -2.117   0.146  -2.746  0.00  0.00    -0.016 A 
ATOM      8  C8  IND d   1      -1.337   0.363  -1.619  0.00  0.00    -0.047 A 
ATOM      9  C9  IND d   1      -0.617   1.550  -1.432  0.00  0.00    -0.096 A 
ATOM     10  HN1 IND d   1      -1.378  -1.247  -0.424  0.00  0.00     0.298 HD
ENDROOT
TORSDOF 0
ENDMDL
