MODEL 1
REMARK minimizedAffinity -3.85852003
REMARK minimizedRMSD -1
REMARK  0 active torsions:
REMARK  status: ('A' for Active; 'I' for Inactive)
ROOT
ATOM      1  N1  IND d   1      -1.081   0.301   0.149  0.00  0.00    -0.196 N 
ATOM      2  C2  IND d   1      -0.452   1.360  -0.444  0.00  0.00     0.054 A 
ATOM      3  C3  IND d   1       0.874   1.121  -0.549  0.00  0.00    -0.031 A 
ATOM      4  C4  IND d   1       2.213  -0.982   0.092  0.00  0.00     0.051 A 
ATOM      5  C5  IND d   1       2.081  -2.199   0.701  0.00  0.00    -0.031 A 
ATOM      6  C6  IND d   1       0.864  -2.654   1.165  0.00  0.00     0.015 A 
ATOM      7  C7  IND d   1      -0.274  -1.912   1.025  0.00  0.00    -0.016 A 
ATOM      8  C8  IND d   1      -0.144  -0.673   0.413  0.00  0.00    -0.047 A 
ATOM      9  C9  IND d   1       1.097  -0.188  -0.021  0.00  0.00    -0.096 A 
ATOM     10  HN1 IND d   1      -1.921   0.252   0.328  0.00  0.00     0.298 HD
ENDROOT
TORSDOF 0
ENDMDL
