MODEL 1
REMARK minimizedAffinity -3.53820872
REMARK minimizedRMSD -1
REMARK  0 active torsions:
REMARK  status: ('A' for Active; 'I' for Inactive)
ROOT
ATOM      1  N1  IND d   1       2.325  -0.099   0.308  0.00  0.00    -0.196 N 
ATOM      2  C2  IND d   1       3.034  -1.081   0.942  0.00  0.00     0.054 A 
ATOM      3  C3  IND d   1       2.195  -2.003   1.466  0.00  0.00    -0.031 A 
ATOM      4  C4  IND d   1      -0.371  -2.151   1.318  0.00  0.00     0.051 A 
ATOM      5  C5  IND d   1      -1.466  -1.465   0.873  0.00  0.00    -0.031 A 
ATOM      6  C6  IND d   1      -1.351  -0.265   0.201  0.00  0.00     0.015 A 
ATOM      7  C7  IND d   1      -0.130   0.290  -0.062  0.00  0.00    -0.016 A 
ATOM      8  C8  IND d   1       0.984  -0.401   0.394  0.00  0.00    -0.047 A 
ATOM      9  C9  IND d   1       0.871  -1.598   1.114  0.00  0.00    -0.096 A 
ATOM     10  HN1 IND d   1       2.660   0.592  -0.079  0.00  0.00     0.298 HD
ENDROOT
TORSDOF 0
ENDMDL
