MODEL 1
REMARK minimizedAffinity -4.26299334
REMARK minimizedRMSD -1
REMARK  0 active torsions:
REMARK  status: ('A' for Active; 'I' for Inactive)
ROOT
ATOM      1  N1  IND d   1       0.529   0.743   0.089  0.00  0.00    -0.196 N 
ATOM      2  C2  IND d   1       0.784  -0.600   0.044  0.00  0.00     0.054 A 
ATOM      3  C3  IND d   1      -0.033  -1.204  -0.848  0.00  0.00    -0.031 A 
ATOM      4  C4  IND d   1      -1.791  -0.170  -2.418  0.00  0.00     0.051 A 
ATOM      5  C5  IND d   1      -2.408   1.014  -2.714  0.00  0.00    -0.031 A 
ATOM      6  C6  IND d   1      -2.068   2.192  -2.081  0.00  0.00     0.015 A 
ATOM      7  C7  IND d   1      -1.087   2.232  -1.131  0.00  0.00    -0.016 A 
ATOM      8  C8  IND d   1      -0.464   1.031  -0.822  0.00  0.00    -0.047 A 
ATOM      9  C9  IND d   1      -0.834  -0.175  -1.431  0.00  0.00    -0.096 A 
ATOM     10  HN1 IND d   1       0.922   1.311   0.600  0.00  0.00     0.298 HD
ENDROOT
TORSDOF 0
ENDMDL
