MODEL 1
REMARK minimizedAffinity 1.5879457
REMARK minimizedRMSD -1
REMARK  0 active torsions:
REMARK  status: ('A' for Active; 'I' for Inactive)
ROOT
ATOM      1  N1  IND d   1       0.237  -2.502   1.867  0.00  0.00    -0.196 N 
ATOM      2  C2  IND d   1      -0.749  -1.816   1.215  0.00  0.00     0.054 A 
ATOM      3  C3  IND d   1      -0.217  -0.820   0.471  0.00  0.00    -0.031 A 
ATOM      4  C4  IND d   1       2.254  -0.199   0.099  0.00  0.00     0.051 A 
ATOM      5  C5  IND d   1       3.518  -0.515   0.512  0.00  0.00    -0.031 A 
ATOM      6  C6  IND d   1       3.758  -1.531   1.414  0.00  0.00     0.015 A 
ATOM      7  C7  IND d   1       2.739  -2.280   1.930  0.00  0.00    -0.016 A 
ATOM      8  C8  IND d   1       1.453  -1.958   1.518  0.00  0.00    -0.047 A 
ATOM      9  C9  IND d   1       1.200  -0.900   0.636  0.00  0.00    -0.096 A 
ATOM     10  HN1 IND d   1       0.117  -3.162   2.405  0.00  0.00     0.298 HD
ENDROOT
TORSDOF 0
ENDMDL
