MODEL 1
REMARK minimizedAffinity -4.02366161
REMARK minimizedRMSD -1
REMARK  0 active torsions:
REMARK  status: ('A' for Active; 'I' for Inactive)
ROOT
ATOM      1  N1  IND d   1       1.271   0.937   0.170  0.00  0.00    -0.196 N 
ATOM      2  C2  IND d   1       0.008   1.459   0.150  0.00  0.00     0.054 A 
ATOM      3  C3  IND d   1      -0.887   0.539   0.576  0.00  0.00    -0.031 A 
ATOM      4  C4  IND d   1      -0.488  -1.849   1.450  0.00  0.00     0.051 A 
ATOM      5  C5  IND d   1       0.495  -2.783   1.623  0.00  0.00    -0.031 A 
ATOM      6  C6  IND d   1       1.814  -2.518   1.316  0.00  0.00     0.015 A 
ATOM      7  C7  IND d   1       2.203  -1.300   0.834  0.00  0.00    -0.016 A 
ATOM      8  C8  IND d   1       1.206  -0.352   0.651  0.00  0.00    -0.047 A 
ATOM      9  C9  IND d   1      -0.140  -0.629   0.920  0.00  0.00    -0.096 A 
ATOM     10  HN1 IND d   1       1.986   1.346  -0.077  0.00  0.00     0.298 HD
ENDROOT
TORSDOF 0
ENDMDL
