MODEL 1
REMARK minimizedAffinity -2.30068088
REMARK minimizedRMSD -1
REMARK  0 active torsions:
REMARK  status: ('A' for Active; 'I' for Inactive)
ROOT
ATOM      1  N1  IND d   1       1.535  -1.499   0.384  0.00  0.00    -0.196 N 
ATOM      2  C2  IND d   1       0.748  -2.315   1.148  0.00  0.00     0.054 A 
ATOM      3  C3  IND d   1      -0.450  -1.732   1.376  0.00  0.00    -0.031 A 
ATOM      4  C4  IND d   1      -1.371   0.510   0.509  0.00  0.00     0.051 A 
ATOM      5  C5  IND d   1      -1.007   1.624  -0.195  0.00  0.00    -0.031 A 
ATOM      6  C6  IND d   1       0.247   1.755  -0.755  0.00  0.00     0.015 A 
ATOM      7  C7  IND d   1       1.185   0.768  -0.642  0.00  0.00    -0.016 A 
ATOM      8  C8  IND d   1       0.821  -0.362   0.078  0.00  0.00    -0.047 A 
ATOM      9  C9  IND d   1      -0.435  -0.482   0.685  0.00  0.00    -0.096 A 
ATOM     10  HN1 IND d   1       2.341  -1.668   0.136  0.00  0.00     0.298 HD
ENDROOT
TORSDOF 0
ENDMDL
