MODEL 1
REMARK minimizedAffinity -5.77426052
REMARK minimizedRMSD -1
REMARK  2 active torsions:
REMARK  status: ('A' for Active; 'I' for Inactive)
REMARK    1  A    between atoms: C1_2  and  C2_3 
REMARK    2  A    between atoms: C2_3  and  C3_4 
ROOT
ATOM      1  C3  UNL d   1       0.554   0.037   0.065  0.00  0.00    -0.075 A 
ATOM      2  C4  UNL d   1       1.486   1.030   0.404  0.00  0.00     0.002 A 
ATOM      3  C5  UNL d   1       2.813   0.693   0.672  0.00  0.00     0.002 A 
ATOM      4  C6  UNL d   1       3.223  -0.637   0.615  0.00  0.00    -0.004 A 
ATOM      5  C7  UNL d   1       2.302  -1.633   0.296  0.00  0.00     0.002 A 
ATOM      6  C8  UNL d   1       0.975  -1.299   0.023  0.00  0.00     0.002 A 
ENDROOT
BRANCH   1   7
ATOM      7  C2  UNL d   1      -0.877   0.398  -0.255  0.00  0.00     0.056 C 
BRANCH   7   8
ATOM      8  C1  UNL d   1      -1.625   1.068   0.902  0.00  0.00     0.007 C 
ATOM      9  C   UNL d   1      -3.119   0.774   0.901  0.00  0.00     0.009 C 
ENDBRANCH   7   8
ENDBRANCH   1   7
TORSDOF 2
ENDMDL
