MODEL 1
REMARK minimizedAffinity -5.52605295
REMARK minimizedRMSD -1
REMARK  2 active torsions:
REMARK  status: ('A' for Active; 'I' for Inactive)
REMARK    1  A    between atoms: C1_2  and  C2_3 
REMARK    2  A    between atoms: C2_3  and  C3_4 
ROOT
ATOM      1  C3  UNL d   1       0.354  -0.004   0.193  0.00  0.00    -0.075 A 
ATOM      2  C4  UNL d   1       0.893   1.289   0.263  0.00  0.00     0.002 A 
ATOM      3  C5  UNL d   1       2.262   1.476   0.453  0.00  0.00     0.002 A 
ATOM      4  C6  UNL d   1       3.107   0.377   0.585  0.00  0.00    -0.004 A 
ATOM      5  C7  UNL d   1       2.580  -0.912   0.533  0.00  0.00     0.002 A 
ATOM      6  C8  UNL d   1       1.211  -1.103   0.339  0.00  0.00     0.002 A 
ENDROOT
BRANCH   1   7
ATOM      7  C2  UNL d   1      -1.123  -0.214  -0.042  0.00  0.00     0.056 C 
BRANCH   7   8
ATOM      8  C1  UNL d   1      -1.946   1.079  -0.032  0.00  0.00     0.007 C 
ATOM      9  C   UNL d   1      -2.999   1.112   1.067  0.00  0.00     0.009 C 
ENDBRANCH   7   8
ENDBRANCH   1   7
TORSDOF 2
ENDMDL
