MODEL 1
REMARK minimizedAffinity -3.30390286
REMARK minimizedRMSD -1
REMARK  2 active torsions:
REMARK  status: ('A' for Active; 'I' for Inactive)
REMARK    1  A    between atoms: C1_2  and  C2_3 
REMARK    2  A    between atoms: C2_3  and  C3_4 
ROOT
ATOM      1  C3  UNL d   1       1.187  -0.488   0.457  0.00  0.00    -0.075 A 
ATOM      2  C4  UNL d   1       0.857   0.872   0.545  0.00  0.00     0.002 A 
ATOM      3  C5  UNL d   1      -0.319   1.355  -0.029  0.00  0.00     0.002 A 
ATOM      4  C6  UNL d   1      -1.174   0.488  -0.706  0.00  0.00    -0.004 A 
ATOM      5  C7  UNL d   1      -0.848  -0.862  -0.814  0.00  0.00     0.002 A 
ATOM      6  C8  UNL d   1       0.326  -1.349  -0.237  0.00  0.00     0.002 A 
ENDROOT
BRANCH   1   7
ATOM      7  C2  UNL d   1       2.444  -1.022   1.101  0.00  0.00     0.056 C 
BRANCH   7   8
ATOM      8  C1  UNL d   1       3.733  -0.629   0.373  0.00  0.00     0.007 C 
ATOM      9  C   UNL d   1       3.840  -1.227  -1.023  0.00  0.00     0.009 C 
ENDBRANCH   7   8
ENDBRANCH   1   7
TORSDOF 2
ENDMDL
