MODEL 1
REMARK minimizedAffinity -6.17355919
REMARK minimizedRMSD -1
REMARK  2 active torsions:
REMARK  status: ('A' for Active; 'I' for Inactive)
REMARK    1  A    between atoms: C1_2  and  C2_3 
REMARK    2  A    between atoms: C2_3  and  C3_4 
ROOT
ATOM      1  C3  UNL d   1       0.403   0.826   0.259  0.00  0.00    -0.075 A 
ATOM      2  C4  UNL d   1       1.616   1.463   0.559  0.00  0.00     0.002 A 
ATOM      3  C5  UNL d   1       2.769   0.714   0.799  0.00  0.00     0.002 A 
ATOM      4  C6  UNL d   1       2.721  -0.677   0.753  0.00  0.00    -0.004 A 
ATOM      5  C7  UNL d   1       1.518  -1.321   0.473  0.00  0.00     0.002 A 
ATOM      6  C8  UNL d   1       0.364  -0.575   0.228  0.00  0.00     0.002 A 
ENDROOT
BRANCH   1   7
ATOM      7  C2  UNL d   1      -0.842   1.631  -0.030  0.00  0.00     0.056 C 
BRANCH   7   8
ATOM      8  C1  UNL d   1      -2.145   0.928   0.365  0.00  0.00     0.007 C 
ATOM      9  C   UNL d   1      -3.008   1.752   1.310  0.00  0.00     0.009 C 
ENDBRANCH   7   8
ENDBRANCH   1   7
TORSDOF 2
ENDMDL
