MODEL 1
REMARK minimizedAffinity -5.66057301
REMARK minimizedRMSD -1
REMARK  2 active torsions:
REMARK  status: ('A' for Active; 'I' for Inactive)
REMARK    1  A    between atoms: C1_2  and  C2_3 
REMARK    2  A    between atoms: C2_3  and  C3_4 
ROOT
ATOM      1  C3  UNL d   1       1.428   0.426   0.026  0.00  0.00    -0.075 A 
ATOM      2  C4  UNL d   1       1.252  -0.965   0.067  0.00  0.00     0.002 A 
ATOM      3  C5  UNL d   1       2.334  -1.809   0.320  0.00  0.00     0.002 A 
ATOM      4  C6  UNL d   1       3.604  -1.275   0.525  0.00  0.00    -0.004 A 
ATOM      5  C7  UNL d   1       3.794   0.105   0.470  0.00  0.00     0.002 A 
ATOM      6  C8  UNL d   1       2.712   0.951   0.221  0.00  0.00     0.002 A 
ENDROOT
BRANCH   1   7
ATOM      7  C2  UNL d   1       0.255   1.346  -0.219  0.00  0.00     0.056 C 
BRANCH   7   8
ATOM      8  C1  UNL d   1      -1.015   0.627  -0.684  0.00  0.00     0.007 C 
ATOM      9  C   UNL d   1      -2.218   0.894   0.210  0.00  0.00     0.009 C 
ENDBRANCH   7   8
ENDBRANCH   1   7
TORSDOF 2
ENDMDL
