MODEL 1
REMARK minimizedAffinity -2.55510569
REMARK minimizedRMSD -1
REMARK  2 active torsions:
REMARK  status: ('A' for Active; 'I' for Inactive)
REMARK    1  A    between atoms: C1_2  and  C2_3 
REMARK    2  A    between atoms: C2_3  and  C3_4 
ROOT
ATOM      1  C3  UNL d   1      -0.844   0.928  -0.214  0.00  0.00    -0.075 A 
ATOM      2  C4  UNL d   1      -0.408  -0.298   0.310  0.00  0.00     0.002 A 
ATOM      3  C5  UNL d   1       0.900  -0.446   0.771  0.00  0.00     0.002 A 
ATOM      4  C6  UNL d   1       1.791   0.623   0.704  0.00  0.00    -0.004 A 
ATOM      5  C7  UNL d   1       1.374   1.840   0.170  0.00  0.00     0.002 A 
ATOM      6  C8  UNL d   1       0.064   1.993  -0.288  0.00  0.00     0.002 A 
ENDROOT
BRANCH   1   7
ATOM      7  C2  UNL d   1      -2.267   1.104  -0.687  0.00  0.00     0.056 C 
BRANCH   7   8
ATOM      8  C1  UNL d   1      -3.322   0.690   0.344  0.00  0.00     0.007 C 
ATOM      9  C   UNL d   1      -3.490   1.701   1.470  0.00  0.00     0.009 C 
ENDBRANCH   7   8
ENDBRANCH   1   7
TORSDOF 2
ENDMDL
