MODEL 1
REMARK minimizedAffinity -5.29327011
REMARK minimizedRMSD -1
REMARK  3 active torsions:
REMARK  status: ('A' for Active; 'I' for Inactive)
REMARK    1  A    between atoms: C3'_2  and  C2'_3 
REMARK    2  A    between atoms: C2'_3  and  C1'_4 
REMARK    3  A    between atoms: C1'_4  and  C1_5 
ROOT
ATOM      1  C1  N4B d   1      -0.042   0.523   0.182  0.00  0.00    -0.075 A 
ATOM      2  C2  N4B d   1      -1.266  -0.168   0.319  0.00  0.00     0.002 A 
ATOM      3  C3  N4B d   1      -1.303  -1.374   0.976  0.00  0.00     0.002 A 
ATOM      4  C4  N4B d   1      -0.132  -1.914   1.485  0.00  0.00    -0.004 A 
ATOM      5  C5  N4B d   1       1.041  -1.228   1.371  0.00  0.00     0.002 A 
ATOM      6  C6  N4B d   1       1.093  -0.014   0.717  0.00  0.00     0.002 A 
ENDROOT
BRANCH   1   7
ATOM      7  C1' N4B d   1       0.064   1.802  -0.602  0.00  0.00     0.057 C 
BRANCH   7   8
ATOM      8  C2' N4B d   1       0.361   2.953   0.355  0.00  0.00     0.009 C 
BRANCH   8   9
ATOM      9  C3' N4B d   1       1.812   3.396   0.278  0.00  0.00     0.004 C 
ATOM     10  C4' N4B d   1       2.364   3.810   1.609  0.00  0.00     0.003 C 
ENDBRANCH   8   9
ENDBRANCH   7   8
ENDBRANCH   1   7
TORSDOF 3
ENDMDL
