MODEL 1
REMARK minimizedAffinity -0.875258029
REMARK minimizedRMSD -1
REMARK  3 active torsions:
REMARK  status: ('A' for Active; 'I' for Inactive)
REMARK    1  A    between atoms: C3'_2  and  C2'_3 
REMARK    2  A    between atoms: C2'_3  and  C1'_4 
REMARK    3  A    between atoms: C1'_4  and  C1_5 
ROOT
ATOM      1  C1  N4B d   1      -0.461  -0.280  -0.124  0.00  0.00    -0.075 A 
ATOM      2  C2  N4B d   1      -0.579  -0.318   1.283  0.00  0.00     0.002 A 
ATOM      3  C3  N4B d   1      -0.920  -1.490   1.912  0.00  0.00     0.002 A 
ATOM      4  C4  N4B d   1      -1.164  -2.627   1.158  0.00  0.00    -0.004 A 
ATOM      5  C5  N4B d   1      -1.023  -2.589  -0.198  0.00  0.00     0.002 A 
ATOM      6  C6  N4B d   1      -0.678  -1.419  -0.844  0.00  0.00     0.002 A 
ENDROOT
BRANCH   1   7
ATOM      7  C1' N4B d   1      -0.175   0.998  -0.864  0.00  0.00     0.057 C 
BRANCH   7   8
ATOM      8  C2' N4B d   1       0.773   1.856  -0.032  0.00  0.00     0.009 C 
BRANCH   8   9
ATOM      9  C3' N4B d   1       0.103   3.126   0.465  0.00  0.00     0.004 C 
ATOM     10  C4' N4B d   1       0.962   3.900   1.420  0.00  0.00     0.003 C 
ENDBRANCH   8   9
ENDBRANCH   7   8
ENDBRANCH   1   7
TORSDOF 3
ENDMDL
