MODEL 1
REMARK minimizedAffinity -4.36614847
REMARK minimizedRMSD -1
REMARK  3 active torsions:
REMARK  status: ('A' for Active; 'I' for Inactive)
REMARK    1  A    between atoms: C3'_2  and  C2'_3 
REMARK    2  A    between atoms: C2'_3  and  C1'_4 
REMARK    3  A    between atoms: C1'_4  and  C1_5 
ROOT
ATOM      1  C1  N4B d   1      -0.220   0.164  -0.602  0.00  0.00    -0.075 A 
ATOM      2  C2  N4B d   1      -0.020  -0.539  -1.811  0.00  0.00     0.002 A 
ATOM      3  C3  N4B d   1      -0.301  -1.881  -1.880  0.00  0.00     0.002 A 
ATOM      4  C4  N4B d   1      -0.764  -2.543  -0.752  0.00  0.00    -0.004 A 
ATOM      5  C5  N4B d   1      -0.978  -1.852   0.404  0.00  0.00     0.002 A 
ATOM      6  C6  N4B d   1      -0.704  -0.502   0.486  0.00  0.00     0.002 A 
ENDROOT
BRANCH   1   7
ATOM      7  C1' N4B d   1       0.155   1.613  -0.455  0.00  0.00     0.057 C 
BRANCH   7   8
ATOM      8  C2' N4B d   1       1.245   1.743   0.605  0.00  0.00     0.009 C 
BRANCH   8   9
ATOM      9  C3' N4B d   1       1.286   3.137   1.209  0.00  0.00     0.004 C 
ATOM     10  C4' N4B d   1       2.620   3.802   1.041  0.00  0.00     0.003 C 
ENDBRANCH   8   9
ENDBRANCH   7   8
ENDBRANCH   1   7
TORSDOF 3
ENDMDL
