MODEL 1
REMARK minimizedAffinity -4.40162992
REMARK minimizedRMSD -1
REMARK  3 active torsions:
REMARK  status: ('A' for Active; 'I' for Inactive)
REMARK    1  A    between atoms: C3'_2  and  C2'_3 
REMARK    2  A    between atoms: C2'_3  and  C1'_4 
REMARK    3  A    between atoms: C1'_4  and  C1_5 
ROOT
ATOM      1  C1  N4B d   1      -0.273  -0.261  -0.410  0.00  0.00    -0.075 A 
ATOM      2  C2  N4B d   1      -0.060  -0.949  -1.625  0.00  0.00     0.002 A 
ATOM      3  C3  N4B d   1      -0.365  -2.285  -1.720  0.00  0.00     0.002 A 
ATOM      4  C4  N4B d   1      -0.865  -2.955  -0.613  0.00  0.00    -0.004 A 
ATOM      5  C5  N4B d   1      -1.092  -2.277   0.549  0.00  0.00     0.002 A 
ATOM      6  C6  N4B d   1      -0.794  -0.934   0.657  0.00  0.00     0.002 A 
ENDROOT
BRANCH   1   7
ATOM      7  C1' N4B d   1       0.125   1.178  -0.232  0.00  0.00     0.057 C 
BRANCH   7   8
ATOM      8  C2' N4B d   1       1.458   1.241   0.509  0.00  0.00     0.009 C 
BRANCH   8   9
ATOM      9  C3' N4B d   1       2.157   2.574   0.308  0.00  0.00     0.004 C 
ATOM     10  C4' N4B d   1       1.402   3.723   0.908  0.00  0.00     0.003 C 
ENDBRANCH   8   9
ENDBRANCH   7   8
ENDBRANCH   1   7
TORSDOF 3
ENDMDL
