MODEL 1
REMARK minimizedAffinity -4.9770236
REMARK minimizedRMSD -1
REMARK  3 active torsions:
REMARK  status: ('A' for Active; 'I' for Inactive)
REMARK    1  A    between atoms: C3'_2  and  C2'_3 
REMARK    2  A    between atoms: C2'_3  and  C1'_4 
REMARK    3  A    between atoms: C1'_4  and  C1_5 
ROOT
ATOM      1  C1  N4B d   1       0.576  -1.245  -1.100  0.00  0.00    -0.075 A 
ATOM      2  C2  N4B d   1       0.355  -0.190  -2.011  0.00  0.00     0.002 A 
ATOM      3  C3  N4B d   1       0.319   1.108  -1.564  0.00  0.00     0.002 A 
ATOM      4  C4  N4B d   1       0.483   1.372  -0.212  0.00  0.00    -0.004 A 
ATOM      5  C5  N4B d   1       0.722   0.349   0.658  0.00  0.00     0.002 A 
ATOM      6  C6  N4B d   1       0.764  -0.960   0.222  0.00  0.00     0.002 A 
ENDROOT
BRANCH   1   7
ATOM      7  C1' N4B d   1       0.538  -2.687  -1.529  0.00  0.00     0.057 C 
BRANCH   7   8
ATOM      8  C2' N4B d   1      -0.186  -3.507  -0.466  0.00  0.00     0.009 C 
BRANCH   8   9
ATOM      9  C3' N4B d   1      -1.647  -3.729  -0.818  0.00  0.00     0.004 C 
ATOM     10  C4' N4B d   1      -2.582  -2.991   0.094  0.00  0.00     0.003 C 
ENDBRANCH   8   9
ENDBRANCH   7   8
ENDBRANCH   1   7
TORSDOF 3
ENDMDL
