MODEL 1
REMARK minimizedAffinity -4.60247898
REMARK minimizedRMSD -1
REMARK  3 active torsions:
REMARK  status: ('A' for Active; 'I' for Inactive)
REMARK    1  A    between atoms: C3'_2  and  C2'_3 
REMARK    2  A    between atoms: C2'_3  and  C1'_4 
REMARK    3  A    between atoms: C1'_4  and  C1_5 
ROOT
ATOM      1  C1  N4B d   1       0.050  -0.691  -0.084  0.00  0.00    -0.075 A 
ATOM      2  C2  N4B d   1       0.159  -1.069  -1.441  0.00  0.00     0.002 A 
ATOM      3  C3  N4B d   1      -0.055  -2.375  -1.809  0.00  0.00     0.002 A 
ATOM      4  C4  N4B d   1      -0.359  -3.319  -0.840  0.00  0.00    -0.004 A 
ATOM      5  C5  N4B d   1      -0.488  -2.941   0.464  0.00  0.00     0.002 A 
ATOM      6  C6  N4B d   1      -0.279  -1.632   0.848  0.00  0.00     0.002 A 
ENDROOT
BRANCH   1   7
ATOM      7  C1' N4B d   1       0.360   0.707   0.378  0.00  0.00     0.057 C 
BRANCH   7   8
ATOM      8  C2' N4B d   1      -0.279   1.705  -0.584  0.00  0.00     0.009 C 
BRANCH   8   9
ATOM      9  C3' N4B d   1      -0.158   3.134  -0.083  0.00  0.00     0.004 C 
ATOM     10  C4' N4B d   1       1.231   3.474   0.370  0.00  0.00     0.003 C 
ENDBRANCH   8   9
ENDBRANCH   7   8
ENDBRANCH   1   7
TORSDOF 3
ENDMDL
