MODEL 1
REMARK minimizedAffinity -2.30094743
REMARK minimizedRMSD -1
REMARK  3 active torsions:
REMARK  status: ('A' for Active; 'I' for Inactive)
REMARK    1  A    between atoms: C3'_2  and  C2'_3 
REMARK    2  A    between atoms: C2'_3  and  C1'_4 
REMARK    3  A    between atoms: C1'_4  and  C1_5 
ROOT
ATOM      1  C1  N4B d   1       0.001  -0.418  -0.406  0.00  0.00    -0.075 A 
ATOM      2  C2  N4B d   1      -0.616  -0.760   0.817  0.00  0.00     0.002 A 
ATOM      3  C3  N4B d   1      -0.949  -2.067   1.075  0.00  0.00     0.002 A 
ATOM      4  C4  N4B d   1      -0.692  -3.042   0.122  0.00  0.00    -0.004 A 
ATOM      5  C5  N4B d   1      -0.072  -2.706  -1.046  0.00  0.00     0.002 A 
ATOM      6  C6  N4B d   1       0.271  -1.397  -1.317  0.00  0.00     0.002 A 
ENDROOT
BRANCH   1   7
ATOM      7  C1' N4B d   1       0.306   1.010  -0.770  0.00  0.00     0.057 C 
BRANCH   7   8
ATOM      8  C2' N4B d   1       0.248   1.870   0.489  0.00  0.00     0.009 C 
BRANCH   8   9
ATOM      9  C3' N4B d   1       0.770   3.275   0.242  0.00  0.00     0.004 C 
ATOM     10  C4' N4B d   1       2.262   3.369   0.363  0.00  0.00     0.003 C 
ENDBRANCH   8   9
ENDBRANCH   7   8
ENDBRANCH   1   7
TORSDOF 3
ENDMDL
