MODEL 1
REMARK minimizedAffinity -4.11030674
REMARK minimizedRMSD -1
REMARK  3 active torsions:
REMARK  status: ('A' for Active; 'I' for Inactive)
REMARK    1  A    between atoms: C3'_2  and  C2'_3 
REMARK    2  A    between atoms: C2'_3  and  C1'_4 
REMARK    3  A    between atoms: C1'_4  and  C1_5 
ROOT
ATOM      1  C1  N4B d   1      -0.113  -0.259   0.344  0.00  0.00    -0.075 A 
ATOM      2  C2  N4B d   1       0.235  -0.585  -0.985  0.00  0.00     0.002 A 
ATOM      3  C3  N4B d   1      -0.037  -1.837  -1.478  0.00  0.00     0.002 A 
ATOM      4  C4  N4B d   1      -0.638  -2.781  -0.659  0.00  0.00    -0.004 A 
ATOM      5  C5  N4B d   1      -0.995  -2.450   0.615  0.00  0.00     0.002 A 
ATOM      6  C6  N4B d   1      -0.730  -1.194   1.123  0.00  0.00     0.002 A 
ENDROOT
BRANCH   1   7
ATOM      7  C1' N4B d   1       0.242   1.069   0.955  0.00  0.00     0.057 C 
BRANCH   7   8
ATOM      8  C2' N4B d   1       0.761   2.000  -0.138  0.00  0.00     0.009 C 
BRANCH   8   9
ATOM      9  C3' N4B d   1       0.943   3.422   0.366  0.00  0.00     0.004 C 
ATOM     10  C4' N4B d   1       2.369   3.882   0.304  0.00  0.00     0.003 C 
ENDBRANCH   8   9
ENDBRANCH   7   8
ENDBRANCH   1   7
TORSDOF 3
ENDMDL
