MODEL 1
REMARK minimizedAffinity -5.5861659
REMARK minimizedRMSD -1
REMARK  3 active torsions:
REMARK  status: ('A' for Active; 'I' for Inactive)
REMARK    1  A    between atoms: C3'_2  and  C2'_3 
REMARK    2  A    between atoms: C2'_3  and  C1'_4 
REMARK    3  A    between atoms: C1'_4  and  C1_5 
ROOT
ATOM      1  C1  N4B d   1       0.595  -0.632   0.192  0.00  0.00    -0.075 A 
ATOM      2  C2  N4B d   1       0.356  -1.201  -1.077  0.00  0.00     0.002 A 
ATOM      3  C3  N4B d   1       0.046  -2.535  -1.184  0.00  0.00     0.002 A 
ATOM      4  C4  N4B d   1      -0.011  -3.319  -0.042  0.00  0.00    -0.004 A 
ATOM      5  C5  N4B d   1       0.197  -2.756   1.183  0.00  0.00     0.002 A 
ATOM      6  C6  N4B d   1       0.505  -1.416   1.306  0.00  0.00     0.002 A 
ENDROOT
BRANCH   1   7
ATOM      7  C1' N4B d   1       1.021   0.802   0.352  0.00  0.00     0.057 C 
BRANCH   7   8
ATOM      8  C2' N4B d   1       0.068   1.698  -0.434  0.00  0.00     0.009 C 
BRANCH   8   9
ATOM      9  C3' N4B d   1       0.242   3.164  -0.077  0.00  0.00     0.004 C 
ATOM     10  C4' N4B d   1       1.593   3.465   0.500  0.00  0.00     0.003 C 
ENDBRANCH   8   9
ENDBRANCH   7   8
ENDBRANCH   1   7
TORSDOF 3
ENDMDL
