MODEL 1
REMARK minimizedAffinity -4.93898392
REMARK minimizedRMSD -1
REMARK  3 active torsions:
REMARK  status: ('A' for Active; 'I' for Inactive)
REMARK    1  A    between atoms: C3'_2  and  C2'_3 
REMARK    2  A    between atoms: C2'_3  and  C1'_4 
REMARK    3  A    between atoms: C1'_4  and  C1_5 
ROOT
ATOM      1  C1  N4B d   1       0.697   2.263   0.180  0.00  0.00    -0.075 A 
ATOM      2  C2  N4B d   1       1.122   3.369  -0.588  0.00  0.00     0.002 A 
ATOM      3  C3  N4B d   1       1.688   4.457   0.030  0.00  0.00     0.002 A 
ATOM      4  C4  N4B d   1       1.823   4.469   1.410  0.00  0.00    -0.004 A 
ATOM      5  C5  N4B d   1       1.434   3.386   2.142  0.00  0.00     0.002 A 
ATOM      6  C6  N4B d   1       0.866   2.284   1.534  0.00  0.00     0.002 A 
ENDROOT
BRANCH   1   7
ATOM      7  C1' N4B d   1      -0.007   1.088  -0.442  0.00  0.00     0.057 C 
BRANCH   7   8
ATOM      8  C2' N4B d   1       0.163  -0.132   0.459  0.00  0.00     0.009 C 
BRANCH   8   9
ATOM      9  C3' N4B d   1      -1.172  -0.752   0.835  0.00  0.00     0.004 C 
ATOM     10  C4' N4B d   1      -1.140  -2.251   0.822  0.00  0.00     0.003 C 
ENDBRANCH   8   9
ENDBRANCH   7   8
ENDBRANCH   1   7
TORSDOF 3
ENDMDL
