MODEL 1
REMARK minimizedAffinity -2.93959045
REMARK minimizedRMSD -1
REMARK  3 active torsions:
REMARK  status: ('A' for Active; 'I' for Inactive)
REMARK    1  A    between atoms: C3'_2  and  C2'_3 
REMARK    2  A    between atoms: C2'_3  and  C1'_4 
REMARK    3  A    between atoms: C1'_4  and  C1_5 
ROOT
ATOM      1  C1  N4B d   1       0.722   2.187   0.278  0.00  0.00    -0.075 A 
ATOM      2  C2  N4B d   1       2.022   1.772   0.641  0.00  0.00     0.002 A 
ATOM      3  C3  N4B d   1       2.924   2.686   1.126  0.00  0.00     0.002 A 
ATOM      4  C4  N4B d   1       2.557   4.019   1.240  0.00  0.00    -0.004 A 
ATOM      5  C5  N4B d   1       1.291   4.407   0.911  0.00  0.00     0.002 A 
ATOM      6  C6  N4B d   1       0.373   3.498   0.425  0.00  0.00     0.002 A 
ENDROOT
BRANCH   1   7
ATOM      7  C1' N4B d   1      -0.271   1.239  -0.338  0.00  0.00     0.057 C 
BRANCH   7   8
ATOM      8  C2' N4B d   1      -0.045  -0.160   0.226  0.00  0.00     0.009 C 
BRANCH   8   9
ATOM      9  C3' N4B d   1      -1.160  -0.579   1.169  0.00  0.00     0.004 C 
ATOM     10  C4' N4B d   1      -1.310  -2.068   1.266  0.00  0.00     0.003 C 
ENDBRANCH   8   9
ENDBRANCH   7   8
ENDBRANCH   1   7
TORSDOF 3
ENDMDL
