MODEL 1
REMARK minimizedAffinity -3.45031357
REMARK minimizedRMSD -1
REMARK  0 active torsions:
REMARK  status: ('A' for Active; 'I' for Inactive)
ROOT
ATOM      1  C   UNL d   1      -2.176   0.385   2.618  0.00  0.00     0.077 C 
ATOM      2  C1  UNL d   1      -1.172  -0.022   1.581  0.00  0.00    -0.074 A 
ATOM      3  C2  UNL d   1      -0.710   0.892   0.629  0.00  0.00    -0.005 A 
ATOM      4  C3  UNL d   1       0.232   0.501  -0.323  0.00  0.00     0.006 A 
ATOM      5  C4  UNL d   1       0.720  -0.806  -0.333  0.00  0.00    -0.005 A 
ATOM      6  C5  UNL d   1       0.270  -1.734   0.612  0.00  0.00    -0.074 A 
ATOM      7  C6  UNL d   1       0.792  -3.140   0.621  0.00  0.00     0.077 C 
ATOM      8  C7  UNL d   1      -0.671  -1.332   1.570  0.00  0.00    -0.001 A 
ENDROOT
TORSDOF 0
ENDMDL
