MODEL 1
REMARK minimizedAffinity -4.64374399
REMARK minimizedRMSD -1
REMARK  0 active torsions:
REMARK  status: ('A' for Active; 'I' for Inactive)
ROOT
ATOM      1  C   UNL d   1      -2.609   0.779  -1.092  0.00  0.00     0.077 C 
ATOM      2  C1  UNL d   1      -1.272   0.289  -0.623  0.00  0.00    -0.074 A 
ATOM      3  C2  UNL d   1      -1.174  -0.744   0.315  0.00  0.00    -0.005 A 
ATOM      4  C3  UNL d   1       0.077  -1.196   0.735  0.00  0.00     0.006 A 
ATOM      5  C4  UNL d   1       1.241  -0.621   0.222  0.00  0.00    -0.005 A 
ATOM      6  C5  UNL d   1       1.162   0.412  -0.717  0.00  0.00    -0.074 A 
ATOM      7  C6  UNL d   1       2.403   1.034  -1.286  0.00  0.00     0.077 C 
ATOM      8  C7  UNL d   1      -0.099   0.856  -1.139  0.00  0.00    -0.001 A 
ENDROOT
TORSDOF 0
ENDMDL
