MODEL 1
REMARK minimizedAffinity -4.29943848
REMARK minimizedRMSD -1
REMARK  0 active torsions:
REMARK  status: ('A' for Active; 'I' for Inactive)
ROOT
ATOM      1  C   UNL d   1       0.679  -3.022   1.197  0.00  0.00     0.077 C 
ATOM      2  C1  UNL d   1       0.857  -1.631   0.666  0.00  0.00    -0.074 A 
ATOM      3  C2  UNL d   1       2.109  -1.007   0.688  0.00  0.00    -0.005 A 
ATOM      4  C3  UNL d   1       2.261   0.283   0.181  0.00  0.00     0.006 A 
ATOM      5  C4  UNL d   1       1.165   0.963  -0.351  0.00  0.00    -0.005 A 
ATOM      6  C5  UNL d   1      -0.095   0.355  -0.383  0.00  0.00    -0.074 A 
ATOM      7  C6  UNL d   1      -1.281   1.068  -0.961  0.00  0.00     0.077 C 
ATOM      8  C7  UNL d   1      -0.238  -0.945   0.122  0.00  0.00    -0.001 A 
ENDROOT
TORSDOF 0
ENDMDL
