MODEL 1
REMARK minimizedAffinity 2.38423204
REMARK minimizedRMSD -1
REMARK  0 active torsions:
REMARK  status: ('A' for Active; 'I' for Inactive)
ROOT
ATOM      1  C   UNL d   1      -0.367  -2.100   0.969  0.00  0.00     0.077 C 
ATOM      2  C1  UNL d   1      -0.352  -0.681   0.483  0.00  0.00    -0.074 A 
ATOM      3  C2  UNL d   1      -1.511   0.101   0.511  0.00  0.00    -0.005 A 
ATOM      4  C3  UNL d   1      -1.479   1.422   0.064  0.00  0.00     0.006 A 
ATOM      5  C4  UNL d   1      -0.290   1.973  -0.416  0.00  0.00    -0.005 A 
ATOM      6  C5  UNL d   1       0.879   1.206  -0.451  0.00  0.00    -0.074 A 
ATOM      7  C6  UNL d   1       2.167   1.786  -0.955  0.00  0.00     0.077 C 
ATOM      8  C7  UNL d   1       0.841  -0.118   0.007  0.00  0.00    -0.001 A 
ENDROOT
TORSDOF 0
ENDMDL
