MODEL 1
REMARK minimizedAffinity -3.37411213
REMARK minimizedRMSD -1
REMARK  0 active torsions:
REMARK  status: ('A' for Active; 'I' for Inactive)
ROOT
ATOM      1  C   UNL d   1       1.543  -3.484   1.742  0.00  0.00     0.077 C 
ATOM      2  C1  UNL d   1       1.166  -2.230   1.011  0.00  0.00    -0.074 A 
ATOM      3  C2  UNL d   1      -0.126  -1.703   1.108  0.00  0.00    -0.005 A 
ATOM      4  C3  UNL d   1      -0.460  -0.531   0.430  0.00  0.00     0.006 A 
ATOM      5  C4  UNL d   1       0.493   0.125  -0.350  0.00  0.00    -0.005 A 
ATOM      6  C5  UNL d   1       1.790  -0.386  -0.458  0.00  0.00    -0.074 A 
ATOM      7  C6  UNL d   1       2.828   0.311  -1.285  0.00  0.00     0.077 C 
ATOM      8  C7  UNL d   1       2.119  -1.561   0.232  0.00  0.00    -0.001 A 
ENDROOT
TORSDOF 0
ENDMDL
