MODEL 1
REMARK minimizedAffinity -4.25710726
REMARK minimizedRMSD -1
REMARK  0 active torsions:
REMARK  status: ('A' for Active; 'I' for Inactive)
ROOT
ATOM      1  C   UNL d   1      -1.489   0.011   1.739  0.00  0.00     0.077 C 
ATOM      2  C1  UNL d   1      -0.417  -0.910   1.237  0.00  0.00    -0.074 A 
ATOM      3  C2  UNL d   1      -0.478  -2.285   1.482  0.00  0.00    -0.005 A 
ATOM      4  C3  UNL d   1       0.521  -3.130   1.000  0.00  0.00     0.006 A 
ATOM      5  C4  UNL d   1       1.590  -2.610   0.270  0.00  0.00    -0.005 A 
ATOM      6  C5  UNL d   1       1.667  -1.237   0.013  0.00  0.00    -0.074 A 
ATOM      7  C6  UNL d   1       2.804  -0.663  -0.779  0.00  0.00     0.077 C 
ATOM      8  C7  UNL d   1       0.655  -0.395   0.495  0.00  0.00    -0.001 A 
ENDROOT
TORSDOF 0
ENDMDL
