MODEL 1
REMARK minimizedAffinity -3.45184612
REMARK minimizedRMSD -1
REMARK  0 active torsions:
REMARK  status: ('A' for Active; 'I' for Inactive)
ROOT
ATOM      1  C   UNL d   1       0.355  -1.819  -0.017  0.00  0.00     0.077 C 
ATOM      2  C1  UNL d   1      -0.314  -0.542  -0.432  0.00  0.00    -0.074 A 
ATOM      3  C2  UNL d   1      -0.321   0.574   0.411  0.00  0.00    -0.005 A 
ATOM      4  C3  UNL d   1      -0.938   1.757   0.007  0.00  0.00     0.006 A 
ATOM      5  C4  UNL d   1      -1.555   1.837  -1.242  0.00  0.00    -0.005 A 
ATOM      6  C5  UNL d   1      -1.557   0.732  -2.099  0.00  0.00    -0.074 A 
ATOM      7  C6  UNL d   1      -2.207   0.804  -3.449  0.00  0.00     0.077 C 
ATOM      8  C7  UNL d   1      -0.929  -0.451  -1.689  0.00  0.00    -0.001 A 
ENDROOT
TORSDOF 0
ENDMDL
