MODEL 1
REMARK minimizedAffinity -3.41108704
REMARK minimizedRMSD -1
REMARK  0 active torsions:
REMARK  status: ('A' for Active; 'I' for Inactive)
ROOT
ATOM      1  C   UNL d   1       0.946  -3.162   0.336  0.00  0.00     0.077 C 
ATOM      2  C1  UNL d   1       0.480  -1.737   0.385  0.00  0.00    -0.074 A 
ATOM      3  C2  UNL d   1       0.999  -0.780  -0.494  0.00  0.00    -0.005 A 
ATOM      4  C3  UNL d   1       0.548   0.539  -0.442  0.00  0.00     0.006 A 
ATOM      5  C4  UNL d   1      -0.424   0.914   0.486  0.00  0.00    -0.005 A 
ATOM      6  C5  UNL d   1      -0.955  -0.029   1.371  0.00  0.00    -0.074 A 
ATOM      7  C6  UNL d   1      -2.007   0.355   2.368  0.00  0.00     0.077 C 
ATOM      8  C7  UNL d   1      -0.502  -1.354   1.309  0.00  0.00    -0.001 A 
ENDROOT
TORSDOF 0
ENDMDL
