MODEL 1
REMARK minimizedAffinity -3.33233547
REMARK minimizedRMSD -1
REMARK  0 active torsions:
REMARK  status: ('A' for Active; 'I' for Inactive)
ROOT
ATOM      1  C   UNL d   1       2.275   1.937  -0.528  0.00  0.00     0.077 C 
ATOM      2  C1  UNL d   1       1.119   1.019  -0.259  0.00  0.00    -0.074 A 
ATOM      3  C2  UNL d   1      -0.196   1.436  -0.485  0.00  0.00    -0.005 A 
ATOM      4  C3  UNL d   1      -1.261   0.568  -0.239  0.00  0.00     0.006 A 
ATOM      5  C4  UNL d   1      -1.020  -0.722   0.234  0.00  0.00    -0.005 A 
ATOM      6  C5  UNL d   1       0.289  -1.157   0.464  0.00  0.00    -0.074 A 
ATOM      7  C6  UNL d   1       0.565  -2.544   0.963  0.00  0.00     0.077 C 
ATOM      8  C7  UNL d   1       1.353  -0.282   0.208  0.00  0.00    -0.001 A 
ENDROOT
TORSDOF 0
ENDMDL
