MODEL 1
REMARK minimizedAffinity -3.89239216
REMARK minimizedRMSD -1
REMARK  0 active torsions:
REMARK  status: ('A' for Active; 'I' for Inactive)
ROOT
ATOM      1  C   UNL d   1      -0.586   1.823  -0.941  0.00  0.00     0.077 C 
ATOM      2  C1  UNL d   1      -0.539   0.626  -0.039  0.00  0.00    -0.074 A 
ATOM      3  C2  UNL d   1      -1.433   0.497   1.030  0.00  0.00    -0.005 A 
ATOM      4  C3  UNL d   1      -1.384  -0.627   1.855  0.00  0.00     0.006 A 
ATOM      5  C4  UNL d   1      -0.443  -1.630   1.621  0.00  0.00    -0.005 A 
ATOM      6  C5  UNL d   1       0.458  -1.518   0.557  0.00  0.00    -0.074 A 
ATOM      7  C6  UNL d   1       1.469  -2.592   0.285  0.00  0.00     0.077 C 
ATOM      8  C7  UNL d   1       0.398  -0.390  -0.272  0.00  0.00    -0.001 A 
ENDROOT
TORSDOF 0
ENDMDL
