MODEL 1
REMARK minimizedAffinity -3.47247696
REMARK minimizedRMSD -1
REMARK  0 active torsions:
REMARK  status: ('A' for Active; 'I' for Inactive)
ROOT
ATOM      1  C   UNL d   1       1.335  -1.045   0.329  0.00  0.00     0.077 C 
ATOM      2  C1  UNL d   1       0.229  -0.039   0.209  0.00  0.00    -0.074 A 
ATOM      3  C2  UNL d   1      -0.484   0.383   1.336  0.00  0.00    -0.005 A 
ATOM      4  C3  UNL d   1      -1.504   1.327   1.210  0.00  0.00     0.006 A 
ATOM      5  C4  UNL d   1      -1.820   1.857  -0.041  0.00  0.00    -0.005 A 
ATOM      6  C5  UNL d   1      -1.117   1.448  -1.179  0.00  0.00    -0.074 A 
ATOM      7  C6  UNL d   1      -1.438   2.015  -2.530  0.00  0.00     0.077 C 
ATOM      8  C7  UNL d   1      -0.090   0.505  -1.044  0.00  0.00    -0.001 A 
ENDROOT
TORSDOF 0
ENDMDL
