MODEL 1
REMARK minimizedAffinity -4.42055655
REMARK minimizedRMSD -1
REMARK  0 active torsions:
REMARK  status: ('A' for Active; 'I' for Inactive)
ROOT
ATOM      1  C   UNL d   1       4.037  -0.777   1.806  0.00  0.00     0.077 C 
ATOM      2  C1  UNL d   1       2.663  -1.068   1.278  0.00  0.00    -0.074 A 
ATOM      3  C2  UNL d   1       2.020  -2.274   1.573  0.00  0.00    -0.005 A 
ATOM      4  C3  UNL d   1       0.739  -2.526   1.082  0.00  0.00     0.006 A 
ATOM      5  C4  UNL d   1       0.089  -1.576   0.292  0.00  0.00    -0.005 A 
ATOM      6  C5  UNL d   1       0.717  -0.364  -0.013  0.00  0.00    -0.074 A 
ATOM      7  C6  UNL d   1       0.030   0.671  -0.852  0.00  0.00     0.077 C 
ATOM      8  C7  UNL d   1       2.002  -0.115   0.490  0.00  0.00    -0.001 A 
ENDROOT
TORSDOF 0
ENDMDL
