MODEL 1
REMARK minimizedAffinity -3.94217062
REMARK minimizedRMSD -1
REMARK  0 active torsions:
REMARK  status: ('A' for Active; 'I' for Inactive)
ROOT
ATOM      1  C   UNL d   1       1.906   0.774  -0.660  0.00  0.00     0.077 C 
ATOM      2  C1  UNL d   1       1.470  -0.388   0.182  0.00  0.00    -0.074 A 
ATOM      3  C2  UNL d   1       2.307  -1.492   0.372  0.00  0.00    -0.005 A 
ATOM      4  C3  UNL d   1       1.892  -2.562   1.165  0.00  0.00     0.006 A 
ATOM      5  C4  UNL d   1       0.637  -2.539   1.774  0.00  0.00    -0.005 A 
ATOM      6  C5  UNL d   1      -0.214  -1.443   1.596  0.00  0.00    -0.074 A 
ATOM      7  C6  UNL d   1      -1.562  -1.398   2.252  0.00  0.00     0.077 C 
ATOM      8  C7  UNL d   1       0.214  -0.369   0.804  0.00  0.00    -0.001 A 
ENDROOT
TORSDOF 0
ENDMDL
