MODEL 1
REMARK minimizedAffinity -3.57322836
REMARK minimizedRMSD -1
REMARK  0 active torsions:
REMARK  status: ('A' for Active; 'I' for Inactive)
ROOT
ATOM      1  C   UNL d   1       1.550  -2.693   0.748  0.00  0.00     0.077 C 
ATOM      2  C1  UNL d   1       0.603  -1.530   0.740  0.00  0.00    -0.074 A 
ATOM      3  C2  UNL d   1      -0.412  -1.422   1.696  0.00  0.00    -0.005 A 
ATOM      4  C3  UNL d   1      -1.279  -0.330   1.681  0.00  0.00     0.006 A 
ATOM      5  C4  UNL d   1      -1.141   0.663   0.711  0.00  0.00    -0.005 A 
ATOM      6  C5  UNL d   1      -0.132   0.573  -0.253  0.00  0.00    -0.074 A 
ATOM      7  C6  UNL d   1       0.036   1.637  -1.297  0.00  0.00     0.077 C 
ATOM      8  C7  UNL d   1       0.740  -0.524  -0.227  0.00  0.00    -0.001 A 
ENDROOT
TORSDOF 0
ENDMDL
