MODEL 1
REMARK minimizedAffinity 2.68323255
REMARK minimizedRMSD -1
REMARK  0 active torsions:
REMARK  status: ('A' for Active; 'I' for Inactive)
ROOT
ATOM      1  C   UNL d   1      -0.850  -1.818   1.594  0.00  0.00     0.077 C 
ATOM      2  C1  UNL d   1      -0.578  -0.593   0.772  0.00  0.00    -0.074 A 
ATOM      3  C2  UNL d   1       0.298   0.398   1.226  0.00  0.00    -0.005 A 
ATOM      4  C3  UNL d   1       0.549   1.526   0.446  0.00  0.00     0.006 A 
ATOM      5  C4  UNL d   1      -0.073   1.675  -0.794  0.00  0.00    -0.005 A 
ATOM      6  C5  UNL d   1      -0.951   0.694  -1.266  0.00  0.00    -0.074 A 
ATOM      7  C6  UNL d   1      -1.619   0.834  -2.601  0.00  0.00     0.077 C 
ATOM      8  C7  UNL d   1      -1.192  -0.440  -0.479  0.00  0.00    -0.001 A 
ENDROOT
TORSDOF 0
ENDMDL
