MODEL 1
REMARK minimizedAffinity -2.49613976
REMARK minimizedRMSD -1
REMARK  0 active torsions:
REMARK  status: ('A' for Active; 'I' for Inactive)
ROOT
ATOM      1  C   UNL d   1       1.058  -2.217   0.225  0.00  0.00     0.077 C 
ATOM      2  C1  UNL d   1       0.402  -0.902  -0.079  0.00  0.00    -0.074 A 
ATOM      3  C2  UNL d   1       0.734   0.250   0.641  0.00  0.00    -0.005 A 
ATOM      4  C3  UNL d   1       0.123   1.467   0.340  0.00  0.00     0.006 A 
ATOM      5  C4  UNL d   1      -0.824   1.545  -0.682  0.00  0.00    -0.005 A 
ATOM      6  C5  UNL d   1      -1.168   0.403  -1.413  0.00  0.00    -0.074 A 
ATOM      7  C6  UNL d   1      -2.176   0.471  -2.521  0.00  0.00     0.077 C 
ATOM      8  C7  UNL d   1      -0.544  -0.815  -1.110  0.00  0.00    -0.001 A 
ENDROOT
TORSDOF 0
ENDMDL
