MODEL 1
REMARK minimizedAffinity -2.48397517
REMARK minimizedRMSD -1
REMARK  0 active torsions:
REMARK  status: ('A' for Active; 'I' for Inactive)
ROOT
ATOM      1  C   UNL d   1      -1.179   0.947  -0.575  0.00  0.00     0.077 C 
ATOM      2  C1  UNL d   1      -0.261  -0.134  -0.087  0.00  0.00    -0.074 A 
ATOM      3  C2  UNL d   1      -0.754  -1.402   0.237  0.00  0.00    -0.005 A 
ATOM      4  C3  UNL d   1       0.113  -2.401   0.681  0.00  0.00     0.006 A 
ATOM      5  C4  UNL d   1       1.478  -2.142   0.806  0.00  0.00    -0.005 A 
ATOM      6  C5  UNL d   1       1.989  -0.880   0.486  0.00  0.00    -0.074 A 
ATOM      7  C6  UNL d   1       3.455  -0.588   0.605  0.00  0.00     0.077 C 
ATOM      8  C7  UNL d   1       1.113   0.116   0.034  0.00  0.00    -0.001 A 
ENDROOT
TORSDOF 0
ENDMDL
