MODEL 1
REMARK minimizedAffinity 8.59970856
REMARK minimizedRMSD -1
REMARK  0 active torsions:
REMARK  status: ('A' for Active; 'I' for Inactive)
ROOT
ATOM      1  C   UNL d   1      -1.254  -3.093   4.077  0.00  0.00     0.020 A 
ATOM      2  C1  UNL d   1      -1.228  -2.189   3.016  0.00  0.00     0.020 A 
ATOM      3  C2  UNL d   1      -0.412  -2.435   1.909  0.00  0.00     0.034 A 
ATOM      4  C3  UNL d   1       0.380  -3.588   1.861  0.00  0.00     0.017 A 
ATOM      5  C4  UNL d   1       0.353  -4.495   2.927  0.00  0.00     0.017 A 
ATOM      6  C5  UNL d   1      -0.466  -4.244   4.032  0.00  0.00     0.034 A 
ATOM      7 Cl   UNL d   1       1.303  -5.939   2.939  0.00  0.00    -0.070 Cl
ATOM      8 Cl1  UNL d   1       1.365  -3.828   0.461  0.00  0.00    -0.070 Cl
ENDROOT
TORSDOF 0
ENDMDL
