MODEL 1
REMARK minimizedAffinity 19.2814598
REMARK minimizedRMSD -1
REMARK  0 active torsions:
REMARK  status: ('A' for Active; 'I' for Inactive)
ROOT
ATOM      1  C   UNL d   1      -4.394  -5.315  -0.489  0.00  0.00     0.020 A 
ATOM      2  C1  UNL d   1      -3.333  -5.999   0.104  0.00  0.00     0.020 A 
ATOM      3  C2  UNL d   1      -2.757  -5.511   1.279  0.00  0.00     0.034 A 
ATOM      4  C3  UNL d   1      -3.241  -4.334   1.864  0.00  0.00     0.017 A 
ATOM      5  C4  UNL d   1      -4.305  -3.649   1.267  0.00  0.00     0.017 A 
ATOM      6  C5  UNL d   1      -4.878  -4.142   0.091  0.00  0.00     0.034 A 
ATOM      7 Cl   UNL d   1      -4.956  -2.191   1.930  0.00  0.00    -0.070 Cl
ATOM      8 Cl1  UNL d   1      -2.481  -3.788   3.316  0.00  0.00    -0.070 Cl
ENDROOT
TORSDOF 0
ENDMDL
