MODEL 1
REMARK minimizedAffinity 4.64615679
REMARK minimizedRMSD -1
REMARK  0 active torsions:
REMARK  status: ('A' for Active; 'I' for Inactive)
ROOT
ATOM      1  C   UNL d   1       1.155  -1.981   1.737  0.00  0.00     0.020 A 
ATOM      2  C1  UNL d   1       1.740  -1.091   2.637  0.00  0.00     0.020 A 
ATOM      3  C2  UNL d   1       1.027  -0.664   3.760  0.00  0.00     0.034 A 
ATOM      4  C3  UNL d   1      -0.275  -1.127   3.984  0.00  0.00     0.017 A 
ATOM      5  C4  UNL d   1      -0.861  -2.019   3.080  0.00  0.00     0.017 A 
ATOM      6  C5  UNL d   1      -0.143  -2.444   1.958  0.00  0.00     0.034 A 
ATOM      7 Cl   UNL d   1      -2.463  -2.634   3.290  0.00  0.00    -0.070 Cl
ATOM      8 Cl1  UNL d   1      -1.098  -0.557   5.393  0.00  0.00    -0.070 Cl
ENDROOT
TORSDOF 0
ENDMDL
