MODEL 1
REMARK minimizedAffinity 13.7409267
REMARK minimizedRMSD -1
REMARK  0 active torsions:
REMARK  status: ('A' for Active; 'I' for Inactive)
ROOT
ATOM      1  C   UNL d   1      -0.491  -0.768   4.041  0.00  0.00     0.020 A 
ATOM      2  C1  UNL d   1      -0.950  -2.072   3.858  0.00  0.00     0.020 A 
ATOM      3  C2  UNL d   1      -0.321  -2.910   2.935  0.00  0.00     0.034 A 
ATOM      4  C3  UNL d   1       0.770  -2.446   2.192  0.00  0.00     0.017 A 
ATOM      5  C4  UNL d   1       1.230  -1.137   2.377  0.00  0.00     0.017 A 
ATOM      6  C5  UNL d   1       0.597  -0.302   3.302  0.00  0.00     0.034 A 
ATOM      7 Cl   UNL d   1       2.571  -0.493   1.496  0.00  0.00    -0.070 Cl
ATOM      8 Cl1  UNL d   1       1.500  -3.538   1.069  0.00  0.00    -0.070 Cl
ENDROOT
TORSDOF 0
ENDMDL
