MODEL 1
REMARK minimizedAffinity 13.8532953
REMARK minimizedRMSD -1
REMARK  0 active torsions:
REMARK  status: ('A' for Active; 'I' for Inactive)
ROOT
ATOM      1  C   UNL d   1       0.895  -1.653   1.254  0.00  0.00     0.020 A 
ATOM      2  C1  UNL d   1       1.320  -0.507   1.923  0.00  0.00     0.020 A 
ATOM      3  C2  UNL d   1       0.650  -0.079   3.071  0.00  0.00     0.034 A 
ATOM      4  C3  UNL d   1      -0.450  -0.799   3.553  0.00  0.00     0.017 A 
ATOM      5  C4  UNL d   1      -0.877  -1.949   2.880  0.00  0.00     0.017 A 
ATOM      6  C5  UNL d   1      -0.202  -2.373   1.731  0.00  0.00     0.034 A 
ATOM      7 Cl   UNL d   1      -2.226  -2.889   3.413  0.00  0.00    -0.070 Cl
ATOM      8 Cl1  UNL d   1      -1.232  -0.213   4.978  0.00  0.00    -0.070 Cl
ENDROOT
TORSDOF 0
ENDMDL
