MODEL 1
REMARK minimizedAffinity 12.3592768
REMARK minimizedRMSD -1
REMARK  0 active torsions:
REMARK  status: ('A' for Active; 'I' for Inactive)
ROOT
ATOM      1  C   UNL d   1       3.466   0.458   3.276  0.00  0.00     0.020 A 
ATOM      2  C1  UNL d   1       2.989   0.930   4.498  0.00  0.00     0.020 A 
ATOM      3  C2  UNL d   1       1.704   0.589   4.925  0.00  0.00     0.034 A 
ATOM      4  C3  UNL d   1       0.891  -0.226   4.129  0.00  0.00     0.017 A 
ATOM      5  C4  UNL d   1       1.371  -0.699   2.902  0.00  0.00     0.017 A 
ATOM      6  C5  UNL d   1       2.658  -0.355   2.480  0.00  0.00     0.034 A 
ATOM      7 Cl   UNL d   1       0.426  -1.709   1.865  0.00  0.00    -0.070 Cl
ATOM      8 Cl1  UNL d   1      -0.687  -0.609   4.719  0.00  0.00    -0.070 Cl
ENDROOT
TORSDOF 0
ENDMDL
