MODEL 1
REMARK minimizedAffinity 8.35502243
REMARK minimizedRMSD -1
REMARK  0 active torsions:
REMARK  status: ('A' for Active; 'I' for Inactive)
ROOT
ATOM      1  C   UNL d   1       1.270  -0.736   2.448  0.00  0.00     0.020 A 
ATOM      2  C1  UNL d   1       0.736  -1.774   1.684  0.00  0.00     0.020 A 
ATOM      3  C2  UNL d   1      -0.333  -2.525   2.178  0.00  0.00     0.034 A 
ATOM      4  C3  UNL d   1      -0.871  -2.240   3.438  0.00  0.00     0.017 A 
ATOM      5  C4  UNL d   1      -0.335  -1.198   4.203  0.00  0.00     0.017 A 
ATOM      6  C5  UNL d   1       0.735  -0.449   3.704  0.00  0.00     0.034 A 
ATOM      7 Cl   UNL d   1      -0.946  -0.787   5.767  0.00  0.00    -0.070 Cl
ATOM      8 Cl1  UNL d   1      -2.193  -3.209   3.985  0.00  0.00    -0.070 Cl
ENDROOT
TORSDOF 0
ENDMDL
