MODEL 1
REMARK minimizedAffinity 4.92518425
REMARK minimizedRMSD -1
REMARK  0 active torsions:
REMARK  status: ('A' for Active; 'I' for Inactive)
ROOT
ATOM      1  C   UNL d   1       0.164   2.281  -0.568  0.00  0.00     0.020 A 
ATOM      2  C1  UNL d   1       0.833   3.152  -1.428  0.00  0.00     0.020 A 
ATOM      3  C2  UNL d   1       0.155   3.725  -2.506  0.00  0.00     0.034 A 
ATOM      4  C3  UNL d   1      -1.195   3.429  -2.727  0.00  0.00     0.017 A 
ATOM      5  C4  UNL d   1      -1.865   2.555  -1.863  0.00  0.00     0.017 A 
ATOM      6  C5  UNL d   1      -1.182   1.984  -0.785  0.00  0.00     0.034 A 
ATOM      7 Cl   UNL d   1      -3.530   2.141  -2.072  0.00  0.00    -0.070 Cl
ATOM      8 Cl1  UNL d   1      -1.970   4.174  -4.080  0.00  0.00    -0.070 Cl
ENDROOT
TORSDOF 0
ENDMDL
