MODEL 1
REMARK minimizedAffinity 3.69982457
REMARK minimizedRMSD -1
REMARK  0 active torsions:
REMARK  status: ('A' for Active; 'I' for Inactive)
ROOT
ATOM      1  C   UNL d   1      -0.402  -0.777   4.713  0.00  0.00     0.020 A 
ATOM      2  C1  UNL d   1      -0.678  -2.129   4.514  0.00  0.00     0.020 A 
ATOM      3  C2  UNL d   1      -0.270  -2.759   3.337  0.00  0.00     0.034 A 
ATOM      4  C3  UNL d   1       0.415  -2.037   2.353  0.00  0.00     0.017 A 
ATOM      5  C4  UNL d   1       0.691  -0.680   2.553  0.00  0.00     0.017 A 
ATOM      6  C5  UNL d   1       0.281  -0.054   3.734  0.00  0.00     0.034 A 
ATOM      7 Cl   UNL d   1       1.532   0.277   1.384  0.00  0.00    -0.070 Cl
ATOM      8 Cl1  UNL d   1       0.889  -2.880   0.921  0.00  0.00    -0.070 Cl
ENDROOT
TORSDOF 0
ENDMDL
