MODEL 1
REMARK minimizedAffinity 14.3155775
REMARK minimizedRMSD -1
REMARK  0 active torsions:
REMARK  status: ('A' for Active; 'I' for Inactive)
ROOT
ATOM      1  C   UNL d   1       4.096  -0.907   1.824  0.00  0.00     0.020 A 
ATOM      2  C1  UNL d   1       3.159  -0.246   2.617  0.00  0.00     0.020 A 
ATOM      3  C2  UNL d   1       1.804  -0.569   2.514  0.00  0.00     0.034 A 
ATOM      4  C3  UNL d   1       1.383  -1.557   1.616  0.00  0.00     0.017 A 
ATOM      5  C4  UNL d   1       2.324  -2.220   0.820  0.00  0.00     0.017 A 
ATOM      6  C5  UNL d   1       3.679  -1.892   0.928  0.00  0.00     0.034 A 
ATOM      7 Cl   UNL d   1       1.880  -3.449  -0.311  0.00  0.00    -0.070 Cl
ATOM      8 Cl1  UNL d   1      -0.308  -1.905   1.541  0.00  0.00    -0.070 Cl
ENDROOT
TORSDOF 0
ENDMDL
