MODEL 1
REMARK minimizedAffinity 8.48038864
REMARK minimizedRMSD -1
REMARK  0 active torsions:
REMARK  status: ('A' for Active; 'I' for Inactive)
ROOT
ATOM      1  C   UNL d   1      -3.916  -5.998   1.507  0.00  0.00     0.020 A 
ATOM      2  C1  UNL d   1      -4.529  -5.287   0.477  0.00  0.00     0.020 A 
ATOM      3  C2  UNL d   1      -4.943  -3.970   0.687  0.00  0.00     0.034 A 
ATOM      4  C3  UNL d   1      -4.746  -3.360   1.931  0.00  0.00     0.017 A 
ATOM      5  C4  UNL d   1      -4.130  -4.075   2.965  0.00  0.00     0.017 A 
ATOM      6  C5  UNL d   1      -3.717  -5.393   2.749  0.00  0.00     0.034 A 
ATOM      7 Cl   UNL d   1      -3.852  -3.390   4.528  0.00  0.00    -0.070 Cl
ATOM      8 Cl1  UNL d   1      -5.283  -1.729   2.121  0.00  0.00    -0.070 Cl
ENDROOT
TORSDOF 0
ENDMDL
