MODEL 1
REMARK minimizedAffinity 11.1210642
REMARK minimizedRMSD -1
REMARK  0 active torsions:
REMARK  status: ('A' for Active; 'I' for Inactive)
ROOT
ATOM      1  C   UNL d   1       1.187  -0.314   1.740  0.00  0.00     0.020 A 
ATOM      2  C1  UNL d   1       2.375  -1.032   1.869  0.00  0.00     0.020 A 
ATOM      3  C2  UNL d   1       2.350  -2.428   1.873  0.00  0.00     0.034 A 
ATOM      4  C3  UNL d   1       1.134  -3.110   1.750  0.00  0.00     0.017 A 
ATOM      5  C4  UNL d   1      -0.058  -2.389   1.621  0.00  0.00     0.017 A 
ATOM      6  C5  UNL d   1      -0.027  -0.991   1.617  0.00  0.00     0.034 A 
ATOM      7 Cl   UNL d   1      -1.596  -3.161   1.464  0.00  0.00    -0.070 Cl
ATOM      8 Cl1  UNL d   1       1.178  -4.838   1.763  0.00  0.00    -0.070 Cl
ENDROOT
TORSDOF 0
ENDMDL
