MODEL 1
REMARK minimizedAffinity 21.3493729
REMARK minimizedRMSD -1
REMARK  0 active torsions:
REMARK  status: ('A' for Active; 'I' for Inactive)
ROOT
ATOM      1  C   UNL d   1      -1.555   2.264  -2.255  0.00  0.00     0.020 A 
ATOM      2  C1  UNL d   1      -0.852   3.385  -1.818  0.00  0.00     0.020 A 
ATOM      3  C2  UNL d   1      -0.793   4.528  -2.618  0.00  0.00     0.034 A 
ATOM      4  C3  UNL d   1      -1.439   4.552  -3.859  0.00  0.00     0.017 A 
ATOM      5  C4  UNL d   1      -2.146   3.426  -4.297  0.00  0.00     0.017 A 
ATOM      6  C5  UNL d   1      -2.201   2.284  -3.492  0.00  0.00     0.034 A 
ATOM      7 Cl   UNL d   1      -2.968   3.381  -5.816  0.00  0.00    -0.070 Cl
ATOM      8 Cl1  UNL d   1      -1.326   6.000  -4.796  0.00  0.00    -0.070 Cl
ENDROOT
TORSDOF 0
ENDMDL
