MODEL 1
REMARK minimizedAffinity 6.05900717
REMARK minimizedRMSD -1
REMARK  0 active torsions:
REMARK  status: ('A' for Active; 'I' for Inactive)
ROOT
ATOM      1  C   UNL d   1      -4.123  -5.147  -0.154  0.00  0.00     0.020 A 
ATOM      2  C1  UNL d   1      -3.523  -6.000   0.772  0.00  0.00     0.020 A 
ATOM      3  C2  UNL d   1      -3.325  -5.574   2.087  0.00  0.00     0.034 A 
ATOM      4  C3  UNL d   1      -3.727  -4.292   2.480  0.00  0.00     0.017 A 
ATOM      5  C4  UNL d   1      -4.329  -3.437   1.550  0.00  0.00     0.017 A 
ATOM      6  C5  UNL d   1      -4.525  -3.869   0.235  0.00  0.00     0.034 A 
ATOM      7 Cl   UNL d   1      -4.851  -1.841   1.960  0.00  0.00    -0.070 Cl
ATOM      8 Cl1  UNL d   1      -3.451  -3.832   4.123  0.00  0.00    -0.070 Cl
ENDROOT
TORSDOF 0
ENDMDL
