MODEL 1
REMARK minimizedAffinity 1.54345834
REMARK minimizedRMSD -1
REMARK  0 active torsions:
REMARK  status: ('A' for Active; 'I' for Inactive)
ROOT
ATOM      1  C   UNL d   1       0.671  -4.153  -5.171  0.00  0.00     0.020 A 
ATOM      2  C1  UNL d   1       0.919  -5.525  -5.188  0.00  0.00     0.020 A 
ATOM      3  C2  UNL d   1       2.207  -5.999  -5.446  0.00  0.00     0.034 A 
ATOM      4  C3  UNL d   1       3.252  -5.100  -5.688  0.00  0.00     0.017 A 
ATOM      5  C4  UNL d   1       3.002  -3.723  -5.671  0.00  0.00     0.017 A 
ATOM      6  C5  UNL d   1       1.711  -3.254  -5.413  0.00  0.00     0.034 A 
ATOM      7 Cl   UNL d   1       4.241  -2.553  -5.961  0.00  0.00    -0.070 Cl
ATOM      8 Cl1  UNL d   1       4.820  -5.756  -6.000  0.00  0.00    -0.070 Cl
ENDROOT
TORSDOF 0
ENDMDL
