MODEL 1
REMARK minimizedAffinity 15.9391308
REMARK minimizedRMSD -1
REMARK  0 active torsions:
REMARK  status: ('A' for Active; 'I' for Inactive)
ROOT
ATOM      1  C   UNL d   1      -2.246   4.222  -5.563  0.00  0.00     0.020 A 
ATOM      2  C1  UNL d   1      -3.485   3.751  -5.998  0.00  0.00     0.020 A 
ATOM      3  C2  UNL d   1      -4.148   2.759  -5.274  0.00  0.00     0.034 A 
ATOM      4  C3  UNL d   1      -3.574   2.234  -4.110  0.00  0.00     0.017 A 
ATOM      5  C4  UNL d   1      -2.331   2.707  -3.674  0.00  0.00     0.017 A 
ATOM      6  C5  UNL d   1      -1.671   3.701  -4.404  0.00  0.00     0.034 A 
ATOM      7 Cl   UNL d   1      -1.559   2.108  -2.248  0.00  0.00    -0.070 Cl
ATOM      8 Cl1  UNL d   1      -4.450   1.009  -3.264  0.00  0.00    -0.070 Cl
ENDROOT
TORSDOF 0
ENDMDL
