MODEL 1
REMARK minimizedAffinity 17.0095825
REMARK minimizedRMSD -1
REMARK  0 active torsions:
REMARK  status: ('A' for Active; 'I' for Inactive)
ROOT
ATOM      1  C   UNL d   1      -4.811   4.877  -1.114  0.00  0.00     0.020 A 
ATOM      2  C1  UNL d   1      -4.721   3.485  -1.097  0.00  0.00     0.020 A 
ATOM      3  C2  UNL d   1      -3.627   2.849  -1.686  0.00  0.00     0.034 A 
ATOM      4  C3  UNL d   1      -2.618   3.604  -2.296  0.00  0.00     0.017 A 
ATOM      5  C4  UNL d   1      -2.709   5.001  -2.312  0.00  0.00     0.017 A 
ATOM      6  C5  UNL d   1      -3.807   5.633  -1.721  0.00  0.00     0.034 A 
ATOM      7 Cl   UNL d   1      -1.504   6.000  -3.045  0.00  0.00    -0.070 Cl
ATOM      8 Cl1  UNL d   1      -1.293   2.752  -3.005  0.00  0.00    -0.070 Cl
ENDROOT
TORSDOF 0
ENDMDL
