MODEL 1
REMARK minimizedAffinity 12.7559385
REMARK minimizedRMSD -1
REMARK  0 active torsions:
REMARK  status: ('A' for Active; 'I' for Inactive)
ROOT
ATOM      1  C   UNL d   1       0.039  -1.417   2.599  0.00  0.00     0.020 A 
ATOM      2  C1  UNL d   1       0.413  -0.486   3.567  0.00  0.00     0.020 A 
ATOM      3  C2  UNL d   1       1.680   0.099   3.520  0.00  0.00     0.034 A 
ATOM      4  C3  UNL d   1       2.578  -0.246   2.504  0.00  0.00     0.017 A 
ATOM      5  C4  UNL d   1       2.202  -1.181   1.533  0.00  0.00     0.017 A 
ATOM      6  C5  UNL d   1       0.932  -1.764   1.584  0.00  0.00     0.034 A 
ATOM      7 Cl   UNL d   1       3.256  -1.658   0.248  0.00  0.00    -0.070 Cl
ATOM      8 Cl1  UNL d   1       4.128   0.517   2.508  0.00  0.00    -0.070 Cl
ENDROOT
TORSDOF 0
ENDMDL
