MODEL 1
REMARK minimizedAffinity 16.8503399
REMARK minimizedRMSD -1
REMARK  0 active torsions:
REMARK  status: ('A' for Active; 'I' for Inactive)
ROOT
ATOM      1  C   UNL d   1      -2.042   3.463  -3.644  0.00  0.00     0.020 A 
ATOM      2  C1  UNL d   1      -2.053   4.698  -2.998  0.00  0.00     0.020 A 
ATOM      3  C2  UNL d   1      -3.048   4.987  -2.061  0.00  0.00     0.034 A 
ATOM      4  C3  UNL d   1      -4.036   4.040  -1.769  0.00  0.00     0.017 A 
ATOM      5  C4  UNL d   1      -4.025   2.801  -2.419  0.00  0.00     0.017 A 
ATOM      6  C5  UNL d   1      -3.026   2.516  -3.355  0.00  0.00     0.034 A 
ATOM      7 Cl   UNL d   1      -5.211   1.582  -2.111  0.00  0.00    -0.070 Cl
ATOM      8 Cl1  UNL d   1      -5.236   4.465  -0.600  0.00  0.00    -0.070 Cl
ENDROOT
TORSDOF 0
ENDMDL
