MODEL 1
REMARK minimizedAffinity 7.22553825
REMARK minimizedRMSD -1
REMARK  3 active torsions:
REMARK  status: ('A' for Active; 'I' for Inactive)
REMARK    1  A    between atoms: C3'_2  and  C2'_3 
REMARK    2  A    between atoms: C2'_3  and  C1'_4 
REMARK    3  A    between atoms: C1'_4  and  C1_5 
ROOT
ATOM      1  C1  N4B d   1       4.646   0.744  -1.290  0.00  0.00    -0.075 A 
ATOM      2  C2  N4B d   1       4.205   0.014  -2.415  0.00  0.00     0.002 A 
ATOM      3  C3  N4B d   1       3.359  -1.055  -2.251  0.00  0.00     0.002 A 
ATOM      4  C4  N4B d   1       2.956  -1.422  -0.976  0.00  0.00    -0.004 A 
ATOM      5  C5  N4B d   1       3.366  -0.696   0.104  0.00  0.00     0.002 A 
ATOM      6  C6  N4B d   1       4.214   0.383  -0.046  0.00  0.00     0.002 A 
ENDROOT
BRANCH   1   7
ATOM      7  C1' N4B d   1       5.640   1.867  -1.411  0.00  0.00     0.057 C 
BRANCH   7   8
ATOM      8  C2' N4B d   1       4.891   3.178  -1.630  0.00  0.00     0.009 C 
BRANCH   8   9
ATOM      9  C3' N4B d   1       5.839   4.351  -1.811  0.00  0.00     0.004 C 
ATOM     10  C4' N4B d   1       6.000   5.165  -0.561  0.00  0.00     0.003 C 
ENDBRANCH   8   9
ENDBRANCH   7   8
ENDBRANCH   1   7
TORSDOF 3
ENDMDL
