MODEL 1
REMARK minimizedAffinity 12.0505571
REMARK minimizedRMSD -1
REMARK  3 active torsions:
REMARK  status: ('A' for Active; 'I' for Inactive)
REMARK    1  A    between atoms: C3'_2  and  C2'_3 
REMARK    2  A    between atoms: C2'_3  and  C1'_4 
REMARK    3  A    between atoms: C1'_4  and  C1_5 
ROOT
ATOM      1  C1  N4B d   1       4.259   1.429  -0.691  0.00  0.00    -0.075 A 
ATOM      2  C2  N4B d   1       5.373   0.830  -0.063  0.00  0.00     0.002 A 
ATOM      3  C3  N4B d   1       5.302  -0.472   0.366  0.00  0.00     0.002 A 
ATOM      4  C4  N4B d   1       4.126  -1.187   0.196  0.00  0.00    -0.004 A 
ATOM      5  C5  N4B d   1       3.062  -0.610  -0.435  0.00  0.00     0.002 A 
ATOM      6  C6  N4B d   1       3.121   0.697  -0.875  0.00  0.00     0.002 A 
ENDROOT
BRANCH   1   7
ATOM      7  C1' N4B d   1       4.260   2.876  -1.100  0.00  0.00     0.057 C 
BRANCH   7   8
ATOM      8  C2' N4B d   1       5.649   3.462  -0.863  0.00  0.00     0.009 C 
BRANCH   8   9
ATOM      9  C3' N4B d   1       5.757   4.890  -1.369  0.00  0.00     0.004 C 
ATOM     10  C4' N4B d   1       6.000   5.879  -0.269  0.00  0.00     0.003 C 
ENDBRANCH   8   9
ENDBRANCH   7   8
ENDBRANCH   1   7
TORSDOF 3
ENDMDL
