MODEL 1
REMARK minimizedAffinity 3.16431117
REMARK minimizedRMSD -1
REMARK  3 active torsions:
REMARK  status: ('A' for Active; 'I' for Inactive)
REMARK    1  A    between atoms: C3'_2  and  C2'_3 
REMARK    2  A    between atoms: C2'_3  and  C1'_4 
REMARK    3  A    between atoms: C1'_4  and  C1_5 
ROOT
ATOM      1  C1  N4B d   1      -3.923   1.871  -0.349  0.00  0.00    -0.075 A 
ATOM      2  C2  N4B d   1      -3.887   3.244  -0.678  0.00  0.00     0.002 A 
ATOM      3  C3  N4B d   1      -4.908   3.801  -1.409  0.00  0.00     0.002 A 
ATOM      4  C4  N4B d   1      -5.960   3.005  -1.835  0.00  0.00    -0.004 A 
ATOM      5  C5  N4B d   1      -6.000   1.686  -1.491  0.00  0.00     0.002 A 
ATOM      6  C6  N4B d   1      -4.983   1.113  -0.754  0.00  0.00     0.002 A 
ENDROOT
BRANCH   1   7
ATOM      7  C1' N4B d   1      -2.788   1.199   0.374  0.00  0.00     0.057 C 
BRANCH   7   8
ATOM      8  C2' N4B d   1      -1.548   2.084   0.294  0.00  0.00     0.009 C 
BRANCH   8   9
ATOM      9  C3' N4B d   1      -0.282   1.271   0.088  0.00  0.00     0.004 C 
ATOM     10  C4' N4B d   1       0.372   0.878   1.379  0.00  0.00     0.003 C 
ENDBRANCH   8   9
ENDBRANCH   7   8
ENDBRANCH   1   7
TORSDOF 3
ENDMDL
