MODEL 1
REMARK minimizedAffinity 5.86364174
REMARK minimizedRMSD -1
REMARK  3 active torsions:
REMARK  status: ('A' for Active; 'I' for Inactive)
REMARK    1  A    between atoms: C3'_2  and  C2'_3 
REMARK    2  A    between atoms: C2'_3  and  C1'_4 
REMARK    3  A    between atoms: C1'_4  and  C1_5 
ROOT
ATOM      1  C1  N4B d   1      -0.341  -5.016  -0.857  0.00  0.00    -0.075 A 
ATOM      2  C2  N4B d   1      -0.576  -4.624  -2.194  0.00  0.00     0.002 A 
ATOM      3  C3  N4B d   1       0.215  -3.666  -2.777  0.00  0.00     0.002 A 
ATOM      4  C4  N4B d   1       1.231  -3.073  -2.041  0.00  0.00    -0.004 A 
ATOM      5  C5  N4B d   1       1.467  -3.475  -0.759  0.00  0.00     0.002 A 
ATOM      6  C6  N4B d   1       0.682  -4.441  -0.161  0.00  0.00     0.002 A 
ENDROOT
BRANCH   1   7
ATOM      7  C1' N4B d   1      -1.234  -5.998  -0.149  0.00  0.00     0.057 C 
BRANCH   7   8
ATOM      8  C2' N4B d   1      -0.912  -5.982   1.342  0.00  0.00     0.009 C 
BRANCH   8   9
ATOM      9  C3' N4B d   1      -2.169  -5.930   2.194  0.00  0.00     0.004 C 
ATOM     10  C4' N4B d   1      -1.878  -6.000   3.664  0.00  0.00     0.003 C 
ENDBRANCH   8   9
ENDBRANCH   7   8
ENDBRANCH   1   7
TORSDOF 3
ENDMDL
