MODEL 1
REMARK minimizedAffinity 10.6864252
REMARK minimizedRMSD -1
REMARK  3 active torsions:
REMARK  status: ('A' for Active; 'I' for Inactive)
REMARK    1  A    between atoms: C3'_2  and  C2'_3 
REMARK    2  A    between atoms: C2'_3  and  C1'_4 
REMARK    3  A    between atoms: C1'_4  and  C1_5 
ROOT
ATOM      1  C1  N4B d   1       1.009   0.503   0.001  0.00  0.00    -0.075 A 
ATOM      2  C2  N4B d   1       0.976   0.512   1.413  0.00  0.00     0.002 A 
ATOM      3  C3  N4B d   1      -0.018   1.191   2.073  0.00  0.00     0.002 A 
ATOM      4  C4  N4B d   1      -0.976   1.882   1.345  0.00  0.00    -0.004 A 
ATOM      5  C5  N4B d   1      -0.953   1.847  -0.018  0.00  0.00     0.002 A 
ATOM      6  C6  N4B d   1       0.039   1.165  -0.694  0.00  0.00     0.002 A 
ENDROOT
BRANCH   1   7
ATOM      7  C1' N4B d   1       2.125  -0.154  -0.764  0.00  0.00     0.057 C 
BRANCH   7   8
ATOM      8  C2' N4B d   1       3.461   0.392  -0.268  0.00  0.00     0.009 C 
BRANCH   8   9
ATOM      9  C3' N4B d   1       4.297   0.963  -1.401  0.00  0.00     0.004 C 
ATOM     10  C4' N4B d   1       5.404   1.850  -0.916  0.00  0.00     0.003 C 
ENDBRANCH   8   9
ENDBRANCH   7   8
ENDBRANCH   1   7
TORSDOF 3
ENDMDL
