MODEL 1
REMARK minimizedAffinity 12.5754919
REMARK minimizedRMSD -1
REMARK  3 active torsions:
REMARK  status: ('A' for Active; 'I' for Inactive)
REMARK    1  A    between atoms: C3'_2  and  C2'_3 
REMARK    2  A    between atoms: C2'_3  and  C1'_4 
REMARK    3  A    between atoms: C1'_4  and  C1_5 
ROOT
ATOM      1  C1  N4B d   1      -4.559   2.640   2.140  0.00  0.00    -0.075 A 
ATOM      2  C2  N4B d   1      -3.392   3.435   2.172  0.00  0.00     0.002 A 
ATOM      3  C3  N4B d   1      -2.160   2.852   2.006  0.00  0.00     0.002 A 
ATOM      4  C4  N4B d   1      -2.069   1.480   1.827  0.00  0.00    -0.004 A 
ATOM      5  C5  N4B d   1      -3.203   0.723   1.772  0.00  0.00     0.002 A 
ATOM      6  C6  N4B d   1      -4.448   1.296   1.933  0.00  0.00     0.002 A 
ENDROOT
BRANCH   1   7
ATOM      7  C1' N4B d   1      -5.922   3.220   2.402  0.00  0.00     0.057 C 
BRANCH   7   8
ATOM      8  C2' N4B d   1      -5.999   3.684   3.854  0.00  0.00     0.009 C 
BRANCH   8   9
ATOM      9  C3' N4B d   1      -5.996   5.199   3.967  0.00  0.00     0.004 C 
ATOM     10  C4' N4B d   1      -5.947   5.675   5.388  0.00  0.00     0.003 C 
ENDBRANCH   8   9
ENDBRANCH   7   8
ENDBRANCH   1   7
TORSDOF 3
ENDMDL
