MODEL 1
REMARK minimizedAffinity 3.40787578
REMARK minimizedRMSD -1
REMARK  1 active torsions:
REMARK  status: ('A' for Active; 'I' for Inactive)
REMARK    1  A    between atoms: C3_4  and  O_7 
ROOT
ATOM      1  C   UNL d   1      -5.756   3.911   5.953  0.00  0.00    -0.033 A 
ATOM      2  C1  UNL d   1      -6.000   4.536   4.728  0.00  0.00     0.039 A 
ATOM      3  C2  UNL d   1      -5.994   3.790   3.548  0.00  0.00    -0.080 A 
ATOM      4  C3  UNL d   1      -5.745   2.422   3.606  0.00  0.00     0.150 A 
ATOM      5  C4  UNL d   1      -5.504   1.792   4.822  0.00  0.00    -0.007 A 
ATOM      6  C5  UNL d   1      -5.509   2.538   6.000  0.00  0.00     0.039 A 
ENDROOT
BRANCH   4   7
ATOM      7  O   UNL d   1      -5.724   1.653   2.480  0.00  0.00    -0.526 OA
ATOM      8  H5  UNL d   1      -5.878   2.228   1.712  0.00  0.00     0.418 HD
ENDBRANCH   4   7
TORSDOF 1
ENDMDL
