MODEL 1
REMARK minimizedAffinity -0.228953153
REMARK minimizedRMSD -1
REMARK  1 active torsions:
REMARK  status: ('A' for Active; 'I' for Inactive)
REMARK    1  A    between atoms: C3_4  and  O_7 
ROOT
ATOM      1  C   UNL d   1      -5.608   3.292   5.997  0.00  0.00    -0.033 A 
ATOM      2  C1  UNL d   1      -5.472   1.903   5.989  0.00  0.00     0.039 A 
ATOM      3  C2  UNL d   1      -5.596   1.194   4.792  0.00  0.00    -0.080 A 
ATOM      4  C3  UNL d   1      -5.854   1.887   3.612  0.00  0.00     0.150 A 
ATOM      5  C4  UNL d   1      -5.988   3.271   3.612  0.00  0.00    -0.007 A 
ATOM      6  C5  UNL d   1      -5.865   3.977   4.809  0.00  0.00     0.039 A 
ENDROOT
BRANCH   4   7
ATOM      7  O   UNL d   1      -5.988   1.238   2.420  0.00  0.00    -0.526 OA
ATOM      8  H5  UNL d   1      -5.900   0.283   2.578  0.00  0.00     0.418 HD
ENDBRANCH   4   7
TORSDOF 1
ENDMDL
