MODEL 1
REMARK minimizedAffinity 3.38467479
REMARK minimizedRMSD -1
REMARK  1 active torsions:
REMARK  status: ('A' for Active; 'I' for Inactive)
REMARK    1  A    between atoms: C3_4  and  O_7 
ROOT
ATOM      1  C   UNL d   1       1.200   0.480   0.043  0.00  0.00    -0.033 A 
ATOM      2  C1  UNL d   1       2.283   1.262   0.450  0.00  0.00     0.039 A 
ATOM      3  C2  UNL d   1       3.036   0.888   1.565  0.00  0.00    -0.080 A 
ATOM      4  C3  UNL d   1       2.697  -0.268   2.262  0.00  0.00     0.150 A 
ATOM      5  C4  UNL d   1       1.622  -1.054   1.860  0.00  0.00    -0.007 A 
ATOM      6  C5  UNL d   1       0.871  -0.679   0.747  0.00  0.00     0.039 A 
ENDROOT
BRANCH   4   7
ATOM      7  O   UNL d   1       3.400  -0.670   3.359  0.00  0.00    -0.526 OA
ATOM      8  H5  UNL d   1       4.095  -0.015   3.536  0.00  0.00     0.418 HD
ENDBRANCH   4   7
TORSDOF 1
ENDMDL
