MODEL 1
REMARK minimizedAffinity 6.70649195
REMARK minimizedRMSD -1
REMARK  1 active torsions:
REMARK  status: ('A' for Active; 'I' for Inactive)
REMARK    1  A    between atoms: C3_4  and  O_7 
ROOT
ATOM      1  C   UNL d   1       0.989   0.191   1.464  0.00  0.00    -0.033 A 
ATOM      2  C1  UNL d   1       0.909   1.417   2.127  0.00  0.00     0.039 A 
ATOM      3  C2  UNL d   1      -0.337   1.944   2.474  0.00  0.00    -0.080 A 
ATOM      4  C3  UNL d   1      -1.492   1.236   2.154  0.00  0.00     0.150 A 
ATOM      5  C4  UNL d   1      -1.418   0.012   1.497  0.00  0.00    -0.007 A 
ATOM      6  C5  UNL d   1      -0.174  -0.512   1.150  0.00  0.00     0.039 A 
ENDROOT
BRANCH   4   7
ATOM      7  O   UNL d   1      -2.730   1.713   2.468  0.00  0.00    -0.526 OA
ATOM      8  H5  UNL d   1      -2.627   2.581   2.893  0.00  0.00     0.418 HD
ENDBRANCH   4   7
TORSDOF 1
ENDMDL
