MODEL 1
REMARK minimizedAffinity 0.379442424
REMARK minimizedRMSD -1
REMARK  1 active torsions:
REMARK  status: ('A' for Active; 'I' for Inactive)
REMARK    1  A    between atoms: C3_4  and  O_7 
ROOT
ATOM      1  C   UNL d   1      -2.942   0.921   0.851  0.00  0.00    -0.033 A 
ATOM      2  C1  UNL d   1      -1.930   0.066   0.408  0.00  0.00     0.039 A 
ATOM      3  C2  UNL d   1      -0.763  -0.084   1.159  0.00  0.00    -0.080 A 
ATOM      4  C3  UNL d   1      -0.620   0.623   2.350  0.00  0.00     0.150 A 
ATOM      5  C4  UNL d   1      -1.625   1.473   2.799  0.00  0.00    -0.007 A 
ATOM      6  C5  UNL d   1      -2.790   1.623   2.047  0.00  0.00     0.039 A 
ENDROOT
BRANCH   4   7
ATOM      7  O   UNL d   1       0.504   0.512   3.114  0.00  0.00    -0.526 OA
ATOM      8  H5  UNL d   1       1.123  -0.087   2.665  0.00  0.00     0.418 HD
ENDBRANCH   4   7
TORSDOF 1
ENDMDL
