MODEL 1
REMARK minimizedAffinity 11.3058167
REMARK minimizedRMSD -1
REMARK  1 active torsions:
REMARK  status: ('A' for Active; 'I' for Inactive)
REMARK    1  A    between atoms: C3_4  and  O_7 
ROOT
ATOM      1  C   UNL d   1      -2.019   2.245  -4.243  0.00  0.00    -0.033 A 
ATOM      2  C1  UNL d   1      -3.002   1.350  -3.815  0.00  0.00     0.039 A 
ATOM      3  C2  UNL d   1      -3.096   0.084  -4.395  0.00  0.00    -0.080 A 
ATOM      4  C3  UNL d   1      -2.202  -0.276  -5.400  0.00  0.00     0.150 A 
ATOM      5  C4  UNL d   1      -1.218   0.609  -5.829  0.00  0.00    -0.007 A 
ATOM      6  C5  UNL d   1      -1.126   1.874  -5.248  0.00  0.00     0.039 A 
ENDROOT
BRANCH   4   7
ATOM      7  O   UNL d   1      -2.258  -1.499  -6.000  0.00  0.00    -0.526 OA
ATOM      8  H5  UNL d   1      -3.005  -1.992  -5.623  0.00  0.00     0.418 HD
ENDBRANCH   4   7
TORSDOF 1
ENDMDL
