MODEL 1
REMARK minimizedAffinity 6.2273407
REMARK minimizedRMSD -1
REMARK  1 active torsions:
REMARK  status: ('A' for Active; 'I' for Inactive)
REMARK    1  A    between atoms: C3_4  and  O_7 
ROOT
ATOM      1  C   UNL d   1      -2.667   0.544   0.336  0.00  0.00    -0.033 A 
ATOM      2  C1  UNL d   1      -1.650   0.109   1.188  0.00  0.00     0.039 A 
ATOM      3  C2  UNL d   1      -1.154  -1.192   1.080  0.00  0.00    -0.080 A 
ATOM      4  C3  UNL d   1      -1.683  -2.047   0.117  0.00  0.00     0.150 A 
ATOM      5  C4  UNL d   1      -2.694  -1.619  -0.737  0.00  0.00    -0.007 A 
ATOM      6  C5  UNL d   1      -3.188  -0.320  -0.628  0.00  0.00     0.039 A 
ENDROOT
BRANCH   4   7
ATOM      7  O   UNL d   1      -1.235  -3.327  -0.023  0.00  0.00    -0.526 OA
ATOM      8  H5  UNL d   1      -0.557  -3.491   0.653  0.00  0.00     0.418 HD
ENDBRANCH   4   7
TORSDOF 1
ENDMDL
