MODEL 1
REMARK minimizedAffinity 2.65589571
REMARK minimizedRMSD -1
REMARK  1 active torsions:
REMARK  status: ('A' for Active; 'I' for Inactive)
REMARK    1  A    between atoms: C3_4  and  O_7 
ROOT
ATOM      1  C   UNL d   1      -1.604  -1.274   0.073  0.00  0.00    -0.033 A 
ATOM      2  C1  UNL d   1      -0.994  -0.074   0.445  0.00  0.00     0.039 A 
ATOM      3  C2  UNL d   1      -1.767   0.982   0.932  0.00  0.00    -0.080 A 
ATOM      4  C3  UNL d   1      -3.146   0.825   1.044  0.00  0.00     0.150 A 
ATOM      5  C4  UNL d   1      -3.759  -0.369   0.678  0.00  0.00    -0.007 A 
ATOM      6  C5  UNL d   1      -2.986  -1.422   0.191  0.00  0.00     0.039 A 
ENDROOT
BRANCH   4   7
ATOM      7  O   UNL d   1      -3.942   1.829   1.509  0.00  0.00    -0.526 OA
ATOM      8  H5  UNL d   1      -3.384   2.603   1.696  0.00  0.00     0.418 HD
ENDBRANCH   4   7
TORSDOF 1
ENDMDL
