MODEL 1
REMARK minimizedAffinity 0.900103807
REMARK minimizedRMSD -1
REMARK  1 active torsions:
REMARK  status: ('A' for Active; 'I' for Inactive)
REMARK    1  A    between atoms: C3_4  and  O_7 
ROOT
ATOM      1  C   UNL d   1      -0.657   2.526   3.554  0.00  0.00    -0.033 A 
ATOM      2  C1  UNL d   1       0.481   2.115   2.857  0.00  0.00     0.039 A 
ATOM      3  C2  UNL d   1       0.377   1.148   1.855  0.00  0.00    -0.080 A 
ATOM      4  C3  UNL d   1      -0.868   0.602   1.559  0.00  0.00     0.150 A 
ATOM      5  C4  UNL d   1      -2.007   1.009   2.247  0.00  0.00    -0.007 A 
ATOM      6  C5  UNL d   1      -1.901   1.974   3.248  0.00  0.00     0.039 A 
ENDROOT
BRANCH   4   7
ATOM      7  O   UNL d   1      -1.019  -0.348   0.593  0.00  0.00    -0.526 OA
ATOM      8  H5  UNL d   1      -0.144  -0.551   0.223  0.00  0.00     0.418 HD
ENDBRANCH   4   7
TORSDOF 1
ENDMDL
