MODEL 1
REMARK minimizedAffinity 2.66621614
REMARK minimizedRMSD -1
REMARK  1 active torsions:
REMARK  status: ('A' for Active; 'I' for Inactive)
REMARK    1  A    between atoms: C3_4  and  O_7 
ROOT
ATOM      1  C   UNL d   1      -0.219   2.357   4.225  0.00  0.00    -0.033 A 
ATOM      2  C1  UNL d   1      -1.605   2.210   4.143  0.00  0.00     0.039 A 
ATOM      3  C2  UNL d   1      -2.184   1.670   2.993  0.00  0.00    -0.080 A 
ATOM      4  C3  UNL d   1      -1.368   1.280   1.935  0.00  0.00     0.150 A 
ATOM      5  C4  UNL d   1       0.014   1.420   2.012  0.00  0.00    -0.007 A 
ATOM      6  C5  UNL d   1       0.591   1.960   3.161  0.00  0.00     0.039 A 
ENDROOT
BRANCH   4   7
ATOM      7  O   UNL d   1      -1.887   0.752   0.790  0.00  0.00    -0.526 OA
ATOM      8  H5  UNL d   1      -2.856   0.742   0.868  0.00  0.00     0.418 HD
ENDBRANCH   4   7
TORSDOF 1
ENDMDL
