MODEL 1
REMARK minimizedAffinity 0.662388265
REMARK minimizedRMSD -1
REMARK  1 active torsions:
REMARK  status: ('A' for Active; 'I' for Inactive)
REMARK    1  A    between atoms: C3_4  and  O_7 
ROOT
ATOM      1  C   UNL d   1      -1.872   0.734   1.120  0.00  0.00    -0.033 A 
ATOM      2  C1  UNL d   1      -2.359   1.683   2.020  0.00  0.00     0.039 A 
ATOM      3  C2  UNL d   1      -1.497   2.282   2.941  0.00  0.00    -0.080 A 
ATOM      4  C3  UNL d   1      -0.152   1.924   2.950  0.00  0.00     0.150 A 
ATOM      5  C4  UNL d   1       0.341   0.982   2.053  0.00  0.00    -0.007 A 
ATOM      6  C5  UNL d   1      -0.522   0.385   1.135  0.00  0.00     0.039 A 
ENDROOT
BRANCH   4   7
ATOM      7  O   UNL d   1       0.727   2.477   3.834  0.00  0.00    -0.526 OA
ATOM      8  H5  UNL d   1       0.240   3.089   4.410  0.00  0.00     0.418 HD
ENDBRANCH   4   7
TORSDOF 1
ENDMDL
