MODEL 1
REMARK minimizedAffinity -2.93387508
REMARK minimizedRMSD -1
REMARK  1 active torsions:
REMARK  status: ('A' for Active; 'I' for Inactive)
REMARK    1  A    between atoms: C3_4  and  O_7 
ROOT
ATOM      1  C   UNL d   1      -2.810   1.449   1.706  0.00  0.00    -0.033 A 
ATOM      2  C1  UNL d   1      -2.013   1.927   2.748  0.00  0.00     0.039 A 
ATOM      3  C2  UNL d   1      -0.695   1.487   2.881  0.00  0.00    -0.080 A 
ATOM      4  C3  UNL d   1      -0.186   0.570   1.965  0.00  0.00     0.150 A 
ATOM      5  C4  UNL d   1      -0.972   0.092   0.922  0.00  0.00    -0.007 A 
ATOM      6  C5  UNL d   1      -2.288   0.532   0.792  0.00  0.00     0.039 A 
ENDROOT
BRANCH   4   7
ATOM      7  O   UNL d   1       1.094   0.107   2.057  0.00  0.00    -0.526 OA
ATOM      8  H5  UNL d   1       1.508   0.502   2.842  0.00  0.00     0.418 HD
ENDBRANCH   4   7
TORSDOF 1
ENDMDL
