MODEL 1
REMARK minimizedAffinity -0.69778353
REMARK minimizedRMSD -1
REMARK  1 active torsions:
REMARK  status: ('A' for Active; 'I' for Inactive)
REMARK    1  A    between atoms: C3_4  and  O_7 
ROOT
ATOM      1  C   UNL d   1      -2.582   0.546   1.150  0.00  0.00    -0.033 A 
ATOM      2  C1  UNL d   1      -1.267   0.289   0.757  0.00  0.00     0.039 A 
ATOM      3  C2  UNL d   1      -0.202   0.786   1.510  0.00  0.00    -0.080 A 
ATOM      4  C3  UNL d   1      -0.464   1.536   2.653  0.00  0.00     0.150 A 
ATOM      5  C4  UNL d   1      -1.771   1.793   3.053  0.00  0.00    -0.007 A 
ATOM      6  C5  UNL d   1      -2.834   1.297   2.299  0.00  0.00     0.039 A 
ENDROOT
BRANCH   4   7
ATOM      7  O   UNL d   1       0.543   2.046   3.417  0.00  0.00    -0.526 OA
ATOM      8  H5  UNL d   1       1.391   1.813   3.004  0.00  0.00     0.418 HD
ENDBRANCH   4   7
TORSDOF 1
ENDMDL
