MODEL 1
REMARK minimizedAffinity 2.72761488
REMARK minimizedRMSD -1
REMARK  1 active torsions:
REMARK  status: ('A' for Active; 'I' for Inactive)
REMARK    1  A    between atoms: C3_4  and  O_7 
ROOT
ATOM      1  C   UNL d   1       0.081   0.595   1.310  0.00  0.00    -0.033 A 
ATOM      2  C1  UNL d   1      -0.279   1.402   2.391  0.00  0.00     0.039 A 
ATOM      3  C2  UNL d   1      -1.613   1.770   2.576  0.00  0.00    -0.080 A 
ATOM      4  C3  UNL d   1      -2.576   1.325   1.675  0.00  0.00     0.150 A 
ATOM      5  C4  UNL d   1      -2.226   0.517   0.598  0.00  0.00    -0.007 A 
ATOM      6  C5  UNL d   1      -0.893   0.151   0.414  0.00  0.00     0.039 A 
ENDROOT
BRANCH   4   7
ATOM      7  O   UNL d   1      -3.890   1.662   1.812  0.00  0.00    -0.526 OA
ATOM      8  H5  UNL d   1      -3.979   2.246   2.584  0.00  0.00     0.418 HD
ENDBRANCH   4   7
TORSDOF 1
ENDMDL
