MODEL 1
REMARK minimizedAffinity 4.37448549
REMARK minimizedRMSD -1
REMARK  1 active torsions:
REMARK  status: ('A' for Active; 'I' for Inactive)
REMARK    1  A    between atoms: C3_4  and  O_7 
ROOT
ATOM      1  C   UNL d   1       0.143   1.129   3.324  0.00  0.00    -0.033 A 
ATOM      2  C1  UNL d   1       0.556   0.347   2.243  0.00  0.00     0.039 A 
ATOM      3  C2  UNL d   1      -0.261   0.220   1.118  0.00  0.00    -0.080 A 
ATOM      4  C3  UNL d   1      -1.487   0.879   1.086  0.00  0.00     0.150 A 
ATOM      5  C4  UNL d   1      -1.903   1.663   2.157  0.00  0.00    -0.007 A 
ATOM      6  C5  UNL d   1      -1.086   1.788   3.280  0.00  0.00     0.039 A 
ENDROOT
BRANCH   4   7
ATOM      7  O   UNL d   1      -2.320   0.781   0.012  0.00  0.00    -0.526 OA
ATOM      8  H5  UNL d   1      -1.915   0.184  -0.639  0.00  0.00     0.418 HD
ENDBRANCH   4   7
TORSDOF 1
ENDMDL
