MODEL 1
REMARK minimizedAffinity 1.26141357
REMARK minimizedRMSD -1
REMARK  1 active torsions:
REMARK  status: ('A' for Active; 'I' for Inactive)
REMARK    1  A    between atoms: C3_4  and  O_7 
ROOT
ATOM      1  C   UNL d   1      -1.194   0.353   0.947  0.00  0.00    -0.033 A 
ATOM      2  C1  UNL d   1      -1.951   1.097   1.855  0.00  0.00     0.039 A 
ATOM      3  C2  UNL d   1      -1.314   1.883   2.817  0.00  0.00    -0.080 A 
ATOM      4  C3  UNL d   1       0.077   1.918   2.859  0.00  0.00     0.150 A 
ATOM      5  C4  UNL d   1       0.836   1.183   1.955  0.00  0.00    -0.007 A 
ATOM      6  C5  UNL d   1       0.199   0.397   0.996  0.00  0.00     0.039 A 
ENDROOT
BRANCH   4   7
ATOM      7  O   UNL d   1       0.743   2.667   3.783  0.00  0.00    -0.526 OA
ATOM      8  H5  UNL d   1       0.089   3.098   4.359  0.00  0.00     0.418 HD
ENDBRANCH   4   7
TORSDOF 1
ENDMDL
