MODEL 1
REMARK minimizedAffinity 6.27533627
REMARK minimizedRMSD -1
REMARK  1 active torsions:
REMARK  status: ('A' for Active; 'I' for Inactive)
REMARK    1  A    between atoms: C3_4  and  O_7 
ROOT
ATOM      1  C   UNL d   1       1.209   0.354   2.291  0.00  0.00    -0.033 A 
ATOM      2  C1  UNL d   1       0.260  -0.600   1.919  0.00  0.00     0.039 A 
ATOM      3  C2  UNL d   1      -1.039  -0.205   1.593  0.00  0.00    -0.080 A 
ATOM      4  C3  UNL d   1      -1.375   1.145   1.641  0.00  0.00     0.150 A 
ATOM      5  C4  UNL d   1      -0.434   2.101   2.007  0.00  0.00    -0.007 A 
ATOM      6  C5  UNL d   1       0.862   1.705   2.334  0.00  0.00     0.039 A 
ENDROOT
BRANCH   4   7
ATOM      7  O   UNL d   1      -2.631   1.577   1.336  0.00  0.00    -0.526 OA
ATOM      8  H5  UNL d   1      -3.182   0.804   1.129  0.00  0.00     0.418 HD
ENDBRANCH   4   7
TORSDOF 1
ENDMDL
