MODEL 1
REMARK minimizedAffinity -5.32565498
REMARK minimizedRMSD -1
REMARK  1 active torsions:
REMARK  status: ('A' for Active; 'I' for Inactive)
REMARK    1  A    between atoms: C1_2  and  C2_3 
ROOT
ATOM      1  C2  UNL d   1       0.042   0.023  -0.206  0.00  0.00    -0.073 A 
ATOM      2  C3  UNL d   1       0.734   1.167  -0.620  0.00  0.00    -0.002 A 
ATOM      3  C4  UNL d   1       0.135   2.424  -0.530  0.00  0.00     0.004 A 
ATOM      4  C5  UNL d   1      -1.156   2.551  -0.019  0.00  0.00    -0.004 A 
ATOM      5  C6  UNL d   1      -1.859   1.422   0.412  0.00  0.00    -0.075 A 
ATOM      6  C7  UNL d   1      -3.250   1.541   0.963  0.00  0.00     0.076 C 
ATOM      7  C8  UNL d   1      -1.252   0.162   0.316  0.00  0.00     0.001 A 
ENDROOT
BRANCH   1   8
ATOM      8  C1  UNL d   1       0.687  -1.336  -0.295  0.00  0.00     0.053 C 
ATOM      9  C   UNL d   1      -0.045  -2.251  -1.264  0.00  0.00     0.018 C 
ENDBRANCH   1   8
TORSDOF 1
ENDMDL
