MODEL 1
REMARK minimizedAffinity -0.743660212
REMARK minimizedRMSD -1
REMARK  1 active torsions:
REMARK  status: ('A' for Active; 'I' for Inactive)
REMARK    1  A    between atoms: C1_2  and  C2_3 
ROOT
ATOM      1  C2  UNL d   1      -0.805   1.541   0.979  0.00  0.00    -0.073 A 
ATOM      2  C3  UNL d   1       0.476   1.848   0.506  0.00  0.00    -0.002 A 
ATOM      3  C4  UNL d   1       1.196   0.912  -0.238  0.00  0.00     0.004 A 
ATOM      4  C5  UNL d   1       0.641  -0.336  -0.522  0.00  0.00    -0.004 A 
ATOM      5  C6  UNL d   1      -0.643  -0.657  -0.068  0.00  0.00    -0.075 A 
ATOM      6  C7  UNL d   1      -1.253  -1.996  -0.363  0.00  0.00     0.076 C 
ATOM      7  C8  UNL d   1      -1.358   0.287   0.681  0.00  0.00     0.001 A 
ENDROOT
BRANCH   1   8
ATOM      8  C1  UNL d   1      -1.588   2.551   1.777  0.00  0.00     0.053 C 
ATOM      9  C   UNL d   1      -0.682   3.468   2.582  0.00  0.00     0.018 C 
ENDBRANCH   1   8
TORSDOF 1
ENDMDL
