MODEL 1
REMARK minimizedAffinity -4.98799753
REMARK minimizedRMSD -1
REMARK  1 active torsions:
REMARK  status: ('A' for Active; 'I' for Inactive)
REMARK    1  A    between atoms: C1_2  and  C2_3 
ROOT
ATOM      1  C2  UNL d   1       0.089  -0.195   0.015  0.00  0.00    -0.073 A 
ATOM      2  C3  UNL d   1      -1.077  -0.179   0.789  0.00  0.00    -0.002 A 
ATOM      3  C4  UNL d   1      -1.658   1.034   1.162  0.00  0.00     0.004 A 
ATOM      4  C5  UNL d   1      -1.086   2.240   0.759  0.00  0.00    -0.004 A 
ATOM      5  C6  UNL d   1       0.073   2.244  -0.024  0.00  0.00    -0.075 A 
ATOM      6  C7  UNL d   1       0.703   3.533  -0.464  0.00  0.00     0.076 C 
ATOM      7  C8  UNL d   1       0.652   1.022  -0.393  0.00  0.00     0.001 A 
ENDROOT
BRANCH   1   8
ATOM      8  C1  UNL d   1       0.717  -1.502  -0.396  0.00  0.00     0.053 C 
ATOM      9  C   UNL d   1      -0.244  -2.371  -1.192  0.00  0.00     0.018 C 
ENDBRANCH   1   8
TORSDOF 1
ENDMDL
