MODEL 1
REMARK minimizedAffinity -1.02150369
REMARK minimizedRMSD -1
REMARK  1 active torsions:
REMARK  status: ('A' for Active; 'I' for Inactive)
REMARK    1  A    between atoms: C1_2  and  C2_3 
ROOT
ATOM      1  C2  UNL d   1       0.393   0.873   0.001  0.00  0.00    -0.073 A 
ATOM      2  C3  UNL d   1       0.872   2.098  -0.477  0.00  0.00    -0.002 A 
ATOM      3  C4  UNL d   1       0.094   3.251  -0.365  0.00  0.00     0.004 A 
ATOM      4  C5  UNL d   1      -1.166   3.193   0.230  0.00  0.00    -0.004 A 
ATOM      5  C6  UNL d   1      -1.658   1.980   0.724  0.00  0.00    -0.075 A 
ATOM      6  C7  UNL d   1      -3.012   1.900   1.365  0.00  0.00     0.076 C 
ATOM      7  C8  UNL d   1      -0.872   0.826   0.606  0.00  0.00     0.001 A 
ENDROOT
BRANCH   1   8
ATOM      8  C1  UNL d   1       1.232  -0.374  -0.111  0.00  0.00     0.053 C 
ATOM      9  C   UNL d   1       2.716  -0.076   0.028  0.00  0.00     0.018 C 
ENDBRANCH   1   8
TORSDOF 1
ENDMDL
