MODEL 1
REMARK minimizedAffinity -2.62826133
REMARK minimizedRMSD -1
REMARK  1 active torsions:
REMARK  status: ('A' for Active; 'I' for Inactive)
REMARK    1  A    between atoms: C1_2  and  C2_3 
ROOT
ATOM      1  C2  UNL d   1       0.051  -1.166  -0.098  0.00  0.00    -0.073 A 
ATOM      2  C3  UNL d   1       1.354  -1.058  -0.596  0.00  0.00    -0.002 A 
ATOM      3  C4  UNL d   1       1.999   0.179  -0.620  0.00  0.00     0.004 A 
ATOM      4  C5  UNL d   1       1.351   1.318  -0.141  0.00  0.00    -0.004 A 
ATOM      5  C6  UNL d   1       0.053   1.228   0.371  0.00  0.00    -0.075 A 
ATOM      6  C7  UNL d   1      -0.659   2.444   0.887  0.00  0.00     0.076 C 
ATOM      7  C8  UNL d   1      -0.589  -0.018   0.389  0.00  0.00     0.001 A 
ENDROOT
BRANCH   1   8
ATOM      8  C1  UNL d   1      -0.647  -2.501  -0.064  0.00  0.00     0.053 C 
ATOM      9  C   UNL d   1      -0.903  -3.047  -1.460  0.00  0.00     0.018 C 
ENDBRANCH   1   8
TORSDOF 1
ENDMDL
