MODEL 1
REMARK minimizedAffinity -2.85096502
REMARK minimizedRMSD -1
REMARK  1 active torsions:
REMARK  status: ('A' for Active; 'I' for Inactive)
REMARK    1  A    between atoms: C1_2  and  C2_3 
ROOT
ATOM      1  C2  UNL d   1      -1.725  -4.796  -1.568  0.00  0.00    -0.073 A 
ATOM      2  C3  UNL d   1      -1.727  -3.433  -1.888  0.00  0.00    -0.002 A 
ATOM      3  C4  UNL d   1      -0.742  -2.903  -2.721  0.00  0.00     0.004 A 
ATOM      4  C5  UNL d   1       0.251  -3.729  -3.248  0.00  0.00    -0.004 A 
ATOM      5  C6  UNL d   1       0.263  -5.095  -2.950  0.00  0.00    -0.075 A 
ATOM      6  C7  UNL d   1       1.325  -5.997  -3.508  0.00  0.00     0.076 C 
ATOM      7  C8  UNL d   1      -0.728  -5.620  -2.111  0.00  0.00     0.001 A 
ENDROOT
BRANCH   1   8
ATOM      8  C1  UNL d   1      -2.791  -5.374  -0.674  0.00  0.00     0.053 C 
ATOM      9  C   UNL d   1      -3.114  -4.457   0.495  0.00  0.00     0.018 C 
ENDBRANCH   1   8
TORSDOF 1
ENDMDL
