MODEL 1
REMARK minimizedAffinity 1.37010992
REMARK minimizedRMSD -1
REMARK  1 active torsions:
REMARK  status: ('A' for Active; 'I' for Inactive)
REMARK    1  A    between atoms: C1_2  and  C2_3 
ROOT
ATOM      1  C2  UNL d   1       3.991   3.920  -4.317  0.00  0.00    -0.073 A 
ATOM      2  C3  UNL d   1       5.313   4.033  -4.763  0.00  0.00    -0.002 A 
ATOM      3  C4  UNL d   1       5.861   3.058  -5.597  0.00  0.00     0.004 A 
ATOM      4  C5  UNL d   1       5.092   1.966  -6.000  0.00  0.00    -0.004 A 
ATOM      5  C6  UNL d   1       3.765   1.842  -5.575  0.00  0.00    -0.075 A 
ATOM      6  C7  UNL d   1       2.926   0.672  -5.997  0.00  0.00     0.076 C 
ATOM      7  C8  UNL d   1       3.223   2.824  -4.734  0.00  0.00     0.001 A 
ENDROOT
BRANCH   1   8
ATOM      8  C1  UNL d   1       3.393   4.974  -3.420  0.00  0.00     0.053 C 
ATOM      9  C   UNL d   1       1.885   5.070  -3.581  0.00  0.00     0.018 C 
ENDBRANCH   1   8
TORSDOF 1
ENDMDL
