MODEL 1
REMARK minimizedAffinity -3.7903018
REMARK minimizedRMSD -1
REMARK  1 active torsions:
REMARK  status: ('A' for Active; 'I' for Inactive)
REMARK    1  A    between atoms: C1_2  and  C2_3 
ROOT
ATOM      1  C2  UNL d   1       0.123  -0.890  -0.391  0.00  0.00    -0.073 A 
ATOM      2  C3  UNL d   1       1.105   0.051  -0.722  0.00  0.00    -0.002 A 
ATOM      3  C4  UNL d   1       0.923   1.399  -0.411  0.00  0.00     0.004 A 
ATOM      4  C5  UNL d   1      -0.238   1.819   0.239  0.00  0.00    -0.004 A 
ATOM      5  C6  UNL d   1      -1.225   0.892   0.588  0.00  0.00    -0.075 A 
ATOM      6  C7  UNL d   1      -2.480   1.328   1.286  0.00  0.00     0.076 C 
ATOM      7  C8  UNL d   1      -1.036  -0.459   0.270  0.00  0.00     0.001 A 
ENDROOT
BRANCH   1   8
ATOM      8  C1  UNL d   1       0.318  -2.347  -0.719  0.00  0.00     0.053 C 
ATOM      9  C   UNL d   1      -0.017  -2.655  -2.170  0.00  0.00     0.018 C 
ENDBRANCH   1   8
TORSDOF 1
ENDMDL
