MODEL 1
REMARK minimizedAffinity -4.49316025
REMARK minimizedRMSD -1
REMARK  1 active torsions:
REMARK  status: ('A' for Active; 'I' for Inactive)
REMARK    1  A    between atoms: C1_2  and  C2_3 
ROOT
ATOM      1  C2  UNL d   1      -0.199  -1.162  -0.584  0.00  0.00    -0.073 A 
ATOM      2  C3  UNL d   1       0.530  -1.509  -1.727  0.00  0.00    -0.002 A 
ATOM      3  C4  UNL d   1       0.290  -2.721  -2.375  0.00  0.00     0.004 A 
ATOM      4  C5  UNL d   1      -0.684  -3.595  -1.892  0.00  0.00    -0.004 A 
ATOM      5  C6  UNL d   1      -1.431  -3.261  -0.758  0.00  0.00    -0.075 A 
ATOM      6  C7  UNL d   1      -2.481  -4.190  -0.224  0.00  0.00     0.076 C 
ATOM      7  C8  UNL d   1      -1.182  -2.043  -0.111  0.00  0.00     0.001 A 
ENDROOT
BRANCH   1   8
ATOM      8  C1  UNL d   1       0.053   0.149   0.116  0.00  0.00     0.053 C 
ATOM      9  C   UNL d   1      -1.224   0.742   0.690  0.00  0.00     0.018 C 
ENDBRANCH   1   8
TORSDOF 1
ENDMDL
