MODEL 1
REMARK minimizedAffinity -3.94578719
REMARK minimizedRMSD -1
REMARK  1 active torsions:
REMARK  status: ('A' for Active; 'I' for Inactive)
REMARK    1  A    between atoms: C1_2  and  C2_3 
ROOT
ATOM      1  C2  UNL d   1       0.118  -1.584  -0.368  0.00  0.00    -0.073 A 
ATOM      2  C3  UNL d   1       1.428  -1.833   0.059  0.00  0.00    -0.002 A 
ATOM      3  C4  UNL d   1       2.317  -0.776   0.257  0.00  0.00     0.004 A 
ATOM      4  C5  UNL d   1       1.905   0.539   0.039  0.00  0.00    -0.004 A 
ATOM      5  C6  UNL d   1       0.596   0.808  -0.376  0.00  0.00    -0.075 A 
ATOM      6  C7  UNL d   1       0.138   2.217  -0.617  0.00  0.00     0.076 C 
ATOM      7  C8  UNL d   1      -0.290  -0.259  -0.576  0.00  0.00     0.001 A 
ENDROOT
BRANCH   1   8
ATOM      8  C1  UNL d   1      -0.847  -2.722  -0.578  0.00  0.00     0.053 C 
ATOM      9  C   UNL d   1      -0.765  -3.287  -1.987  0.00  0.00     0.018 C 
ENDBRANCH   1   8
TORSDOF 1
ENDMDL
