MODEL 1
REMARK minimizedAffinity -5.1540494
REMARK minimizedRMSD -1
REMARK  1 active torsions:
REMARK  status: ('A' for Active; 'I' for Inactive)
REMARK    1  A    between atoms: C1_2  and  C2_3 
ROOT
ATOM      1  C2  UNL d   1      -0.282  -0.101  -0.108  0.00  0.00    -0.073 A 
ATOM      2  C3  UNL d   1      -1.350   0.803  -0.068  0.00  0.00    -0.002 A 
ATOM      3  C4  UNL d   1      -1.120   2.155   0.192  0.00  0.00     0.004 A 
ATOM      4  C5  UNL d   1       0.178   2.617   0.407  0.00  0.00    -0.004 A 
ATOM      5  C6  UNL d   1       1.260   1.732   0.359  0.00  0.00    -0.075 A 
ATOM      6  C7  UNL d   1       2.662   2.213   0.590  0.00  0.00     0.076 C 
ATOM      7  C8  UNL d   1       1.020   0.375   0.100  0.00  0.00     0.001 A 
ENDROOT
BRANCH   1   8
ATOM      8  C1  UNL d   1      -0.525  -1.560  -0.394  0.00  0.00     0.053 C 
ATOM      9  C   UNL d   1       0.548  -2.150  -1.296  0.00  0.00     0.018 C 
ENDBRANCH   1   8
TORSDOF 1
ENDMDL
