MODEL 1
REMARK minimizedAffinity -3.5460403
REMARK minimizedRMSD -1
REMARK  1 active torsions:
REMARK  status: ('A' for Active; 'I' for Inactive)
REMARK    1  A    between atoms: C1_2  and  C2_3 
ROOT
ATOM      1  C2  UNL d   1      -0.019  -1.011  -0.060  0.00  0.00    -0.073 A 
ATOM      2  C3  UNL d   1      -1.083  -0.242   0.425  0.00  0.00    -0.002 A 
ATOM      3  C4  UNL d   1      -0.924   1.128   0.638  0.00  0.00     0.004 A 
ATOM      4  C5  UNL d   1       0.297   1.743   0.361  0.00  0.00    -0.004 A 
ATOM      5  C6  UNL d   1       1.368   0.994  -0.136  0.00  0.00    -0.075 A 
ATOM      6  C7  UNL d   1       2.688   1.641  -0.436  0.00  0.00     0.076 C 
ATOM      7  C8  UNL d   1       1.201  -0.381  -0.344  0.00  0.00     0.001 A 
ENDROOT
BRANCH   1   8
ATOM      8  C1  UNL d   1      -0.189  -2.490  -0.297  0.00  0.00     0.053 C 
ATOM      9  C   UNL d   1      -0.559  -2.797  -1.739  0.00  0.00     0.018 C 
ENDBRANCH   1   8
TORSDOF 1
ENDMDL
