MODEL 1
REMARK minimizedAffinity -3.47595859
REMARK minimizedRMSD -1
REMARK  0 active torsions:
REMARK  status: ('A' for Active; 'I' for Inactive)
ROOT
ATOM      1  C   UNL d   1      -1.313   1.413   2.224  0.00  0.00    -0.002 A 
ATOM      2  C1  UNL d   1      -2.025   0.807   1.198  0.00  0.00     0.010 A 
ATOM      3  C2  UNL d   1      -1.376  -0.006   0.267  0.00  0.00     0.041 A 
ATOM      4  C3  UNL d   1       0.013  -0.205   0.387  0.00  0.00    -0.075 A 
ATOM      5  S   UNL d   1       1.019  -1.162  -0.636  0.00  0.00     0.015 SA
ATOM      6  C4  UNL d   1       2.417  -0.790   0.266  0.00  0.00     0.022 A 
ATOM      7  C5  UNL d   1       2.142   0.042   1.325  0.00  0.00     0.026 A 
ATOM      8  C6  UNL d   1       0.752   0.393   1.413  0.00  0.00    -0.082 A 
ATOM      9  C7  UNL d   1       0.065   1.213   2.340  0.00  0.00     0.045 A 
ENDROOT
TORSDOF 0
ENDMDL
