MODEL 1
REMARK minimizedAffinity 1.69169199
REMARK minimizedRMSD -1
REMARK  0 active torsions:
REMARK  status: ('A' for Active; 'I' for Inactive)
ROOT
ATOM      1  C   UNL d   1      -1.264   0.522   3.218  0.00  0.00    -0.002 A 
ATOM      2  C1  UNL d   1      -0.189   1.399   3.188  0.00  0.00     0.010 A 
ATOM      3  C2  UNL d   1       0.618   1.494   2.053  0.00  0.00     0.041 A 
ATOM      4  C3  UNL d   1       0.322   0.688   0.937  0.00  0.00    -0.075 A 
ATOM      5  S   UNL d   1       1.171   0.636  -0.563  0.00  0.00     0.015 SA
ATOM      6  C4  UNL d   1       0.126  -0.551  -1.199  0.00  0.00     0.022 A 
ATOM      7  C5  UNL d   1      -0.852  -0.910  -0.303  0.00  0.00     0.026 A 
ATOM      8  C6  UNL d   1      -0.756  -0.202   0.943  0.00  0.00    -0.082 A 
ATOM      9  C7  UNL d   1      -1.555  -0.277   2.109  0.00  0.00     0.045 A 
ENDROOT
TORSDOF 0
ENDMDL
