MODEL 1
REMARK minimizedAffinity -2.69762635
REMARK minimizedRMSD -1
REMARK  0 active torsions:
REMARK  status: ('A' for Active; 'I' for Inactive)
ROOT
ATOM      1  C   UNL d   1      -1.155   0.733   1.992  0.00  0.00    -0.002 A 
ATOM      2  C1  UNL d   1      -2.151   0.033   1.326  0.00  0.00     0.010 A 
ATOM      3  C2  UNL d   1      -1.947  -0.426   0.023  0.00  0.00     0.041 A 
ATOM      4  C3  UNL d   1      -0.713  -0.168  -0.605  0.00  0.00    -0.075 A 
ATOM      5  S   UNL d   1      -0.238  -0.634  -2.196  0.00  0.00     0.015 SA
ATOM      6  C4  UNL d   1       1.298   0.085  -2.029  0.00  0.00     0.022 A 
ATOM      7  C5  UNL d   1       1.462   0.671  -0.796  0.00  0.00     0.026 A 
ATOM      8  C6  UNL d   1       0.306   0.534   0.045  0.00  0.00    -0.082 A 
ATOM      9  C7  UNL d   1       0.069   0.987   1.366  0.00  0.00     0.045 A 
ENDROOT
TORSDOF 0
ENDMDL
