MODEL 1
REMARK minimizedAffinity -2.66461301
REMARK minimizedRMSD -1
REMARK  0 active torsions:
REMARK  status: ('A' for Active; 'I' for Inactive)
ROOT
ATOM      1  C   UNL d   1      -1.098   1.540   2.437  0.00  0.00    -0.002 A 
ATOM      2  C1  UNL d   1      -2.009   0.591   1.996  0.00  0.00     0.010 A 
ATOM      3  C2  UNL d   1      -1.788  -0.109   0.808  0.00  0.00     0.041 A 
ATOM      4  C3  UNL d   1      -0.622   0.163   0.064  0.00  0.00    -0.075 A 
ATOM      5  S   UNL d   1      -0.141  -0.572  -1.420  0.00  0.00     0.015 SA
ATOM      6  C4  UNL d   1       1.286   0.357  -1.503  0.00  0.00     0.022 A 
ATOM      7  C5  UNL d   1       1.408   1.211  -0.433  0.00  0.00     0.026 A 
ATOM      8  C6  UNL d   1       0.311   1.113   0.488  0.00  0.00    -0.082 A 
ATOM      9  C7  UNL d   1       0.057   1.806   1.696  0.00  0.00     0.045 A 
ENDROOT
TORSDOF 0
ENDMDL
