MODEL 1
REMARK minimizedAffinity -0.275008112
REMARK minimizedRMSD -1
REMARK  0 active torsions:
REMARK  status: ('A' for Active; 'I' for Inactive)
ROOT
ATOM      1  C   UNL d   1       2.472  -0.963   0.748  0.00  0.00    -0.002 A 
ATOM      2  C1  UNL d   1       1.852  -1.097  -0.486  0.00  0.00     0.010 A 
ATOM      3  C2  UNL d   1       0.805  -0.249  -0.850  0.00  0.00     0.041 A 
ATOM      4  C3  UNL d   1       0.389   0.748   0.054  0.00  0.00    -0.075 A 
ATOM      5  S   UNL d   1      -0.871   1.902  -0.177  0.00  0.00     0.015 SA
ATOM      6  C4  UNL d   1      -0.615   2.601   1.356  0.00  0.00     0.022 A 
ATOM      7  C5  UNL d   1       0.403   1.981   2.041  0.00  0.00     0.026 A 
ATOM      8  C6  UNL d   1       0.999   0.904   1.302  0.00  0.00    -0.082 A 
ATOM      9  C7  UNL d   1       2.057   0.027   1.643  0.00  0.00     0.045 A 
ENDROOT
TORSDOF 0
ENDMDL
