MODEL 1
REMARK minimizedAffinity -2.66170835
REMARK minimizedRMSD -1
REMARK  0 active torsions:
REMARK  status: ('A' for Active; 'I' for Inactive)
ROOT
ATOM      1  C   UNL d   1      -6.000  -3.778  -5.663  0.00  0.00     0.172 C 
ATOM      2  N   UNL d   1      -5.638  -4.432  -4.428  0.00  0.00    -0.070 N 
ATOM      3  C1  UNL d   1      -5.623  -3.848  -3.189  0.00  0.00    -0.004 A 
ATOM      4  C2  UNL d   1      -5.224  -4.802  -2.278  0.00  0.00    -0.047 A 
ATOM      5  C3  UNL d   1      -4.989  -6.000  -2.994  0.00  0.00    -0.047 A 
ATOM      6  C4  UNL d   1      -5.253  -5.743  -4.322  0.00  0.00    -0.004 A 
ENDROOT
TORSDOF 0
ENDMDL
