MODEL 1
REMARK minimizedAffinity -2.88668084
REMARK minimizedRMSD -1
REMARK  0 active torsions:
REMARK  status: ('A' for Active; 'I' for Inactive)
ROOT
ATOM      1  C   UNL d   1      -5.615  -4.905  -2.442  0.00  0.00     0.172 C 
ATOM      2  N   UNL d   1      -5.513  -4.922  -3.883  0.00  0.00    -0.070 N 
ATOM      3  C1  UNL d   1      -5.147  -5.999  -4.644  0.00  0.00    -0.004 A 
ATOM      4  C2  UNL d   1      -5.173  -5.610  -5.966  0.00  0.00    -0.047 A 
ATOM      5  C3  UNL d   1      -5.568  -4.252  -6.000  0.00  0.00    -0.047 A 
ATOM      6  C4  UNL d   1      -5.772  -3.851  -4.696  0.00  0.00    -0.004 A 
ENDROOT
TORSDOF 0
ENDMDL
