MODEL 1
REMARK minimizedAffinity -2.03948641
REMARK minimizedRMSD -1
REMARK  0 active torsions:
REMARK  status: ('A' for Active; 'I' for Inactive)
ROOT
ATOM      1  C   UNL d   1      -4.964  -4.867  -2.511  0.00  0.00     0.172 C 
ATOM      2  N   UNL d   1      -5.241  -4.880  -3.928  0.00  0.00    -0.070 N 
ATOM      3  C1  UNL d   1      -5.426  -6.000  -4.694  0.00  0.00    -0.004 A 
ATOM      4  C2  UNL d   1      -5.667  -5.591  -5.988  0.00  0.00    -0.047 A 
ATOM      5  C3  UNL d   1      -5.625  -4.176  -6.000  0.00  0.00    -0.047 A 
ATOM      6  C4  UNL d   1      -5.359  -3.763  -4.711  0.00  0.00    -0.004 A 
ENDROOT
TORSDOF 0
ENDMDL
