MODEL 1
REMARK minimizedAffinity 0.178033754
REMARK minimizedRMSD -1
REMARK  0 active torsions:
REMARK  status: ('A' for Active; 'I' for Inactive)
ROOT
ATOM      1  C   UNL d   1      -1.880   2.266  -0.290  0.00  0.00     0.172 C 
ATOM      2  N   UNL d   1      -0.663   3.021  -0.472  0.00  0.00    -0.070 N 
ATOM      3  C1  UNL d   1       0.425   2.993   0.359  0.00  0.00    -0.004 A 
ATOM      4  C2  UNL d   1       1.374   3.847  -0.160  0.00  0.00    -0.047 A 
ATOM      5  C3  UNL d   1       0.838   4.408  -1.343  0.00  0.00    -0.047 A 
ATOM      6  C4  UNL d   1      -0.425   3.879  -1.512  0.00  0.00    -0.004 A 
ENDROOT
TORSDOF 0
ENDMDL
