MODEL 1
REMARK minimizedAffinity 1.14613688
REMARK minimizedRMSD -1
REMARK  0 active torsions:
REMARK  status: ('A' for Active; 'I' for Inactive)
ROOT
ATOM      1  C   UNL d   1       4.478  -0.746  -2.885  0.00  0.00     0.172 C 
ATOM      2  N   UNL d   1       4.826  -0.147  -4.152  0.00  0.00    -0.070 N 
ATOM      3  C1  UNL d   1       4.063   0.754  -4.846  0.00  0.00    -0.004 A 
ATOM      4  C2  UNL d   1       4.742   1.082  -6.000  0.00  0.00    -0.047 A 
ATOM      5  C3  UNL d   1       5.955   0.353  -5.999  0.00  0.00    -0.047 A 
ATOM      6  C4  UNL d   1       5.981  -0.400  -4.844  0.00  0.00    -0.004 A 
ENDROOT
TORSDOF 0
ENDMDL
