MODEL 1
REMARK minimizedAffinity -3.19181466
REMARK minimizedRMSD -1
REMARK  0 active torsions:
REMARK  status: ('A' for Active; 'I' for Inactive)
ROOT
ATOM      1  C   UNL d   1      -5.688  -4.660  -2.398  0.00  0.00     0.172 C 
ATOM      2  N   UNL d   1      -5.766  -4.813  -3.832  0.00  0.00    -0.070 N 
ATOM      3  C1  UNL d   1      -5.998  -3.807  -4.731  0.00  0.00    -0.004 A 
ATOM      4  C2  UNL d   1      -5.997  -4.360  -5.993  0.00  0.00    -0.047 A 
ATOM      5  C3  UNL d   1      -5.756  -5.747  -5.848  0.00  0.00    -0.047 A 
ATOM      6  C4  UNL d   1      -5.617  -6.000  -4.499  0.00  0.00    -0.004 A 
ENDROOT
TORSDOF 0
ENDMDL
