MODEL 1
REMARK minimizedAffinity 1.83827209
REMARK minimizedRMSD -1
REMARK  0 active torsions:
REMARK  status: ('A' for Active; 'I' for Inactive)
ROOT
ATOM      1  C   UNL d   1      -5.907  -2.556  -1.741  0.00  0.00     0.172 C 
ATOM      2  N   UNL d   1      -5.943  -3.813  -2.451  0.00  0.00    -0.070 N 
ATOM      3  C1  UNL d   1      -5.958  -5.055  -1.875  0.00  0.00    -0.004 A 
ATOM      4  C2  UNL d   1      -5.993  -5.990  -2.887  0.00  0.00    -0.047 A 
ATOM      5  C3  UNL d   1      -5.999  -5.285  -4.114  0.00  0.00    -0.047 A 
ATOM      6  C4  UNL d   1      -5.967  -3.939  -3.815  0.00  0.00    -0.004 A 
ENDROOT
TORSDOF 0
ENDMDL
