MODEL 1
REMARK minimizedAffinity -2.92354965
REMARK minimizedRMSD -1
REMARK  0 active torsions:
REMARK  status: ('A' for Active; 'I' for Inactive)
ROOT
ATOM      1  C   UNL d   1      -5.938  -5.868  -6.000  0.00  0.00     0.172 C 
ATOM      2  N   UNL d   1      -5.564  -5.286  -4.733  0.00  0.00    -0.070 N 
ATOM      3  C1  UNL d   1      -5.543  -3.947  -4.444  0.00  0.00    -0.004 A 
ATOM      4  C2  UNL d   1      -5.133  -3.803  -3.136  0.00  0.00    -0.047 A 
ATOM      5  C3  UNL d   1      -4.899  -5.100  -2.621  0.00  0.00    -0.047 A 
ATOM      6  C4  UNL d   1      -5.173  -5.999  -3.630  0.00  0.00    -0.004 A 
ENDROOT
TORSDOF 0
ENDMDL
