MODEL 1
REMARK minimizedAffinity -0.0505817831
REMARK minimizedRMSD -1
REMARK  0 active torsions:
REMARK  status: ('A' for Active; 'I' for Inactive)
ROOT
ATOM      1  N1  IND d   1       5.995   1.864  -3.524  0.00  0.00    -0.196 N 
ATOM      2  C2  IND d   1       5.964   1.601  -2.182  0.00  0.00     0.054 A 
ATOM      3  C3  IND d   1       5.918   0.267  -1.966  0.00  0.00    -0.031 A 
ATOM      4  C4  IND d   1       5.988  -1.669  -3.662  0.00  0.00     0.051 A 
ATOM      5  C5  IND d   1       5.981  -1.925  -5.004  0.00  0.00    -0.031 A 
ATOM      6  C6  IND d   1       5.981  -0.912  -5.940  0.00  0.00     0.015 A 
ATOM      7  C7  IND d   1       6.000   0.402  -5.568  0.00  0.00    -0.016 A 
ATOM      8  C8  IND d   1       6.000   0.667  -4.205  0.00  0.00    -0.047 A 
ATOM      9  C9  IND d   1       5.957  -0.357  -3.250  0.00  0.00    -0.096 A 
ATOM     10  HN1 IND d   1       6.010   2.646  -3.881  0.00  0.00     0.298 HD
ENDROOT
TORSDOF 0
ENDMDL
