MODEL 1
REMARK minimizedAffinity 9.95112228
REMARK minimizedRMSD -1
REMARK  0 active torsions:
REMARK  status: ('A' for Active; 'I' for Inactive)
ROOT
ATOM      1  N1  IND d   1       5.800  -0.294  -5.903  0.00  0.00    -0.196 N 
ATOM      2  C2  IND d   1       5.689  -1.657  -5.879  0.00  0.00     0.054 A 
ATOM      3  C3  IND d   1       5.677  -2.105  -4.604  0.00  0.00    -0.031 A 
ATOM      4  C4  IND d   1       5.726  -0.774  -2.401  0.00  0.00     0.051 A 
ATOM      5  C5  IND d   1       5.861   0.496  -1.912  0.00  0.00    -0.031 A 
ATOM      6  C6  IND d   1       5.983   1.589  -2.746  0.00  0.00     0.015 A 
ATOM      7  C7  IND d   1       5.962   1.454  -4.105  0.00  0.00    -0.016 A 
ATOM      8  C8  IND d   1       5.832   0.166  -4.605  0.00  0.00    -0.047 A 
ATOM      9  C9  IND d   1       5.751  -0.952  -3.764  0.00  0.00    -0.096 A 
ATOM     10  HN1 IND d   1       5.843   0.193  -6.610  0.00  0.00     0.298 HD
ENDROOT
TORSDOF 0
ENDMDL
