MODEL 1
REMARK minimizedAffinity -0.922852159
REMARK minimizedRMSD -1
REMARK  0 active torsions:
REMARK  status: ('A' for Active; 'I' for Inactive)
ROOT
ATOM      1  N1  IND d   1       0.486   0.592  -2.978  0.00  0.00    -0.196 N 
ATOM      2  C2  IND d   1       0.563   0.177  -1.678  0.00  0.00     0.054 A 
ATOM      3  C3  IND d   1       1.476   0.910  -1.003  0.00  0.00    -0.031 A 
ATOM      4  C4  IND d   1       2.888   2.907  -1.808  0.00  0.00     0.051 A 
ATOM      5  C5  IND d   1       3.191   3.631  -2.927  0.00  0.00    -0.031 A 
ATOM      6  C6  IND d   1       2.593   3.375  -4.144  0.00  0.00     0.015 A 
ATOM      7  C7  IND d   1       1.658   2.389  -4.286  0.00  0.00    -0.016 A 
ATOM      8  C8  IND d   1       1.353   1.648  -3.153  0.00  0.00    -0.047 A 
ATOM      9  C9  IND d   1       1.988   1.874  -1.925  0.00  0.00    -0.096 A 
ATOM     10  HN1 IND d   1      -0.019   0.251  -3.584  0.00  0.00     0.298 HD
ENDROOT
TORSDOF 0
ENDMDL
