MODEL 1
REMARK minimizedAffinity 5.51555872
REMARK minimizedRMSD -1
REMARK  0 active torsions:
REMARK  status: ('A' for Active; 'I' for Inactive)
ROOT
ATOM      1  N1  IND d   1       5.950  -2.357  -4.250  0.00  0.00    -0.196 N 
ATOM      2  C2  IND d   1       5.935  -2.256  -5.614  0.00  0.00     0.054 A 
ATOM      3  C3  IND d   1       5.901  -0.958  -5.990  0.00  0.00    -0.031 A 
ATOM      4  C4  IND d   1       5.968   1.167  -4.538  0.00  0.00     0.051 A 
ATOM      5  C5  IND d   1       5.948   1.584  -3.237  0.00  0.00    -0.031 A 
ATOM      6  C6  IND d   1       5.930   0.690  -2.185  0.00  0.00     0.015 A 
ATOM      7  C7  IND d   1       5.943  -0.659  -2.397  0.00  0.00    -0.016 A 
ATOM      8  C8  IND d   1       5.956  -1.086  -3.718  0.00  0.00    -0.047 A 
ATOM      9  C9  IND d   1       5.931  -0.184  -4.789  0.00  0.00    -0.096 A 
ATOM     10  HN1 IND d   1       5.955  -3.090  -3.801  0.00  0.00     0.298 HD
ENDROOT
TORSDOF 0
ENDMDL
