MODEL 1
REMARK minimizedAffinity 7.71503878
REMARK minimizedRMSD -1
REMARK  0 active torsions:
REMARK  status: ('A' for Active; 'I' for Inactive)
ROOT
ATOM      1  N1  IND d   1      -1.464  -1.100  -1.054  0.00  0.00    -0.196 N 
ATOM      2  C2  IND d   1      -1.127  -2.194  -0.307  0.00  0.00     0.054 A 
ATOM      3  C3  IND d   1       0.036  -1.977   0.348  0.00  0.00    -0.031 A 
ATOM      4  C4  IND d   1       1.502   0.138   0.420  0.00  0.00     0.051 A 
ATOM      5  C5  IND d   1       1.623   1.384  -0.129  0.00  0.00    -0.031 A 
ATOM      6  C6  IND d   1       0.701   1.877  -1.030  0.00  0.00     0.015 A 
ATOM      7  C7  IND d   1      -0.387   1.143  -1.409  0.00  0.00    -0.016 A 
ATOM      8  C8  IND d   1      -0.510  -0.125  -0.859  0.00  0.00    -0.047 A 
ATOM      9  C9  IND d   1       0.445  -0.647   0.023  0.00  0.00    -0.096 A 
ATOM     10  HN1 IND d   1      -2.156  -1.031  -1.560  0.00  0.00     0.298 HD
ENDROOT
TORSDOF 0
ENDMDL
