MODEL 1
REMARK minimizedAffinity 11.3585854
REMARK minimizedRMSD -1
REMARK  0 active torsions:
REMARK  status: ('A' for Active; 'I' for Inactive)
ROOT
ATOM      1  N1  IND d   1       4.094   3.204  -4.185  0.00  0.00    -0.196 N 
ATOM      2  C2  IND d   1       3.276   3.737  -5.142  0.00  0.00     0.054 A 
ATOM      3  C3  IND d   1       2.035   3.933  -4.644  0.00  0.00    -0.031 A 
ATOM      4  C4  IND d   1       1.150   3.546  -2.258  0.00  0.00     0.051 A 
ATOM      5  C5  IND d   1       1.515   3.037  -1.043  0.00  0.00    -0.031 A 
ATOM      6  C6  IND d   1       2.784   2.550  -0.808  0.00  0.00     0.015 A 
ATOM      7  C7  IND d   1       3.744   2.565  -1.780  0.00  0.00    -0.016 A 
ATOM      8  C8  IND d   1       3.375   3.075  -3.017  0.00  0.00    -0.047 A 
ATOM      9  C9  IND d   1       2.076   3.531  -3.274  0.00  0.00    -0.096 A 
ATOM     10  HN1 IND d   1       4.919   2.986  -4.294  0.00  0.00     0.298 HD
ENDROOT
TORSDOF 0
ENDMDL
