MODEL 1
REMARK minimizedAffinity 7.86835337
REMARK minimizedRMSD -1
REMARK  0 active torsions:
REMARK  status: ('A' for Active; 'I' for Inactive)
ROOT
ATOM      1  N1  IND d   1       2.253  -4.938   1.154  0.00  0.00    -0.196 N 
ATOM      2  C2  IND d   1       1.510  -5.999   1.589  0.00  0.00     0.054 A 
ATOM      3  C3  IND d   1       0.194  -5.691   1.571  0.00  0.00    -0.031 A 
ATOM      4  C4  IND d   1      -0.972  -3.540   0.768  0.00  0.00     0.051 A 
ATOM      5  C5  IND d   1      -0.709  -2.277   0.317  0.00  0.00    -0.031 A 
ATOM      6  C6  IND d   1       0.580  -1.828   0.115  0.00  0.00     0.015 A 
ATOM      7  C7  IND d   1       1.659  -2.633   0.347  0.00  0.00    -0.016 A 
ATOM      8  C8  IND d   1       1.397  -3.914   0.812  0.00  0.00    -0.047 A 
ATOM      9  C9  IND d   1       0.092  -4.361   1.059  0.00  0.00    -0.096 A 
ATOM     10  HN1 IND d   1       3.111  -4.913   1.102  0.00  0.00     0.298 HD
ENDROOT
TORSDOF 0
ENDMDL
