MODEL 1
REMARK minimizedAffinity -0.624716043
REMARK minimizedRMSD -1
REMARK  0 active torsions:
REMARK  status: ('A' for Active; 'I' for Inactive)
ROOT
ATOM      1  N1  IND d   1       5.622   1.885  -3.591  0.00  0.00    -0.196 N 
ATOM      2  C2  IND d   1       5.850   1.632  -2.267  0.00  0.00     0.054 A 
ATOM      3  C3  IND d   1       5.993   0.304  -2.060  0.00  0.00    -0.031 A 
ATOM      4  C4  IND d   1       5.992  -1.627  -3.763  0.00  0.00     0.051 A 
ATOM      5  C5  IND d   1       5.785  -1.895  -5.087  0.00  0.00    -0.031 A 
ATOM      6  C6  IND d   1       5.511  -0.897  -5.999  0.00  0.00     0.015 A 
ATOM      7  C7  IND d   1       5.443   0.414  -5.621  0.00  0.00    -0.016 A 
ATOM      8  C8  IND d   1       5.646   0.690  -4.276  0.00  0.00    -0.047 A 
ATOM      9  C9  IND d   1       5.883  -0.324  -3.339  0.00  0.00    -0.096 A 
ATOM     10  HN1 IND d   1       5.486   2.660  -3.938  0.00  0.00     0.298 HD
ENDROOT
TORSDOF 0
ENDMDL
