MODEL 1
REMARK minimizedAffinity 2.68306851
REMARK minimizedRMSD -1
REMARK  0 active torsions:
REMARK  status: ('A' for Active; 'I' for Inactive)
ROOT
ATOM      1  N1  IND d   1       0.821   0.676  -0.554  0.00  0.00    -0.196 N 
ATOM      2  C2  IND d   1       0.637  -0.442   0.212  0.00  0.00     0.054 A 
ATOM      3  C3  IND d   1       0.786  -1.556  -0.539  0.00  0.00    -0.031 A 
ATOM      4  C4  IND d   1       1.432  -1.783  -3.020  0.00  0.00     0.051 A 
ATOM      5  C5  IND d   1       1.666  -1.042  -4.144  0.00  0.00    -0.031 A 
ATOM      6  C6  IND d   1       1.633   0.338  -4.128  0.00  0.00     0.015 A 
ATOM      7  C7  IND d   1       1.374   1.031  -2.980  0.00  0.00    -0.016 A 
ATOM      8  C8  IND d   1       1.128   0.281  -1.838  0.00  0.00    -0.047 A 
ATOM      9  C9  IND d   1       1.119  -1.120  -1.857  0.00  0.00    -0.096 A 
ATOM     10  HN1 IND d   1       0.756   1.488  -0.280  0.00  0.00     0.298 HD
ENDROOT
TORSDOF 0
ENDMDL
