MODEL 1
REMARK minimizedAffinity 2.76134658
REMARK minimizedRMSD -1
REMARK  0 active torsions:
REMARK  status: ('A' for Active; 'I' for Inactive)
ROOT
ATOM      1  N1  IND d   1       0.965  -2.267  -2.033  0.00  0.00    -0.196 N 
ATOM      2  C2  IND d   1       1.174  -2.461  -3.370  0.00  0.00     0.054 A 
ATOM      3  C3  IND d   1       1.250  -1.273  -4.011  0.00  0.00    -0.031 A 
ATOM      4  C4  IND d   1       1.160   1.113  -3.048  0.00  0.00     0.051 A 
ATOM      5  C5  IND d   1       0.946   1.798  -1.885  0.00  0.00    -0.031 A 
ATOM      6  C6  IND d   1       0.725   1.150  -0.687  0.00  0.00     0.015 A 
ATOM      7  C7  IND d   1       0.722  -0.214  -0.606  0.00  0.00    -0.016 A 
ATOM      8  C8  IND d   1       0.932  -0.913  -1.786  0.00  0.00    -0.047 A 
ATOM      9  C9  IND d   1       1.114  -0.260  -3.012  0.00  0.00    -0.096 A 
ATOM     10  HN1 IND d   1       0.870  -2.888  -1.445  0.00  0.00     0.298 HD
ENDROOT
TORSDOF 0
ENDMDL
