MODEL 1
REMARK minimizedAffinity 2.9884038
REMARK minimizedRMSD -1
REMARK  0 active torsions:
REMARK  status: ('A' for Active; 'I' for Inactive)
ROOT
ATOM      1  N1  IND d   1       2.742  -0.392  -3.059  0.00  0.00    -0.196 N 
ATOM      2  C2  IND d   1       1.593  -0.179  -3.768  0.00  0.00     0.054 A 
ATOM      3  C3  IND d   1       1.876   0.390  -4.962  0.00  0.00    -0.031 A 
ATOM      4  C4  IND d   1       4.160   0.965  -6.000  0.00  0.00     0.051 A 
ATOM      5  C5  IND d   1       5.497   0.987  -5.716  0.00  0.00    -0.031 A 
ATOM      6  C6  IND d   1       5.994   0.539  -4.509  0.00  0.00     0.015 A 
ATOM      7  C7  IND d   1       5.170   0.039  -3.541  0.00  0.00    -0.016 A 
ATOM      8  C8  IND d   1       3.812   0.022  -3.822  0.00  0.00    -0.047 A 
ATOM      9  C9  IND d   1       3.297   0.515  -5.029  0.00  0.00    -0.096 A 
ATOM     10  HN1 IND d   1       2.789  -0.728  -2.269  0.00  0.00     0.298 HD
ENDROOT
TORSDOF 0
ENDMDL
