MODEL 1
REMARK minimizedAffinity 4.57986784
REMARK minimizedRMSD -1
REMARK  0 active torsions:
REMARK  status: ('A' for Active; 'I' for Inactive)
ROOT
ATOM      1  N1  IND d   1       1.335  -1.815  -1.581  0.00  0.00    -0.196 N 
ATOM      2  C2  IND d   1       0.967  -1.744  -0.266  0.00  0.00     0.054 A 
ATOM      3  C3  IND d   1       0.499  -0.509   0.025  0.00  0.00    -0.031 A 
ATOM      4  C4  IND d   1       0.153   1.517  -1.525  0.00  0.00     0.051 A 
ATOM      5  C5  IND d   1       0.376   1.945  -2.803  0.00  0.00    -0.031 A 
ATOM      6  C6  IND d   1       0.939   1.125  -3.760  0.00  0.00     0.015 A 
ATOM      7  C7  IND d   1       1.291  -0.164  -3.475  0.00  0.00    -0.016 A 
ATOM      8  C8  IND d   1       1.072  -0.600  -2.176  0.00  0.00    -0.047 A 
ATOM      9  C9  IND d   1       0.540   0.241  -1.190  0.00  0.00    -0.096 A 
ATOM     10  HN1 IND d   1       1.673  -2.503  -1.971  0.00  0.00     0.298 HD
ENDROOT
TORSDOF 0
ENDMDL
