MODEL 1
REMARK minimizedAffinity -2.4794879
REMARK minimizedRMSD -1
REMARK  0 active torsions:
REMARK  status: ('A' for Active; 'I' for Inactive)
ROOT
ATOM      1  N1  IND d   1       1.333  -1.894  -1.348  0.00  0.00    -0.196 N 
ATOM      2  C2  IND d   1       1.399  -2.360  -2.632  0.00  0.00     0.054 A 
ATOM      3  C3  IND d   1       1.285  -1.338  -3.509  0.00  0.00    -0.031 A 
ATOM      4  C4  IND d   1       1.084   1.189  -3.060  0.00  0.00     0.051 A 
ATOM      5  C5  IND d   1       0.945   2.095  -2.046  0.00  0.00    -0.031 A 
ATOM      6  C6  IND d   1       0.932   1.711  -0.721  0.00  0.00     0.015 A 
ATOM      7  C7  IND d   1       1.068   0.400  -0.358  0.00  0.00    -0.016 A 
ATOM      8  C8  IND d   1       1.201  -0.523  -1.385  0.00  0.00    -0.047 A 
ATOM      9  C9  IND d   1       1.173  -0.143  -2.733  0.00  0.00    -0.096 A 
ATOM     10  HN1 IND d   1       1.368  -2.376  -0.637  0.00  0.00     0.298 HD
ENDROOT
TORSDOF 0
ENDMDL
