MODEL 1
REMARK minimizedAffinity 3.64655352
REMARK minimizedRMSD -1
REMARK  0 active torsions:
REMARK  status: ('A' for Active; 'I' for Inactive)
ROOT
ATOM      1  N1  IND d   1       0.730   1.692  -2.496  0.00  0.00    -0.196 N 
ATOM      2  C2  IND d   1       0.541   1.893  -1.157  0.00  0.00     0.054 A 
ATOM      3  C3  IND d   1       0.654   0.724  -0.486  0.00  0.00    -0.031 A 
ATOM      4  C4  IND d   1       1.244  -1.620  -1.372  0.00  0.00     0.051 A 
ATOM      5  C5  IND d   1       1.469  -2.308  -2.531  0.00  0.00    -0.031 A 
ATOM      6  C6  IND d   1       1.462  -1.685  -3.762  0.00  0.00     0.015 A 
ATOM      7  C7  IND d   1       1.239  -0.342  -3.880  0.00  0.00    -0.016 A 
ATOM      8  C8  IND d   1       1.003   0.359  -2.706  0.00  0.00    -0.047 A 
ATOM      9  C9  IND d   1       0.968  -0.275  -1.457  0.00  0.00    -0.096 A 
ATOM     10  HN1 IND d   1       0.685   2.298  -3.105  0.00  0.00     0.298 HD
ENDROOT
TORSDOF 0
ENDMDL
