MODEL 1
REMARK minimizedAffinity 15.5961037
REMARK minimizedRMSD -1
REMARK  0 active torsions:
REMARK  status: ('A' for Active; 'I' for Inactive)
ROOT
ATOM      1  N1  IND d   1       1.470   1.615   0.344  0.00  0.00    -0.196 N 
ATOM      2  C2  IND d   1       1.483   2.980   0.257  0.00  0.00     0.054 A 
ATOM      3  C3  IND d   1       1.262   3.372  -1.018  0.00  0.00    -0.031 A 
ATOM      4  C4  IND d   1       0.754   1.948  -3.102  0.00  0.00     0.051 A 
ATOM      5  C5  IND d   1       0.673   0.652  -3.527  0.00  0.00    -0.031 A 
ATOM      6  C6  IND d   1       0.854  -0.411  -2.666  0.00  0.00     0.015 A 
ATOM      7  C7  IND d   1       1.113  -0.216  -1.339  0.00  0.00    -0.016 A 
ATOM      8  C8  IND d   1       1.203   1.099  -0.905  0.00  0.00    -0.047 A 
ATOM      9  C9  IND d   1       1.062   2.182  -1.782  0.00  0.00    -0.096 A 
ATOM     10  HN1 IND d   1       1.605   1.157   1.059  0.00  0.00     0.298 HD
ENDROOT
TORSDOF 0
ENDMDL
