MODEL 1
REMARK minimizedAffinity 11.1719885
REMARK minimizedRMSD -1
REMARK  0 active torsions:
REMARK  status: ('A' for Active; 'I' for Inactive)
ROOT
ATOM      1  N1  IND d   1       1.329   2.888  -3.301  0.00  0.00    -0.196 N 
ATOM      2  C2  IND d   1       1.771   2.488  -4.531  0.00  0.00     0.054 A 
ATOM      3  C3  IND d   1       1.934   1.146  -4.559  0.00  0.00    -0.031 A 
ATOM      4  C4  IND d   1       1.437  -0.600  -2.733  0.00  0.00     0.051 A 
ATOM      5  C5  IND d   1       1.053  -0.713  -1.426  0.00  0.00    -0.031 A 
ATOM      6  C6  IND d   1       0.731   0.391  -0.663  0.00  0.00     0.015 A 
ATOM      7  C7  IND d   1       0.771   1.654  -1.184  0.00  0.00    -0.016 A 
ATOM      8  C8  IND d   1       1.169   1.772  -2.509  0.00  0.00    -0.047 A 
ATOM      9  C9  IND d   1       1.537   0.659  -3.275  0.00  0.00    -0.096 A 
ATOM     10  HN1 IND d   1       1.176   3.700  -3.063  0.00  0.00     0.298 HD
ENDROOT
TORSDOF 0
ENDMDL
