MODEL 1
REMARK minimizedAffinity 8.64118958
REMARK minimizedRMSD -1
REMARK  0 active torsions:
REMARK  status: ('A' for Active; 'I' for Inactive)
ROOT
ATOM      1  N1  IND d   1       4.800   0.399  -4.911  0.00  0.00    -0.196 N 
ATOM      2  C2  IND d   1       6.000   0.767  -5.454  0.00  0.00     0.054 A 
ATOM      3  C3  IND d   1       5.914   2.005  -5.990  0.00  0.00    -0.031 A 
ATOM      4  C4  IND d   1       3.934   3.650  -5.998  0.00  0.00     0.051 A 
ATOM      5  C5  IND d   1       2.615   3.750  -5.655  0.00  0.00    -0.031 A 
ATOM      6  C6  IND d   1       1.944   2.717  -5.031  0.00  0.00     0.015 A 
ATOM      7  C7  IND d   1       2.573   1.547  -4.716  0.00  0.00    -0.016 A 
ATOM      8  C8  IND d   1       3.911   1.439  -5.069  0.00  0.00    -0.047 A 
ATOM      9  C9  IND d   1       4.585   2.467  -5.740  0.00  0.00    -0.096 A 
ATOM     10  HN1 IND d   1       4.630  -0.354  -4.534  0.00  0.00     0.298 HD
ENDROOT
TORSDOF 0
ENDMDL
