MODEL 1
REMARK minimizedAffinity 2.56379318
REMARK minimizedRMSD -1
REMARK  0 active torsions:
REMARK  status: ('A' for Active; 'I' for Inactive)
ROOT
ATOM      1  N1  IND d   1       1.300  -1.826  -1.327  0.00  0.00    -0.196 N 
ATOM      2  C2  IND d   1       1.260  -2.135  -2.658  0.00  0.00     0.054 A 
ATOM      3  C3  IND d   1       1.092  -1.015  -3.396  0.00  0.00    -0.031 A 
ATOM      4  C4  IND d   1       0.960   1.441  -2.634  0.00  0.00     0.051 A 
ATOM      5  C5  IND d   1       0.912   2.219  -1.512  0.00  0.00    -0.031 A 
ATOM      6  C6  IND d   1       0.995   1.679  -0.245  0.00  0.00     0.015 A 
ATOM      7  C7  IND d   1       1.142   0.334  -0.053  0.00  0.00    -0.016 A 
ATOM      8  C8  IND d   1       1.184  -0.460  -1.190  0.00  0.00    -0.047 A 
ATOM      9  C9  IND d   1       1.057   0.078  -2.477  0.00  0.00    -0.096 A 
ATOM     10  HN1 IND d   1       1.383  -2.390  -0.683  0.00  0.00     0.298 HD
ENDROOT
TORSDOF 0
ENDMDL
