MODEL 1
REMARK minimizedAffinity -4.11813402
REMARK minimizedRMSD -1
REMARK  1 active torsions:
REMARK  status: ('A' for Active; 'I' for Inactive)
REMARK    1  A    between atoms: C1_2  and  C2_3 
ROOT
ATOM      1  C2  UNL d   1       0.073   0.391   0.832  0.00  0.00    -0.073 A 
ATOM      2  C3  UNL d   1      -0.024   1.181   1.983  0.00  0.00    -0.002 A 
ATOM      3  C4  UNL d   1       1.097   1.855   2.472  0.00  0.00     0.004 A 
ATOM      4  C5  UNL d   1       2.321   1.752   1.811  0.00  0.00    -0.004 A 
ATOM      5  C6  UNL d   1       2.435   0.977   0.652  0.00  0.00    -0.075 A 
ATOM      6  C7  UNL d   1       3.745   0.854  -0.068  0.00  0.00     0.076 C 
ATOM      7  C8  UNL d   1       1.306   0.301   0.170  0.00  0.00     0.001 A 
ENDROOT
BRANCH   1   8
ATOM      8  C1  UNL d   1      -1.136  -0.333   0.297  0.00  0.00     0.053 C 
ATOM      9  C   UNL d   1      -0.767  -1.335  -0.786  0.00  0.00     0.018 C 
ENDBRANCH   1   8
TORSDOF 1
ENDMDL
