MODEL 1
REMARK minimizedAffinity -3.35409355
REMARK minimizedRMSD -1
REMARK  1 active torsions:
REMARK  status: ('A' for Active; 'I' for Inactive)
REMARK    1  A    between atoms: C1_2  and  C2_3 
ROOT
ATOM      1  C2  UNL d   1      -0.446  -0.683  -0.478  0.00  0.00    -0.073 A 
ATOM      2  C3  UNL d   1       0.383  -1.757  -0.824  0.00  0.00    -0.002 A 
ATOM      3  C4  UNL d   1       0.017  -2.627  -1.851  0.00  0.00     0.004 A 
ATOM      4  C5  UNL d   1      -1.175  -2.430  -2.547  0.00  0.00    -0.004 A 
ATOM      5  C6  UNL d   1      -2.011  -1.356  -2.225  0.00  0.00    -0.075 A 
ATOM      6  C7  UNL d   1      -3.298  -1.131  -2.963  0.00  0.00     0.076 C 
ATOM      7  C8  UNL d   1      -1.638  -0.488  -1.190  0.00  0.00     0.001 A 
ENDROOT
BRANCH   1   8
ATOM      8  C1  UNL d   1      -0.052   0.263   0.627  0.00  0.00     0.053 C 
ATOM      9  C   UNL d   1      -1.220   0.584   1.545  0.00  0.00     0.018 C 
ENDBRANCH   1   8
TORSDOF 1
ENDMDL
