MODEL 1
REMARK minimizedAffinity -3.06863117
REMARK minimizedRMSD -1
REMARK  1 active torsions:
REMARK  status: ('A' for Active; 'I' for Inactive)
REMARK    1  A    between atoms: C1_2  and  C2_3 
ROOT
ATOM      1  C2  UNL d   1      -0.514  -0.959  -0.513  0.00  0.00    -0.073 A 
ATOM      2  C3  UNL d   1      -1.116  -0.160   0.465  0.00  0.00    -0.002 A 
ATOM      3  C4  UNL d   1      -0.353   0.747   1.202  0.00  0.00     0.004 A 
ATOM      4  C5  UNL d   1       1.016   0.869   0.965  0.00  0.00    -0.004 A 
ATOM      5  C6  UNL d   1       1.634   0.087  -0.016  0.00  0.00    -0.075 A 
ATOM      6  C7  UNL d   1       3.106   0.205  -0.282  0.00  0.00     0.076 C 
ATOM      7  C8  UNL d   1       0.861  -0.823  -0.751  0.00  0.00     0.001 A 
ENDROOT
BRANCH   1   8
ATOM      8  C1  UNL d   1      -1.335  -1.935  -1.316  0.00  0.00     0.053 C 
ATOM      9  C   UNL d   1      -1.591  -1.436  -2.730  0.00  0.00     0.018 C 
ENDBRANCH   1   8
TORSDOF 1
ENDMDL
