MODEL 1
REMARK minimizedAffinity -3.36169052
REMARK minimizedRMSD -1
REMARK  1 active torsions:
REMARK  status: ('A' for Active; 'I' for Inactive)
REMARK    1  A    between atoms: C1_2  and  C2_3 
ROOT
ATOM      1  C2  UNL d   1       0.409   0.039  -0.225  0.00  0.00    -0.073 A 
ATOM      2  C3  UNL d   1      -0.314   0.876   0.632  0.00  0.00    -0.002 A 
ATOM      3  C4  UNL d   1       0.351   1.674   1.564  0.00  0.00     0.004 A 
ATOM      4  C5  UNL d   1       1.743   1.648   1.644  0.00  0.00    -0.004 A 
ATOM      5  C6  UNL d   1       2.484   0.827   0.788  0.00  0.00    -0.075 A 
ATOM      6  C7  UNL d   1       3.982   0.786   0.862  0.00  0.00     0.076 C 
ATOM      7  C8  UNL d   1       1.809   0.026  -0.144  0.00  0.00     0.001 A 
ENDROOT
BRANCH   1   8
ATOM      8  C1  UNL d   1      -0.304  -0.820  -1.238  0.00  0.00     0.053 C 
ATOM      9  C   UNL d   1      -1.493  -1.548  -0.631  0.00  0.00     0.018 C 
ENDBRANCH   1   8
TORSDOF 1
ENDMDL
