MODEL 1
REMARK minimizedAffinity -1.73577595
REMARK minimizedRMSD -1
REMARK  1 active torsions:
REMARK  status: ('A' for Active; 'I' for Inactive)
REMARK    1  A    between atoms: C1_2  and  C2_3 
ROOT
ATOM      1  C2  UNL d   1      -0.693  -1.050  -0.375  0.00  0.00    -0.073 A 
ATOM      2  C3  UNL d   1      -1.260  -0.238   0.615  0.00  0.00    -0.002 A 
ATOM      3  C4  UNL d   1      -0.480   0.708   1.281  0.00  0.00     0.004 A 
ATOM      4  C5  UNL d   1       0.869   0.858   0.962  0.00  0.00    -0.004 A 
ATOM      5  C6  UNL d   1       1.451   0.064  -0.032  0.00  0.00    -0.075 A 
ATOM      6  C7  UNL d   1       2.901   0.211  -0.386  0.00  0.00     0.076 C 
ATOM      7  C8  UNL d   1       0.662  -0.886  -0.695  0.00  0.00     0.001 A 
ENDROOT
BRANCH   1   8
ATOM      8  C1  UNL d   1      -1.532  -2.069  -1.102  0.00  0.00     0.053 C 
ATOM      9  C   UNL d   1      -1.984  -1.567  -2.464  0.00  0.00     0.018 C 
ENDBRANCH   1   8
TORSDOF 1
ENDMDL
