MODEL 1
REMARK minimizedAffinity -0.335248172
REMARK minimizedRMSD -1
REMARK  1 active torsions:
REMARK  status: ('A' for Active; 'I' for Inactive)
REMARK    1  A    between atoms: C1_2  and  C2_3 
ROOT
ATOM      1  C2  UNL d   1      -0.744  -0.866  -1.005  0.00  0.00    -0.073 A 
ATOM      2  C3  UNL d   1      -0.463  -0.756  -2.372  0.00  0.00    -0.002 A 
ATOM      3  C4  UNL d   1      -1.305  -1.347  -3.314  0.00  0.00     0.004 A 
ATOM      4  C5  UNL d   1      -2.440  -2.045  -2.902  0.00  0.00    -0.004 A 
ATOM      5  C6  UNL d   1      -2.745  -2.155  -1.541  0.00  0.00    -0.075 A 
ATOM      6  C7  UNL d   1      -3.961  -2.905  -1.081  0.00  0.00     0.076 C 
ATOM      7  C8  UNL d   1      -1.892  -1.562  -0.601  0.00  0.00     0.001 A 
ENDROOT
BRANCH   1   8
ATOM      8  C1  UNL d   1       0.159  -0.225   0.016  0.00  0.00     0.053 C 
ATOM      9  C   UNL d   1      -0.610   0.255   1.237  0.00  0.00     0.018 C 
ENDBRANCH   1   8
TORSDOF 1
ENDMDL
