MODEL 1
REMARK minimizedAffinity 0.333142549
REMARK minimizedRMSD -1
REMARK  1 active torsions:
REMARK  status: ('A' for Active; 'I' for Inactive)
REMARK    1  A    between atoms: C1_2  and  C2_3 
ROOT
ATOM      1  C2  UNL d   1      -0.594  -0.486  -0.176  0.00  0.00    -0.073 A 
ATOM      2  C3  UNL d   1      -1.197   0.240   0.857  0.00  0.00    -0.002 A 
ATOM      3  C4  UNL d   1      -0.428   1.058   1.686  0.00  0.00     0.004 A 
ATOM      4  C5  UNL d   1       0.949   1.162   1.487  0.00  0.00    -0.004 A 
ATOM      5  C6  UNL d   1       1.568   0.453   0.453  0.00  0.00    -0.075 A 
ATOM      6  C7  UNL d   1       3.048   0.553   0.227  0.00  0.00     0.076 C 
ATOM      7  C8  UNL d   1       0.789  -0.368  -0.374  0.00  0.00     0.001 A 
ENDROOT
BRANCH   1   8
ATOM      8  C1  UNL d   1      -1.421  -1.365  -1.078  0.00  0.00     0.053 C 
ATOM      9  C   UNL d   1      -1.511  -0.808  -2.490  0.00  0.00     0.018 C 
ENDBRANCH   1   8
TORSDOF 1
ENDMDL
