MODEL 1
REMARK minimizedAffinity -2.57956505
REMARK minimizedRMSD -1
REMARK  1 active torsions:
REMARK  status: ('A' for Active; 'I' for Inactive)
REMARK    1  A    between atoms: C1_2  and  C2_3 
ROOT
ATOM      1  C2  UNL d   1      -0.747  -0.672  -0.409  0.00  0.00    -0.073 A 
ATOM      2  C3  UNL d   1       0.416  -0.542  -1.177  0.00  0.00    -0.002 A 
ATOM      3  C4  UNL d   1       0.379  -0.756  -2.555  0.00  0.00     0.004 A 
ATOM      4  C5  UNL d   1      -0.820  -1.095  -3.181  0.00  0.00    -0.004 A 
ATOM      5  C6  UNL d   1      -1.996  -1.218  -2.433  0.00  0.00    -0.075 A 
ATOM      6  C7  UNL d   1      -3.294  -1.584  -3.090  0.00  0.00     0.076 C 
ATOM      7  C8  UNL d   1      -1.950  -1.004  -1.049  0.00  0.00     0.001 A 
ENDROOT
BRANCH   1   8
ATOM      8  C1  UNL d   1      -0.713  -0.436   1.078  0.00  0.00     0.053 C 
ATOM      9  C   UNL d   1      -0.633   1.044   1.419  0.00  0.00     0.018 C 
ENDBRANCH   1   8
TORSDOF 1
ENDMDL
