MODEL 1
REMARK minimizedAffinity -2.12512755
REMARK minimizedRMSD -1
REMARK  1 active torsions:
REMARK  status: ('A' for Active; 'I' for Inactive)
REMARK    1  A    between atoms: C1_2  and  C2_3 
ROOT
ATOM      1  C2  UNL d   1      -0.807   0.039   0.292  0.00  0.00    -0.073 A 
ATOM      2  C3  UNL d   1       0.249  -0.876   0.377  0.00  0.00    -0.002 A 
ATOM      3  C4  UNL d   1       0.323  -1.950  -0.510  0.00  0.00     0.004 A 
ATOM      4  C5  UNL d   1      -0.651  -2.117  -1.494  0.00  0.00    -0.004 A 
ATOM      5  C6  UNL d   1      -1.708  -1.207  -1.602  0.00  0.00    -0.075 A 
ATOM      6  C7  UNL d   1      -2.765  -1.374  -2.654  0.00  0.00     0.076 C 
ATOM      7  C8  UNL d   1      -1.777  -0.132  -0.706  0.00  0.00     0.001 A 
ENDROOT
BRANCH   1   8
ATOM      8  C1  UNL d   1      -0.888   1.205   1.244  0.00  0.00     0.053 C 
ATOM      9  C   UNL d   1       0.464   1.537   1.855  0.00  0.00     0.018 C 
ENDBRANCH   1   8
TORSDOF 1
ENDMDL
