MODEL 1
REMARK minimizedAffinity -3.12644649
REMARK minimizedRMSD -1
REMARK  1 active torsions:
REMARK  status: ('A' for Active; 'I' for Inactive)
REMARK    1  A    between atoms: C1_2  and  C2_3 
ROOT
ATOM      1  C2  UNL d   1      -1.292  -1.728  -1.287  0.00  0.00    -0.073 A 
ATOM      2  C3  UNL d   1      -1.198  -1.334  -2.626  0.00  0.00    -0.002 A 
ATOM      3  C4  UNL d   1      -2.316  -1.399  -3.460  0.00  0.00     0.004 A 
ATOM      4  C5  UNL d   1      -3.538  -1.851  -2.962  0.00  0.00    -0.004 A 
ATOM      5  C6  UNL d   1      -3.654  -2.238  -1.623  0.00  0.00    -0.075 A 
ATOM      6  C7  UNL d   1      -4.961  -2.729  -1.073  0.00  0.00     0.076 C 
ATOM      7  C8  UNL d   1      -2.527  -2.173  -0.793  0.00  0.00     0.001 A 
ENDROOT
BRANCH   1   8
ATOM      8  C1  UNL d   1      -0.090  -1.653  -0.381  0.00  0.00     0.053 C 
ATOM      9  C   UNL d   1      -0.173  -0.478   0.580  0.00  0.00     0.018 C 
ENDBRANCH   1   8
TORSDOF 1
ENDMDL
