MODEL 1
REMARK minimizedAffinity -2.00410414
REMARK minimizedRMSD -1
REMARK  1 active torsions:
REMARK  status: ('A' for Active; 'I' for Inactive)
REMARK    1  A    between atoms: C1_2  and  C2_3 
ROOT
ATOM      1  C2  UNL d   1       0.178  -0.261  -0.024  0.00  0.00    -0.073 A 
ATOM      2  C3  UNL d   1      -0.887   0.193   0.761  0.00  0.00    -0.002 A 
ATOM      3  C4  UNL d   1      -0.672   1.145   1.759  0.00  0.00     0.004 A 
ATOM      4  C5  UNL d   1       0.607   1.657   1.976  0.00  0.00    -0.004 A 
ATOM      5  C6  UNL d   1       1.683   1.224   1.194  0.00  0.00    -0.075 A 
ATOM      6  C7  UNL d   1       3.065   1.764   1.417  0.00  0.00     0.076 C 
ATOM      7  C8  UNL d   1       1.459   0.266   0.196  0.00  0.00     0.001 A 
ENDROOT
BRANCH   1   8
ATOM      8  C1  UNL d   1      -0.050  -1.284  -1.107  0.00  0.00     0.053 C 
ATOM      9  C   UNL d   1      -1.526  -1.606  -1.284  0.00  0.00     0.018 C 
ENDBRANCH   1   8
TORSDOF 1
ENDMDL
