MODEL 1
REMARK minimizedAffinity -3.28598189
REMARK minimizedRMSD -1
REMARK  1 active torsions:
REMARK  status: ('A' for Active; 'I' for Inactive)
REMARK    1  A    between atoms: C1_2  and  C2_3 
ROOT
ATOM      1  C2  UNL d   1       0.658   2.210   0.362  0.00  0.00    -0.081 A 
ATOM      2  C3  UNL d   1      -0.320   1.745  -0.526  0.00  0.00     0.006 A 
ATOM      3  C4  UNL d   1      -0.847   0.459  -0.389  0.00  0.00     0.002 A 
ATOM      4  C5  UNL d   1      -0.412  -0.380   0.642  0.00  0.00    -0.080 A 
ATOM      5  C6  UNL d   1      -0.992  -1.752   0.819  0.00  0.00     0.076 C 
ATOM      6  C7  UNL d   1       0.577   0.077   1.519  0.00  0.00     0.002 A 
ATOM      7  C8  UNL d   1       1.106   1.363   1.382  0.00  0.00     0.006 A 
ENDROOT
BRANCH   1   8
ATOM      8  C1  UNL d   1       1.182   3.619   0.256  0.00  0.00     0.054 C 
ATOM      9  C   UNL d   1       1.882   4.047   1.538  0.00  0.00     0.018 C 
ENDBRANCH   1   8
TORSDOF 1
ENDMDL
