MODEL 1
REMARK minimizedAffinity -4.49194574
REMARK minimizedRMSD -1
REMARK  1 active torsions:
REMARK  status: ('A' for Active; 'I' for Inactive)
REMARK    1  A    between atoms: C1_2  and  C2_3 
ROOT
ATOM      1  C2  UNL d   1       0.563   1.457  -0.104  0.00  0.00    -0.081 A 
ATOM      2  C3  UNL d   1       0.486   0.877   1.168  0.00  0.00     0.006 A 
ATOM      3  C4  UNL d   1      -0.080  -0.389   1.337  0.00  0.00     0.002 A 
ATOM      4  C5  UNL d   1      -0.572  -1.099   0.237  0.00  0.00    -0.080 A 
ATOM      5  C6  UNL d   1      -1.156  -2.471   0.400  0.00  0.00     0.076 C 
ATOM      6  C7  UNL d   1      -0.512  -0.512  -1.032  0.00  0.00     0.002 A 
ATOM      7  C8  UNL d   1       0.054   0.753  -1.201  0.00  0.00     0.006 A 
ENDROOT
BRANCH   1   8
ATOM      8  C1  UNL d   1       1.232   2.793  -0.298  0.00  0.00     0.054 C 
ATOM      9  C   UNL d   1       1.055   3.683   0.923  0.00  0.00     0.018 C 
ENDBRANCH   1   8
TORSDOF 1
ENDMDL
