MODEL 1
REMARK minimizedAffinity -3.19252276
REMARK minimizedRMSD -1
REMARK  1 active torsions:
REMARK  status: ('A' for Active; 'I' for Inactive)
REMARK    1  A    between atoms: C1_2  and  C2_3 
ROOT
ATOM      1  C2  UNL d   1       0.741   1.173   0.467  0.00  0.00    -0.081 A 
ATOM      2  C3  UNL d   1      -0.065   0.985   1.597  0.00  0.00     0.006 A 
ATOM      3  C4  UNL d   1      -0.814  -0.185   1.745  0.00  0.00     0.002 A 
ATOM      4  C5  UNL d   1      -0.764  -1.188   0.772  0.00  0.00    -0.080 A 
ATOM      5  C6  UNL d   1      -1.540  -2.462   0.933  0.00  0.00     0.076 C 
ATOM      6  C7  UNL d   1       0.028  -0.993  -0.365  0.00  0.00     0.002 A 
ATOM      7  C8  UNL d   1       0.777   0.176  -0.514  0.00  0.00     0.006 A 
ENDROOT
BRANCH   1   8
ATOM      8  C1  UNL d   1       1.600   2.404   0.336  0.00  0.00     0.054 C 
ATOM      9  C   UNL d   1       2.630   2.483   1.454  0.00  0.00     0.018 C 
ENDBRANCH   1   8
TORSDOF 1
ENDMDL
