MODEL 1
REMARK minimizedAffinity -2.86316442
REMARK minimizedRMSD -1
REMARK  1 active torsions:
REMARK  status: ('A' for Active; 'I' for Inactive)
REMARK    1  A    between atoms: C1_2  and  C2_3 
ROOT
ATOM      1  C2  UNL d   1      -0.034   4.683   2.003  0.00  0.00    -0.081 A 
ATOM      2  C3  UNL d   1      -0.915   3.993   1.162  0.00  0.00     0.006 A 
ATOM      3  C4  UNL d   1      -0.470   2.901   0.413  0.00  0.00     0.002 A 
ATOM      4  C5  UNL d   1       0.860   2.476   0.500  0.00  0.00    -0.080 A 
ATOM      5  C6  UNL d   1       1.343   1.286  -0.275  0.00  0.00     0.076 C 
ATOM      6  C7  UNL d   1       1.745   3.176   1.327  0.00  0.00     0.002 A 
ATOM      7  C8  UNL d   1       1.300   4.269   2.075  0.00  0.00     0.006 A 
ENDROOT
BRANCH   1   8
ATOM      8  C1  UNL d   1      -0.526   5.821   2.860  0.00  0.00     0.054 C 
ATOM      9  C   UNL d   1      -2.034   5.993   2.740  0.00  0.00     0.018 C 
ENDBRANCH   1   8
TORSDOF 1
ENDMDL
