MODEL 1
REMARK minimizedAffinity -2.14234591
REMARK minimizedRMSD -1
REMARK  1 active torsions:
REMARK  status: ('A' for Active; 'I' for Inactive)
REMARK    1  A    between atoms: C1_2  and  C2_3 
ROOT
ATOM      1  C2  UNL d   1       0.248   1.365  -0.050  0.00  0.00    -0.081 A 
ATOM      2  C3  UNL d   1      -0.239   0.639   1.044  0.00  0.00     0.006 A 
ATOM      3  C4  UNL d   1      -0.215  -0.758   1.034  0.00  0.00     0.002 A 
ATOM      4  C5  UNL d   1       0.303  -1.451  -0.065  0.00  0.00    -0.080 A 
ATOM      5  C6  UNL d   1       0.363  -2.950  -0.075  0.00  0.00     0.076 C 
ATOM      6  C7  UNL d   1       0.774  -0.726  -1.165  0.00  0.00     0.002 A 
ATOM      7  C8  UNL d   1       0.749   0.670  -1.156  0.00  0.00     0.006 A 
ENDROOT
BRANCH   1   8
ATOM      8  C1  UNL d   1       0.283   2.872  -0.016  0.00  0.00     0.054 C 
ATOM      9  C   UNL d   1       1.653   3.384   0.407  0.00  0.00     0.018 C 
ENDBRANCH   1   8
TORSDOF 1
ENDMDL
