MODEL 1
REMARK minimizedAffinity -2.9528141
REMARK minimizedRMSD -1
REMARK  1 active torsions:
REMARK  status: ('A' for Active; 'I' for Inactive)
REMARK    1  A    between atoms: C1_2  and  C2_3 
ROOT
ATOM      1  C2  UNL d   1       0.074   0.908  -0.075  0.00  0.00    -0.081 A 
ATOM      2  C3  UNL d   1      -0.614   0.415   1.041  0.00  0.00     0.006 A 
ATOM      3  C4  UNL d   1      -0.561  -0.944   1.362  0.00  0.00     0.002 A 
ATOM      4  C5  UNL d   1       0.186  -1.830   0.578  0.00  0.00    -0.080 A 
ATOM      5  C6  UNL d   1       0.276  -3.285   0.929  0.00  0.00     0.076 C 
ATOM      6  C7  UNL d   1       0.859  -1.340  -0.546  0.00  0.00     0.002 A 
ATOM      7  C8  UNL d   1       0.806   0.018  -0.868  0.00  0.00     0.006 A 
ENDROOT
BRANCH   1   8
ATOM      8  C1  UNL d   1       0.071   2.383  -0.386  0.00  0.00     0.054 C 
ATOM      9  C   UNL d   1       0.506   3.204   0.820  0.00  0.00     0.018 C 
ENDBRANCH   1   8
TORSDOF 1
ENDMDL
