MODEL 1
REMARK minimizedAffinity -4.67847395
REMARK minimizedRMSD -1
REMARK  1 active torsions:
REMARK  status: ('A' for Active; 'I' for Inactive)
REMARK    1  A    between atoms: C1_2  and  C2_3 
ROOT
ATOM      1  C2  UNL d   1       0.200  -1.521  -0.136  0.00  0.00    -0.081 A 
ATOM      2  C3  UNL d   1       0.494  -0.788   1.020  0.00  0.00     0.006 A 
ATOM      3  C4  UNL d   1       0.493   0.609   0.992  0.00  0.00     0.002 A 
ATOM      4  C5  UNL d   1       0.189   1.295  -0.189  0.00  0.00    -0.080 A 
ATOM      5  C6  UNL d   1       0.155   2.794  -0.225  0.00  0.00     0.076 C 
ATOM      6  C7  UNL d   1      -0.088   0.562  -1.349  0.00  0.00     0.002 A 
ATOM      7  C8  UNL d   1      -0.086  -0.834  -1.321  0.00  0.00     0.006 A 
ENDROOT
BRANCH   1   8
ATOM      8  C1  UNL d   1       0.137  -3.027  -0.093  0.00  0.00     0.054 C 
ATOM      9  C   UNL d   1      -0.073  -3.611  -1.483  0.00  0.00     0.018 C 
ENDBRANCH   1   8
TORSDOF 1
ENDMDL
