MODEL 1
REMARK minimizedAffinity -4.1406908
REMARK minimizedRMSD -1
REMARK  1 active torsions:
REMARK  status: ('A' for Active; 'I' for Inactive)
REMARK    1  A    between atoms: C1_2  and  C2_3 
ROOT
ATOM      1  C2  UNL d   1       0.171  -1.267  -0.080  0.00  0.00    -0.081 A 
ATOM      2  C3  UNL d   1       0.283   0.128  -0.131  0.00  0.00     0.006 A 
ATOM      3  C4  UNL d   1      -0.603   0.936   0.585  0.00  0.00     0.002 A 
ATOM      4  C5  UNL d   1      -1.610   0.363   1.370  0.00  0.00    -0.080 A 
ATOM      5  C6  UNL d   1      -2.548   1.219   2.168  0.00  0.00     0.076 C 
ATOM      6  C7  UNL d   1      -1.733  -1.030   1.407  0.00  0.00     0.002 A 
ATOM      7  C8  UNL d   1      -0.848  -1.838   0.690  0.00  0.00     0.006 A 
ENDROOT
BRANCH   1   8
ATOM      8  C1  UNL d   1       1.165  -2.143  -0.800  0.00  0.00     0.054 C 
ATOM      9  C   UNL d   1       1.223  -1.809  -2.284  0.00  0.00     0.018 C 
ENDBRANCH   1   8
TORSDOF 1
ENDMDL
