MODEL 1
REMARK minimizedAffinity -4.88025045
REMARK minimizedRMSD -1
REMARK  1 active torsions:
REMARK  status: ('A' for Active; 'I' for Inactive)
REMARK    1  A    between atoms: C1_2  and  C2_3 
ROOT
ATOM      1  C2  UNL d   1      -0.094   0.491  -0.244  0.00  0.00    -0.081 A 
ATOM      2  C3  UNL d   1      -0.413  -0.210   0.926  0.00  0.00     0.006 A 
ATOM      3  C4  UNL d   1      -0.434  -1.606   0.931  0.00  0.00     0.002 A 
ATOM      4  C5  UNL d   1      -0.128  -2.325  -0.230  0.00  0.00    -0.080 A 
ATOM      5  C6  UNL d   1      -0.117  -3.825  -0.230  0.00  0.00     0.076 C 
ATOM      6  C7  UNL d   1       0.174  -1.625  -1.403  0.00  0.00     0.002 A 
ATOM      7  C8  UNL d   1       0.194  -0.228  -1.409  0.00  0.00     0.006 A 
ENDROOT
BRANCH   1   8
ATOM      8  C1  UNL d   1      -0.008   1.996  -0.236  0.00  0.00     0.054 C 
ATOM      9  C   UNL d   1       1.371   2.469   0.202  0.00  0.00     0.018 C 
ENDBRANCH   1   8
TORSDOF 1
ENDMDL
