MODEL 1
REMARK minimizedAffinity -2.61035872
REMARK minimizedRMSD -1
REMARK  1 active torsions:
REMARK  status: ('A' for Active; 'I' for Inactive)
REMARK    1  A    between atoms: C1_2  and  C2_3 
ROOT
ATOM      1  C2  UNL d   1       0.377   0.845   0.475  0.00  0.00    -0.081 A 
ATOM      2  C3  UNL d   1      -0.742   0.333   1.143  0.00  0.00     0.006 A 
ATOM      3  C4  UNL d   1      -0.981  -1.043   1.173  0.00  0.00     0.002 A 
ATOM      4  C5  UNL d   1      -0.102  -1.930   0.542  0.00  0.00    -0.080 A 
ATOM      5  C6  UNL d   1      -0.330  -3.411   0.592  0.00  0.00     0.076 C 
ATOM      6  C7  UNL d   1       1.006  -1.417  -0.141  0.00  0.00     0.002 A 
ATOM      7  C8  UNL d   1       1.245  -0.041  -0.172  0.00  0.00     0.006 A 
ENDROOT
BRANCH   1   8
ATOM      8  C1  UNL d   1       0.672   2.323   0.496  0.00  0.00     0.054 C 
ATOM      9  C   UNL d   1       2.166   2.591   0.372  0.00  0.00     0.018 C 
ENDBRANCH   1   8
TORSDOF 1
ENDMDL
