MODEL 1
REMARK minimizedAffinity -4.13725758
REMARK minimizedRMSD -1
REMARK  1 active torsions:
REMARK  status: ('A' for Active; 'I' for Inactive)
REMARK    1  A    between atoms: C1_2  and  C2_3 
ROOT
ATOM      1  C2  UNL d   1      -0.062   0.204  -0.046  0.00  0.00    -0.081 A 
ATOM      2  C3  UNL d   1       0.169  -0.542  -1.208  0.00  0.00     0.006 A 
ATOM      3  C4  UNL d   1       0.087  -1.937  -1.182  0.00  0.00     0.002 A 
ATOM      4  C5  UNL d   1      -0.234  -2.607   0.003  0.00  0.00    -0.080 A 
ATOM      5  C6  UNL d   1      -0.355  -4.102   0.037  0.00  0.00     0.076 C 
ATOM      6  C7  UNL d   1      -0.447  -1.863   1.168  0.00  0.00     0.002 A 
ATOM      7  C8  UNL d   1      -0.365  -0.469   1.143  0.00  0.00     0.006 A 
ENDROOT
BRANCH   1   8
ATOM      8  C1  UNL d   1      -0.038   1.710  -0.085  0.00  0.00     0.054 C 
ATOM      9  C   UNL d   1       1.321   2.253   0.335  0.00  0.00     0.018 C 
ENDBRANCH   1   8
TORSDOF 1
ENDMDL
