MODEL 1
REMARK minimizedAffinity -3.56435847
REMARK minimizedRMSD -1
REMARK  1 active torsions:
REMARK  status: ('A' for Active; 'I' for Inactive)
REMARK    1  A    between atoms: C1_2  and  C2_3 
ROOT
ATOM      1  C2  UNL d   1      -0.005   0.398  -0.598  0.00  0.00    -0.081 A 
ATOM      2  C3  UNL d   1      -0.352  -0.171   0.633  0.00  0.00     0.006 A 
ATOM      3  C4  UNL d   1      -0.355  -1.558   0.797  0.00  0.00     0.002 A 
ATOM      4  C5  UNL d   1      -0.004  -2.399  -0.264  0.00  0.00    -0.080 A 
ATOM      5  C6  UNL d   1       0.026  -3.888  -0.093  0.00  0.00     0.076 C 
ATOM      6  C7  UNL d   1       0.326  -1.831  -1.500  0.00  0.00     0.002 A 
ATOM      7  C8  UNL d   1       0.328  -0.444  -1.664  0.00  0.00     0.006 A 
ENDROOT
BRANCH   1   8
ATOM      8  C1  UNL d   1       0.062   1.895  -0.759  0.00  0.00     0.054 C 
ATOM      9  C   UNL d   1       1.290   2.472  -0.069  0.00  0.00     0.018 C 
ENDBRANCH   1   8
TORSDOF 1
ENDMDL
