MODEL 1
REMARK minimizedAffinity -2.69505358
REMARK minimizedRMSD -1
REMARK  1 active torsions:
REMARK  status: ('A' for Active; 'I' for Inactive)
REMARK    1  A    between atoms: C1_2  and  C2_3 
ROOT
ATOM      1  C2  UNL d   1       1.017   2.342   0.316  0.00  0.00    -0.081 A 
ATOM      2  C3  UNL d   1      -0.246   2.210  -0.276  0.00  0.00     0.006 A 
ATOM      3  C4  UNL d   1      -0.841   0.953  -0.400  0.00  0.00     0.002 A 
ATOM      4  C5  UNL d   1      -0.189  -0.191   0.072  0.00  0.00    -0.080 A 
ATOM      5  C6  UNL d   1      -0.831  -1.543  -0.028  0.00  0.00     0.076 C 
ATOM      6  C7  UNL d   1       1.080  -0.062   0.648  0.00  0.00     0.002 A 
ATOM      7  C8  UNL d   1       1.676   1.195   0.771  0.00  0.00     0.006 A 
ENDROOT
BRANCH   1   8
ATOM      8  C1  UNL d   1       1.633   3.704   0.510  0.00  0.00     0.054 C 
ATOM      9  C   UNL d   1       0.644   4.675   1.138  0.00  0.00     0.018 C 
ENDBRANCH   1   8
TORSDOF 1
ENDMDL
