MODEL 1
REMARK minimizedAffinity -3.21881199
REMARK minimizedRMSD -1
REMARK  1 active torsions:
REMARK  status: ('A' for Active; 'I' for Inactive)
REMARK    1  A    between atoms: C1_2  and  C2_3 
ROOT
ATOM      1  C2  UNL d   1       0.277   4.592   2.079  0.00  0.00    -0.081 A 
ATOM      2  C3  UNL d   1       1.643   4.784   1.837  0.00  0.00     0.006 A 
ATOM      3  C4  UNL d   1       2.253   4.204   0.722  0.00  0.00     0.002 A 
ATOM      4  C5  UNL d   1       1.507   3.430  -0.173  0.00  0.00    -0.080 A 
ATOM      5  C6  UNL d   1       2.143   2.827  -1.390  0.00  0.00     0.076 C 
ATOM      6  C7  UNL d   1       0.146   3.224   0.079  0.00  0.00     0.002 A 
ATOM      7  C8  UNL d   1      -0.464   3.803   1.193  0.00  0.00     0.006 A 
ENDROOT
BRANCH   1   8
ATOM      8  C1  UNL d   1      -0.397   5.270   3.245  0.00  0.00     0.054 C 
ATOM      9  C   UNL d   1      -1.812   5.703   2.890  0.00  0.00     0.018 C 
ENDBRANCH   1   8
TORSDOF 1
ENDMDL
