MODEL 1
REMARK minimizedAffinity -0.307808816
REMARK minimizedRMSD -1
REMARK  3 active torsions:
REMARK  status: ('A' for Active; 'I' for Inactive)
REMARK    1  A    between atoms: C3'_2  and  C2'_3 
REMARK    2  A    between atoms: C2'_3  and  C1'_4 
REMARK    3  A    between atoms: C1'_4  and  C1_5 
ROOT
ATOM      1  C1  N4B d   1      -0.271  -0.417   1.198  0.00  0.00    -0.075 A 
ATOM      2  C2  N4B d   1       0.550   0.628   0.721  0.00  0.00     0.002 A 
ATOM      3  C3  N4B d   1       0.332   1.156  -0.528  0.00  0.00     0.002 A 
ATOM      4  C4  N4B d   1      -0.684   0.645  -1.321  0.00  0.00    -0.004 A 
ATOM      5  C5  N4B d   1      -1.489  -0.347  -0.843  0.00  0.00     0.002 A 
ATOM      6  C6  N4B d   1      -1.284  -0.885   0.412  0.00  0.00     0.002 A 
ENDROOT
BRANCH   1   7
ATOM      7  C1' N4B d   1      -0.017  -1.084   2.522  0.00  0.00     0.057 C 
BRANCH   7   8
ATOM      8  C2' N4B d   1       0.130  -2.587   2.305  0.00  0.00     0.009 C 
BRANCH   8   9
ATOM      9  C3' N4B d   1       1.587  -3.016   2.270  0.00  0.00     0.004 C 
ATOM     10  C4' N4B d   1       2.147  -3.056   0.880  0.00  0.00     0.003 C 
ENDBRANCH   8   9
ENDBRANCH   7   8
ENDBRANCH   1   7
TORSDOF 3
ENDMDL
