MODEL 1
REMARK minimizedAffinity -2.77313948
REMARK minimizedRMSD -1
REMARK  3 active torsions:
REMARK  status: ('A' for Active; 'I' for Inactive)
REMARK    1  A    between atoms: C3'_2  and  C2'_3 
REMARK    2  A    between atoms: C2'_3  and  C1'_4 
REMARK    3  A    between atoms: C1'_4  and  C1_5 
ROOT
ATOM      1  C1  N4B d   1      -0.693   1.208  -1.095  0.00  0.00    -0.075 A 
ATOM      2  C2  N4B d   1      -1.891   1.957  -1.070  0.00  0.00     0.002 A 
ATOM      3  C3  N4B d   1      -2.090   2.964  -1.981  0.00  0.00     0.002 A 
ATOM      4  C4  N4B d   1      -1.103   3.252  -2.912  0.00  0.00    -0.004 A 
ATOM      5  C5  N4B d   1       0.040   2.507  -2.946  0.00  0.00     0.002 A 
ATOM      6  C6  N4B d   1       0.252   1.489  -2.039  0.00  0.00     0.002 A 
ENDROOT
BRANCH   1   7
ATOM      7  C1' N4B d   1      -0.394   0.154  -0.065  0.00  0.00     0.057 C 
BRANCH   7   8
ATOM      8  C2' N4B d   1      -1.332   0.335   1.125  0.00  0.00     0.009 C 
BRANCH   8   9
ATOM      9  C3' N4B d   1      -0.595   0.245   2.450  0.00  0.00     0.004 C 
ATOM     10  C4' N4B d   1       0.112  -1.065   2.633  0.00  0.00     0.003 C 
ENDBRANCH   8   9
ENDBRANCH   7   8
ENDBRANCH   1   7
TORSDOF 3
ENDMDL
