MODEL 1
REMARK minimizedAffinity -4.57300806
REMARK minimizedRMSD -1
REMARK  3 active torsions:
REMARK  status: ('A' for Active; 'I' for Inactive)
REMARK    1  A    between atoms: C3'_2  and  C2'_3 
REMARK    2  A    between atoms: C2'_3  and  C1'_4 
REMARK    3  A    between atoms: C1'_4  and  C1_5 
ROOT
ATOM      1  C1  N4B d   1      -0.719   0.752  -1.016  0.00  0.00    -0.075 A 
ATOM      2  C2  N4B d   1      -1.267   1.441   0.089  0.00  0.00     0.002 A 
ATOM      3  C3  N4B d   1      -1.202   0.887   1.344  0.00  0.00     0.002 A 
ATOM      4  C4  N4B d   1      -0.614  -0.357   1.515  0.00  0.00    -0.004 A 
ATOM      5  C5  N4B d   1      -0.065  -1.004   0.447  0.00  0.00     0.002 A 
ATOM      6  C6  N4B d   1      -0.119  -0.458  -0.819  0.00  0.00     0.002 A 
ENDROOT
BRANCH   1   7
ATOM      7  C1' N4B d   1      -0.842   1.277  -2.420  0.00  0.00     0.057 C 
BRANCH   7   8
ATOM      8  C2' N4B d   1       0.020   2.528  -2.564  0.00  0.00     0.009 C 
BRANCH   8   9
ATOM      9  C3' N4B d   1      -0.821   3.780  -2.743  0.00  0.00     0.004 C 
ATOM     10  C4' N4B d   1      -2.293   3.495  -2.752  0.00  0.00     0.003 C 
ENDBRANCH   8   9
ENDBRANCH   7   8
ENDBRANCH   1   7
TORSDOF 3
ENDMDL
