MODEL 1
REMARK minimizedAffinity -5.65000725
REMARK minimizedRMSD -1
REMARK  3 active torsions:
REMARK  status: ('A' for Active; 'I' for Inactive)
REMARK    1  A    between atoms: C3'_2  and  C2'_3 
REMARK    2  A    between atoms: C2'_3  and  C1'_4 
REMARK    3  A    between atoms: C1'_4  and  C1_5 
ROOT
ATOM      1  C1  N4B d   1       0.186  -0.505  -0.408  0.00  0.00    -0.075 A 
ATOM      2  C2  N4B d   1      -0.764  -0.057   0.537  0.00  0.00     0.002 A 
ATOM      3  C3  N4B d   1      -0.660  -0.443   1.851  0.00  0.00     0.002 A 
ATOM      4  C4  N4B d   1       0.370  -1.287   2.238  0.00  0.00    -0.004 A 
ATOM      5  C5  N4B d   1       1.298  -1.694   1.324  0.00  0.00     0.002 A 
ATOM      6  C6  N4B d   1       1.208  -1.311   0.001  0.00  0.00     0.002 A 
ENDROOT
BRANCH   1   7
ATOM      7  C1' N4B d   1       0.064  -0.179  -1.871  0.00  0.00     0.057 C 
BRANCH   7   8
ATOM      8  C2' N4B d   1      -0.806   1.063  -2.038  0.00  0.00     0.009 C 
BRANCH   8   9
ATOM      9  C3' N4B d   1      -0.024   2.231  -2.616  0.00  0.00     0.004 C 
ATOM     10  C4' N4B d   1      -0.826   3.497  -2.667  0.00  0.00     0.003 C 
ENDBRANCH   8   9
ENDBRANCH   7   8
ENDBRANCH   1   7
TORSDOF 3
ENDMDL
