MODEL 1
REMARK minimizedAffinity 14.1181812
REMARK minimizedRMSD -1
REMARK  0 active torsions:
REMARK  status: ('A' for Active; 'I' for Inactive)
ROOT
ATOM      1  C   UNL d   1       0.057  -6.000   1.146  0.00  0.00     0.023 A 
ATOM      2  C1  UNL d   1       1.450  -5.984   1.215  0.00  0.00     0.003 A 
ATOM      3  C2  UNL d   1       2.206  -5.789   0.057  0.00  0.00     0.048 A 
ATOM      4  C3  UNL d   1       1.562  -5.609  -1.166  0.00  0.00     0.023 A 
ATOM      5  C4  UNL d   1       0.168  -5.623  -1.240  0.00  0.00     0.048 A 
ATOM      6  C5  UNL d   1      -0.583  -5.819  -0.080  0.00  0.00     0.003 A 
ATOM      7  I   UNL d   1       2.684  -5.319  -2.891  0.00  0.00    -0.146 I 
ENDROOT
TORSDOF 0
ENDMDL
