MODEL 1
REMARK minimizedAffinity 15.9081469
REMARK minimizedRMSD -1
REMARK  0 active torsions:
REMARK  status: ('A' for Active; 'I' for Inactive)
ROOT
ATOM      1  C   UNL d   1       1.044  -1.241   1.489  0.00  0.00     0.023 A 
ATOM      2  C1  UNL d   1       1.991  -0.569   0.716  0.00  0.00     0.003 A 
ATOM      3  C2  UNL d   1       3.342  -0.908   0.814  0.00  0.00     0.048 A 
ATOM      4  C3  UNL d   1       3.739  -1.921   1.686  0.00  0.00     0.023 A 
ATOM      5  C4  UNL d   1       2.795  -2.596   2.461  0.00  0.00     0.048 A 
ATOM      6  C5  UNL d   1       1.446  -2.253   2.360  0.00  0.00     0.003 A 
ATOM      7  I   UNL d   1       5.750  -2.428   1.833  0.00  0.00    -0.146 I 
ENDROOT
TORSDOF 0
ENDMDL
