MODEL 1
REMARK minimizedAffinity 15.1056185
REMARK minimizedRMSD -1
REMARK  0 active torsions:
REMARK  status: ('A' for Active; 'I' for Inactive)
ROOT
ATOM      1  C   UNL d   1       1.723  -0.424   0.816  0.00  0.00     0.023 A 
ATOM      2  C1  UNL d   1       0.748  -0.302   1.806  0.00  0.00     0.003 A 
ATOM      3  C2  UNL d   1       0.772  -1.145   2.919  0.00  0.00     0.048 A 
ATOM      4  C3  UNL d   1       1.774  -2.107   3.036  0.00  0.00     0.023 A 
ATOM      5  C4  UNL d   1       2.752  -2.233   2.048  0.00  0.00     0.048 A 
ATOM      6  C5  UNL d   1       2.724  -1.388   0.937  0.00  0.00     0.003 A 
ATOM      7  I   UNL d   1       1.811  -3.363   4.691  0.00  0.00    -0.146 I 
ENDROOT
TORSDOF 0
ENDMDL
