MODEL 1
REMARK minimizedAffinity 8.26102066
REMARK minimizedRMSD -1
REMARK  0 active torsions:
REMARK  status: ('A' for Active; 'I' for Inactive)
ROOT
ATOM      1  C   UNL d   1      -5.762   4.760   1.448  0.00  0.00     0.023 A 
ATOM      2  C1  UNL d   1      -5.102   4.519   2.653  0.00  0.00     0.003 A 
ATOM      3  C2  UNL d   1      -3.817   3.973   2.649  0.00  0.00     0.048 A 
ATOM      4  C3  UNL d   1      -3.197   3.672   1.436  0.00  0.00     0.023 A 
ATOM      5  C4  UNL d   1      -3.854   3.913   0.228  0.00  0.00     0.048 A 
ATOM      6  C5  UNL d   1      -5.139   4.458   0.237  0.00  0.00     0.003 A 
ATOM      7  I   UNL d   1      -1.284   2.860   1.428  0.00  0.00    -0.146 I 
ENDROOT
TORSDOF 0
ENDMDL
