MODEL 1
REMARK minimizedAffinity 12.524929
REMARK minimizedRMSD -1
REMARK  0 active torsions:
REMARK  status: ('A' for Active; 'I' for Inactive)
ROOT
ATOM      1  C   UNL d   1      -5.991   4.108   1.827  0.00  0.00     0.023 A 
ATOM      2  C1  UNL d   1      -4.890   3.440   2.363  0.00  0.00     0.003 A 
ATOM      3  C2  UNL d   1      -3.795   3.135   1.552  0.00  0.00     0.048 A 
ATOM      4  C3  UNL d   1      -3.807   3.502   0.207  0.00  0.00     0.023 A 
ATOM      5  C4  UNL d   1      -4.907   4.171  -0.333  0.00  0.00     0.048 A 
ATOM      6  C5  UNL d   1      -6.000   4.473   0.481  0.00  0.00     0.003 A 
ATOM      7  I   UNL d   1      -2.178   3.050  -1.002  0.00  0.00    -0.146 I 
ENDROOT
TORSDOF 0
ENDMDL
