MODEL 1
REMARK minimizedAffinity 10.9356365
REMARK minimizedRMSD -1
REMARK  0 active torsions:
REMARK  status: ('A' for Active; 'I' for Inactive)
ROOT
ATOM      1  C   UNL d   1      -2.068   1.410  -1.169  0.00  0.00     0.023 A 
ATOM      2  C1  UNL d   1      -2.239   2.130   0.014  0.00  0.00     0.003 A 
ATOM      3  C2  UNL d   1      -3.333   2.984   0.162  0.00  0.00     0.048 A 
ATOM      4  C3  UNL d   1      -4.254   3.113  -0.877  0.00  0.00     0.023 A 
ATOM      5  C4  UNL d   1      -4.088   2.395  -2.062  0.00  0.00     0.048 A 
ATOM      6  C5  UNL d   1      -2.992   1.543  -2.205  0.00  0.00     0.003 A 
ATOM      7  I   UNL d   1      -5.885   4.384  -0.659  0.00  0.00    -0.146 I 
ENDROOT
TORSDOF 0
ENDMDL
