MODEL 1
REMARK minimizedAffinity 12.8047342
REMARK minimizedRMSD -1
REMARK  0 active torsions:
REMARK  status: ('A' for Active; 'I' for Inactive)
ROOT
ATOM      1  C   UNL d   1       4.255  -0.467   0.404  0.00  0.00     0.023 A 
ATOM      2  C1  UNL d   1       3.103   0.307   0.540  0.00  0.00     0.003 A 
ATOM      3  C2  UNL d   1       2.106  -0.076   1.441  0.00  0.00     0.048 A 
ATOM      4  C3  UNL d   1       2.269  -1.232   2.203  0.00  0.00     0.023 A 
ATOM      5  C4  UNL d   1       3.421  -2.009   2.071  0.00  0.00     0.048 A 
ATOM      6  C5  UNL d   1       4.415  -1.623   1.169  0.00  0.00     0.003 A 
ATOM      7  I   UNL d   1       0.787  -1.803   3.544  0.00  0.00    -0.146 I 
ENDROOT
TORSDOF 0
ENDMDL
