MODEL 1
REMARK minimizedAffinity 7.72378588
REMARK minimizedRMSD -1
REMARK  0 active torsions:
REMARK  status: ('A' for Active; 'I' for Inactive)
ROOT
ATOM      1  C   UNL d   1       0.532  -1.045   1.898  0.00  0.00     0.023 A 
ATOM      2  C1  UNL d   1       1.419  -0.595   0.919  0.00  0.00     0.003 A 
ATOM      3  C2  UNL d   1       2.746  -1.029   0.925  0.00  0.00     0.048 A 
ATOM      4  C3  UNL d   1       3.180  -1.913   1.912  0.00  0.00     0.023 A 
ATOM      5  C4  UNL d   1       2.296  -2.366   2.893  0.00  0.00     0.048 A 
ATOM      6  C5  UNL d   1       0.971  -1.929   2.884  0.00  0.00     0.003 A 
ATOM      7  I   UNL d   1       5.155  -2.560   1.923  0.00  0.00    -0.146 I 
ENDROOT
TORSDOF 0
ENDMDL
