MODEL 1
REMARK minimizedAffinity 10.0774794
REMARK minimizedRMSD -1
REMARK  0 active torsions:
REMARK  status: ('A' for Active; 'I' for Inactive)
ROOT
ATOM      1  C   UNL d   1       1.019  -0.004   2.597  0.00  0.00     0.023 A 
ATOM      2  C1  UNL d   1       1.286   0.290   3.935  0.00  0.00     0.003 A 
ATOM      3  C2  UNL d   1       1.172  -0.707   4.906  0.00  0.00     0.048 A 
ATOM      4  C3  UNL d   1       0.792  -1.996   4.533  0.00  0.00     0.023 A 
ATOM      5  C4  UNL d   1       0.525  -2.295   3.196  0.00  0.00     0.048 A 
ATOM      6  C5  UNL d   1       0.640  -1.295   2.229  0.00  0.00     0.003 A 
ATOM      7  I   UNL d   1       0.622  -3.481   5.977  0.00  0.00    -0.146 I 
ENDROOT
TORSDOF 0
ENDMDL
