MODEL 1
REMARK minimizedAffinity -0.0649671331
REMARK minimizedRMSD -1
REMARK  0 active torsions:
REMARK  status: ('A' for Active; 'I' for Inactive)
ROOT
ATOM      1  C   UNL d   1       3.657   4.771  -1.911  0.00  0.00     0.023 A 
ATOM      2  C1  UNL d   1       4.896   5.409  -1.842  0.00  0.00     0.003 A 
ATOM      3  C2  UNL d   1       5.568   5.761  -3.014  0.00  0.00     0.048 A 
ATOM      4  C3  UNL d   1       4.995   5.474  -4.252  0.00  0.00     0.023 A 
ATOM      5  C4  UNL d   1       3.756   4.837  -4.327  0.00  0.00     0.048 A 
ATOM      6  C5  UNL d   1       3.088   4.486  -3.152  0.00  0.00     0.003 A 
ATOM      7  I   UNL d   1       5.993   5.999  -5.998  0.00  0.00    -0.146 I 
ENDROOT
TORSDOF 0
ENDMDL
