MODEL 1
REMARK minimizedAffinity -2.20301461
REMARK minimizedRMSD -1
REMARK  0 active torsions:
REMARK  status: ('A' for Active; 'I' for Inactive)
ROOT
ATOM      1  C   UNL d   1       4.606   4.917  -1.352  0.00  0.00     0.023 A 
ATOM      2  C1  UNL d   1       4.015   3.969  -2.187  0.00  0.00     0.003 A 
ATOM      3  C2  UNL d   1       4.414   3.867  -3.521  0.00  0.00     0.048 A 
ATOM      4  C3  UNL d   1       5.405   4.715  -4.014  0.00  0.00     0.023 A 
ATOM      5  C4  UNL d   1       6.000   5.665  -3.181  0.00  0.00     0.048 A 
ATOM      6  C5  UNL d   1       5.597   5.764  -1.848  0.00  0.00     0.003 A 
ATOM      7  I   UNL d   1       6.000   4.565  -5.999  0.00  0.00    -0.146 I 
ENDROOT
TORSDOF 0
ENDMDL
