MODEL 1
REMARK minimizedAffinity 3.91469193
REMARK minimizedRMSD -1
REMARK  2 active torsions:
REMARK  status: ('A' for Active; 'I' for Inactive)
REMARK    1  A    between atoms: C1_2  and  C2_3 
REMARK    2  A    between atoms: C2_3  and  C3_4 
ROOT
ATOM      1  C3  UNL d   1       3.546  -2.095   4.219  0.00  0.00    -0.075 A 
ATOM      2  C4  UNL d   1       3.641  -2.929   5.343  0.00  0.00     0.002 A 
ATOM      3  C5  UNL d   1       4.860  -3.096   6.000  0.00  0.00     0.002 A 
ATOM      4  C6  UNL d   1       6.000  -2.442   5.537  0.00  0.00    -0.004 A 
ATOM      5  C7  UNL d   1       5.921  -1.625   4.412  0.00  0.00     0.002 A 
ATOM      6  C8  UNL d   1       4.701  -1.452   3.755  0.00  0.00     0.002 A 
ENDROOT
BRANCH   1   7
ATOM      7  C2  UNL d   1       2.224  -1.886   3.521  0.00  0.00     0.056 C 
BRANCH   7   8
ATOM      8  C1  UNL d   1       2.221  -0.723   2.524  0.00  0.00     0.007 C 
ATOM      9  C   UNL d   1       1.447  -1.027   1.249  0.00  0.00     0.009 C 
ENDBRANCH   7   8
ENDBRANCH   1   7
TORSDOF 2
ENDMDL
