MODEL 1
REMARK minimizedAffinity 2.01065612
REMARK minimizedRMSD -1
REMARK  2 active torsions:
REMARK  status: ('A' for Active; 'I' for Inactive)
REMARK    1  A    between atoms: C1_2  and  C2_3 
REMARK    2  A    between atoms: C2_3  and  C3_4 
ROOT
ATOM      1  C3  UNL d   1       3.482  -2.163   4.846  0.00  0.00    -0.075 A 
ATOM      2  C4  UNL d   1       2.503  -3.165   4.776  0.00  0.00     0.002 A 
ATOM      3  C5  UNL d   1       1.494  -3.104   3.814  0.00  0.00     0.002 A 
ATOM      4  C6  UNL d   1       1.445  -2.038   2.918  0.00  0.00    -0.004 A 
ATOM      5  C7  UNL d   1       2.403  -1.028   2.989  0.00  0.00     0.002 A 
ATOM      6  C8  UNL d   1       3.416  -1.089   3.948  0.00  0.00     0.002 A 
ENDROOT
BRANCH   1   7
ATOM      7  C2  UNL d   1       4.593  -2.238   5.865  0.00  0.00     0.056 C 
BRANCH   7   8
ATOM      8  C1  UNL d   1       5.999  -2.157   5.262  0.00  0.00     0.007 C 
ATOM      9  C   UNL d   1       5.999  -2.127   3.740  0.00  0.00     0.009 C 
ENDBRANCH   7   8
ENDBRANCH   1   7
TORSDOF 2
ENDMDL
