MODEL 1
REMARK minimizedAffinity 7.89280987
REMARK minimizedRMSD -1
REMARK  2 active torsions:
REMARK  status: ('A' for Active; 'I' for Inactive)
REMARK    1  A    between atoms: C1_2  and  C2_3 
REMARK    2  A    between atoms: C2_3  and  C3_4 
ROOT
ATOM      1  C3  UNL d   1      -5.851  -0.075  -5.007  0.00  0.00    -0.075 A 
ATOM      2  C4  UNL d   1      -5.999  -0.312  -3.632  0.00  0.00     0.002 A 
ATOM      3  C5  UNL d   1      -6.000   0.750  -2.727  0.00  0.00     0.002 A 
ATOM      4  C6  UNL d   1      -5.844   2.057  -3.181  0.00  0.00    -0.004 A 
ATOM      5  C7  UNL d   1      -5.680   2.303  -4.542  0.00  0.00     0.002 A 
ATOM      6  C8  UNL d   1      -5.683   1.243  -5.451  0.00  0.00     0.002 A 
ENDROOT
BRANCH   1   7
ATOM      7  C2  UNL d   1      -5.879  -1.216  -5.995  0.00  0.00     0.056 C 
BRANCH   7   8
ATOM      8  C1  UNL d   1      -5.718  -2.599  -5.355  0.00  0.00     0.007 C 
ATOM      9  C   UNL d   1      -4.620  -3.435  -6.000  0.00  0.00     0.009 C 
ENDBRANCH   7   8
ENDBRANCH   1   7
TORSDOF 2
ENDMDL
