MODEL 1
REMARK minimizedAffinity -2.12484312
REMARK minimizedRMSD -1
REMARK  0 active torsions:
REMARK  status: ('A' for Active; 'I' for Inactive)
ROOT
ATOM      1  C   UNL d   1       1.517  -3.850   0.269  0.00  0.00     0.172 C 
ATOM      2  N   UNL d   1       0.941  -2.543   0.482  0.00  0.00    -0.070 N 
ATOM      3  C1  UNL d   1       1.635  -1.407   0.802  0.00  0.00    -0.004 A 
ATOM      4  C2  UNL d   1       0.727  -0.377   0.918  0.00  0.00    -0.047 A 
ATOM      5  C3  UNL d   1      -0.557  -0.912   0.660  0.00  0.00    -0.047 A 
ATOM      6  C4  UNL d   1      -0.396  -2.255   0.393  0.00  0.00    -0.004 A 
ENDROOT
TORSDOF 0
ENDMDL
