MODEL 1
REMARK minimizedAffinity -4.03484058
REMARK minimizedRMSD -1
REMARK  0 active torsions:
REMARK  status: ('A' for Active; 'I' for Inactive)
ROOT
ATOM      1  C   UNL d   1       2.608  -4.016   0.253  0.00  0.00     0.172 C 
ATOM      2  N   UNL d   1       1.747  -2.859   0.329  0.00  0.00    -0.070 N 
ATOM      3  C1  UNL d   1       0.383  -2.871   0.212  0.00  0.00    -0.004 A 
ATOM      4  C2  UNL d   1      -0.063  -1.573   0.341  0.00  0.00    -0.047 A 
ATOM      5  C3  UNL d   1       1.073  -0.753   0.541  0.00  0.00    -0.047 A 
ATOM      6  C4  UNL d   1       2.180  -1.575   0.529  0.00  0.00    -0.004 A 
ENDROOT
TORSDOF 0
ENDMDL
