MODEL 1
REMARK minimizedAffinity 4.07278013
REMARK minimizedRMSD -1
REMARK  0 active torsions:
REMARK  status: ('A' for Active; 'I' for Inactive)
ROOT
ATOM      1  C   UNL d   1       2.542  -0.275   1.259  0.00  0.00     0.172 C 
ATOM      2  N   UNL d   1       1.187  -0.637   0.913  0.00  0.00    -0.070 N 
ATOM      3  C1  UNL d   1       0.054  -0.134   1.493  0.00  0.00    -0.004 A 
ATOM      4  C2  UNL d   1      -1.031  -0.729   0.886  0.00  0.00    -0.047 A 
ATOM      5  C3  UNL d   1      -0.531  -1.623  -0.091  0.00  0.00    -0.047 A 
ATOM      6  C4  UNL d   1       0.845  -1.546  -0.053  0.00  0.00    -0.004 A 
ENDROOT
TORSDOF 0
ENDMDL
