MODEL 1
REMARK minimizedAffinity -1.30492067
REMARK minimizedRMSD -1
REMARK  0 active torsions:
REMARK  status: ('A' for Active; 'I' for Inactive)
ROOT
ATOM      1  C   UNL d   1       2.054  -3.707  -0.165  0.00  0.00     0.172 C 
ATOM      2  N   UNL d   1       1.157  -2.661   0.267  0.00  0.00    -0.070 N 
ATOM      3  C1  UNL d   1      -0.004  -2.845   0.971  0.00  0.00    -0.004 A 
ATOM      4  C2  UNL d   1      -0.567  -1.606   1.188  0.00  0.00    -0.047 A 
ATOM      5  C3  UNL d   1       0.284  -0.644   0.593  0.00  0.00    -0.047 A 
ATOM      6  C4  UNL d   1       1.343  -1.324   0.031  0.00  0.00    -0.004 A 
ENDROOT
TORSDOF 0
ENDMDL
