MODEL 1
REMARK minimizedAffinity -0.117957331
REMARK minimizedRMSD -1
REMARK  0 active torsions:
REMARK  status: ('A' for Active; 'I' for Inactive)
ROOT
ATOM      1  C   UNL d   1      -1.676  -0.086   1.406  0.00  0.00     0.172 C 
ATOM      2  N   UNL d   1      -0.484  -0.864   1.164  0.00  0.00    -0.070 N 
ATOM      3  C1  UNL d   1      -0.447  -2.119   0.618  0.00  0.00    -0.004 A 
ATOM      4  C2  UNL d   1       0.872  -2.513   0.555  0.00  0.00    -0.047 A 
ATOM      5  C3  UNL d   1       1.655  -1.459   1.082  0.00  0.00    -0.047 A 
ATOM      6  C4  UNL d   1       0.790  -0.451   1.452  0.00  0.00    -0.004 A 
ENDROOT
TORSDOF 0
ENDMDL
