MODEL 1
REMARK minimizedAffinity -1.55936396
REMARK minimizedRMSD -1
REMARK  0 active torsions:
REMARK  status: ('A' for Active; 'I' for Inactive)
ROOT
ATOM      1  C   UNL d   1       2.502  -0.294  -0.210  0.00  0.00     0.172 C 
ATOM      2  N   UNL d   1       1.217  -0.565   0.391  0.00  0.00    -0.070 N 
ATOM      3  C1  UNL d   1       0.340  -1.540  -0.005  0.00  0.00    -0.004 A 
ATOM      4  C2  UNL d   1      -0.764  -1.474   0.817  0.00  0.00    -0.047 A 
ATOM      5  C3  UNL d   1      -0.544  -0.422   1.738  0.00  0.00    -0.047 A 
ATOM      6  C4  UNL d   1       0.690   0.123   1.451  0.00  0.00    -0.004 A 
ENDROOT
TORSDOF 0
ENDMDL
