MODEL 1
REMARK minimizedAffinity -4.25913048
REMARK minimizedRMSD -1
REMARK  0 active torsions:
REMARK  status: ('A' for Active; 'I' for Inactive)
ROOT
ATOM      1  C   UNL d   1       2.435  -3.758  -0.103  0.00  0.00     0.172 C 
ATOM      2  N   UNL d   1       1.689  -2.549   0.156  0.00  0.00    -0.070 N 
ATOM      3  C1  UNL d   1       0.343  -2.477   0.395  0.00  0.00    -0.004 A 
ATOM      4  C2  UNL d   1       0.020  -1.152   0.594  0.00  0.00    -0.047 A 
ATOM      5  C3  UNL d   1       1.213  -0.402   0.469  0.00  0.00    -0.047 A 
ATOM      6  C4  UNL d   1       2.231  -1.292   0.197  0.00  0.00    -0.004 A 
ENDROOT
TORSDOF 0
ENDMDL
