MODEL 1
REMARK minimizedAffinity -2.48297405
REMARK minimizedRMSD -1
REMARK  0 active torsions:
REMARK  status: ('A' for Active; 'I' for Inactive)
ROOT
ATOM      1  C   UNL d   1       1.837  -3.888  -0.231  0.00  0.00     0.172 C 
ATOM      2  N   UNL d   1       1.154  -2.708   0.244  0.00  0.00    -0.070 N 
ATOM      3  C1  UNL d   1      -0.024  -2.695   0.943  0.00  0.00    -0.004 A 
ATOM      4  C2  UNL d   1      -0.341  -1.380   1.210  0.00  0.00    -0.047 A 
ATOM      5  C3  UNL d   1       0.681  -0.576   0.651  0.00  0.00    -0.047 A 
ATOM      6  C4  UNL d   1       1.593  -1.424   0.059  0.00  0.00    -0.004 A 
ENDROOT
TORSDOF 0
ENDMDL
