MODEL 1
REMARK minimizedAffinity -1.00899744
REMARK minimizedRMSD -1
REMARK  0 active torsions:
REMARK  status: ('A' for Active; 'I' for Inactive)
ROOT
ATOM      1  C   UNL d   1       4.504   3.960  -1.416  0.00  0.00     0.172 C 
ATOM      2  N   UNL d   1       3.768   3.029  -2.238  0.00  0.00    -0.070 N 
ATOM      3  C1  UNL d   1       2.908   3.364  -3.250  0.00  0.00    -0.004 A 
ATOM      4  C2  UNL d   1       2.412   2.196  -3.786  0.00  0.00    -0.047 A 
ATOM      5  C3  UNL d   1       2.993   1.122  -3.072  0.00  0.00    -0.047 A 
ATOM      6  C4  UNL d   1       3.829   1.666  -2.120  0.00  0.00    -0.004 A 
ENDROOT
TORSDOF 0
ENDMDL
