MODEL 1
REMARK minimizedAffinity -3.01258016
REMARK minimizedRMSD -1
REMARK  0 active torsions:
REMARK  status: ('A' for Active; 'I' for Inactive)
ROOT
ATOM      1  C   UNL d   1       2.295  -3.005  -0.451  0.00  0.00     0.172 C 
ATOM      2  N   UNL d   1       1.329  -2.142   0.187  0.00  0.00    -0.070 N 
ATOM      3  C1  UNL d   1       0.123  -2.536   0.701  0.00  0.00    -0.004 A 
ATOM      4  C2  UNL d   1      -0.500  -1.421   1.219  0.00  0.00    -0.047 A 
ATOM      5  C3  UNL d   1       0.362  -0.318   1.008  0.00  0.00    -0.047 A 
ATOM      6  C4  UNL d   1       1.487  -0.793   0.368  0.00  0.00    -0.004 A 
ENDROOT
TORSDOF 0
ENDMDL
