MODEL 1
REMARK minimizedAffinity -1.23742521
REMARK minimizedRMSD -1
REMARK  0 active torsions:
REMARK  status: ('A' for Active; 'I' for Inactive)
ROOT
ATOM      1  C   UNL d   1       1.203  -3.097  -0.248  0.00  0.00     0.172 C 
ATOM      2  N   UNL d   1       1.063  -1.753   0.261  0.00  0.00    -0.070 N 
ATOM      3  C1  UNL d   1      -0.122  -1.116   0.517  0.00  0.00    -0.004 A 
ATOM      4  C2  UNL d   1       0.170   0.145   0.990  0.00  0.00    -0.047 A 
ATOM      5  C3  UNL d   1       1.579   0.270   1.019  0.00  0.00    -0.047 A 
ATOM      6  C4  UNL d   1       2.107  -0.919   0.562  0.00  0.00    -0.004 A 
ENDROOT
TORSDOF 0
ENDMDL
