MODEL 1
REMARK minimizedAffinity 0.471074402
REMARK minimizedRMSD -1
REMARK  0 active torsions:
REMARK  status: ('A' for Active; 'I' for Inactive)
ROOT
ATOM      1  C   UNL d   1       1.513  -3.707   0.545  0.00  0.00     0.172 C 
ATOM      2  N   UNL d   1       0.749  -2.483   0.592  0.00  0.00    -0.070 N 
ATOM      3  C1  UNL d   1      -0.521  -2.316   0.107  0.00  0.00    -0.004 A 
ATOM      4  C2  UNL d   1      -0.895  -1.011   0.344  0.00  0.00    -0.047 A 
ATOM      5  C3  UNL d   1       0.188  -0.371   0.993  0.00  0.00    -0.047 A 
ATOM      6  C4  UNL d   1       1.192  -1.306   1.133  0.00  0.00    -0.004 A 
ENDROOT
TORSDOF 0
ENDMDL
