MODEL 1
REMARK minimizedAffinity -2.19640017
REMARK minimizedRMSD -1
REMARK  0 active torsions:
REMARK  status: ('A' for Active; 'I' for Inactive)
ROOT
ATOM      1  C   UNL d   1       1.459  -3.139   0.247  0.00  0.00     0.172 C 
ATOM      2  N   UNL d   1       0.472  -2.147   0.603  0.00  0.00    -0.070 N 
ATOM      3  C1  UNL d   1       0.693  -1.048   1.389  0.00  0.00    -0.004 A 
ATOM      4  C2  UNL d   1      -0.494  -0.355   1.490  0.00  0.00    -0.047 A 
ATOM      5  C3  UNL d   1      -1.462  -1.063   0.738  0.00  0.00    -0.047 A 
ATOM      6  C4  UNL d   1      -0.837  -2.168   0.200  0.00  0.00    -0.004 A 
ENDROOT
TORSDOF 0
ENDMDL
