MODEL 1
REMARK minimizedAffinity -3.91725326
REMARK minimizedRMSD -1
REMARK  0 active torsions:
REMARK  status: ('A' for Active; 'I' for Inactive)
ROOT
ATOM      1  C   UNL d   1       3.111  -3.064   0.139  0.00  0.00     0.172 C 
ATOM      2  N   UNL d   1       1.868  -2.367   0.371  0.00  0.00    -0.070 N 
ATOM      3  C1  UNL d   1       0.622  -2.935   0.366  0.00  0.00    -0.004 A 
ATOM      4  C2  UNL d   1      -0.296  -1.941   0.629  0.00  0.00    -0.047 A 
ATOM      5  C3  UNL d   1       0.423  -0.734   0.797  0.00  0.00    -0.047 A 
ATOM      6  C4  UNL d   1       1.760  -1.027   0.633  0.00  0.00    -0.004 A 
ENDROOT
TORSDOF 0
ENDMDL
