MODEL 1
REMARK minimizedAffinity -4.26282549
REMARK minimizedRMSD -1
REMARK  0 active torsions:
REMARK  status: ('A' for Active; 'I' for Inactive)
ROOT
ATOM      1  C   UNL d   1       2.036  -3.834   0.453  0.00  0.00     0.172 C 
ATOM      2  N   UNL d   1       1.429  -2.526   0.533  0.00  0.00    -0.070 N 
ATOM      3  C1  UNL d   1       2.100  -1.344   0.697  0.00  0.00    -0.004 A 
ATOM      4  C2  UNL d   1       1.167  -0.330   0.723  0.00  0.00    -0.047 A 
ATOM      5  C3  UNL d   1      -0.109  -0.923   0.570  0.00  0.00    -0.047 A 
ATOM      6  C4  UNL d   1       0.083  -2.284   0.455  0.00  0.00    -0.004 A 
ENDROOT
TORSDOF 0
ENDMDL
