MODEL 1
REMARK minimizedAffinity -1.08580434
REMARK minimizedRMSD -1
REMARK  2 active torsions:
REMARK  status: ('A' for Active; 'I' for Inactive)
REMARK    1  A    between atoms: C1_2  and  C2_3 
REMARK    2  A    between atoms: C2_3  and  C3_4 
ROOT
ATOM      1  C3  UNL d   1      -0.289   1.410   1.208  0.00  0.00    -0.075 A 
ATOM      2  C4  UNL d   1      -1.610   1.789   1.485  0.00  0.00     0.002 A 
ATOM      3  C5  UNL d   1      -2.612   1.617   0.530  0.00  0.00     0.002 A 
ATOM      4  C6  UNL d   1      -2.304   1.076  -0.717  0.00  0.00    -0.004 A 
ATOM      5  C7  UNL d   1      -0.992   0.712  -1.009  0.00  0.00     0.002 A 
ATOM      6  C8  UNL d   1       0.012   0.878  -0.054  0.00  0.00     0.002 A 
ENDROOT
BRANCH   1   7
ATOM      7  C2  UNL d   1       0.795   1.566   2.248  0.00  0.00     0.056 C 
BRANCH   7   8
ATOM      8  C1  UNL d   1       1.664   0.318   2.435  0.00  0.00     0.007 C 
ATOM      9  C   UNL d   1       1.478  -0.346   3.792  0.00  0.00     0.009 C 
ENDBRANCH   7   8
ENDBRANCH   1   7
TORSDOF 2
ENDMDL
