MODEL 1
REMARK minimizedAffinity 8.60395622
REMARK minimizedRMSD -1
REMARK  2 active torsions:
REMARK  status: ('A' for Active; 'I' for Inactive)
REMARK    1  A    between atoms: C1_2  and  C2_3 
REMARK    2  A    between atoms: C2_3  and  C3_4 
ROOT
ATOM      1  C3  UNL d   1       1.093  -1.078   0.567  0.00  0.00    -0.075 A 
ATOM      2  C4  UNL d   1       1.879  -0.883   1.712  0.00  0.00     0.002 A 
ATOM      3  C5  UNL d   1       1.467  -0.003   2.713  0.00  0.00     0.002 A 
ATOM      4  C6  UNL d   1       0.271   0.700   2.578  0.00  0.00    -0.004 A 
ATOM      5  C7  UNL d   1      -0.509   0.526   1.437  0.00  0.00     0.002 A 
ATOM      6  C8  UNL d   1      -0.101  -0.357   0.436  0.00  0.00     0.002 A 
ENDROOT
BRANCH   1   7
ATOM      7  C2  UNL d   1       1.519  -2.051  -0.506  0.00  0.00     0.056 C 
BRANCH   7   8
ATOM      8  C1  UNL d   1       1.044  -3.488  -0.269  0.00  0.00     0.007 C 
ATOM      9  C   UNL d   1       1.867  -4.525  -1.021  0.00  0.00     0.009 C 
ENDBRANCH   7   8
ENDBRANCH   1   7
TORSDOF 2
ENDMDL
