MODEL 1
REMARK minimizedAffinity 4.76544476
REMARK minimizedRMSD -1
REMARK  2 active torsions:
REMARK  status: ('A' for Active; 'I' for Inactive)
REMARK    1  A    between atoms: C1_2  and  C2_3 
REMARK    2  A    between atoms: C2_3  and  C3_4 
ROOT
ATOM      1  C3  UNL d   1      -0.068   0.641   1.207  0.00  0.00    -0.075 A 
ATOM      2  C4  UNL d   1       0.685  -0.383   1.798  0.00  0.00     0.002 A 
ATOM      3  C5  UNL d   1       1.489  -1.214   1.015  0.00  0.00     0.002 A 
ATOM      4  C6  UNL d   1       1.540  -1.038  -0.366  0.00  0.00    -0.004 A 
ATOM      5  C7  UNL d   1       0.783  -0.034  -0.965  0.00  0.00     0.002 A 
ATOM      6  C8  UNL d   1      -0.018   0.801  -0.184  0.00  0.00     0.002 A 
ENDROOT
BRANCH   1   7
ATOM      7  C2  UNL d   1      -0.917   1.562   2.051  0.00  0.00     0.056 C 
BRANCH   7   8
ATOM      8  C1  UNL d   1      -0.207   2.854   2.470  0.00  0.00     0.007 C 
ATOM      9  C   UNL d   1       0.357   3.638   1.293  0.00  0.00     0.009 C 
ENDBRANCH   7   8
ENDBRANCH   1   7
TORSDOF 2
ENDMDL
