MODEL 1
REMARK minimizedAffinity 5.07895374
REMARK minimizedRMSD -1
REMARK  2 active torsions:
REMARK  status: ('A' for Active; 'I' for Inactive)
REMARK    1  A    between atoms: C1_2  and  C2_3 
REMARK    2  A    between atoms: C2_3  and  C3_4 
ROOT
ATOM      1  C3  UNL d   1       1.265  -0.495   1.341  0.00  0.00    -0.075 A 
ATOM      2  C4  UNL d   1       1.753  -0.792   0.061  0.00  0.00     0.002 A 
ATOM      3  C5  UNL d   1       1.101  -0.311  -1.075  0.00  0.00     0.002 A 
ATOM      4  C6  UNL d   1      -0.049   0.464  -0.946  0.00  0.00    -0.004 A 
ATOM      5  C7  UNL d   1      -0.552   0.751   0.321  0.00  0.00     0.002 A 
ATOM      6  C8  UNL d   1       0.100   0.274   1.460  0.00  0.00     0.002 A 
ENDROOT
BRANCH   1   7
ATOM      7  C2  UNL d   1       1.983  -0.989   2.575  0.00  0.00     0.056 C 
BRANCH   7   8
ATOM      8  C1  UNL d   1       3.493  -0.727   2.565  0.00  0.00     0.007 C 
ATOM      9  C   UNL d   1       4.245  -1.514   3.630  0.00  0.00     0.009 C 
ENDBRANCH   7   8
ENDBRANCH   1   7
TORSDOF 2
ENDMDL
