MODEL 1
REMARK minimizedAffinity -0.728056014
REMARK minimizedRMSD -1
REMARK  2 active torsions:
REMARK  status: ('A' for Active; 'I' for Inactive)
REMARK    1  A    between atoms: C1_2  and  C2_3 
REMARK    2  A    between atoms: C2_3  and  C3_4 
ROOT
ATOM      1  C3  UNL d   1       0.778  -0.267   1.203  0.00  0.00    -0.075 A 
ATOM      2  C4  UNL d   1       1.206  -1.134   0.187  0.00  0.00     0.002 A 
ATOM      3  C5  UNL d   1       0.888  -0.873  -1.146  0.00  0.00     0.002 A 
ATOM      4  C6  UNL d   1       0.133   0.249  -1.479  0.00  0.00    -0.004 A 
ATOM      5  C7  UNL d   1      -0.311   1.108  -0.476  0.00  0.00     0.002 A 
ATOM      6  C8  UNL d   1       0.009   0.852   0.858  0.00  0.00     0.002 A 
ENDROOT
BRANCH   1   7
ATOM      7  C2  UNL d   1       1.144  -0.527   2.645  0.00  0.00     0.056 C 
BRANCH   7   8
ATOM      8  C1  UNL d   1       2.593  -0.981   2.849  0.00  0.00     0.007 C 
ATOM      9  C   UNL d   1       2.793  -1.797   4.120  0.00  0.00     0.009 C 
ENDBRANCH   7   8
ENDBRANCH   1   7
TORSDOF 2
ENDMDL
