MODEL 1
REMARK minimizedAffinity 6.6454649
REMARK minimizedRMSD -1
REMARK  2 active torsions:
REMARK  status: ('A' for Active; 'I' for Inactive)
REMARK    1  A    between atoms: C1_2  and  C2_3 
REMARK    2  A    between atoms: C2_3  and  C3_4 
ROOT
ATOM      1  C3  UNL d   1      -0.038   2.602   0.743  0.00  0.00    -0.075 A 
ATOM      2  C4  UNL d   1      -0.199   1.559  -0.181  0.00  0.00     0.002 A 
ATOM      3  C5  UNL d   1      -0.455   1.835  -1.524  0.00  0.00     0.002 A 
ATOM      4  C6  UNL d   1      -0.565   3.154  -1.958  0.00  0.00    -0.004 A 
ATOM      5  C7  UNL d   1      -0.424   4.198  -1.047  0.00  0.00     0.002 A 
ATOM      6  C8  UNL d   1      -0.163   3.925   0.297  0.00  0.00     0.002 A 
ENDROOT
BRANCH   1   7
ATOM      7  C2  UNL d   1       0.269   2.311   2.192  0.00  0.00     0.056 C 
BRANCH   7   8
ATOM      8  C1  UNL d   1      -0.680   1.296   2.839  0.00  0.00     0.007 C 
ATOM      9  C   UNL d   1       0.029   0.313   3.761  0.00  0.00     0.009 C 
ENDBRANCH   7   8
ENDBRANCH   1   7
TORSDOF 2
ENDMDL
