MODEL 1
REMARK minimizedAffinity 4.05481339
REMARK minimizedRMSD -1
REMARK  2 active torsions:
REMARK  status: ('A' for Active; 'I' for Inactive)
REMARK    1  A    between atoms: C1_2  and  C2_3 
REMARK    2  A    between atoms: C2_3  and  C3_4 
ROOT
ATOM      1  C3  UNL d   1       1.836  -3.426  -2.646  0.00  0.00    -0.075 A 
ATOM      2  C4  UNL d   1       1.830  -3.487  -4.047  0.00  0.00     0.002 A 
ATOM      3  C5  UNL d   1       2.241  -4.646  -4.707  0.00  0.00     0.002 A 
ATOM      4  C6  UNL d   1       2.671  -5.751  -3.977  0.00  0.00    -0.004 A 
ATOM      5  C7  UNL d   1       2.697  -5.696  -2.585  0.00  0.00     0.002 A 
ATOM      6  C8  UNL d   1       2.282  -4.540  -1.922  0.00  0.00     0.002 A 
ENDROOT
BRANCH   1   7
ATOM      7  C2  UNL d   1       1.364  -2.186  -1.925  0.00  0.00     0.056 C 
BRANCH   7   8
ATOM      8  C1  UNL d   1       2.483  -1.190  -1.600  0.00  0.00     0.007 C 
ATOM      9  C   UNL d   1       2.897  -1.210  -0.135  0.00  0.00     0.009 C 
ENDBRANCH   7   8
ENDBRANCH   1   7
TORSDOF 2
ENDMDL
