MODEL 1
REMARK minimizedAffinity 3.46335173
REMARK minimizedRMSD -1
REMARK  2 active torsions:
REMARK  status: ('A' for Active; 'I' for Inactive)
REMARK    1  A    between atoms: C1_2  and  C2_3 
REMARK    2  A    between atoms: C2_3  and  C3_4 
ROOT
ATOM      1  C3  UNL d   1      -0.795   2.151  -0.225  0.00  0.00    -0.075 A 
ATOM      2  C4  UNL d   1       0.144   1.175  -0.588  0.00  0.00     0.002 A 
ATOM      3  C5  UNL d   1       0.267   0.770  -1.918  0.00  0.00     0.002 A 
ATOM      4  C6  UNL d   1      -0.553   1.326  -2.897  0.00  0.00    -0.004 A 
ATOM      5  C7  UNL d   1      -1.500   2.285  -2.545  0.00  0.00     0.002 A 
ATOM      6  C8  UNL d   1      -1.622   2.695  -1.217  0.00  0.00     0.002 A 
ENDROOT
BRANCH   1   7
ATOM      7  C2  UNL d   1      -0.913   2.616   1.207  0.00  0.00     0.056 C 
BRANCH   7   8
ATOM      8  C1  UNL d   1       0.341   2.360   2.050  0.00  0.00     0.007 C 
ATOM      9  C   UNL d   1       0.205   1.161   2.979  0.00  0.00     0.009 C 
ENDBRANCH   7   8
ENDBRANCH   1   7
TORSDOF 2
ENDMDL
