MODEL 1
REMARK minimizedAffinity 9.05664825
REMARK minimizedRMSD -1
REMARK  2 active torsions:
REMARK  status: ('A' for Active; 'I' for Inactive)
REMARK    1  A    between atoms: C1_2  and  C2_3 
REMARK    2  A    between atoms: C2_3  and  C3_4 
ROOT
ATOM      1  C3  UNL d   1       0.917  -1.401  -1.667  0.00  0.00    -0.075 A 
ATOM      2  C4  UNL d   1       0.877  -2.788  -1.460  0.00  0.00     0.002 A 
ATOM      3  C5  UNL d   1       2.028  -3.481  -1.083  0.00  0.00     0.002 A 
ATOM      4  C6  UNL d   1       3.232  -2.800  -0.920  0.00  0.00    -0.004 A 
ATOM      5  C7  UNL d   1       3.287  -1.425  -1.140  0.00  0.00     0.002 A 
ATOM      6  C8  UNL d   1       2.136  -0.729  -1.512  0.00  0.00     0.002 A 
ENDROOT
BRANCH   1   7
ATOM      7  C2  UNL d   1      -0.332  -0.641  -2.046  0.00  0.00     0.056 C 
BRANCH   7   8
ATOM      8  C1  UNL d   1      -0.062   0.748  -2.634  0.00  0.00     0.007 C 
ATOM      9  C   UNL d   1      -0.621   1.880  -1.782  0.00  0.00     0.009 C 
ENDBRANCH   7   8
ENDBRANCH   1   7
TORSDOF 2
ENDMDL
