MODEL 1
REMARK minimizedAffinity -2.86993647
REMARK minimizedRMSD -1
REMARK  1 active torsions:
REMARK  status: ('A' for Active; 'I' for Inactive)
REMARK    1  A    between atoms: C1_2  and  C2_3 
ROOT
ATOM      1  C2  UNL d   1       0.391  -1.084  -0.598  0.00  0.00    -0.081 A 
ATOM      2  C3  UNL d   1       0.506  -0.826   0.773  0.00  0.00     0.006 A 
ATOM      3  C4  UNL d   1      -0.064   0.323   1.328  0.00  0.00     0.002 A 
ATOM      4  C5  UNL d   1      -0.765   1.227   0.522  0.00  0.00    -0.080 A 
ATOM      5  C6  UNL d   1      -1.407   2.448   1.110  0.00  0.00     0.076 C 
ATOM      6  C7  UNL d   1      -0.865   0.978  -0.851  0.00  0.00     0.002 A 
ATOM      7  C8  UNL d   1      -0.294  -0.170  -1.406  0.00  0.00     0.006 A 
ENDROOT
BRANCH   1   8
ATOM      8  C1  UNL d   1       0.949  -2.354  -1.188  0.00  0.00     0.054 C 
ATOM      9  C   UNL d   1      -0.109  -3.447  -1.251  0.00  0.00     0.018 C 
ENDBRANCH   1   8
TORSDOF 1
ENDMDL
