MODEL 1
REMARK minimizedAffinity -5.86644459
REMARK minimizedRMSD -1
REMARK  1 active torsions:
REMARK  status: ('A' for Active; 'I' for Inactive)
REMARK    1  A    between atoms: C1_2  and  C2_3 
ROOT
ATOM      1  C2  UNL d   1       0.066  -0.291  -0.245  0.00  0.00    -0.081 A 
ATOM      2  C3  UNL d   1       0.423  -0.247   1.109  0.00  0.00     0.006 A 
ATOM      3  C4  UNL d   1       0.022   0.822   1.913  0.00  0.00     0.002 A 
ATOM      4  C5  UNL d   1      -0.749   1.860   1.381  0.00  0.00    -0.080 A 
ATOM      5  C6  UNL d   1      -1.212   2.998   2.241  0.00  0.00     0.076 C 
ATOM      6  C7  UNL d   1      -1.092   1.826   0.025  0.00  0.00     0.002 A 
ATOM      7  C8  UNL d   1      -0.690   0.758  -0.780  0.00  0.00     0.006 A 
ENDROOT
BRANCH   1   8
ATOM      8  C1  UNL d   1       0.442  -1.474  -1.099  0.00  0.00     0.054 C 
ATOM      9  C   UNL d   1      -0.681  -2.499  -1.151  0.00  0.00     0.018 C 
ENDBRANCH   1   8
TORSDOF 1
ENDMDL
