MODEL 1
REMARK minimizedAffinity -4.28743935
REMARK minimizedRMSD -1
REMARK  1 active torsions:
REMARK  status: ('A' for Active; 'I' for Inactive)
REMARK    1  A    between atoms: C1_2  and  C2_3 
ROOT
ATOM      1  C2  UNL d   1      -0.170  -0.373  -0.149  0.00  0.00    -0.081 A 
ATOM      2  C3  UNL d   1      -0.726   0.596  -0.994  0.00  0.00     0.006 A 
ATOM      3  C4  UNL d   1      -1.142   1.827  -0.482  0.00  0.00     0.002 A 
ATOM      4  C5  UNL d   1      -1.002   2.114   0.880  0.00  0.00    -0.080 A 
ATOM      5  C6  UNL d   1      -1.416   3.443   1.437  0.00  0.00     0.076 C 
ATOM      6  C7  UNL d   1      -0.463   1.140   1.727  0.00  0.00     0.002 A 
ATOM      7  C8  UNL d   1      -0.047  -0.092   1.216  0.00  0.00     0.006 A 
ENDROOT
BRANCH   1   8
ATOM      8  C1  UNL d   1       0.339  -1.676  -0.708  0.00  0.00     0.054 C 
ATOM      9  C   UNL d   1      -0.809  -2.580  -1.138  0.00  0.00     0.018 C 
ENDBRANCH   1   8
TORSDOF 1
ENDMDL
