MODEL 1
REMARK minimizedAffinity -5.26231384
REMARK minimizedRMSD -1
REMARK  1 active torsions:
REMARK  status: ('A' for Active; 'I' for Inactive)
REMARK    1  A    between atoms: C1_2  and  C2_3 
ROOT
ATOM      1  C2  UNL d   1      -0.139  -0.137   0.692  0.00  0.00    -0.081 A 
ATOM      2  C3  UNL d   1      -0.958  -1.235   0.983  0.00  0.00     0.006 A 
ATOM      3  C4  UNL d   1      -1.012  -2.328   0.114  0.00  0.00     0.002 A 
ATOM      4  C5  UNL d   1      -0.243  -2.345  -1.054  0.00  0.00    -0.080 A 
ATOM      5  C6  UNL d   1      -0.269  -3.525  -1.979  0.00  0.00     0.076 C 
ATOM      6  C7  UNL d   1       0.562  -1.240  -1.354  0.00  0.00     0.002 A 
ATOM      7  C8  UNL d   1       0.616  -0.147  -0.486  0.00  0.00     0.006 A 
ENDROOT
BRANCH   1   8
ATOM      8  C1  UNL d   1      -0.029   1.015   1.658  0.00  0.00     0.054 C 
ATOM      9  C   UNL d   1      -0.389   0.586   3.073  0.00  0.00     0.018 C 
ENDBRANCH   1   8
TORSDOF 1
ENDMDL
