MODEL 1
REMARK minimizedAffinity 5.07952452
REMARK minimizedRMSD -1
REMARK  1 active torsions:
REMARK  status: ('A' for Active; 'I' for Inactive)
REMARK    1  A    between atoms: C1_2  and  C2_3 
ROOT
ATOM      1  C2  UNL d   1      -1.262  -2.074  -1.972  0.00  0.00    -0.081 A 
ATOM      2  C3  UNL d   1      -0.127  -1.310  -2.269  0.00  0.00     0.006 A 
ATOM      3  C4  UNL d   1      -0.116   0.066  -2.026  0.00  0.00     0.002 A 
ATOM      4  C5  UNL d   1      -1.236   0.698  -1.475  0.00  0.00    -0.080 A 
ATOM      5  C6  UNL d   1      -1.226   2.169  -1.182  0.00  0.00     0.076 C 
ATOM      6  C7  UNL d   1      -2.376  -0.063  -1.195  0.00  0.00     0.002 A 
ATOM      7  C8  UNL d   1      -2.388  -1.438  -1.438  0.00  0.00     0.006 A 
ENDROOT
BRANCH   1   8
ATOM      8  C1  UNL d   1      -1.254  -3.568  -2.172  0.00  0.00     0.054 C 
ATOM      9  C   UNL d   1      -0.145  -4.229  -1.365  0.00  0.00     0.018 C 
ENDBRANCH   1   8
TORSDOF 1
ENDMDL
