MODEL 1
REMARK minimizedAffinity -5.04684019
REMARK minimizedRMSD -1
REMARK  1 active torsions:
REMARK  status: ('A' for Active; 'I' for Inactive)
REMARK    1  A    between atoms: C1_2  and  C2_3 
ROOT
ATOM      1  C2  UNL d   1       0.601  -1.280  -0.413  0.00  0.00    -0.081 A 
ATOM      2  C3  UNL d   1       1.123  -0.978   0.851  0.00  0.00     0.006 A 
ATOM      3  C4  UNL d   1       0.668   0.139   1.556  0.00  0.00     0.002 A 
ATOM      4  C5  UNL d   1      -0.320   0.968   1.012  0.00  0.00    -0.080 A 
ATOM      5  C6  UNL d   1      -0.838   2.153   1.772  0.00  0.00     0.076 C 
ATOM      6  C7  UNL d   1      -0.828   0.676  -0.258  0.00  0.00     0.002 A 
ATOM      7  C8  UNL d   1      -0.374  -0.441  -0.963  0.00  0.00     0.006 A 
ENDROOT
BRANCH   1   8
ATOM      8  C1  UNL d   1       1.042  -2.520  -1.147  0.00  0.00     0.054 C 
ATOM      9  C   UNL d   1      -0.116  -3.488  -1.345  0.00  0.00     0.018 C 
ENDBRANCH   1   8
TORSDOF 1
ENDMDL
