MODEL 1
REMARK minimizedAffinity -3.99313259
REMARK minimizedRMSD -1
REMARK  1 active torsions:
REMARK  status: ('A' for Active; 'I' for Inactive)
REMARK    1  A    between atoms: C1_2  and  C2_3 
ROOT
ATOM      1  C2  UNL d   1       0.155  -1.032  -0.448  0.00  0.00    -0.081 A 
ATOM      2  C3  UNL d   1      -0.104  -1.111   0.925  0.00  0.00     0.006 A 
ATOM      3  C4  UNL d   1      -0.542   0.013   1.629  0.00  0.00     0.002 A 
ATOM      4  C5  UNL d   1      -0.736   1.232   0.970  0.00  0.00    -0.080 A 
ATOM      5  C6  UNL d   1      -1.235   2.439   1.708  0.00  0.00     0.076 C 
ATOM      6  C7  UNL d   1      -0.460   1.316  -0.399  0.00  0.00     0.002 A 
ATOM      7  C8  UNL d   1      -0.021   0.192  -1.103  0.00  0.00     0.006 A 
ENDROOT
BRANCH   1   8
ATOM      8  C1  UNL d   1       0.565  -2.258  -1.223  0.00  0.00     0.054 C 
ATOM      9  C   UNL d   1      -0.477  -3.361  -1.106  0.00  0.00     0.018 C 
ENDBRANCH   1   8
TORSDOF 1
ENDMDL
