MODEL 1
REMARK minimizedAffinity 10.6911697
REMARK minimizedRMSD -1
REMARK  0 active torsions:
REMARK  status: ('A' for Active; 'I' for Inactive)
ROOT
ATOM      1  C   UNL d   1      -1.450  -1.891  -5.999  0.00  0.00    -0.002 A 
ATOM      2  C1  UNL d   1      -1.936  -0.609  -5.785  0.00  0.00     0.010 A 
ATOM      3  C2  UNL d   1      -3.297  -0.394  -5.561  0.00  0.00     0.041 A 
ATOM      4  C3  UNL d   1      -4.170  -1.500  -5.554  0.00  0.00    -0.075 A 
ATOM      5  S   UNL d   1      -5.875  -1.476  -5.299  0.00  0.00     0.015 SA
ATOM      6  C4  UNL d   1      -5.998  -3.168  -5.468  0.00  0.00     0.022 A 
ATOM      7  C5  UNL d   1      -4.778  -3.752  -5.713  0.00  0.00     0.026 A 
ATOM      8  C6  UNL d   1      -3.704  -2.800  -5.766  0.00  0.00    -0.082 A 
ATOM      9  C7  UNL d   1      -2.319  -2.986  -5.991  0.00  0.00     0.045 A 
ENDROOT
TORSDOF 0
ENDMDL
