MODEL 1
REMARK minimizedAffinity 15.4373932
REMARK minimizedRMSD -1
REMARK  0 active torsions:
REMARK  status: ('A' for Active; 'I' for Inactive)
ROOT
ATOM      1  C   UNL d   1      -5.362  -3.143  -1.281  0.00  0.00    -0.002 A 
ATOM      2  C1  UNL d   1      -5.779  -1.863  -1.621  0.00  0.00     0.010 A 
ATOM      3  C2  UNL d   1      -5.999  -1.520  -2.956  0.00  0.00     0.041 A 
ATOM      4  C3  UNL d   1      -5.792  -2.493  -3.954  0.00  0.00    -0.075 A 
ATOM      5  S   UNL d   1      -6.000  -2.299  -5.654  0.00  0.00     0.015 SA
ATOM      6  C4  UNL d   1      -5.541  -3.910  -5.969  0.00  0.00     0.022 A 
ATOM      7  C5  UNL d   1      -5.233  -4.593  -4.817  0.00  0.00     0.026 A 
ATOM      8  C6  UNL d   1      -5.373  -3.788  -3.636  0.00  0.00    -0.082 A 
ATOM      9  C7  UNL d   1      -5.158  -4.105  -2.273  0.00  0.00     0.045 A 
ENDROOT
TORSDOF 0
ENDMDL
