MODEL 1
REMARK minimizedAffinity 19.2210655
REMARK minimizedRMSD -1
REMARK  0 active torsions:
REMARK  status: ('A' for Active; 'I' for Inactive)
ROOT
ATOM      1  C   UNL d   1      -6.000  -1.569  -2.126  0.00  0.00    -0.002 A 
ATOM      2  C1  UNL d   1      -5.924  -2.788  -1.467  0.00  0.00     0.010 A 
ATOM      3  C2  UNL d   1      -5.662  -3.963  -2.174  0.00  0.00     0.041 A 
ATOM      4  C3  UNL d   1      -5.474  -3.891  -3.569  0.00  0.00    -0.075 A 
ATOM      5  S   UNL d   1      -5.141  -5.199  -4.641  0.00  0.00     0.015 SA
ATOM      6  C4  UNL d   1      -5.091  -4.171  -5.999  0.00  0.00     0.022 A 
ATOM      7  C5  UNL d   1      -5.321  -2.858  -5.661  0.00  0.00     0.026 A 
ATOM      8  C6  UNL d   1      -5.545  -2.675  -4.254  0.00  0.00    -0.082 A 
ATOM      9  C7  UNL d   1      -5.813  -1.502  -3.509  0.00  0.00     0.045 A 
ENDROOT
TORSDOF 0
ENDMDL
