MODEL 1
REMARK minimizedAffinity 9.55320358
REMARK minimizedRMSD -1
REMARK  0 active torsions:
REMARK  status: ('A' for Active; 'I' for Inactive)
ROOT
ATOM      1  C   UNL d   1      -1.530   0.249   2.513  0.00  0.00    -0.002 A 
ATOM      2  C1  UNL d   1      -1.218   1.209   1.560  0.00  0.00     0.010 A 
ATOM      3  C2  UNL d   1      -1.531   1.003   0.215  0.00  0.00     0.041 A 
ATOM      4  C3  UNL d   1      -2.171  -0.195  -0.159  0.00  0.00    -0.075 A 
ATOM      5  S   UNL d   1      -2.651  -0.664  -1.748  0.00  0.00     0.015 SA
ATOM      6  C4  UNL d   1      -3.282  -2.149  -1.199  0.00  0.00     0.022 A 
ATOM      7  C5  UNL d   1      -3.139  -2.300   0.160  0.00  0.00     0.026 A 
ATOM      8  C6  UNL d   1      -2.496  -1.176   0.782  0.00  0.00    -0.082 A 
ATOM      9  C7  UNL d   1      -2.165  -0.938   2.137  0.00  0.00     0.045 A 
ENDROOT
TORSDOF 0
ENDMDL
