MODEL 1
REMARK minimizedAffinity 28.4261169
REMARK minimizedRMSD -1
REMARK  0 active torsions:
REMARK  status: ('A' for Active; 'I' for Inactive)
ROOT
ATOM      1  C   UNL d   1      -3.315  -0.648   0.041  0.00  0.00    -0.002 A 
ATOM      2  C1  UNL d   1      -2.695   0.266  -0.799  0.00  0.00     0.010 A 
ATOM      3  C2  UNL d   1      -1.576   0.981  -0.367  0.00  0.00     0.041 A 
ATOM      4  C3  UNL d   1      -1.085   0.758   0.934  0.00  0.00    -0.075 A 
ATOM      5  S   UNL d   1       0.273   1.518   1.677  0.00  0.00     0.015 SA
ATOM      6  C4  UNL d   1       0.061   0.647   3.127  0.00  0.00     0.022 A 
ATOM      7  C5  UNL d   1      -1.014  -0.207   3.063  0.00  0.00     0.026 A 
ATOM      8  C6  UNL d   1      -1.692  -0.158   1.798  0.00  0.00    -0.082 A 
ATOM      9  C7  UNL d   1      -2.825  -0.866   1.332  0.00  0.00     0.045 A 
ENDROOT
TORSDOF 0
ENDMDL
