MODEL 1
REMARK minimizedAffinity 17.7440262
REMARK minimizedRMSD -1
REMARK  0 active torsions:
REMARK  status: ('A' for Active; 'I' for Inactive)
ROOT
ATOM      1  C   UNL d   1       5.996   3.675  -4.416  0.00  0.00    -0.002 A 
ATOM      2  C1  UNL d   1       5.211   3.792  -5.555  0.00  0.00     0.010 A 
ATOM      3  C2  UNL d   1       4.419   2.725  -5.984  0.00  0.00     0.041 A 
ATOM      4  C3  UNL d   1       4.426   1.529  -5.241  0.00  0.00    -0.075 A 
ATOM      5  S   UNL d   1       3.534   0.092  -5.576  0.00  0.00     0.015 SA
ATOM      6  C4  UNL d   1       4.172  -0.711  -4.215  0.00  0.00     0.022 A 
ATOM      7  C5  UNL d   1       5.046   0.083  -3.511  0.00  0.00     0.026 A 
ATOM      8  C6  UNL d   1       5.206   1.387  -4.090  0.00  0.00    -0.082 A 
ATOM      9  C7  UNL d   1       6.000   2.486  -3.682  0.00  0.00     0.045 A 
ENDROOT
TORSDOF 0
ENDMDL
