MODEL 1
REMARK minimizedAffinity 7.22499704
REMARK minimizedRMSD -1
REMARK  0 active torsions:
REMARK  status: ('A' for Active; 'I' for Inactive)
ROOT
ATOM      1  C   UNL d   1      -1.086   1.263   1.325  0.00  0.00    -0.002 A 
ATOM      2  C1  UNL d   1      -1.339   0.301   0.358  0.00  0.00     0.010 A 
ATOM      3  C2  UNL d   1      -2.600  -0.291   0.259  0.00  0.00     0.041 A 
ATOM      4  C3  UNL d   1      -3.612   0.105   1.155  0.00  0.00    -0.075 A 
ATOM      5  S   UNL d   1      -5.231  -0.483   1.221  0.00  0.00     0.015 SA
ATOM      6  C4  UNL d   1      -5.625   0.531   2.533  0.00  0.00     0.022 A 
ATOM      7  C5  UNL d   1      -4.558   1.305   2.925  0.00  0.00     0.026 A 
ATOM      8  C6  UNL d   1      -3.381   1.073   2.137  0.00  0.00    -0.082 A 
ATOM      9  C7  UNL d   1      -2.092   1.654   2.212  0.00  0.00     0.045 A 
ENDROOT
TORSDOF 0
ENDMDL
