MODEL 1
REMARK minimizedAffinity 0.269564241
REMARK minimizedRMSD -1
REMARK  0 active torsions:
REMARK  status: ('A' for Active; 'I' for Inactive)
ROOT
ATOM      1  C   UNL d   1      -5.572   0.420   2.997  0.00  0.00    -0.002 A 
ATOM      2  C1  UNL d   1      -5.944  -0.464   1.994  0.00  0.00     0.010 A 
ATOM      3  C2  UNL d   1      -5.084  -0.731   0.927  0.00  0.00     0.041 A 
ATOM      4  C3  UNL d   1      -3.831  -0.089   0.885  0.00  0.00    -0.075 A 
ATOM      5  S   UNL d   1      -2.614  -0.262  -0.324  0.00  0.00     0.015 SA
ATOM      6  C4  UNL d   1      -1.571   0.833   0.463  0.00  0.00     0.022 A 
ATOM      7  C5  UNL d   1      -2.122   1.328   1.621  0.00  0.00     0.026 A 
ATOM      8  C6  UNL d   1      -3.433   0.805   1.884  0.00  0.00    -0.082 A 
ATOM      9  C7  UNL d   1      -4.328   1.055   2.952  0.00  0.00     0.045 A 
ENDROOT
TORSDOF 0
ENDMDL
