MODEL 1
REMARK minimizedAffinity -3.57947707
REMARK minimizedRMSD -1
REMARK  0 active torsions:
REMARK  status: ('A' for Active; 'I' for Inactive)
ROOT
ATOM      1  O1  BZF d   1      -0.236  -1.563  -0.589  0.00  0.00    -0.204 OA
ATOM      2  C2  BZF d   1       0.099  -0.604   0.347  0.00  0.00     0.174 A 
ATOM      3  C3  BZF d   1      -0.483   0.576   0.053  0.00  0.00    -0.012 A 
ATOM      4  C3A BZF d   1      -1.302   0.317  -1.091  0.00  0.00    -0.107 A 
ATOM      5  C4  BZF d   1      -2.139   1.092  -1.842  0.00  0.00     0.055 A 
ATOM      6  C5  BZF d   1      -2.734   0.552  -2.938  0.00  0.00    -0.016 A 
ATOM      7  C6  BZF d   1      -2.510  -0.755  -3.316  0.00  0.00     0.022 A 
ATOM      8  C7  BZF d   1      -1.691  -1.565  -2.600  0.00  0.00     0.029 A 
ATOM      9  C7A BZF d   1      -1.115  -1.032  -1.473  0.00  0.00     0.058 A 
ENDROOT
TORSDOF 0
ENDMDL
