MODEL 1
REMARK minimizedAffinity -3.08541107
REMARK minimizedRMSD -1
REMARK  0 active torsions:
REMARK  status: ('A' for Active; 'I' for Inactive)
ROOT
ATOM      1  O1  BZF d   1       1.445   1.381  -0.198  0.00  0.00    -0.204 OA
ATOM      2  C2  BZF d   1       2.624   0.908   0.344  0.00  0.00     0.174 A 
ATOM      3  C3  BZF d   1       2.415  -0.245   1.011  0.00  0.00    -0.012 A 
ATOM      4  C3A BZF d   1       1.035  -0.558   0.799  0.00  0.00    -0.107 A 
ATOM      5  C4  BZF d   1       0.235  -1.591   1.197  0.00  0.00     0.055 A 
ATOM      6  C5  BZF d   1      -1.087  -1.561   0.882  0.00  0.00    -0.016 A 
ATOM      7  C6  BZF d   1      -1.642  -0.513   0.177  0.00  0.00     0.022 A 
ATOM      8  C7  BZF d   1      -0.887   0.532  -0.242  0.00  0.00     0.029 A 
ATOM      9  C7A BZF d   1       0.455   0.488   0.045  0.00  0.00     0.058 A 
ENDROOT
TORSDOF 0
ENDMDL
