MODEL 1
REMARK minimizedAffinity -4.59126234
REMARK minimizedRMSD -1
REMARK  0 active torsions:
REMARK  status: ('A' for Active; 'I' for Inactive)
ROOT
ATOM      1  O1  BZF d   1      -1.233  -0.968   1.312  0.00  0.00    -0.204 OA
ATOM      2  C2  BZF d   1      -0.896  -2.269   1.632  0.00  0.00     0.174 A 
ATOM      3  C3  BZF d   1       0.407  -2.503   1.374  0.00  0.00    -0.012 A 
ATOM      4  C3A BZF d   1       0.938  -1.245   0.948  0.00  0.00    -0.107 A 
ATOM      5  C4  BZF d   1       2.183  -0.832   0.566  0.00  0.00     0.055 A 
ATOM      6  C5  BZF d   1       2.352   0.446   0.138  0.00  0.00    -0.016 A 
ATOM      7  C6  BZF d   1       1.299   1.336   0.073  0.00  0.00     0.022 A 
ATOM      8  C7  BZF d   1       0.048   0.974   0.446  0.00  0.00     0.029 A 
ATOM      9  C7A BZF d   1      -0.120  -0.308   0.911  0.00  0.00     0.058 A 
ENDROOT
TORSDOF 0
ENDMDL
