MODEL 1
REMARK minimizedAffinity -3.5088954
REMARK minimizedRMSD -1
REMARK  0 active torsions:
REMARK  status: ('A' for Active; 'I' for Inactive)
ROOT
ATOM      1  O1  BZF d   1       0.371   1.309   0.512  0.00  0.00    -0.204 OA
ATOM      2  C2  BZF d   1      -0.788   0.725   0.040  0.00  0.00     0.174 A 
ATOM      3  C3  BZF d   1      -0.742  -0.615   0.185  0.00  0.00    -0.012 A 
ATOM      4  C3A BZF d   1       0.487  -0.877   0.870  0.00  0.00    -0.107 A 
ATOM      5  C4  BZF d   1       1.089  -2.020   1.313  0.00  0.00     0.055 A 
ATOM      6  C5  BZF d   1       2.322  -1.940   1.879  0.00  0.00    -0.016 A 
ATOM      7  C6  BZF d   1       2.983  -0.736   2.012  0.00  0.00     0.022 A 
ATOM      8  C7  BZF d   1       2.424   0.425   1.591  0.00  0.00     0.029 A 
ATOM      9  C7A BZF d   1       1.164   0.351   1.049  0.00  0.00     0.058 A 
ENDROOT
TORSDOF 0
ENDMDL
