MODEL 1
REMARK minimizedAffinity -5.71965408
REMARK minimizedRMSD -1
REMARK  0 active torsions:
REMARK  status: ('A' for Active; 'I' for Inactive)
ROOT
ATOM      1  O1  BZF d   1      -0.592  -0.025   0.567  0.00  0.00    -0.204 OA
ATOM      2  C2  BZF d   1      -0.528   1.197  -0.075  0.00  0.00     0.174 A 
ATOM      3  C3  BZF d   1       0.741   1.652  -0.112  0.00  0.00    -0.012 A 
ATOM      4  C3A BZF d   1       1.531   0.610   0.467  0.00  0.00    -0.107 A 
ATOM      5  C4  BZF d   1       2.870   0.464   0.697  0.00  0.00     0.055 A 
ATOM      6  C5  BZF d   1       3.311  -0.645   1.347  0.00  0.00    -0.016 A 
ATOM      7  C6  BZF d   1       2.443  -1.623   1.786  0.00  0.00     0.022 A 
ATOM      8  C7  BZF d   1       1.108  -1.525   1.577  0.00  0.00     0.029 A 
ATOM      9  C7A BZF d   1       0.662  -0.422   0.891  0.00  0.00     0.058 A 
ENDROOT
TORSDOF 0
ENDMDL
