MODEL 1
REMARK minimizedAffinity -3.34881973
REMARK minimizedRMSD -1
REMARK  0 active torsions:
REMARK  status: ('A' for Active; 'I' for Inactive)
ROOT
ATOM      1  O1  BZF d   1      -0.480   1.195   0.135  0.00  0.00    -0.204 OA
ATOM      2  C2  BZF d   1      -1.339   0.202  -0.298  0.00  0.00     0.174 A 
ATOM      3  C3  BZF d   1      -0.674  -0.955  -0.489  0.00  0.00    -0.012 A 
ATOM      4  C3A BZF d   1       0.667  -0.693  -0.066  0.00  0.00    -0.107 A 
ATOM      5  C4  BZF d   1       1.797  -1.458  -0.000  0.00  0.00     0.055 A 
ATOM      6  C5  BZF d   1       2.963  -0.880   0.390  0.00  0.00    -0.016 A 
ATOM      7  C6  BZF d   1       3.037   0.458   0.716  0.00  0.00     0.022 A 
ATOM      8  C7  BZF d   1       1.942   1.256   0.671  0.00  0.00     0.029 A 
ATOM      9  C7A BZF d   1       0.755   0.667   0.309  0.00  0.00     0.058 A 
ENDROOT
TORSDOF 0
ENDMDL
