MODEL 1
REMARK minimizedAffinity -1.3566556
REMARK minimizedRMSD -1
REMARK  0 active torsions:
REMARK  status: ('A' for Active; 'I' for Inactive)
ROOT
ATOM      1  O1  BZF d   1       1.811  -1.477   1.149  0.00  0.00    -0.204 OA
ATOM      2  C2  BZF d   1       2.872  -0.626   0.906  0.00  0.00     0.174 A 
ATOM      3  C3  BZF d   1       2.441   0.534   0.369  0.00  0.00    -0.012 A 
ATOM      4  C3A BZF d   1       1.014   0.435   0.355  0.00  0.00    -0.107 A 
ATOM      5  C4  BZF d   1       0.018   1.278  -0.048  0.00  0.00     0.055 A 
ATOM      6  C5  BZF d   1      -1.271   0.850   0.004  0.00  0.00    -0.016 A 
ATOM      7  C6  BZF d   1      -1.599  -0.414   0.447  0.00  0.00     0.022 A 
ATOM      8  C7  BZF d   1      -0.647  -1.284   0.862  0.00  0.00     0.029 A 
ATOM      9  C7A BZF d   1       0.654  -0.843   0.842  0.00  0.00     0.058 A 
ENDROOT
TORSDOF 0
ENDMDL
