MODEL 1
REMARK minimizedAffinity -4.65766573
REMARK minimizedRMSD -1
REMARK  0 active torsions:
REMARK  status: ('A' for Active; 'I' for Inactive)
ROOT
ATOM      1  C   UNL d   1      -1.356   3.568   0.772  0.00  0.00    -0.002 A 
ATOM      2  C1  UNL d   1      -1.426   3.531  -0.613  0.00  0.00     0.010 A 
ATOM      3  C2  UNL d   1      -0.852   2.475  -1.325  0.00  0.00     0.041 A 
ATOM      4  C3  UNL d   1      -0.203   1.447  -0.613  0.00  0.00    -0.075 A 
ATOM      5  S   UNL d   1       0.570   0.054  -1.273  0.00  0.00     0.015 SA
ATOM      6  C4  UNL d   1       1.010  -0.524   0.269  0.00  0.00     0.022 A 
ATOM      7  C5  UNL d   1       0.585   0.312   1.274  0.00  0.00     0.026 A 
ATOM      8  C6  UNL d   1      -0.121   1.462   0.782  0.00  0.00    -0.082 A 
ATOM      9  C7  UNL d   1      -0.712   2.546   1.475  0.00  0.00     0.045 A 
ENDROOT
TORSDOF 0
ENDMDL
