MODEL 1
REMARK minimizedAffinity -0.524796605
REMARK minimizedRMSD -1
REMARK  0 active torsions:
REMARK  status: ('A' for Active; 'I' for Inactive)
ROOT
ATOM      1  C   UNL d   1      -0.561   0.885   1.915  0.00  0.00    -0.002 A 
ATOM      2  C1  UNL d   1      -1.301   1.786   1.163  0.00  0.00     0.010 A 
ATOM      3  C2  UNL d   1      -1.115   1.882  -0.217  0.00  0.00     0.041 A 
ATOM      4  C3  UNL d   1      -0.163   1.047  -0.835  0.00  0.00    -0.075 A 
ATOM      5  S   UNL d   1       0.235   0.988  -2.512  0.00  0.00     0.015 SA
ATOM      6  C4  UNL d   1       1.397  -0.235  -2.269  0.00  0.00     0.022 A 
ATOM      7  C5  UNL d   1       1.493  -0.601  -0.947  0.00  0.00     0.026 A 
ATOM      8  C6  UNL d   1       0.594   0.131  -0.099  0.00  0.00    -0.082 A 
ATOM      9  C7  UNL d   1       0.382   0.059   1.299  0.00  0.00     0.045 A 
ENDROOT
TORSDOF 0
ENDMDL
