MODEL 1
REMARK minimizedAffinity -4.63881969
REMARK minimizedRMSD -1
REMARK  0 active torsions:
REMARK  status: ('A' for Active; 'I' for Inactive)
ROOT
ATOM      1  C   UNL d   1      -1.591   3.596   0.001  0.00  0.00    -0.002 A 
ATOM      2  C1  UNL d   1      -1.389   3.241   1.327  0.00  0.00     0.010 A 
ATOM      3  C2  UNL d   1      -0.630   2.115   1.653  0.00  0.00     0.041 A 
ATOM      4  C3  UNL d   1      -0.071   1.346   0.614  0.00  0.00    -0.075 A 
ATOM      5  S   UNL d   1       0.895  -0.073   0.774  0.00  0.00     0.015 SA
ATOM      6  C4  UNL d   1       1.063  -0.240  -0.914  0.00  0.00     0.022 A 
ATOM      7  C5  UNL d   1       0.405   0.754  -1.598  0.00  0.00     0.026 A 
ATOM      8  C6  UNL d   1      -0.259   1.685  -0.729  0.00  0.00    -0.082 A 
ATOM      9  C7  UNL d   1      -1.034   2.831  -1.027  0.00  0.00     0.045 A 
ENDROOT
TORSDOF 0
ENDMDL
