MODEL 1
REMARK minimizedAffinity -2.99538183
REMARK minimizedRMSD -1
REMARK  0 active torsions:
REMARK  status: ('A' for Active; 'I' for Inactive)
ROOT
ATOM      1  C   UNL d   1      -0.404   2.703   1.488  0.00  0.00    -0.002 A 
ATOM      2  C1  UNL d   1      -0.323   3.362   0.270  0.00  0.00     0.010 A 
ATOM      3  C2  UNL d   1       0.077   2.682  -0.882  0.00  0.00     0.041 A 
ATOM      4  C3  UNL d   1       0.396   1.313  -0.788  0.00  0.00    -0.075 A 
ATOM      5  S   UNL d   1       0.908   0.275  -2.066  0.00  0.00     0.015 SA
ATOM      6  C4  UNL d   1       1.032  -1.069  -1.025  0.00  0.00     0.022 A 
ATOM      7  C5  UNL d   1       0.694  -0.752   0.269  0.00  0.00     0.026 A 
ATOM      8  C6  UNL d   1       0.322   0.626   0.427  0.00  0.00    -0.082 A 
ATOM      9  C7  UNL d   1      -0.086   1.345   1.577  0.00  0.00     0.045 A 
ENDROOT
TORSDOF 0
ENDMDL
