MODEL 1
REMARK minimizedAffinity -1.18497276
REMARK minimizedRMSD -1
REMARK  0 active torsions:
REMARK  status: ('A' for Active; 'I' for Inactive)
ROOT
ATOM      1  C   UNL d   1       0.033   2.042   2.111  0.00  0.00    -0.002 A 
ATOM      2  C1  UNL d   1      -1.304   2.146   1.755  0.00  0.00     0.010 A 
ATOM      3  C2  UNL d   1      -1.826   1.368   0.719  0.00  0.00     0.041 A 
ATOM      4  C3  UNL d   1      -0.973   0.474   0.042  0.00  0.00    -0.075 A 
ATOM      5  S   UNL d   1      -1.392  -0.579  -1.258  0.00  0.00     0.015 SA
ATOM      6  C4  UNL d   1       0.194  -1.192  -1.370  0.00  0.00     0.022 A 
ATOM      7  C5  UNL d   1       1.036  -0.619  -0.446  0.00  0.00     0.026 A 
ATOM      8  C6  UNL d   1       0.376   0.351   0.383  0.00  0.00    -0.082 A 
ATOM      9  C7  UNL d   1       0.876   1.153   1.437  0.00  0.00     0.045 A 
ENDROOT
TORSDOF 0
ENDMDL
