MODEL 1
REMARK minimizedAffinity -0.211761102
REMARK minimizedRMSD -1
REMARK  0 active torsions:
REMARK  status: ('A' for Active; 'I' for Inactive)
ROOT
ATOM      1  C   UNL d   1       0.332   0.962  -2.660  0.00  0.00    -0.002 A 
ATOM      2  C1  UNL d   1      -0.456   2.103  -2.611  0.00  0.00     0.010 A 
ATOM      3  C2  UNL d   1      -0.911   2.601  -1.388  0.00  0.00     0.041 A 
ATOM      4  C3  UNL d   1      -0.556   1.926  -0.204  0.00  0.00    -0.075 A 
ATOM      5  S   UNL d   1      -0.997   2.352   1.407  0.00  0.00     0.015 SA
ATOM      6  C4  UNL d   1      -0.150   1.030   2.069  0.00  0.00     0.022 A 
ATOM      7  C5  UNL d   1       0.461   0.271   1.099  0.00  0.00     0.026 A 
ATOM      8  C6  UNL d   1       0.237   0.775  -0.227  0.00  0.00    -0.082 A 
ATOM      9  C7  UNL d   1       0.682   0.296  -1.483  0.00  0.00     0.045 A 
ENDROOT
TORSDOF 0
ENDMDL
