MODEL 1
REMARK minimizedAffinity 3.05240345
REMARK minimizedRMSD -1
REMARK  0 active torsions:
REMARK  status: ('A' for Active; 'I' for Inactive)
ROOT
ATOM      1  C   UNL d   1      -4.243  -0.523   5.803  0.00  0.00     0.077 C 
ATOM      2  C1  UNL d   1      -4.562   0.703   5.000  0.00  0.00    -0.074 A 
ATOM      3  C2  UNL d   1      -5.376   1.713   5.523  0.00  0.00    -0.005 A 
ATOM      4  C3  UNL d   1      -5.656   2.852   4.768  0.00  0.00     0.006 A 
ATOM      5  C4  UNL d   1      -5.126   2.992   3.484  0.00  0.00    -0.005 A 
ATOM      6  C5  UNL d   1      -4.309   1.993   2.945  0.00  0.00    -0.074 A 
ATOM      7  C6  UNL d   1      -3.723   2.132   1.572  0.00  0.00     0.077 C 
ATOM      8  C7  UNL d   1      -4.027   0.854   3.713  0.00  0.00    -0.001 A 
ENDROOT
TORSDOF 0
ENDMDL
