MODEL 1
REMARK minimizedAffinity 9.50924015
REMARK minimizedRMSD -1
REMARK  0 active torsions:
REMARK  status: ('A' for Active; 'I' for Inactive)
ROOT
ATOM      1  C   UNL d   1       1.019  -0.805  -4.561  0.00  0.00     0.077 C 
ATOM      2  C1  UNL d   1      -0.377  -1.043  -5.054  0.00  0.00    -0.074 A 
ATOM      3  C2  UNL d   1      -1.244   0.026  -5.301  0.00  0.00    -0.005 A 
ATOM      4  C3  UNL d   1      -2.537  -0.211  -5.769  0.00  0.00     0.006 A 
ATOM      5  C4  UNL d   1      -2.975  -1.516  -5.993  0.00  0.00    -0.005 A 
ATOM      6  C5  UNL d   1      -2.122  -2.598  -5.753  0.00  0.00    -0.074 A 
ATOM      7  C6  UNL d   1      -2.573  -4.007  -5.999  0.00  0.00     0.077 C 
ATOM      8  C7  UNL d   1      -0.822  -2.352  -5.290  0.00  0.00    -0.001 A 
ENDROOT
TORSDOF 0
ENDMDL
