MODEL 1
REMARK minimizedAffinity 2.17076135
REMARK minimizedRMSD -1
REMARK  0 active torsions:
REMARK  status: ('A' for Active; 'I' for Inactive)
ROOT
ATOM      1  C   UNL d   1      -5.999   1.609   5.285  0.00  0.00     0.077 C 
ATOM      2  C1  UNL d   1      -5.238   1.746   4.000  0.00  0.00    -0.074 A 
ATOM      3  C2  UNL d   1      -4.964   3.006   3.458  0.00  0.00    -0.005 A 
ATOM      4  C3  UNL d   1      -4.246   3.118   2.267  0.00  0.00     0.006 A 
ATOM      5  C4  UNL d   1      -3.796   1.973   1.608  0.00  0.00    -0.005 A 
ATOM      6  C5  UNL d   1      -4.060   0.705   2.135  0.00  0.00    -0.074 A 
ATOM      7  C6  UNL d   1      -3.576  -0.535   1.444  0.00  0.00     0.077 C 
ATOM      8  C7  UNL d   1      -4.776   0.601   3.336  0.00  0.00    -0.001 A 
ENDROOT
TORSDOF 0
ENDMDL
