MODEL 1
REMARK minimizedAffinity 0.493563116
REMARK minimizedRMSD -1
REMARK  0 active torsions:
REMARK  status: ('A' for Active; 'I' for Inactive)
ROOT
ATOM      1  C   UNL d   1      -1.189  -0.048  -5.974  0.00  0.00     0.077 C 
ATOM      2  C1  UNL d   1      -2.207  -1.150  -5.989  0.00  0.00    -0.074 A 
ATOM      3  C2  UNL d   1      -1.813  -2.492  -5.995  0.00  0.00    -0.005 A 
ATOM      4  C3  UNL d   1      -2.771  -3.506  -6.000  0.00  0.00     0.006 A 
ATOM      5  C4  UNL d   1      -4.130  -3.188  -5.999  0.00  0.00    -0.005 A 
ATOM      6  C5  UNL d   1      -4.542  -1.852  -5.992  0.00  0.00    -0.074 A 
ATOM      7  C6  UNL d   1      -5.999  -1.494  -5.980  0.00  0.00     0.077 C 
ATOM      8  C7  UNL d   1      -3.574  -0.839  -5.980  0.00  0.00    -0.001 A 
ENDROOT
TORSDOF 0
ENDMDL
