MODEL 1
REMARK minimizedAffinity 13.7928047
REMARK minimizedRMSD -1
REMARK  0 active torsions:
REMARK  status: ('A' for Active; 'I' for Inactive)
ROOT
ATOM      1  C   UNL d   1      -6.000   5.281   5.871  0.00  0.00     0.077 C 
ATOM      2  C1  UNL d   1      -5.696   3.930   5.294  0.00  0.00    -0.074 A 
ATOM      3  C2  UNL d   1      -6.000   2.762   6.000  0.00  0.00    -0.005 A 
ATOM      4  C3  UNL d   1      -5.720   1.512   5.446  0.00  0.00     0.006 A 
ATOM      5  C4  UNL d   1      -5.135   1.419   4.183  0.00  0.00    -0.005 A 
ATOM      6  C5  UNL d   1      -4.824   2.576   3.462  0.00  0.00    -0.074 A 
ATOM      7  C6  UNL d   1      -4.204   2.493   2.099  0.00  0.00     0.077 C 
ATOM      8  C7  UNL d   1      -5.115   3.828   4.022  0.00  0.00    -0.001 A 
ENDROOT
TORSDOF 0
ENDMDL
