MODEL 1
REMARK minimizedAffinity 5.09612513
REMARK minimizedRMSD -1
REMARK  0 active torsions:
REMARK  status: ('A' for Active; 'I' for Inactive)
ROOT
ATOM      1  C   UNL d   1      -4.164  -4.493  -6.000  0.00  0.00     0.077 C 
ATOM      2  C1  UNL d   1      -3.107  -3.429  -5.989  0.00  0.00    -0.074 A 
ATOM      3  C2  UNL d   1      -1.750  -3.765  -5.996  0.00  0.00    -0.005 A 
ATOM      4  C3  UNL d   1      -0.778  -2.764  -5.995  0.00  0.00     0.006 A 
ATOM      5  C4  UNL d   1      -1.153  -1.420  -5.987  0.00  0.00    -0.005 A 
ATOM      6  C5  UNL d   1      -2.506  -1.066  -5.980  0.00  0.00    -0.074 A 
ATOM      7  C6  UNL d   1      -2.927   0.374  -5.981  0.00  0.00     0.077 C 
ATOM      8  C7  UNL d   1      -3.477  -2.077  -5.988  0.00  0.00    -0.001 A 
ENDROOT
TORSDOF 0
ENDMDL
