MODEL 1
REMARK minimizedAffinity 6.62249517
REMARK minimizedRMSD -1
REMARK  0 active torsions:
REMARK  status: ('A' for Active; 'I' for Inactive)
ROOT
ATOM      1  C   UNL d   1      -1.100  -1.519  -5.970  0.00  0.00     0.077 C 
ATOM      2  C1  UNL d   1      -2.587  -1.710  -5.906  0.00  0.00    -0.074 A 
ATOM      3  C2  UNL d   1      -3.448  -0.614  -5.794  0.00  0.00    -0.005 A 
ATOM      4  C3  UNL d   1      -4.829  -0.806  -5.746  0.00  0.00     0.006 A 
ATOM      5  C4  UNL d   1      -5.361  -2.095  -5.809  0.00  0.00    -0.005 A 
ATOM      6  C5  UNL d   1      -4.515  -3.203  -5.921  0.00  0.00    -0.074 A 
ATOM      7  C6  UNL d   1      -5.072  -4.593  -6.000  0.00  0.00     0.077 C 
ATOM      8  C7  UNL d   1      -3.130  -3.001  -5.976  0.00  0.00    -0.001 A 
ENDROOT
TORSDOF 0
ENDMDL
