MODEL 1
REMARK minimizedAffinity 0.16460754
REMARK minimizedRMSD -1
REMARK  0 active torsions:
REMARK  status: ('A' for Active; 'I' for Inactive)
ROOT
ATOM      1  C   UNL d   1      -1.175  -2.596  -6.000  0.00  0.00     0.077 C 
ATOM      2  C1  UNL d   1      -2.648  -2.311  -5.992  0.00  0.00    -0.074 A 
ATOM      3  C2  UNL d   1      -3.125  -0.997  -5.998  0.00  0.00    -0.005 A 
ATOM      4  C3  UNL d   1      -4.498  -0.748  -6.000  0.00  0.00     0.006 A 
ATOM      5  C4  UNL d   1      -5.405  -1.808  -5.997  0.00  0.00    -0.005 A 
ATOM      6  C5  UNL d   1      -4.945  -3.129  -5.992  0.00  0.00    -0.074 A 
ATOM      7  C6  UNL d   1      -5.907  -4.280  -5.999  0.00  0.00     0.077 C 
ATOM      8  C7  UNL d   1      -3.565  -3.372  -5.997  0.00  0.00    -0.001 A 
ENDROOT
TORSDOF 0
ENDMDL
