MODEL 1
REMARK minimizedAffinity 1.84221613
REMARK minimizedRMSD -1
REMARK  0 active torsions:
REMARK  status: ('A' for Active; 'I' for Inactive)
ROOT
ATOM      1  C   UNL d   1      -4.468  -1.484   6.000  0.00  0.00     0.077 C 
ATOM      2  C1  UNL d   1      -4.675  -0.332   5.062  0.00  0.00    -0.074 A 
ATOM      3  C2  UNL d   1      -5.364   0.814   5.472  0.00  0.00    -0.005 A 
ATOM      4  C3  UNL d   1      -5.540   1.881   4.592  0.00  0.00     0.006 A 
ATOM      5  C4  UNL d   1      -5.030   1.814   3.295  0.00  0.00    -0.005 A 
ATOM      6  C5  UNL d   1      -4.338   0.677   2.867  0.00  0.00    -0.074 A 
ATOM      7  C6  UNL d   1      -3.775   0.592   1.480  0.00  0.00     0.077 C 
ATOM      8  C7  UNL d   1      -4.159  -0.389   3.760  0.00  0.00    -0.001 A 
ENDROOT
TORSDOF 0
ENDMDL
