MODEL 1
REMARK minimizedAffinity 4.01820326
REMARK minimizedRMSD -1
REMARK  0 active torsions:
REMARK  status: ('A' for Active; 'I' for Inactive)
ROOT
ATOM      1  C   UNL d   1      -5.776  -3.013  -5.973  0.00  0.00     0.077 C 
ATOM      2  C1  UNL d   1      -4.286  -2.843  -5.975  0.00  0.00    -0.074 A 
ATOM      3  C2  UNL d   1      -3.435  -3.953  -5.987  0.00  0.00    -0.005 A 
ATOM      4  C3  UNL d   1      -2.051  -3.778  -5.999  0.00  0.00     0.006 A 
ATOM      5  C4  UNL d   1      -1.505  -2.494  -5.997  0.00  0.00    -0.005 A 
ATOM      6  C5  UNL d   1      -2.340  -1.372  -5.986  0.00  0.00    -0.074 A 
ATOM      7  C6  UNL d   1      -1.769   0.015  -5.995  0.00  0.00     0.077 C 
ATOM      8  C7  UNL d   1      -3.729  -1.556  -5.982  0.00  0.00    -0.001 A 
ENDROOT
TORSDOF 0
ENDMDL
