MODEL 1
REMARK minimizedAffinity 6.22833729
REMARK minimizedRMSD -1
REMARK  0 active torsions:
REMARK  status: ('A' for Active; 'I' for Inactive)
ROOT
ATOM      1  C   UNL d   1      -3.699  -0.916   4.280  0.00  0.00     0.077 C 
ATOM      2  C1  UNL d   1      -3.939   0.469   3.756  0.00  0.00    -0.074 A 
ATOM      3  C2  UNL d   1      -3.343   0.900   2.566  0.00  0.00    -0.005 A 
ATOM      4  C3  UNL d   1      -3.583   2.187   2.086  0.00  0.00     0.006 A 
ATOM      5  C4  UNL d   1      -4.420   3.055   2.789  0.00  0.00    -0.005 A 
ATOM      6  C5  UNL d   1      -5.025   2.641   3.980  0.00  0.00    -0.074 A 
ATOM      7  C6  UNL d   1      -5.935   3.557   4.742  0.00  0.00     0.077 C 
ATOM      8  C7  UNL d   1      -4.785   1.343   4.452  0.00  0.00    -0.001 A 
ENDROOT
TORSDOF 0
ENDMDL
