MODEL 1
REMARK minimizedAffinity 0.754380047
REMARK minimizedRMSD -1
REMARK  0 active torsions:
REMARK  status: ('A' for Active; 'I' for Inactive)
ROOT
ATOM      1  C   UNL d   1       5.973  -0.296   5.633  0.00  0.00     0.077 C 
ATOM      2  C1  UNL d   1       5.854  -1.639   4.976  0.00  0.00    -0.074 A 
ATOM      3  C2  UNL d   1       5.642  -1.749   3.598  0.00  0.00    -0.005 A 
ATOM      4  C3  UNL d   1       5.542  -3.004   2.999  0.00  0.00     0.006 A 
ATOM      5  C4  UNL d   1       5.654  -4.162   3.771  0.00  0.00    -0.005 A 
ATOM      6  C5  UNL d   1       5.867  -4.072   5.150  0.00  0.00    -0.074 A 
ATOM      7  C6  UNL d   1       5.998  -5.306   5.993  0.00  0.00     0.077 C 
ATOM      8  C7  UNL d   1       5.972  -2.806   5.743  0.00  0.00    -0.001 A 
ENDROOT
TORSDOF 0
ENDMDL
