MODEL 1
REMARK minimizedAffinity 2.11200905
REMARK minimizedRMSD -1
REMARK  0 active torsions:
REMARK  status: ('A' for Active; 'I' for Inactive)
ROOT
ATOM      1  C   UNL d   1      -0.956  -0.772  -5.927  0.00  0.00     0.077 C 
ATOM      2  C1  UNL d   1      -2.194  -1.617  -5.959  0.00  0.00    -0.074 A 
ATOM      3  C2  UNL d   1      -2.111  -3.013  -5.980  0.00  0.00    -0.005 A 
ATOM      4  C3  UNL d   1      -3.272  -3.787  -6.000  0.00  0.00     0.006 A 
ATOM      5  C4  UNL d   1      -4.525  -3.173  -5.999  0.00  0.00    -0.005 A 
ATOM      6  C5  UNL d   1      -4.628  -1.778  -5.978  0.00  0.00    -0.074 A 
ATOM      7  C6  UNL d   1      -5.967  -1.103  -5.968  0.00  0.00     0.077 C 
ATOM      8  C7  UNL d   1      -3.457  -1.008  -5.951  0.00  0.00    -0.001 A 
ENDROOT
TORSDOF 0
ENDMDL
