MODEL 1
REMARK minimizedAffinity 4.48596859
REMARK minimizedRMSD -1
REMARK  0 active torsions:
REMARK  status: ('A' for Active; 'I' for Inactive)
ROOT
ATOM      1  C   UNL d   1      -3.151  -3.376  -5.999  0.00  0.00     0.077 C 
ATOM      2  C1  UNL d   1      -2.515  -2.050  -5.700  0.00  0.00    -0.074 A 
ATOM      3  C2  UNL d   1      -3.175  -0.853  -5.996  0.00  0.00    -0.005 A 
ATOM      4  C3  UNL d   1      -2.576   0.371  -5.704  0.00  0.00     0.006 A 
ATOM      5  C4  UNL d   1      -1.312   0.412  -5.114  0.00  0.00    -0.005 A 
ATOM      6  C5  UNL d   1      -0.637  -0.775  -4.810  0.00  0.00    -0.074 A 
ATOM      7  C6  UNL d   1       0.718  -0.749  -4.166  0.00  0.00     0.077 C 
ATOM      8  C7  UNL d   1      -1.249  -2.001  -5.100  0.00  0.00    -0.001 A 
ENDROOT
TORSDOF 0
ENDMDL
