MODEL 1
REMARK minimizedAffinity 7.19136858
REMARK minimizedRMSD -1
REMARK  0 active torsions:
REMARK  status: ('A' for Active; 'I' for Inactive)
ROOT
ATOM      1  C   UNL d   1      -5.999  -1.802  -5.979  0.00  0.00     0.077 C 
ATOM      2  C1  UNL d   1      -4.502  -1.709  -5.991  0.00  0.00    -0.074 A 
ATOM      3  C2  UNL d   1      -3.858  -0.467  -5.988  0.00  0.00    -0.005 A 
ATOM      4  C3  UNL d   1      -2.465  -0.397  -5.989  0.00  0.00     0.006 A 
ATOM      5  C4  UNL d   1      -1.703  -1.566  -5.995  0.00  0.00    -0.005 A 
ATOM      6  C5  UNL d   1      -2.328  -2.816  -5.997  0.00  0.00    -0.074 A 
ATOM      7  C6  UNL d   1      -1.524  -4.082  -5.993  0.00  0.00     0.077 C 
ATOM      8  C7  UNL d   1      -3.728  -2.879  -5.988  0.00  0.00    -0.001 A 
ENDROOT
TORSDOF 0
ENDMDL
