MODEL 1
REMARK minimizedAffinity 3.17409444
REMARK minimizedRMSD -1
REMARK  0 active torsions:
REMARK  status: ('A' for Active; 'I' for Inactive)
ROOT
ATOM      1  C   UNL d   1      -1.427   1.097   1.879  0.00  0.00     0.077 C 
ATOM      2  C1  UNL d   1      -2.811   1.583   2.192  0.00  0.00    -0.074 A 
ATOM      3  C2  UNL d   1      -3.458   2.497   1.354  0.00  0.00    -0.005 A 
ATOM      4  C3  UNL d   1      -4.749   2.933   1.653  0.00  0.00     0.006 A 
ATOM      5  C4  UNL d   1      -5.405   2.460   2.791  0.00  0.00    -0.005 A 
ATOM      6  C5  UNL d   1      -4.774   1.545   3.639  0.00  0.00    -0.074 A 
ATOM      7  C6  UNL d   1      -5.468   1.019   4.861  0.00  0.00     0.077 C 
ATOM      8  C7  UNL d   1      -3.479   1.107   3.328  0.00  0.00    -0.001 A 
ENDROOT
TORSDOF 0
ENDMDL
