MODEL 1
REMARK minimizedAffinity 8.65056133
REMARK minimizedRMSD -1
REMARK  0 active torsions:
REMARK  status: ('A' for Active; 'I' for Inactive)
ROOT
ATOM      1  C   UNL d   1      -5.125   2.232   1.921  0.00  0.00     0.077 C 
ATOM      2  C1  UNL d   1      -5.437   2.697   3.312  0.00  0.00    -0.074 A 
ATOM      3  C2  UNL d   1      -5.660   1.779   4.344  0.00  0.00    -0.005 A 
ATOM      4  C3  UNL d   1      -5.940   2.227   5.635  0.00  0.00     0.006 A 
ATOM      5  C4  UNL d   1      -5.999   3.594   5.907  0.00  0.00    -0.005 A 
ATOM      6  C5  UNL d   1      -5.778   4.527   4.889  0.00  0.00    -0.074 A 
ATOM      7  C6  UNL d   1      -5.829   6.000   5.167  0.00  0.00     0.077 C 
ATOM      8  C7  UNL d   1      -5.491   4.069   3.596  0.00  0.00    -0.001 A 
ENDROOT
TORSDOF 0
ENDMDL
