MODEL 1
REMARK minimizedAffinity 7.71708965
REMARK minimizedRMSD -1
REMARK  0 active torsions:
REMARK  status: ('A' for Active; 'I' for Inactive)
ROOT
ATOM      1  C   UNL d   1      -5.892   5.675   5.991  0.00  0.00     0.077 C 
ATOM      2  C1  UNL d   1      -5.922   4.355   5.281  0.00  0.00    -0.074 A 
ATOM      3  C2  UNL d   1      -5.951   3.154   5.998  0.00  0.00    -0.005 A 
ATOM      4  C3  UNL d   1      -5.988   1.933   5.323  0.00  0.00     0.006 A 
ATOM      5  C4  UNL d   1      -5.997   1.901   3.928  0.00  0.00    -0.005 A 
ATOM      6  C5  UNL d   1      -5.969   3.092   3.195  0.00  0.00    -0.074 A 
ATOM      7  C6  UNL d   1      -5.987   3.075   1.695  0.00  0.00     0.077 C 
ATOM      8  C7  UNL d   1      -5.939   4.314   3.880  0.00  0.00    -0.001 A 
ENDROOT
TORSDOF 0
ENDMDL
