MODEL 1
REMARK minimizedAffinity 0.752058029
REMARK minimizedRMSD -1
REMARK  0 active torsions:
REMARK  status: ('A' for Active; 'I' for Inactive)
ROOT
ATOM      1  C1  DEN d   1       0.400  -2.383   1.536  0.00  0.00     0.130 A 
ATOM      2  C2  DEN d   1       0.044  -2.069   2.917  0.00  0.00    -0.031 A 
ATOM      3  C3  DEN d   1      -0.443  -0.675   2.957  0.00  0.00     0.027 A 
ATOM      4  C4  DEN d   1      -0.686   1.015   1.025  0.00  0.00     0.027 A 
ATOM      5  C5  DEN d   1      -0.500   1.210  -0.326  0.00  0.00    -0.003 A 
ATOM      6  C6  DEN d   1       0.027   0.241  -1.138  0.00  0.00     0.001 A 
ATOM      7  C7  DEN d   1       0.343  -0.985  -0.615  0.00  0.00     0.017 A 
ATOM      8  C8  DEN d   1       0.166  -1.186   0.748  0.00  0.00    -0.094 A 
ATOM      9  C9  DEN d   1      -0.379  -0.198   1.550  0.00  0.00    -0.072 A 
ENDROOT
TORSDOF 0
ENDMDL
