MODEL 1
REMARK minimizedAffinity -3.82466912
REMARK minimizedRMSD -1
REMARK  0 active torsions:
REMARK  status: ('A' for Active; 'I' for Inactive)
ROOT
ATOM      1  C1  DEN d   1       1.129  -0.720  -1.470  0.00  0.00     0.130 A 
ATOM      2  C2  DEN d   1       0.269   0.236  -2.163  0.00  0.00    -0.031 A 
ATOM      3  C3  DEN d   1      -0.667   0.809  -1.175  0.00  0.00     0.027 A 
ATOM      4  C4  DEN d   1      -0.864   0.315   1.349  0.00  0.00     0.027 A 
ATOM      5  C5  DEN d   1      -0.358  -0.432   2.390  0.00  0.00    -0.003 A 
ATOM      6  C6  DEN d   1       0.648  -1.345   2.212  0.00  0.00     0.001 A 
ATOM      7  C7  DEN d   1       1.211  -1.501   0.973  0.00  0.00     0.017 A 
ATOM      8  C8  DEN d   1       0.701  -0.757  -0.083  0.00  0.00    -0.094 A 
ATOM      9  C9  DEN d   1      -0.308   0.169   0.120  0.00  0.00    -0.072 A 
ENDROOT
TORSDOF 0
ENDMDL
