MODEL 1
REMARK minimizedAffinity 6.90353489
REMARK minimizedRMSD -1
REMARK  0 active torsions:
REMARK  status: ('A' for Active; 'I' for Inactive)
ROOT
ATOM      1  C1  DEN d   1      -1.275   0.636  -0.260  0.00  0.00     0.130 A 
ATOM      2  C2  DEN d   1      -0.376  -0.058  -1.178  0.00  0.00    -0.031 A 
ATOM      3  C3  DEN d   1       0.524  -0.912  -0.376  0.00  0.00     0.027 A 
ATOM      4  C4  DEN d   1       0.607  -1.230   2.182  0.00  0.00     0.027 A 
ATOM      5  C5  DEN d   1       0.049  -0.842   3.380  0.00  0.00    -0.003 A 
ATOM      6  C6  DEN d   1      -0.959   0.083   3.451  0.00  0.00     0.001 A 
ATOM      7  C7  DEN d   1      -1.471   0.618   2.298  0.00  0.00     0.017 A 
ATOM      8  C8  DEN d   1      -0.908   0.238   1.087  0.00  0.00    -0.094 A 
ATOM      9  C9  DEN d   1       0.102  -0.707   1.036  0.00  0.00    -0.072 A 
ENDROOT
TORSDOF 0
ENDMDL
