MODEL 1
REMARK minimizedAffinity 0.409627795
REMARK minimizedRMSD -1
REMARK  0 active torsions:
REMARK  status: ('A' for Active; 'I' for Inactive)
ROOT
ATOM      1  C1  DEN d   1      -0.624   0.548  -2.194  0.00  0.00     0.130 A 
ATOM      2  C2  DEN d   1      -1.756   0.991  -1.385  0.00  0.00    -0.031 A 
ATOM      3  C3  DEN d   1      -1.456   0.685   0.028  0.00  0.00     0.027 A 
ATOM      4  C4  DEN d   1       0.645  -0.421   1.037  0.00  0.00     0.027 A 
ATOM      5  C5  DEN d   1       1.869  -0.980   0.744  0.00  0.00    -0.003 A 
ATOM      6  C6  DEN d   1       2.330  -1.098  -0.540  0.00  0.00     0.001 A 
ATOM      7  C7  DEN d   1       1.581  -0.610  -1.578  0.00  0.00     0.017 A 
ATOM      8  C8  DEN d   1       0.342  -0.052  -1.292  0.00  0.00    -0.094 A 
ATOM      9  C9  DEN d   1      -0.101   0.069   0.015  0.00  0.00    -0.072 A 
ENDROOT
TORSDOF 0
ENDMDL
