MODEL 1
REMARK minimizedAffinity -3.61930394
REMARK minimizedRMSD -1
REMARK  0 active torsions:
REMARK  status: ('A' for Active; 'I' for Inactive)
ROOT
ATOM      1  C1  DEN d   1       1.809  -1.135   1.401  0.00  0.00     0.130 A 
ATOM      2  C2  DEN d   1       1.231  -1.323   2.728  0.00  0.00    -0.031 A 
ATOM      3  C3  DEN d   1      -0.153  -0.808   2.701  0.00  0.00     0.027 A 
ATOM      4  C4  DEN d   1      -1.451   0.252   0.740  0.00  0.00     0.027 A 
ATOM      5  C5  DEN d   1      -1.374   0.634  -0.581  0.00  0.00    -0.003 A 
ATOM      6  C6  DEN d   1      -0.229   0.485  -1.319  0.00  0.00     0.001 A 
ATOM      7  C7  DEN d   1       0.872  -0.101  -0.752  0.00  0.00     0.017 A 
ATOM      8  C8  DEN d   1       0.804  -0.481   0.581  0.00  0.00    -0.094 A 
ATOM      9  C9  DEN d   1      -0.366  -0.334   1.307  0.00  0.00    -0.072 A 
ENDROOT
TORSDOF 0
ENDMDL
