MODEL 1
REMARK minimizedAffinity -3.73692584
REMARK minimizedRMSD -1
REMARK  0 active torsions:
REMARK  status: ('A' for Active; 'I' for Inactive)
ROOT
ATOM      1  C1  DEN d   1      -1.676  -0.694   0.609  0.00  0.00     0.130 A 
ATOM      2  C2  DEN d   1      -1.356   0.215  -0.489  0.00  0.00    -0.031 A 
ATOM      3  C3  DEN d   1       0.039   0.667  -0.315  0.00  0.00     0.027 A 
ATOM      4  C4  DEN d   1       1.727   0.047   1.534  0.00  0.00     0.027 A 
ATOM      5  C5  DEN d   1       1.910  -0.681   2.689  0.00  0.00    -0.003 A 
ATOM      6  C6  DEN d   1       0.908  -1.431   3.246  0.00  0.00     0.001 A 
ATOM      7  C7  DEN d   1      -0.310  -1.506   2.622  0.00  0.00     0.017 A 
ATOM      8  C8  DEN d   1      -0.504  -0.769   1.462  0.00  0.00    -0.094 A 
ATOM      9  C9  DEN d   1       0.525  -0.027   0.908  0.00  0.00    -0.072 A 
ENDROOT
TORSDOF 0
ENDMDL
