MODEL 1
REMARK minimizedAffinity 0.726200342
REMARK minimizedRMSD -1
REMARK  0 active torsions:
REMARK  status: ('A' for Active; 'I' for Inactive)
ROOT
ATOM      1  C1  DEN d   1      -1.608   0.744  -3.116  0.00  0.00     0.130 A 
ATOM      2  C2  DEN d   1      -2.996   0.294  -3.048  0.00  0.00    -0.031 A 
ATOM      3  C3  DEN d   1      -3.856   1.486  -2.907  0.00  0.00     0.027 A 
ATOM      4  C4  DEN d   1      -3.178   3.972  -2.794  0.00  0.00     0.027 A 
ATOM      5  C5  DEN d   1      -2.114   4.847  -2.800  0.00  0.00    -0.003 A 
ATOM      6  C6  DEN d   1      -0.816   4.417  -2.877  0.00  0.00     0.001 A 
ATOM      7  C7  DEN d   1      -0.550   3.078  -2.997  0.00  0.00     0.017 A 
ATOM      8  C8  DEN d   1      -1.617   2.190  -2.984  0.00  0.00    -0.094 A 
ATOM      9  C9  DEN d   1      -2.923   2.645  -2.917  0.00  0.00    -0.072 A 
ENDROOT
TORSDOF 0
ENDMDL
