MODEL 1
REMARK minimizedAffinity -5.68174124
REMARK minimizedRMSD -1
REMARK  0 active torsions:
REMARK  status: ('A' for Active; 'I' for Inactive)
ROOT
ATOM      1  C1  DEN d   1       1.320   1.249  -0.544  0.00  0.00     0.130 A 
ATOM      2  C2  DEN d   1       0.184   1.511  -1.422  0.00  0.00    -0.031 A 
ATOM      3  C3  DEN d   1      -1.023   0.943  -0.789  0.00  0.00     0.027 A 
ATOM      4  C4  DEN d   1      -1.241  -0.305   1.458  0.00  0.00     0.027 A 
ATOM      5  C5  DEN d   1      -0.549  -0.779   2.551  0.00  0.00    -0.003 A 
ATOM      6  C6  DEN d   1       0.808  -0.640   2.672  0.00  0.00     0.001 A 
ATOM      7  C7  DEN d   1       1.511   0.027   1.704  0.00  0.00     0.017 A 
ATOM      8  C8  DEN d   1       0.822   0.500   0.595  0.00  0.00    -0.094 A 
ATOM      9  C9  DEN d   1      -0.552   0.361   0.497  0.00  0.00    -0.072 A 
ENDROOT
TORSDOF 0
ENDMDL
