MODEL 1
REMARK minimizedAffinity -2.97436666
REMARK minimizedRMSD -1
REMARK  0 active torsions:
REMARK  status: ('A' for Active; 'I' for Inactive)
ROOT
ATOM      1  C1  DEN d   1       2.144  -0.838   1.793  0.00  0.00     0.130 A 
ATOM      2  C2  DEN d   1       1.463  -0.475   3.033  0.00  0.00    -0.031 A 
ATOM      3  C3  DEN d   1       0.075  -0.101   2.699  0.00  0.00     0.027 A 
ATOM      4  C4  DEN d   1      -1.083  -0.052   0.394  0.00  0.00     0.027 A 
ATOM      5  C5  DEN d   1      -0.907  -0.266  -0.955  0.00  0.00    -0.003 A 
ATOM      6  C6  DEN d   1       0.297  -0.650  -1.483  0.00  0.00     0.001 A 
ATOM      7  C7  DEN d   1       1.362  -0.875  -0.650  0.00  0.00     0.017 A 
ATOM      8  C8  DEN d   1       1.194  -0.654   0.710  0.00  0.00    -0.094 A 
ATOM      9  C9  DEN d   1      -0.035  -0.279   1.226  0.00  0.00    -0.072 A 
ENDROOT
TORSDOF 0
ENDMDL
