MODEL 1
REMARK minimizedAffinity 1.58540058
REMARK minimizedRMSD -1
REMARK  1 active torsions:
REMARK  status: ('A' for Active; 'I' for Inactive)
REMARK    1  A    between atoms: C3_4  and  O_7 
ROOT
ATOM      1  C   UNL d   1       2.442   0.361   1.335  0.00  0.00    -0.033 A 
ATOM      2  C1  UNL d   1       1.143   0.866   1.410  0.00  0.00     0.039 A 
ATOM      3  C2  UNL d   1       0.798   2.018   0.700  0.00  0.00    -0.080 A 
ATOM      4  C3  UNL d   1       1.760   2.655  -0.079  0.00  0.00     0.150 A 
ATOM      5  C4  UNL d   1       3.055   2.155  -0.161  0.00  0.00    -0.007 A 
ATOM      6  C5  UNL d   1       3.398   1.005   0.549  0.00  0.00     0.039 A 
ENDROOT
BRANCH   4   7
ATOM      7  O   UNL d   1       1.472   3.785  -0.785  0.00  0.00    -0.526 OA
ATOM      8  H5  UNL d   1       0.547   4.029  -0.610  0.00  0.00     0.418 HD
ENDBRANCH   4   7
TORSDOF 1
ENDMDL
