MODEL 1
REMARK minimizedAffinity 10.1058311
REMARK minimizedRMSD -1
REMARK  1 active torsions:
REMARK  status: ('A' for Active; 'I' for Inactive)
REMARK    1  A    between atoms: C3_4  and  O_7 
ROOT
ATOM      1  C   UNL d   1       2.416  -4.454  -0.655  0.00  0.00    -0.033 A 
ATOM      2  C1  UNL d   1       1.595  -3.591  -1.384  0.00  0.00     0.039 A 
ATOM      3  C2  UNL d   1       0.635  -2.819  -0.727  0.00  0.00    -0.080 A 
ATOM      4  C3  UNL d   1       0.508  -2.917   0.656  0.00  0.00     0.150 A 
ATOM      5  C4  UNL d   1       1.326  -3.771   1.388  0.00  0.00    -0.007 A 
ATOM      6  C5  UNL d   1       2.283  -4.543   0.730  0.00  0.00     0.039 A 
ENDROOT
BRANCH   4   7
ATOM      7  O   UNL d   1      -0.418  -2.186   1.340  0.00  0.00    -0.526 OA
ATOM      8  H5  UNL d   1      -0.930  -1.663   0.701  0.00  0.00     0.418 HD
ENDBRANCH   4   7
TORSDOF 1
ENDMDL
