MODEL 1
REMARK minimizedAffinity -2.61678386
REMARK minimizedRMSD -1
REMARK  1 active torsions:
REMARK  status: ('A' for Active; 'I' for Inactive)
REMARK    1  A    between atoms: C3_4  and  O_7 
ROOT
ATOM      1  C   UNL d   1       2.071   1.201   0.817  0.00  0.00    -0.033 A 
ATOM      2  C1  UNL d   1       0.752   1.504   1.163  0.00  0.00     0.039 A 
ATOM      3  C2  UNL d   1       0.079   2.541   0.514  0.00  0.00    -0.080 A 
ATOM      4  C3  UNL d   1       0.735   3.266  -0.477  0.00  0.00     0.150 A 
ATOM      5  C4  UNL d   1       2.047   2.968  -0.829  0.00  0.00    -0.007 A 
ATOM      6  C5  UNL d   1       2.718   1.932  -0.179  0.00  0.00     0.039 A 
ENDROOT
BRANCH   4   7
ATOM      7  O   UNL d   1       0.121   4.290  -1.135  0.00  0.00    -0.526 OA
ATOM      8  H5  UNL d   1      -0.772   4.401  -0.767  0.00  0.00     0.418 HD
ENDBRANCH   4   7
TORSDOF 1
ENDMDL
