MODEL 1
REMARK minimizedAffinity 0.70206356
REMARK minimizedRMSD -1
REMARK  1 active torsions:
REMARK  status: ('A' for Active; 'I' for Inactive)
REMARK    1  A    between atoms: C3_4  and  O_7 
ROOT
ATOM      1  C   UNL d   1      -0.035  -2.228  -0.281  0.00  0.00    -0.033 A 
ATOM      2  C1  UNL d   1       0.383  -2.386  -1.604  0.00  0.00     0.039 A 
ATOM      3  C2  UNL d   1      -0.509  -2.153  -2.652  0.00  0.00    -0.080 A 
ATOM      4  C3  UNL d   1      -1.814  -1.761  -2.365  0.00  0.00     0.150 A 
ATOM      5  C4  UNL d   1      -2.236  -1.598  -1.050  0.00  0.00    -0.007 A 
ATOM      6  C5  UNL d   1      -1.344  -1.832  -0.004  0.00  0.00     0.039 A 
ENDROOT
BRANCH   4   7
ATOM      7  O   UNL d   1      -2.721  -1.526  -3.355  0.00  0.00    -0.526 OA
ATOM      8  H5  UNL d   1      -2.297  -1.707  -4.210  0.00  0.00     0.418 HD
ENDBRANCH   4   7
TORSDOF 1
ENDMDL
