MODEL 1
REMARK minimizedAffinity -0.393053055
REMARK minimizedRMSD -1
REMARK  1 active torsions:
REMARK  status: ('A' for Active; 'I' for Inactive)
REMARK    1  A    between atoms: C3_4  and  O_7 
ROOT
ATOM      1  C   UNL d   1      -2.440  -3.375  -1.548  0.00  0.00    -0.033 A 
ATOM      2  C1  UNL d   1      -1.948  -4.676  -1.429  0.00  0.00     0.039 A 
ATOM      3  C2  UNL d   1      -0.572  -4.898  -1.341  0.00  0.00    -0.080 A 
ATOM      4  C3  UNL d   1       0.299  -3.813  -1.372  0.00  0.00     0.150 A 
ATOM      5  C4  UNL d   1      -0.185  -2.514  -1.486  0.00  0.00    -0.007 A 
ATOM      6  C5  UNL d   1      -1.559  -2.294  -1.576  0.00  0.00     0.039 A 
ENDROOT
BRANCH   4   7
ATOM      7  O   UNL d   1       1.650  -3.980  -1.293  0.00  0.00    -0.526 OA
ATOM      8  H5  UNL d   1       1.839  -4.932  -1.247  0.00  0.00     0.418 HD
ENDBRANCH   4   7
TORSDOF 1
ENDMDL
