MODEL 1
REMARK minimizedAffinity -0.48978138
REMARK minimizedRMSD -1
REMARK  1 active torsions:
REMARK  status: ('A' for Active; 'I' for Inactive)
REMARK    1  A    between atoms: C3_4  and  O_7 
ROOT
ATOM      1  C   UNL d   1       2.248  -1.309   2.124  0.00  0.00    -0.033 A 
ATOM      2  C1  UNL d   1       3.040  -0.161   2.060  0.00  0.00     0.039 A 
ATOM      3  C2  UNL d   1       2.534   1.008   1.489  0.00  0.00    -0.080 A 
ATOM      4  C3  UNL d   1       1.236   1.017   0.988  0.00  0.00     0.150 A 
ATOM      5  C4  UNL d   1       0.439  -0.122   1.051  0.00  0.00    -0.007 A 
ATOM      6  C5  UNL d   1       0.947  -1.289   1.621  0.00  0.00     0.039 A 
ENDROOT
BRANCH   4   7
ATOM      7  O   UNL d   1       0.700   2.133   0.417  0.00  0.00    -0.526 OA
ATOM      8  H5  UNL d   1       1.374   2.832   0.416  0.00  0.00     0.418 HD
ENDBRANCH   4   7
TORSDOF 1
ENDMDL
