MODEL 1
REMARK minimizedAffinity 8.63352776
REMARK minimizedRMSD -1
REMARK  1 active torsions:
REMARK  status: ('A' for Active; 'I' for Inactive)
REMARK    1  A    between atoms: C3_4  and  O_7 
ROOT
ATOM      1  C   UNL d   1       2.960  -0.061   1.638  0.00  0.00    -0.033 A 
ATOM      2  C1  UNL d   1       3.318  -0.064   0.289  0.00  0.00     0.039 A 
ATOM      3  C2  UNL d   1       3.177   1.096  -0.475  0.00  0.00    -0.080 A 
ATOM      4  C3  UNL d   1       2.679   2.251   0.122  0.00  0.00     0.150 A 
ATOM      5  C4  UNL d   1       2.324   2.262   1.467  0.00  0.00    -0.007 A 
ATOM      6  C5  UNL d   1       2.465   1.102   2.228  0.00  0.00     0.039 A 
ENDROOT
BRANCH   4   7
ATOM      7  O   UNL d   1       2.519   3.406  -0.585  0.00  0.00    -0.526 OA
ATOM      8  H5  UNL d   1       2.777   3.241  -1.507  0.00  0.00     0.418 HD
ENDBRANCH   4   7
TORSDOF 1
ENDMDL
