MODEL 1
REMARK minimizedAffinity 1.65948021
REMARK minimizedRMSD -1
REMARK  1 active torsions:
REMARK  status: ('A' for Active; 'I' for Inactive)
REMARK    1  A    between atoms: C3_4  and  O_7 
ROOT
ATOM      1  C   UNL d   1       1.631   1.072   0.189  0.00  0.00    -0.033 A 
ATOM      2  C1  UNL d   1       1.995  -0.201  -0.254  0.00  0.00     0.039 A 
ATOM      3  C2  UNL d   1       1.718  -1.321   0.532  0.00  0.00    -0.080 A 
ATOM      4  C3  UNL d   1       1.075  -1.155   1.756  0.00  0.00     0.150 A 
ATOM      5  C4  UNL d   1       0.706   0.110   2.201  0.00  0.00    -0.007 A 
ATOM      6  C5  UNL d   1       0.985   1.227   1.416  0.00  0.00     0.039 A 
ENDROOT
BRANCH   4   7
ATOM      7  O   UNL d   1       0.788  -2.218   2.560  0.00  0.00    -0.526 OA
ATOM      8  H5  UNL d   1       1.127  -3.025   2.137  0.00  0.00     0.418 HD
ENDBRANCH   4   7
TORSDOF 1
ENDMDL
