MODEL 1
REMARK minimizedAffinity 1.47780693
REMARK minimizedRMSD -1
REMARK  1 active torsions:
REMARK  status: ('A' for Active; 'I' for Inactive)
REMARK    1  A    between atoms: C3_4  and  O_7 
ROOT
ATOM      1  C   UNL d   1       2.011  -4.665   5.384  0.00  0.00    -0.033 A 
ATOM      2  C1  UNL d   1       0.840  -4.515   4.638  0.00  0.00     0.039 A 
ATOM      3  C2  UNL d   1       0.404  -3.241   4.269  0.00  0.00    -0.080 A 
ATOM      4  C3  UNL d   1       1.147  -2.127   4.650  0.00  0.00     0.150 A 
ATOM      5  C4  UNL d   1       2.316  -2.270   5.390  0.00  0.00    -0.007 A 
ATOM      6  C5  UNL d   1       2.750  -3.542   5.759  0.00  0.00     0.039 A 
ENDROOT
BRANCH   4   7
ATOM      7  O   UNL d   1       0.758  -0.864   4.317  0.00  0.00    -0.526 OA
ATOM      8  H5  UNL d   1      -0.082  -0.918   3.831  0.00  0.00     0.418 HD
ENDBRANCH   4   7
TORSDOF 1
ENDMDL
