MODEL 1
REMARK minimizedAffinity 1.64022493
REMARK minimizedRMSD -1
REMARK  1 active torsions:
REMARK  status: ('A' for Active; 'I' for Inactive)
REMARK    1  A    between atoms: C3_4  and  O_7 
ROOT
ATOM      1  C   UNL d   1       1.488   0.344   0.679  0.00  0.00    -0.033 A 
ATOM      2  C1  UNL d   1       1.466  -1.041   0.501  0.00  0.00     0.039 A 
ATOM      3  C2  UNL d   1       1.406  -1.888   1.610  0.00  0.00    -0.080 A 
ATOM      4  C3  UNL d   1       1.369  -1.338   2.888  0.00  0.00     0.150 A 
ATOM      5  C4  UNL d   1       1.387   0.040   3.073  0.00  0.00    -0.007 A 
ATOM      6  C5  UNL d   1       1.447   0.885   1.965  0.00  0.00     0.039 A 
ENDROOT
BRANCH   4   7
ATOM      7  O   UNL d   1       1.316  -2.125   4.001  0.00  0.00    -0.526 OA
ATOM      8  H5  UNL d   1       1.338  -3.055   3.721  0.00  0.00     0.418 HD
ENDBRANCH   4   7
TORSDOF 1
ENDMDL
