MODEL 1
REMARK minimizedAffinity 2.4210124
REMARK minimizedRMSD -1
REMARK  1 active torsions:
REMARK  status: ('A' for Active; 'I' for Inactive)
REMARK    1  A    between atoms: C3_4  and  O_7 
ROOT
ATOM      1  C   UNL d   1       0.671  -2.806   3.094  0.00  0.00    -0.033 A 
ATOM      2  C1  UNL d   1       1.637  -1.996   3.694  0.00  0.00     0.039 A 
ATOM      3  C2  UNL d   1       2.142  -0.887   3.012  0.00  0.00    -0.080 A 
ATOM      4  C3  UNL d   1       1.674  -0.600   1.733  0.00  0.00     0.150 A 
ATOM      5  C4  UNL d   1       0.709  -1.401   1.131  0.00  0.00    -0.007 A 
ATOM      6  C5  UNL d   1       0.206  -2.508   1.813  0.00  0.00     0.039 A 
ENDROOT
BRANCH   4   7
ATOM      7  O   UNL d   1       2.141   0.467   1.026  0.00  0.00    -0.526 OA
ATOM      8  H5  UNL d   1       2.824   0.912   1.555  0.00  0.00     0.418 HD
ENDBRANCH   4   7
TORSDOF 1
ENDMDL
