MODEL 1
REMARK minimizedAffinity -4.22706938
REMARK minimizedRMSD -1
REMARK  1 active torsions:
REMARK  status: ('A' for Active; 'I' for Inactive)
REMARK    1  A    between atoms: C3_4  and  O_7 
ROOT
ATOM      1  C   UNL d   1       1.518   0.489   1.223  0.00  0.00    -0.033 A 
ATOM      2  C1  UNL d   1       0.546  -0.505   1.103  0.00  0.00     0.039 A 
ATOM      3  C2  UNL d   1       0.304  -1.379   2.165  0.00  0.00    -0.080 A 
ATOM      4  C3  UNL d   1       1.039  -1.248   3.339  0.00  0.00     0.150 A 
ATOM      5  C4  UNL d   1       2.007  -0.257   3.467  0.00  0.00    -0.007 A 
ATOM      6  C5  UNL d   1       2.248   0.614   2.405  0.00  0.00     0.039 A 
ENDROOT
BRANCH   4   7
ATOM      7  O   UNL d   1       0.842  -2.080   4.401  0.00  0.00    -0.526 OA
ATOM      8  H5  UNL d   1       0.164  -2.733   4.158  0.00  0.00     0.418 HD
ENDBRANCH   4   7
TORSDOF 1
ENDMDL
