MODEL 1
REMARK minimizedAffinity -2.29678512
REMARK minimizedRMSD -1
REMARK  1 active torsions:
REMARK  status: ('A' for Active; 'I' for Inactive)
REMARK    1  A    between atoms: C3_4  and  O_7 
ROOT
ATOM      1  C   UNL d   1       2.166   1.764   0.940  0.00  0.00    -0.033 A 
ATOM      2  C1  UNL d   1       1.038   1.678   0.121  0.00  0.00     0.039 A 
ATOM      3  C2  UNL d   1       0.149   0.611   0.264  0.00  0.00    -0.080 A 
ATOM      4  C3  UNL d   1       0.397  -0.361   1.229  0.00  0.00     0.150 A 
ATOM      5  C4  UNL d   1       1.516  -0.279   2.052  0.00  0.00    -0.007 A 
ATOM      6  C5  UNL d   1       2.404   0.786   1.906  0.00  0.00     0.039 A 
ENDROOT
BRANCH   4   7
ATOM      7  O   UNL d   1      -0.440  -1.422   1.403  0.00  0.00    -0.526 OA
ATOM      8  H5  UNL d   1      -1.154  -1.362   0.747  0.00  0.00     0.418 HD
ENDBRANCH   4   7
TORSDOF 1
ENDMDL
