MODEL 1
REMARK minimizedAffinity 4.31443214
REMARK minimizedRMSD -1
REMARK  3 active torsions:
REMARK  status: ('A' for Active; 'I' for Inactive)
REMARK    1  A    between atoms: C3'_2  and  C2'_3 
REMARK    2  A    between atoms: C2'_3  and  C1'_4 
REMARK    3  A    between atoms: C1'_4  and  C1_5 
ROOT
ATOM      1  C1  N4B d   1       2.239   1.155   1.083  0.00  0.00    -0.075 A 
ATOM      2  C2  N4B d   1       1.520  -0.059   1.033  0.00  0.00     0.002 A 
ATOM      3  C3  N4B d   1       0.998  -0.596   2.184  0.00  0.00     0.002 A 
ATOM      4  C4  N4B d   1       1.198   0.051   3.394  0.00  0.00    -0.004 A 
ATOM      5  C5  N4B d   1       1.872   1.236   3.431  0.00  0.00     0.002 A 
ATOM      6  C6  N4B d   1       2.399   1.789   2.281  0.00  0.00     0.002 A 
ENDROOT
BRANCH   1   7
ATOM      7  C1' N4B d   1       2.902   1.736  -0.136  0.00  0.00     0.057 C 
BRANCH   7   8
ATOM      8  C2' N4B d   1       4.406   1.495  -0.051  0.00  0.00     0.009 C 
BRANCH   8   9
ATOM      9  C3' N4B d   1       4.750   0.017  -0.117  0.00  0.00     0.004 C 
ATOM     10  C4' N4B d   1       5.999  -0.323   0.640  0.00  0.00     0.003 C 
ENDBRANCH   8   9
ENDBRANCH   7   8
ENDBRANCH   1   7
TORSDOF 3
ENDMDL
