MODEL 1
REMARK minimizedAffinity 5.77773952
REMARK minimizedRMSD -1
REMARK  3 active torsions:
REMARK  status: ('A' for Active; 'I' for Inactive)
REMARK    1  A    between atoms: C3'_2  and  C2'_3 
REMARK    2  A    between atoms: C2'_3  and  C1'_4 
REMARK    3  A    between atoms: C1'_4  and  C1_5 
ROOT
ATOM      1  C1  N4B d   1      -3.407   0.582  -5.194  0.00  0.00    -0.075 A 
ATOM      2  C2  N4B d   1      -3.589   1.130  -3.905  0.00  0.00     0.002 A 
ATOM      3  C3  N4B d   1      -4.848   1.470  -3.475  0.00  0.00     0.002 A 
ATOM      4  C4  N4B d   1      -5.933   1.290  -4.320  0.00  0.00    -0.004 A 
ATOM      5  C5  N4B d   1      -5.752   0.737  -5.554  0.00  0.00     0.002 A 
ATOM      6  C6  N4B d   1      -4.492   0.387  -5.998  0.00  0.00     0.002 A 
ENDROOT
BRANCH   1   7
ATOM      7  C1' N4B d   1      -2.039   0.275  -5.740  0.00  0.00     0.057 C 
BRANCH   7   8
ATOM      8  C2' N4B d   1      -1.928  -1.225  -5.998  0.00  0.00     0.009 C 
BRANCH   8   9
ATOM      9  C3' N4B d   1      -1.582  -1.995  -4.736  0.00  0.00     0.004 C 
ATOM     10  C4' N4B d   1      -2.389  -1.559  -3.550  0.00  0.00     0.003 C 
ENDBRANCH   8   9
ENDBRANCH   7   8
ENDBRANCH   1   7
TORSDOF 3
ENDMDL
