MODEL 1
REMARK minimizedAffinity 32.7045784
REMARK minimizedRMSD -1
REMARK  0 active torsions:
REMARK  status: ('A' for Active; 'I' for Inactive)
ROOT
ATOM      1  C   UNL d   1       2.623   1.451  -0.372  0.00  0.00     0.124 A 
ATOM      2  C1  UNL d   1       2.408   0.368  -1.213  0.00  0.00     0.062 A 
ATOM      3  C2  UNL d   1       3.370   0.011  -2.154  0.00  0.00     0.162 A 
ATOM      4  C3  UNL d   1       4.556   0.737  -2.259  0.00  0.00    -0.034 A 
ATOM      5  C4  UNL d   1       4.764   1.826  -1.410  0.00  0.00     0.162 A 
ATOM      6  C5  UNL d   1       3.800   2.179  -0.471  0.00  0.00     0.062 A 
ATOM      7  F   UNL d   1       4.010   3.225   0.341  0.00  0.00    -0.097 F 
ATOM      8  F1  UNL d   1       5.893   2.546  -1.484  0.00  0.00    -0.096 F 
ATOM      9  I   UNL d   1       5.996   0.207  -3.665  0.00  0.00    -0.060 I 
ATOM     10  F2  UNL d   1       3.135  -1.040  -2.954  0.00  0.00    -0.096 F 
ATOM     11  F3  UNL d   1       1.271  -0.337  -1.120  0.00  0.00    -0.097 F 
ATOM     12  F4  UNL d   1       1.696   1.792   0.532  0.00  0.00    -0.092 F 
ENDROOT
TORSDOF 0
ENDMDL
