MODEL 1
REMARK minimizedAffinity 26.6834412
REMARK minimizedRMSD -1
REMARK  0 active torsions:
REMARK  status: ('A' for Active; 'I' for Inactive)
ROOT
ATOM      1  C   UNL d   1       5.544   3.444  -0.352  0.00  0.00     0.124 A 
ATOM      2  C1  UNL d   1       5.518   2.260   0.371  0.00  0.00     0.062 A 
ATOM      3  C2  UNL d   1       5.046   2.248   1.680  0.00  0.00     0.162 A 
ATOM      4  C3  UNL d   1       4.594   3.426   2.275  0.00  0.00    -0.034 A 
ATOM      5  C4  UNL d   1       4.623   4.614   1.542  0.00  0.00     0.162 A 
ATOM      6  C5  UNL d   1       5.096   4.620   0.234  0.00  0.00     0.062 A 
ATOM      7  F   UNL d   1       5.120   5.765  -0.463  0.00  0.00    -0.097 F 
ATOM      8  F1  UNL d   1       4.196   5.764   2.084  0.00  0.00    -0.096 F 
ATOM      9  I   UNL d   1       3.886   3.414   4.233  0.00  0.00    -0.060 I 
ATOM     10  F2  UNL d   1       5.033   1.089   2.355  0.00  0.00    -0.096 F 
ATOM     11  F3  UNL d   1       5.951   1.122  -0.192  0.00  0.00    -0.097 F 
ATOM     12  F4  UNL d   1       6.000   3.452  -1.611  0.00  0.00    -0.092 F 
ENDROOT
TORSDOF 0
ENDMDL
