MODEL 1
REMARK minimizedAffinity 21.5193825
REMARK minimizedRMSD -1
REMARK  0 active torsions:
REMARK  status: ('A' for Active; 'I' for Inactive)
ROOT
ATOM      1  C   UNL d   1      -1.793  -2.317  -1.120  0.00  0.00     0.124 A 
ATOM      2  C1  UNL d   1      -1.391  -3.539  -1.642  0.00  0.00     0.062 A 
ATOM      3  C2  UNL d   1      -1.070  -4.592  -0.790  0.00  0.00     0.162 A 
ATOM      4  C3  UNL d   1      -1.150  -4.428   0.593  0.00  0.00    -0.034 A 
ATOM      5  C4  UNL d   1      -1.554  -3.195   1.110  0.00  0.00     0.162 A 
ATOM      6  C5  UNL d   1      -1.874  -2.146   0.254  0.00  0.00     0.062 A 
ATOM      7  F   UNL d   1      -2.262  -0.966   0.760  0.00  0.00    -0.097 F 
ATOM      8  F1  UNL d   1      -1.642  -3.003   2.434  0.00  0.00    -0.096 F 
ATOM      9  I   UNL d   1      -0.670  -5.999   1.870  0.00  0.00    -0.060 I 
ATOM     10  F2  UNL d   1      -0.684  -5.761  -1.321  0.00  0.00    -0.096 F 
ATOM     11  F3  UNL d   1      -1.311  -3.706  -2.970  0.00  0.00    -0.097 F 
ATOM     12  F4  UNL d   1      -2.101  -1.305  -1.942  0.00  0.00    -0.092 F 
ENDROOT
TORSDOF 0
ENDMDL
