MODEL 1
REMARK minimizedAffinity 5.49706411
REMARK minimizedRMSD -1
REMARK  0 active torsions:
REMARK  status: ('A' for Active; 'I' for Inactive)
ROOT
ATOM      1  C   UNL d   1      -1.218  -4.028   2.836  0.00  0.00     0.124 A 
ATOM      2  C1  UNL d   1      -1.711  -2.759   2.565  0.00  0.00     0.062 A 
ATOM      3  C2  UNL d   1      -1.615  -2.232   1.280  0.00  0.00     0.162 A 
ATOM      4  C3  UNL d   1      -1.026  -2.974   0.256  0.00  0.00    -0.034 A 
ATOM      5  C4  UNL d   1      -0.532  -4.249   0.538  0.00  0.00     0.162 A 
ATOM      6  C5  UNL d   1      -0.630  -4.772   1.823  0.00  0.00     0.062 A 
ATOM      7  F   UNL d   1      -0.153  -5.998   2.084  0.00  0.00    -0.097 F 
ATOM      8  F1  UNL d   1       0.041  -4.989  -0.423  0.00  0.00    -0.096 F 
ATOM      9  I   UNL d   1      -0.882  -2.188  -1.665  0.00  0.00    -0.060 I 
ATOM     10  F2  UNL d   1      -2.100  -1.003   1.046  0.00  0.00    -0.096 F 
ATOM     11  F3  UNL d   1      -2.279  -2.039   3.542  0.00  0.00    -0.097 F 
ATOM     12  F4  UNL d   1      -1.310  -4.533   4.073  0.00  0.00    -0.092 F 
ENDROOT
TORSDOF 0
ENDMDL
