MODEL 1
REMARK minimizedAffinity 16.1988773
REMARK minimizedRMSD -1
REMARK  0 active torsions:
REMARK  status: ('A' for Active; 'I' for Inactive)
ROOT
ATOM      1  C   UNL d   1      -0.759  -3.929   0.210  0.00  0.00     0.124 A 
ATOM      2  C1  UNL d   1      -0.818  -4.426   1.505  0.00  0.00     0.062 A 
ATOM      3  C2  UNL d   1      -1.352  -3.650   2.529  0.00  0.00     0.162 A 
ATOM      4  C3  UNL d   1      -1.832  -2.367   2.263  0.00  0.00    -0.034 A 
ATOM      5  C4  UNL d   1      -1.768  -1.873   0.959  0.00  0.00     0.162 A 
ATOM      6  C5  UNL d   1      -1.233  -2.653  -0.062  0.00  0.00     0.062 A 
ATOM      7  F   UNL d   1      -1.177  -2.171  -1.312  0.00  0.00    -0.097 F 
ATOM      8  F1  UNL d   1      -2.220  -0.645   0.668  0.00  0.00    -0.096 F 
ATOM      9  I   UNL d   1      -2.631  -1.203   3.792  0.00  0.00    -0.060 I 
ATOM     10  F2  UNL d   1      -1.397  -4.156   3.770  0.00  0.00    -0.096 F 
ATOM     11  F3  UNL d   1      -0.360  -5.658   1.770  0.00  0.00    -0.097 F 
ATOM     12  F4  UNL d   1      -0.244  -4.678  -0.773  0.00  0.00    -0.092 F 
ENDROOT
TORSDOF 0
ENDMDL
