MODEL 1
REMARK minimizedAffinity 21.5889568
REMARK minimizedRMSD -1
REMARK  0 active torsions:
REMARK  status: ('A' for Active; 'I' for Inactive)
ROOT
ATOM      1  C   UNL d   1      -1.530  -2.955   0.372  0.00  0.00     0.124 A 
ATOM      2  C1  UNL d   1      -0.774  -4.119   0.357  0.00  0.00     0.062 A 
ATOM      3  C2  UNL d   1      -0.634  -4.878   1.515  0.00  0.00     0.162 A 
ATOM      4  C3  UNL d   1      -1.252  -4.475   2.699  0.00  0.00    -0.034 A 
ATOM      5  C4  UNL d   1      -2.009  -3.302   2.707  0.00  0.00     0.162 A 
ATOM      6  C5  UNL d   1      -2.146  -2.548   1.546  0.00  0.00     0.062 A 
ATOM      7  F   UNL d   1      -2.876  -1.423   1.563  0.00  0.00    -0.097 F 
ATOM      8  F1  UNL d   1      -2.617  -2.886   3.828  0.00  0.00    -0.096 F 
ATOM      9  I   UNL d   1      -1.045  -5.607   4.434  0.00  0.00    -0.060 I 
ATOM     10  F2  UNL d   1       0.102  -5.999   1.471  0.00  0.00    -0.096 F 
ATOM     11  F3  UNL d   1      -0.177  -4.515  -0.777  0.00  0.00    -0.097 F 
ATOM     12  F4  UNL d   1      -1.662  -2.227  -0.744  0.00  0.00    -0.092 F 
ENDROOT
TORSDOF 0
ENDMDL
