MODEL 1
REMARK minimizedAffinity 18.2164116
REMARK minimizedRMSD -1
REMARK  0 active torsions:
REMARK  status: ('A' for Active; 'I' for Inactive)
ROOT
ATOM      1  C   UNL d   1       2.901   2.087   0.186  0.00  0.00     0.124 A 
ATOM      2  C1  UNL d   1       4.072   2.809   0.004  0.00  0.00     0.062 A 
ATOM      3  C2  UNL d   1       4.873   2.575  -1.110  0.00  0.00     0.162 A 
ATOM      4  C3  UNL d   1       4.505   1.614  -2.052  0.00  0.00    -0.034 A 
ATOM      5  C4  UNL d   1       3.326   0.890  -1.861  0.00  0.00     0.162 A 
ATOM      6  C5  UNL d   1       2.529   1.128  -0.746  0.00  0.00     0.062 A 
ATOM      7  F   UNL d   1       1.398   0.429  -0.572  0.00  0.00    -0.097 F 
ATOM      8  F1  UNL d   1       2.943  -0.041  -2.747  0.00  0.00    -0.096 F 
ATOM      9  I   UNL d   1       5.700   1.260  -3.719  0.00  0.00    -0.060 I 
ATOM     10  F2  UNL d   1       5.999   3.288  -1.261  0.00  0.00    -0.096 F 
ATOM     11  F3  UNL d   1       4.434   3.735   0.903  0.00  0.00    -0.097 F 
ATOM     12  F4  UNL d   1       2.133   2.314   1.259  0.00  0.00    -0.092 F 
ENDROOT
TORSDOF 0
ENDMDL
