MODEL 1
REMARK minimizedAffinity 17.4231949
REMARK minimizedRMSD -1
REMARK  0 active torsions:
REMARK  status: ('A' for Active; 'I' for Inactive)
ROOT
ATOM      1  C   UNL d   1      -2.710   2.247  -4.501  0.00  0.00     0.124 A 
ATOM      2  C1  UNL d   1      -2.392   3.589  -4.344  0.00  0.00     0.062 A 
ATOM      3  C2  UNL d   1      -3.290   4.572  -4.746  0.00  0.00     0.162 A 
ATOM      4  C3  UNL d   1      -4.517   4.218  -5.308  0.00  0.00    -0.034 A 
ATOM      5  C4  UNL d   1      -4.829   2.866  -5.463  0.00  0.00     0.162 A 
ATOM      6  C5  UNL d   1      -3.928   1.887  -5.060  0.00  0.00     0.062 A 
ATOM      7  F   UNL d   1      -4.237   0.591  -5.212  0.00  0.00    -0.097 F 
ATOM      8  F1  UNL d   1      -6.000   2.490  -5.999  0.00  0.00    -0.096 F 
ATOM      9  I   UNL d   1      -5.864   5.686  -5.910  0.00  0.00    -0.060 I 
ATOM     10  F2  UNL d   1      -2.957   5.861  -4.583  0.00  0.00    -0.096 F 
ATOM     11  F3  UNL d   1      -1.215   3.939  -3.805  0.00  0.00    -0.097 F 
ATOM     12  F4  UNL d   1      -1.843   1.302  -4.114  0.00  0.00    -0.092 F 
ENDROOT
TORSDOF 0
ENDMDL
