MODEL 1
REMARK minimizedAffinity 14.9312916
REMARK minimizedRMSD -1
REMARK  0 active torsions:
REMARK  status: ('A' for Active; 'I' for Inactive)
ROOT
ATOM      1  C   UNL d   1      -2.770   2.404  -4.288  0.00  0.00     0.124 A 
ATOM      2  C1  UNL d   1      -3.936   2.122  -4.988  0.00  0.00     0.062 A 
ATOM      3  C2  UNL d   1      -4.818   3.147  -5.320  0.00  0.00     0.162 A 
ATOM      4  C3  UNL d   1      -4.537   4.463  -4.954  0.00  0.00    -0.034 A 
ATOM      5  C4  UNL d   1      -3.364   4.739  -4.250  0.00  0.00     0.162 A 
ATOM      6  C5  UNL d   1      -2.486   3.712  -3.920  0.00  0.00     0.062 A 
ATOM      7  F   UNL d   1      -1.360   3.986  -3.245  0.00  0.00    -0.097 F 
ATOM      8  F1  UNL d   1      -3.064   5.993  -3.883  0.00  0.00    -0.096 F 
ATOM      9  I   UNL d   1      -5.854   5.997  -5.450  0.00  0.00    -0.060 I 
ATOM     10  F2  UNL d   1      -5.936   2.845  -5.997  0.00  0.00    -0.096 F 
ATOM     11  F3  UNL d   1      -4.213   0.860  -5.344  0.00  0.00    -0.097 F 
ATOM     12  F4  UNL d   1      -1.924   1.417  -3.969  0.00  0.00    -0.092 F 
ENDROOT
TORSDOF 0
ENDMDL
