MODEL 1
REMARK minimizedAffinity 4.65906
REMARK minimizedRMSD -1
REMARK  0 active torsions:
REMARK  status: ('A' for Active; 'I' for Inactive)
ROOT
ATOM      1  C   UNL d   1      -2.340  -1.033   5.606  0.00  0.00     0.124 A 
ATOM      2  C1  UNL d   1      -2.065   0.319   5.751  0.00  0.00     0.062 A 
ATOM      3  C2  UNL d   1      -3.105   1.238   5.860  0.00  0.00     0.162 A 
ATOM      4  C3  UNL d   1      -4.431   0.807   5.826  0.00  0.00    -0.034 A 
ATOM      5  C4  UNL d   1      -4.700  -0.555   5.679  0.00  0.00     0.162 A 
ATOM      6  C5  UNL d   1      -3.657  -1.469   5.571  0.00  0.00     0.062 A 
ATOM      7  F   UNL d   1      -3.926  -2.776   5.431  0.00  0.00    -0.097 F 
ATOM      8  F1  UNL d   1      -5.964  -1.004   5.643  0.00  0.00    -0.096 F 
ATOM      9  I   UNL d   1      -5.989   2.177   5.988  0.00  0.00    -0.060 I 
ATOM     10  F2  UNL d   1      -2.809   2.539   5.998  0.00  0.00    -0.096 F 
ATOM     11  F3  UNL d   1      -0.793   0.743   5.785  0.00  0.00    -0.097 F 
ATOM     12  F4  UNL d   1      -1.338  -1.915   5.501  0.00  0.00    -0.092 F 
ENDROOT
TORSDOF 0
ENDMDL
