MODEL 1
REMARK minimizedAffinity 23.5740929
REMARK minimizedRMSD -1
REMARK  0 active torsions:
REMARK  status: ('A' for Active; 'I' for Inactive)
ROOT
ATOM      1  C   UNL d   1      -4.798   0.051   5.707  0.00  0.00     0.124 A 
ATOM      2  C1  UNL d   1      -4.829  -1.306   5.416  0.00  0.00     0.062 A 
ATOM      3  C2  UNL d   1      -3.649  -1.989   5.136  0.00  0.00     0.162 A 
ATOM      4  C3  UNL d   1      -2.427  -1.316   5.145  0.00  0.00    -0.034 A 
ATOM      5  C4  UNL d   1      -2.404   0.049   5.437  0.00  0.00     0.162 A 
ATOM      6  C5  UNL d   1      -3.586   0.727   5.717  0.00  0.00     0.062 A 
ATOM      7  F   UNL d   1      -3.554   2.038   5.998  0.00  0.00    -0.097 F 
ATOM      8  F1  UNL d   1      -1.246   0.726   5.455  0.00  0.00    -0.096 F 
ATOM      9  I   UNL d   1      -0.660  -2.334   4.726  0.00  0.00    -0.060 I 
ATOM     10  F2  UNL d   1      -3.708  -3.300   4.858  0.00  0.00    -0.096 F 
ATOM     11  F3  UNL d   1      -5.998  -1.961   5.405  0.00  0.00    -0.097 F 
ATOM     12  F4  UNL d   1      -5.935   0.705   5.975  0.00  0.00    -0.092 F 
ENDROOT
TORSDOF 0
ENDMDL
