MODEL 1
REMARK minimizedAffinity 27.8960686
REMARK minimizedRMSD -1
REMARK  0 active torsions:
REMARK  status: ('A' for Active; 'I' for Inactive)
ROOT
ATOM      1  C   UNL d   1      -2.771   2.392  -4.431  0.00  0.00     0.124 A 
ATOM      2  C1  UNL d   1      -2.490   3.680  -3.999  0.00  0.00     0.062 A 
ATOM      3  C2  UNL d   1      -3.393   4.712  -4.240  0.00  0.00     0.162 A 
ATOM      4  C3  UNL d   1      -4.586   4.459  -4.915  0.00  0.00    -0.034 A 
ATOM      5  C4  UNL d   1      -4.862   3.160  -5.347  0.00  0.00     0.162 A 
ATOM      6  C5  UNL d   1      -3.956   2.133  -5.104  0.00  0.00     0.062 A 
ATOM      7  F   UNL d   1      -4.229   0.888  -5.522  0.00  0.00    -0.097 F 
ATOM      8  F1  UNL d   1      -6.000   2.881  -6.000  0.00  0.00    -0.096 F 
ATOM      9  I   UNL d   1      -5.939   5.998  -5.277  0.00  0.00    -0.060 I 
ATOM     10  F2  UNL d   1      -3.095   5.948  -3.811  0.00  0.00    -0.096 F 
ATOM     11  F3  UNL d   1      -1.345   3.934  -3.349  0.00  0.00    -0.097 F 
ATOM     12  F4  UNL d   1      -1.899   1.401  -4.198  0.00  0.00    -0.092 F 
ENDROOT
TORSDOF 0
ENDMDL
