MODEL 1
REMARK minimizedAffinity 19.0223675
REMARK minimizedRMSD -1
REMARK  0 active torsions:
REMARK  status: ('A' for Active; 'I' for Inactive)
ROOT
ATOM      1  C   UNL d   1      -0.495  -3.456  -1.939  0.00  0.00     0.124 A 
ATOM      2  C1  UNL d   1      -1.072  -2.296  -1.441  0.00  0.00     0.062 A 
ATOM      3  C2  UNL d   1      -1.324  -2.170  -0.078  0.00  0.00     0.162 A 
ATOM      4  C3  UNL d   1      -0.998  -3.206   0.797  0.00  0.00    -0.034 A 
ATOM      5  C4  UNL d   1      -0.419  -4.370   0.288  0.00  0.00     0.162 A 
ATOM      6  C5  UNL d   1      -0.169  -4.491  -1.075  0.00  0.00     0.062 A 
ATOM      7  F   UNL d   1       0.388  -5.613  -1.555  0.00  0.00    -0.097 F 
ATOM      8  F1  UNL d   1      -0.093  -5.386   1.101  0.00  0.00    -0.096 F 
ATOM      9  I   UNL d   1      -1.373  -3.021   2.836  0.00  0.00    -0.060 I 
ATOM     10  F2  UNL d   1      -1.882  -1.038   0.377  0.00  0.00    -0.096 F 
ATOM     11  F3  UNL d   1      -1.389  -1.295  -2.274  0.00  0.00    -0.097 F 
ATOM     12  F4  UNL d   1      -0.255  -3.575  -3.251  0.00  0.00    -0.092 F 
ENDROOT
TORSDOF 0
ENDMDL
