MODEL 1
REMARK minimizedAffinity 23.2966366
REMARK minimizedRMSD -1
REMARK  0 active torsions:
REMARK  status: ('A' for Active; 'I' for Inactive)
ROOT
ATOM      1  C   UNL d   1       0.552   0.767  -3.738  0.00  0.00     0.124 A 
ATOM      2  C1  UNL d   1       1.263  -0.062  -2.882  0.00  0.00     0.062 A 
ATOM      3  C2  UNL d   1       2.096   0.485  -1.910  0.00  0.00     0.162 A 
ATOM      4  C3  UNL d   1       2.222   1.869  -1.789  0.00  0.00    -0.034 A 
ATOM      5  C4  UNL d   1       1.504   2.696  -2.655  0.00  0.00     0.162 A 
ATOM      6  C5  UNL d   1       0.673   2.145  -3.624  0.00  0.00     0.062 A 
ATOM      7  F   UNL d   1      -0.013   2.947  -4.451  0.00  0.00    -0.097 F 
ATOM      8  F1  UNL d   1       1.602   4.031  -2.566  0.00  0.00    -0.096 F 
ATOM      9  I   UNL d   1       3.467   2.691  -0.337  0.00  0.00    -0.060 I 
ATOM     10  F2  UNL d   1       2.771  -0.340  -1.096  0.00  0.00    -0.096 F 
ATOM     11  F3  UNL d   1       1.148  -1.393  -2.991  0.00  0.00    -0.097 F 
ATOM     12  F4  UNL d   1      -0.249   0.238  -4.673  0.00  0.00    -0.092 F 
ENDROOT
TORSDOF 0
ENDMDL
