MODEL 1
REMARK minimizedAffinity 26.7003803
REMARK minimizedRMSD -1
REMARK  0 active torsions:
REMARK  status: ('A' for Active; 'I' for Inactive)
ROOT
ATOM      1  C   UNL d   1       4.393   3.572   1.408  0.00  0.00     0.124 A 
ATOM      2  C1  UNL d   1       3.908   3.631   0.109  0.00  0.00     0.062 A 
ATOM      3  C2  UNL d   1       3.140   2.588  -0.400  0.00  0.00     0.162 A 
ATOM      4  C3  UNL d   1       2.851   1.476   0.391  0.00  0.00    -0.034 A 
ATOM      5  C4  UNL d   1       3.343   1.423   1.696  0.00  0.00     0.162 A 
ATOM      6  C5  UNL d   1       4.110   2.468   2.200  0.00  0.00     0.062 A 
ATOM      7  F   UNL d   1       4.578   2.409   3.455  0.00  0.00    -0.097 F 
ATOM      8  F1  UNL d   1       3.084   0.369   2.484  0.00  0.00    -0.096 F 
ATOM      9  I   UNL d   1       1.703  -0.086  -0.367  0.00  0.00    -0.060 I 
ATOM     10  F2  UNL d   1       2.684   2.672  -1.659  0.00  0.00    -0.096 F 
ATOM     11  F3  UNL d   1       4.180   4.696  -0.659  0.00  0.00    -0.097 F 
ATOM     12  F4  UNL d   1       5.132   4.577   1.894  0.00  0.00    -0.092 F 
ENDROOT
TORSDOF 0
ENDMDL
