MODEL 1
REMARK minimizedAffinity 28.5786915
REMARK minimizedRMSD -1
REMARK  0 active torsions:
REMARK  status: ('A' for Active; 'I' for Inactive)
ROOT
ATOM      1  C   UNL d   1       3.045  -0.417  -2.754  0.00  0.00     0.124 A 
ATOM      2  C1  UNL d   1       2.119   0.241  -1.955  0.00  0.00     0.062 A 
ATOM      3  C2  UNL d   1       2.497   1.365  -1.227  0.00  0.00     0.162 A 
ATOM      4  C3  UNL d   1       3.806   1.841  -1.294  0.00  0.00    -0.034 A 
ATOM      5  C4  UNL d   1       4.732   1.173  -2.099  0.00  0.00     0.162 A 
ATOM      6  C5  UNL d   1       4.350   0.050  -2.825  0.00  0.00     0.062 A 
ATOM      7  F   UNL d   1       5.245  -0.584  -3.596  0.00  0.00    -0.097 F 
ATOM      8  F1  UNL d   1       5.999   1.603  -2.186  0.00  0.00    -0.096 F 
ATOM      9  I   UNL d   1       4.375   3.521  -0.206  0.00  0.00    -0.060 I 
ATOM     10  F2  UNL d   1       1.581   1.981  -0.464  0.00  0.00    -0.096 F 
ATOM     11  F3  UNL d   1       0.858  -0.208  -1.884  0.00  0.00    -0.097 F 
ATOM     12  F4  UNL d   1       2.679  -1.499  -3.453  0.00  0.00    -0.092 F 
ENDROOT
TORSDOF 0
ENDMDL
