MODEL 1
REMARK minimizedAffinity 36.5700684
REMARK minimizedRMSD -1
REMARK  0 active torsions:
REMARK  status: ('A' for Active; 'I' for Inactive)
ROOT
ATOM      1  C   UNL d   1      -2.945  -1.323  -2.064  0.00  0.00     0.124 A 
ATOM      2  C1  UNL d   1      -3.075  -0.672  -0.845  0.00  0.00     0.062 A 
ATOM      3  C2  UNL d   1      -2.348  -1.104   0.260  0.00  0.00     0.162 A 
ATOM      4  C3  UNL d   1      -1.483  -2.193   0.152  0.00  0.00    -0.034 A 
ATOM      5  C4  UNL d   1      -1.358  -2.843  -1.077  0.00  0.00     0.162 A 
ATOM      6  C5  UNL d   1      -2.087  -2.408  -2.179  0.00  0.00     0.062 A 
ATOM      7  F   UNL d   1      -1.959  -3.038  -3.356  0.00  0.00    -0.097 F 
ATOM      8  F1  UNL d   1      -0.535  -3.894  -1.216  0.00  0.00    -0.096 F 
ATOM      9  I   UNL d   1      -0.394  -2.842   1.803  0.00  0.00    -0.060 I 
ATOM     10  F2  UNL d   1      -2.494  -0.456   1.426  0.00  0.00    -0.096 F 
ATOM     11  F3  UNL d   1      -3.904   0.376  -0.732  0.00  0.00    -0.097 F 
ATOM     12  F4  UNL d   1      -3.646  -0.906  -3.126  0.00  0.00    -0.092 F 
ENDROOT
TORSDOF 0
ENDMDL
