MODEL 1
REMARK minimizedAffinity 14.6833286
REMARK minimizedRMSD -1
REMARK  0 active torsions:
REMARK  status: ('A' for Active; 'I' for Inactive)
ROOT
ATOM      1  C   UNL d   1      -1.625  -1.034  -2.320  0.00  0.00     0.124 A 
ATOM      2  C1  UNL d   1      -1.004  -0.373  -3.371  0.00  0.00     0.062 A 
ATOM      3  C2  UNL d   1      -1.406   0.911  -3.726  0.00  0.00     0.162 A 
ATOM      4  C3  UNL d   1      -2.434   1.545  -3.028  0.00  0.00    -0.034 A 
ATOM      5  C4  UNL d   1      -3.055   0.874  -1.972  0.00  0.00     0.162 A 
ATOM      6  C5  UNL d   1      -2.649  -0.410  -1.621  0.00  0.00     0.062 A 
ATOM      7  F   UNL d   1      -3.250  -1.046  -0.605  0.00  0.00    -0.097 F 
ATOM      8  F1  UNL d   1      -4.046   1.454  -1.280  0.00  0.00    -0.096 F 
ATOM      9  I   UNL d   1      -3.038   3.465  -3.555  0.00  0.00    -0.060 I 
ATOM     10  F2  UNL d   1      -0.789   1.525  -4.746  0.00  0.00    -0.096 F 
ATOM     11  F3  UNL d   1      -0.015  -0.975  -4.048  0.00  0.00    -0.097 F 
ATOM     12  F4  UNL d   1      -1.237  -2.270  -1.981  0.00  0.00    -0.092 F 
ENDROOT
TORSDOF 0
ENDMDL
