MODEL 1
REMARK minimizedAffinity 15.6141901
REMARK minimizedRMSD -1
REMARK  0 active torsions:
REMARK  status: ('A' for Active; 'I' for Inactive)
ROOT
ATOM      1  C   UNL d   1      -2.415  -2.355   1.725  0.00  0.00     0.124 A 
ATOM      2  C1  UNL d   1      -3.514  -1.567   1.412  0.00  0.00     0.062 A 
ATOM      3  C2  UNL d   1      -3.628  -0.996   0.148  0.00  0.00     0.162 A 
ATOM      4  C3  UNL d   1      -2.641  -1.212  -0.814  0.00  0.00    -0.034 A 
ATOM      5  C4  UNL d   1      -1.538  -2.005  -0.491  0.00  0.00     0.162 A 
ATOM      6  C5  UNL d   1      -1.429  -2.574   0.774  0.00  0.00     0.062 A 
ATOM      7  F   UNL d   1      -0.367  -3.335   1.074  0.00  0.00    -0.097 F 
ATOM      8  F1  UNL d   1      -0.571  -2.234  -1.392  0.00  0.00    -0.096 F 
ATOM      9  I   UNL d   1      -2.808  -0.360  -2.705  0.00  0.00    -0.060 I 
ATOM     10  F2  UNL d   1      -4.700  -0.238  -0.127  0.00  0.00    -0.096 F 
ATOM     11  F3  UNL d   1      -4.467  -1.354   2.330  0.00  0.00    -0.097 F 
ATOM     12  F4  UNL d   1      -2.307  -2.903   2.943  0.00  0.00    -0.092 F 
ENDROOT
TORSDOF 0
ENDMDL
