MODEL 1
REMARK minimizedAffinity -1.20160913
REMARK minimizedRMSD -1
REMARK  0 active torsions:
REMARK  status: ('A' for Active; 'I' for Inactive)
ROOT
ATOM      1  C   UNL d   1       1.213  -3.519  -0.574  0.00  0.00     0.077 C 
ATOM      2  C1  UNL d   1       0.929  -2.245   0.164  0.00  0.00    -0.074 A 
ATOM      3  C2  UNL d   1       1.944  -1.568   0.847  0.00  0.00    -0.005 A 
ATOM      4  C3  UNL d   1       1.667  -0.379   1.522  0.00  0.00     0.006 A 
ATOM      5  C4  UNL d   1       0.373   0.144   1.520  0.00  0.00    -0.005 A 
ATOM      6  C5  UNL d   1      -0.655  -0.518   0.842  0.00  0.00    -0.074 A 
ATOM      7  C6  UNL d   1      -2.048   0.036   0.821  0.00  0.00     0.077 C 
ATOM      8  C7  UNL d   1      -0.366  -1.709   0.160  0.00  0.00    -0.001 A 
ENDROOT
TORSDOF 0
ENDMDL
