MODEL 1
REMARK minimizedAffinity -2.96562409
REMARK minimizedRMSD -1
REMARK  0 active torsions:
REMARK  status: ('A' for Active; 'I' for Inactive)
ROOT
ATOM      1  C   UNL d   1      -1.872   0.381   0.763  0.00  0.00     0.077 C 
ATOM      2  C1  UNL d   1      -0.506  -0.238   0.808  0.00  0.00    -0.074 A 
ATOM      3  C2  UNL d   1       0.529   0.358   1.536  0.00  0.00    -0.005 A 
ATOM      4  C3  UNL d   1       1.791  -0.234   1.577  0.00  0.00     0.006 A 
ATOM      5  C4  UNL d   1       2.031  -1.425   0.892  0.00  0.00    -0.005 A 
ATOM      6  C5  UNL d   1       1.008  -2.036   0.159  0.00  0.00    -0.074 A 
ATOM      7  C6  UNL d   1       1.246  -3.322  -0.575  0.00  0.00     0.077 C 
ATOM      8  C7  UNL d   1      -0.260  -1.439   0.129  0.00  0.00    -0.001 A 
ENDROOT
TORSDOF 0
ENDMDL
