MODEL 1
REMARK minimizedAffinity -4.99622965
REMARK minimizedRMSD -1
REMARK  0 active torsions:
REMARK  status: ('A' for Active; 'I' for Inactive)
ROOT
ATOM      1  C   UNL d   1       3.335  -1.508   0.356  0.00  0.00     0.077 C 
ATOM      2  C1  UNL d   1       1.845  -1.674   0.401  0.00  0.00    -0.074 A 
ATOM      3  C2  UNL d   1       1.234  -2.826  -0.104  0.00  0.00    -0.005 A 
ATOM      4  C3  UNL d   1      -0.152  -2.970  -0.047  0.00  0.00     0.006 A 
ATOM      5  C4  UNL d   1      -0.940  -1.966   0.515  0.00  0.00    -0.005 A 
ATOM      6  C5  UNL d   1      -0.347  -0.807   1.027  0.00  0.00    -0.074 A 
ATOM      7  C6  UNL d   1      -1.179   0.278   1.643  0.00  0.00     0.077 C 
ATOM      8  C7  UNL d   1       1.047  -0.673   0.972  0.00  0.00    -0.001 A 
ENDROOT
TORSDOF 0
ENDMDL
