MODEL 1
REMARK minimizedAffinity 10.6964464
REMARK minimizedRMSD -1
REMARK  0 active torsions:
REMARK  status: ('A' for Active; 'I' for Inactive)
ROOT
ATOM      1  C   UNL d   1      -2.085  -1.528  -0.167  0.00  0.00     0.077 C 
ATOM      2  C1  UNL d   1      -0.705  -1.929   0.263  0.00  0.00    -0.074 A 
ATOM      3  C2  UNL d   1      -0.144  -3.138  -0.159  0.00  0.00    -0.005 A 
ATOM      4  C3  UNL d   1       1.145  -3.492   0.241  0.00  0.00     0.006 A 
ATOM      5  C4  UNL d   1       1.883  -2.642   1.066  0.00  0.00    -0.005 A 
ATOM      6  C5  UNL d   1       1.338  -1.428   1.496  0.00  0.00    -0.074 A 
ATOM      7  C6  UNL d   1       2.122  -0.499   2.375  0.00  0.00     0.077 C 
ATOM      8  C7  UNL d   1       0.046  -1.076   1.084  0.00  0.00    -0.001 A 
ENDROOT
TORSDOF 0
ENDMDL
