MODEL 1
REMARK minimizedAffinity 2.00142527
REMARK minimizedRMSD -1
REMARK  0 active torsions:
REMARK  status: ('A' for Active; 'I' for Inactive)
ROOT
ATOM      1  C   UNL d   1       3.014  -0.942  -0.218  0.00  0.00     0.077 C 
ATOM      2  C1  UNL d   1       1.605  -1.309   0.142  0.00  0.00    -0.074 A 
ATOM      3  C2  UNL d   1       1.062  -2.540  -0.240  0.00  0.00    -0.005 A 
ATOM      4  C3  UNL d   1      -0.246  -2.871   0.110  0.00  0.00     0.006 A 
ATOM      5  C4  UNL d   1      -1.025  -1.976   0.845  0.00  0.00    -0.005 A 
ATOM      6  C5  UNL d   1      -0.500  -0.741   1.237  0.00  0.00    -0.074 A 
ATOM      7  C6  UNL d   1      -1.320   0.228   2.035  0.00  0.00     0.077 C 
ATOM      8  C7  UNL d   1       0.819  -0.418   0.887  0.00  0.00    -0.001 A 
ENDROOT
TORSDOF 0
ENDMDL
