MODEL 1
REMARK minimizedAffinity 0.534132719
REMARK minimizedRMSD -1
REMARK  0 active torsions:
REMARK  status: ('A' for Active; 'I' for Inactive)
ROOT
ATOM      1  C   UNL d   1       0.003  -2.990   0.023  0.00  0.00     0.077 C 
ATOM      2  C1  UNL d   1      -0.502  -1.725   0.651  0.00  0.00    -0.074 A 
ATOM      3  C2  UNL d   1       0.158  -1.150   1.741  0.00  0.00    -0.005 A 
ATOM      4  C3  UNL d   1      -0.318   0.032   2.309  0.00  0.00     0.006 A 
ATOM      5  C4  UNL d   1      -1.457   0.650   1.792  0.00  0.00    -0.005 A 
ATOM      6  C5  UNL d   1      -2.130   0.090   0.702  0.00  0.00    -0.074 A 
ATOM      7  C6  UNL d   1      -3.351   0.747   0.128  0.00  0.00     0.077 C 
ATOM      8  C7  UNL d   1      -1.642  -1.094   0.133  0.00  0.00    -0.001 A 
ENDROOT
TORSDOF 0
ENDMDL
