MODEL 1
REMARK minimizedAffinity 1.58164895
REMARK minimizedRMSD -1
REMARK  0 active torsions:
REMARK  status: ('A' for Active; 'I' for Inactive)
ROOT
ATOM      1  C   UNL d   1      -1.043  -2.686   0.312  0.00  0.00     0.077 C 
ATOM      2  C1  UNL d   1       0.399  -2.278   0.382  0.00  0.00    -0.074 A 
ATOM      3  C2  UNL d   1       0.772  -1.049   0.935  0.00  0.00    -0.005 A 
ATOM      4  C3  UNL d   1       2.118  -0.688   1.002  0.00  0.00     0.006 A 
ATOM      5  C4  UNL d   1       3.102  -1.551   0.518  0.00  0.00    -0.005 A 
ATOM      6  C5  UNL d   1       2.747  -2.784  -0.037  0.00  0.00    -0.074 A 
ATOM      7  C6  UNL d   1       3.793  -3.728  -0.553  0.00  0.00     0.077 C 
ATOM      8  C7  UNL d   1       1.394  -3.143  -0.095  0.00  0.00    -0.001 A 
ENDROOT
TORSDOF 0
ENDMDL
