MODEL 1
REMARK minimizedAffinity 1.30399048
REMARK minimizedRMSD -1
REMARK  0 active torsions:
REMARK  status: ('A' for Active; 'I' for Inactive)
ROOT
ATOM      1  C   UNL d   1      -0.106  -3.263  -0.654  0.00  0.00     0.077 C 
ATOM      2  C1  UNL d   1       0.371  -2.019   0.034  0.00  0.00    -0.074 A 
ATOM      3  C2  UNL d   1       1.683  -1.565  -0.132  0.00  0.00    -0.005 A 
ATOM      4  C3  UNL d   1       2.111  -0.401   0.507  0.00  0.00     0.006 A 
ATOM      5  C4  UNL d   1       1.231   0.319   1.317  0.00  0.00    -0.005 A 
ATOM      6  C5  UNL d   1      -0.085  -0.119   1.494  0.00  0.00    -0.074 A 
ATOM      7  C6  UNL d   1      -1.045   0.648   2.353  0.00  0.00     0.077 C 
ATOM      8  C7  UNL d   1      -0.508  -1.286   0.843  0.00  0.00    -0.001 A 
ENDROOT
TORSDOF 0
ENDMDL
