MODEL 1
REMARK minimizedAffinity -1.33908224
REMARK minimizedRMSD -1
REMARK  0 active torsions:
REMARK  status: ('A' for Active; 'I' for Inactive)
ROOT
ATOM      1  C   UNL d   1       2.285  -3.898  -0.558  0.00  0.00     0.077 C 
ATOM      2  C1  UNL d   1       1.489  -2.723  -0.073  0.00  0.00    -0.074 A 
ATOM      3  C2  UNL d   1       1.984  -1.420  -0.194  0.00  0.00    -0.005 A 
ATOM      4  C3  UNL d   1       1.228  -0.337   0.253  0.00  0.00     0.006 A 
ATOM      5  C4  UNL d   1      -0.027  -0.544   0.826  0.00  0.00    -0.005 A 
ATOM      6  C5  UNL d   1      -0.538  -1.839   0.956  0.00  0.00    -0.074 A 
ATOM      7  C6  UNL d   1      -1.890  -2.079   1.560  0.00  0.00     0.077 C 
ATOM      8  C7  UNL d   1       0.224  -2.922   0.497  0.00  0.00    -0.001 A 
ENDROOT
TORSDOF 0
ENDMDL
