MODEL 1
REMARK minimizedAffinity -4.04170132
REMARK minimizedRMSD -1
REMARK  0 active torsions:
REMARK  status: ('A' for Active; 'I' for Inactive)
ROOT
ATOM      1  C   UNL d   1       2.395  -4.012  -0.447  0.00  0.00     0.077 C 
ATOM      2  C1  UNL d   1       1.716  -2.721  -0.098  0.00  0.00    -0.074 A 
ATOM      3  C2  UNL d   1       2.458  -1.557   0.126  0.00  0.00    -0.005 A 
ATOM      4  C3  UNL d   1       1.813  -0.361   0.441  0.00  0.00     0.006 A 
ATOM      5  C4  UNL d   1       0.421  -0.317   0.535  0.00  0.00    -0.005 A 
ATOM      6  C5  UNL d   1      -0.337  -1.471   0.314  0.00  0.00    -0.074 A 
ATOM      7  C6  UNL d   1      -1.834  -1.439   0.402  0.00  0.00     0.077 C 
ATOM      8  C7  UNL d   1       0.318  -2.667  -0.009  0.00  0.00    -0.001 A 
ENDROOT
TORSDOF 0
ENDMDL
