MODEL 1
REMARK minimizedAffinity 1.26058936
REMARK minimizedRMSD -1
REMARK  0 active torsions:
REMARK  status: ('A' for Active; 'I' for Inactive)
ROOT
ATOM      1  C   UNL d   1       2.142  -4.254  -1.203  0.00  0.00     0.077 C 
ATOM      2  C1  UNL d   1       1.821  -2.953  -0.530  0.00  0.00    -0.074 A 
ATOM      3  C2  UNL d   1       2.829  -2.030  -0.233  0.00  0.00    -0.005 A 
ATOM      4  C3  UNL d   1       2.515  -0.820   0.385  0.00  0.00     0.006 A 
ATOM      5  C4  UNL d   1       1.192  -0.521   0.712  0.00  0.00    -0.005 A 
ATOM      6  C5  UNL d   1       0.171  -1.431   0.423  0.00  0.00    -0.074 A 
ATOM      7  C6  UNL d   1      -1.258  -1.121   0.759  0.00  0.00     0.077 C 
ATOM      8  C7  UNL d   1       0.494  -2.642  -0.205  0.00  0.00    -0.001 A 
ENDROOT
TORSDOF 0
ENDMDL
