MODEL 1
REMARK minimizedAffinity 3.01671362
REMARK minimizedRMSD -1
REMARK  0 active torsions:
REMARK  status: ('A' for Active; 'I' for Inactive)
ROOT
ATOM      1  C   UNL d   1      -0.550   0.537   2.145  0.00  0.00     0.077 C 
ATOM      2  C1  UNL d   1       0.156  -0.475   1.292  0.00  0.00    -0.074 A 
ATOM      3  C2  UNL d   1      -0.553  -1.497   0.653  0.00  0.00    -0.005 A 
ATOM      4  C3  UNL d   1       0.116  -2.425  -0.145  0.00  0.00     0.006 A 
ATOM      5  C4  UNL d   1       1.499  -2.341  -0.311  0.00  0.00    -0.005 A 
ATOM      6  C5  UNL d   1       2.225  -1.327   0.320  0.00  0.00    -0.074 A 
ATOM      7  C6  UNL d   1       3.711  -1.217   0.145  0.00  0.00     0.077 C 
ATOM      8  C7  UNL d   1       1.545  -0.393   1.114  0.00  0.00    -0.001 A 
ENDROOT
TORSDOF 0
ENDMDL
