MODEL 1
REMARK minimizedAffinity 4.77829266
REMARK minimizedRMSD -1
REMARK  0 active torsions:
REMARK  status: ('A' for Active; 'I' for Inactive)
ROOT
ATOM      1  C   UNL d   1       1.473  -3.885  -0.729  0.00  0.00     0.077 C 
ATOM      2  C1  UNL d   1       0.921  -2.727   0.049  0.00  0.00    -0.074 A 
ATOM      3  C2  UNL d   1      -0.418  -2.345  -0.084  0.00  0.00    -0.005 A 
ATOM      4  C3  UNL d   1      -0.920  -1.272   0.653  0.00  0.00     0.006 A 
ATOM      5  C4  UNL d   1      -0.089  -0.572   1.528  0.00  0.00    -0.005 A 
ATOM      6  C5  UNL d   1       1.252  -0.940   1.675  0.00  0.00    -0.074 A 
ATOM      7  C6  UNL d   1       2.155  -0.204   2.619  0.00  0.00     0.077 C 
ATOM      8  C7  UNL d   1       1.747  -2.023   0.937  0.00  0.00    -0.001 A 
ENDROOT
TORSDOF 0
ENDMDL
