MODEL 1
REMARK minimizedAffinity -0.126666993
REMARK minimizedRMSD -1
REMARK  0 active torsions:
REMARK  status: ('A' for Active; 'I' for Inactive)
ROOT
ATOM      1  C   UNL d   1      -3.974   1.293  -0.054  0.00  0.00     0.077 C 
ATOM      2  C1  UNL d   1      -2.986   0.840   0.979  0.00  0.00    -0.074 A 
ATOM      3  C2  UNL d   1      -3.072   1.287   2.301  0.00  0.00    -0.005 A 
ATOM      4  C3  UNL d   1      -2.151   0.849   3.253  0.00  0.00     0.006 A 
ATOM      5  C4  UNL d   1      -1.136  -0.038   2.893  0.00  0.00    -0.005 A 
ATOM      6  C5  UNL d   1      -1.035  -0.496   1.576  0.00  0.00    -0.074 A 
ATOM      7  C6  UNL d   1       0.044  -1.458   1.174  0.00  0.00     0.077 C 
ATOM      8  C7  UNL d   1      -1.968  -0.058   0.627  0.00  0.00    -0.001 A 
ENDROOT
TORSDOF 0
ENDMDL
