MODEL 1
REMARK minimizedAffinity -5.87546587
REMARK minimizedRMSD -1
REMARK  0 active torsions:
REMARK  status: ('A' for Active; 'I' for Inactive)
ROOT
ATOM      1  C   UNL d   1      -1.129  -3.021   0.105  0.00  0.00     0.077 C 
ATOM      2  C1  UNL d   1      -1.418  -1.671   0.692  0.00  0.00    -0.074 A 
ATOM      3  C2  UNL d   1      -0.731  -1.216   1.822  0.00  0.00    -0.005 A 
ATOM      4  C3  UNL d   1      -1.004   0.045   2.351  0.00  0.00     0.006 A 
ATOM      5  C4  UNL d   1      -1.966   0.863   1.756  0.00  0.00    -0.005 A 
ATOM      6  C5  UNL d   1      -2.663   0.426   0.626  0.00  0.00    -0.074 A 
ATOM      7  C6  UNL d   1      -3.692   1.296  -0.031  0.00  0.00     0.077 C 
ATOM      8  C7  UNL d   1      -2.377  -0.840   0.096  0.00  0.00    -0.001 A 
ENDROOT
TORSDOF 0
ENDMDL
