MODEL 1
REMARK minimizedAffinity 10.937089
REMARK minimizedRMSD -1
REMARK  0 active torsions:
REMARK  status: ('A' for Active; 'I' for Inactive)
ROOT
ATOM      1  C   UNL d   1       0.066  -3.047   0.082  0.00  0.00     0.077 C 
ATOM      2  C1  UNL d   1       1.554  -3.182  -0.050  0.00  0.00    -0.074 A 
ATOM      3  C2  UNL d   1       2.390  -2.069   0.082  0.00  0.00    -0.005 A 
ATOM      4  C3  UNL d   1       3.773  -2.211  -0.033  0.00  0.00     0.006 A 
ATOM      5  C4  UNL d   1       4.332  -3.465  -0.282  0.00  0.00    -0.005 A 
ATOM      6  C5  UNL d   1       3.511  -4.589  -0.416  0.00  0.00    -0.074 A 
ATOM      7  C6  UNL d   1       4.097  -5.946  -0.674  0.00  0.00     0.077 C 
ATOM      8  C7  UNL d   1       2.123  -4.440  -0.292  0.00  0.00    -0.001 A 
ENDROOT
TORSDOF 0
ENDMDL
