MODEL 1
REMARK minimizedAffinity -2.80444169
REMARK minimizedRMSD -1
REMARK  0 active torsions:
REMARK  status: ('A' for Active; 'I' for Inactive)
ROOT
ATOM      1  C   UNL d   1      -2.106  -0.417   1.112  0.00  0.00     0.077 C 
ATOM      2  C1  UNL d   1      -0.849  -1.130   0.711  0.00  0.00    -0.074 A 
ATOM      3  C2  UNL d   1      -0.898  -2.399   0.126  0.00  0.00    -0.005 A 
ATOM      4  C3  UNL d   1       0.280  -3.046  -0.250  0.00  0.00     0.006 A 
ATOM      5  C4  UNL d   1       1.515  -2.431  -0.045  0.00  0.00    -0.005 A 
ATOM      6  C5  UNL d   1       1.584  -1.161   0.538  0.00  0.00    -0.074 A 
ATOM      7  C6  UNL d   1       2.903  -0.482   0.756  0.00  0.00     0.077 C 
ATOM      8  C7  UNL d   1       0.396  -0.515   0.907  0.00  0.00    -0.001 A 
ENDROOT
TORSDOF 0
ENDMDL
