MODEL 1
REMARK minimizedAffinity -1.79559088
REMARK minimizedRMSD -1
REMARK  0 active torsions:
REMARK  status: ('A' for Active; 'I' for Inactive)
ROOT
ATOM      1  C   UNL d   1      -0.171  -4.015   2.905  0.00  0.00     0.020 A 
ATOM      2  C1  UNL d   1      -0.818  -2.813   2.618  0.00  0.00     0.020 A 
ATOM      3  C2  UNL d   1      -0.281  -1.941   1.669  0.00  0.00     0.034 A 
ATOM      4  C3  UNL d   1       0.906  -2.268   1.003  0.00  0.00     0.017 A 
ATOM      5  C4  UNL d   1       1.554  -3.474   1.292  0.00  0.00     0.017 A 
ATOM      6  C5  UNL d   1       1.013  -4.344   2.243  0.00  0.00     0.034 A 
ATOM      7 Cl   UNL d   1       3.022  -3.947   0.511  0.00  0.00    -0.070 Cl
ATOM      8 Cl1  UNL d   1       1.512  -1.142  -0.159  0.00  0.00    -0.070 Cl
ENDROOT
TORSDOF 0
ENDMDL
