MODEL 1
REMARK minimizedAffinity 2.03544283
REMARK minimizedRMSD -1
REMARK  0 active torsions:
REMARK  status: ('A' for Active; 'I' for Inactive)
ROOT
ATOM      1  C   UNL d   1       0.505   0.113   1.927  0.00  0.00     0.020 A 
ATOM      2  C1  UNL d   1       1.770  -0.075   1.372  0.00  0.00     0.020 A 
ATOM      3  C2  UNL d   1       2.091  -1.291   0.763  0.00  0.00     0.034 A 
ATOM      4  C3  UNL d   1       1.146  -2.322   0.709  0.00  0.00     0.017 A 
ATOM      5  C4  UNL d   1      -0.123  -2.131   1.266  0.00  0.00     0.017 A 
ATOM      6  C5  UNL d   1      -0.440  -0.912   1.875  0.00  0.00     0.034 A 
ATOM      7 Cl   UNL d   1      -1.342  -3.357   1.238  0.00  0.00    -0.070 Cl
ATOM      8 Cl1  UNL d   1       1.611  -3.798  -0.060  0.00  0.00    -0.070 Cl
ENDROOT
TORSDOF 0
ENDMDL
