MODEL 1
REMARK minimizedAffinity 2.93897986
REMARK minimizedRMSD -1
REMARK  0 active torsions:
REMARK  status: ('A' for Active; 'I' for Inactive)
ROOT
ATOM      1  C   UNL d   1       0.140   3.991  -5.995  0.00  0.00     0.020 A 
ATOM      2  C1  UNL d   1       0.022   5.381  -6.000  0.00  0.00     0.020 A 
ATOM      3  C2  UNL d   1      -1.182   5.980  -5.623  0.00  0.00     0.034 A 
ATOM      4  C3  UNL d   1      -2.272   5.191  -5.240  0.00  0.00     0.017 A 
ATOM      5  C4  UNL d   1      -2.153   3.796  -5.235  0.00  0.00     0.017 A 
ATOM      6  C5  UNL d   1      -0.945   3.201  -5.614  0.00  0.00     0.034 A 
ATOM      7 Cl   UNL d   1      -3.454   2.756  -4.775  0.00  0.00    -0.070 Cl
ATOM      8 Cl1  UNL d   1      -3.730   5.999  -4.785  0.00  0.00    -0.070 Cl
ENDROOT
TORSDOF 0
ENDMDL
