MODEL 1
REMARK minimizedAffinity 6.13702297
REMARK minimizedRMSD -1
REMARK  0 active torsions:
REMARK  status: ('A' for Active; 'I' for Inactive)
ROOT
ATOM      1  C   UNL d   1       2.582  -3.412   0.243  0.00  0.00     0.020 A 
ATOM      2  C1  UNL d   1       2.147  -4.497   1.004  0.00  0.00     0.020 A 
ATOM      3  C2  UNL d   1       0.952  -4.412   1.721  0.00  0.00     0.034 A 
ATOM      4  C3  UNL d   1       0.188  -3.240   1.679  0.00  0.00     0.017 A 
ATOM      5  C4  UNL d   1       0.625  -2.152   0.915  0.00  0.00     0.017 A 
ATOM      6  C5  UNL d   1       1.822  -2.243   0.199  0.00  0.00     0.034 A 
ATOM      7 Cl   UNL d   1      -0.264  -0.673   0.814  0.00  0.00    -0.070 Cl
ATOM      8 Cl1  UNL d   1      -1.280  -3.205   2.590  0.00  0.00    -0.070 Cl
ENDROOT
TORSDOF 0
ENDMDL
