MODEL 1
REMARK minimizedAffinity 3.78164458
REMARK minimizedRMSD -1
REMARK  0 active torsions:
REMARK  status: ('A' for Active; 'I' for Inactive)
ROOT
ATOM      1  C   UNL d   1       2.389  -3.182   0.053  0.00  0.00     0.020 A 
ATOM      2  C1  UNL d   1       1.844  -4.343   0.601  0.00  0.00     0.020 A 
ATOM      3  C2  UNL d   1       0.645  -4.282   1.314  0.00  0.00     0.034 A 
ATOM      4  C3  UNL d   1      -0.013  -3.059   1.482  0.00  0.00     0.017 A 
ATOM      5  C4  UNL d   1       0.534  -1.894   0.931  0.00  0.00     0.017 A 
ATOM      6  C5  UNL d   1       1.735  -1.960   0.218  0.00  0.00     0.034 A 
ATOM      7 Cl   UNL d   1      -0.221  -0.348   1.096  0.00  0.00    -0.070 Cl
ATOM      8 Cl1  UNL d   1      -1.493  -3.058   2.375  0.00  0.00    -0.070 Cl
ENDROOT
TORSDOF 0
ENDMDL
