MODEL 1
REMARK minimizedAffinity 0.565365374
REMARK minimizedRMSD -1
REMARK  0 active torsions:
REMARK  status: ('A' for Active; 'I' for Inactive)
ROOT
ATOM      1  C   UNL d   1      -3.401  -2.632  -5.385  0.00  0.00     0.020 A 
ATOM      2  C1  UNL d   1      -2.482  -2.085  -4.491  0.00  0.00     0.020 A 
ATOM      3  C2  UNL d   1      -2.641  -0.772  -4.043  0.00  0.00     0.034 A 
ATOM      4  C3  UNL d   1      -3.721  -0.001  -4.489  0.00  0.00     0.017 A 
ATOM      5  C4  UNL d   1      -4.642  -0.551  -5.387  0.00  0.00     0.017 A 
ATOM      6  C5  UNL d   1      -4.479  -1.867  -5.832  0.00  0.00     0.034 A 
ATOM      7 Cl   UNL d   1      -6.000   0.338  -5.983  0.00  0.00    -0.070 Cl
ATOM      8 Cl1  UNL d   1      -3.855   1.615  -3.894  0.00  0.00    -0.070 Cl
ENDROOT
TORSDOF 0
ENDMDL
