MODEL 1
REMARK minimizedAffinity 3.06270456
REMARK minimizedRMSD -1
REMARK  0 active torsions:
REMARK  status: ('A' for Active; 'I' for Inactive)
ROOT
ATOM      1  C   UNL d   1       3.412  -4.978   0.046  0.00  0.00     0.020 A 
ATOM      2  C1  UNL d   1       2.644  -5.366   1.143  0.00  0.00     0.020 A 
ATOM      3  C2  UNL d   1       1.748  -4.465   1.722  0.00  0.00     0.034 A 
ATOM      4  C3  UNL d   1       1.618  -3.171   1.204  0.00  0.00     0.017 A 
ATOM      5  C4  UNL d   1       2.389  -2.782   0.103  0.00  0.00     0.017 A 
ATOM      6  C5  UNL d   1       3.284  -3.689  -0.473  0.00  0.00     0.034 A 
ATOM      7 Cl   UNL d   1       2.284  -1.203  -0.592  0.00  0.00    -0.070 Cl
ATOM      8 Cl1  UNL d   1       0.491  -2.109   1.970  0.00  0.00    -0.070 Cl
ENDROOT
TORSDOF 0
ENDMDL
