MODEL 1
REMARK minimizedAffinity 3.28530097
REMARK minimizedRMSD -1
REMARK  0 active torsions:
REMARK  status: ('A' for Active; 'I' for Inactive)
ROOT
ATOM      1  C   UNL d   1      -4.182   4.780   5.998  0.00  0.00     0.020 A 
ATOM      2  C1  UNL d   1      -3.153   4.851   5.060  0.00  0.00     0.020 A 
ATOM      3  C2  UNL d   1      -2.990   3.828   4.124  0.00  0.00     0.034 A 
ATOM      4  C3  UNL d   1      -3.857   2.729   4.123  0.00  0.00     0.017 A 
ATOM      5  C4  UNL d   1      -4.890   2.659   5.065  0.00  0.00     0.017 A 
ATOM      6  C5  UNL d   1      -5.049   3.686   6.000  0.00  0.00     0.034 A 
ATOM      7 Cl   UNL d   1      -5.999   1.335   5.126  0.00  0.00    -0.070 Cl
ATOM      8 Cl1  UNL d   1      -3.596   1.500   2.936  0.00  0.00    -0.070 Cl
ENDROOT
TORSDOF 0
ENDMDL
