MODEL 1
REMARK minimizedAffinity 4.5172143
REMARK minimizedRMSD -1
REMARK  0 active torsions:
REMARK  status: ('A' for Active; 'I' for Inactive)
ROOT
ATOM      1  C   UNL d   1       1.853  -2.287   0.327  0.00  0.00     0.020 A 
ATOM      2  C1  UNL d   1       1.483  -3.626   0.438  0.00  0.00     0.020 A 
ATOM      3  C2  UNL d   1       0.365  -3.981   1.195  0.00  0.00     0.034 A 
ATOM      4  C3  UNL d   1      -0.387  -2.996   1.845  0.00  0.00     0.017 A 
ATOM      5  C4  UNL d   1      -0.015  -1.651   1.734  0.00  0.00     0.017 A 
ATOM      6  C5  UNL d   1       1.106  -1.301   0.974  0.00  0.00     0.034 A 
ATOM      7 Cl   UNL d   1      -0.893  -0.379   2.507  0.00  0.00    -0.070 Cl
ATOM      8 Cl1  UNL d   1      -1.758  -3.507   2.764  0.00  0.00    -0.070 Cl
ENDROOT
TORSDOF 0
ENDMDL
