MODEL 1
REMARK minimizedAffinity 4.41259146
REMARK minimizedRMSD -1
REMARK  0 active torsions:
REMARK  status: ('A' for Active; 'I' for Inactive)
ROOT
ATOM      1  C   UNL d   1       4.364  -5.999   1.064  0.00  0.00     0.020 A 
ATOM      2  C1  UNL d   1       4.988  -4.897   0.481  0.00  0.00     0.020 A 
ATOM      3  C2  UNL d   1       4.257  -3.736   0.222  0.00  0.00     0.034 A 
ATOM      4  C3  UNL d   1       2.897  -3.674   0.547  0.00  0.00     0.017 A 
ATOM      5  C4  UNL d   1       2.271  -4.781   1.133  0.00  0.00     0.017 A 
ATOM      6  C5  UNL d   1       3.008  -5.941   1.389  0.00  0.00     0.034 A 
ATOM      7 Cl   UNL d   1       0.597  -4.779   1.562  0.00  0.00    -0.070 Cl
ATOM      8 Cl1  UNL d   1       2.054  -2.206   0.201  0.00  0.00    -0.070 Cl
ENDROOT
TORSDOF 0
ENDMDL
