MODEL 1
REMARK minimizedAffinity 1.00546336
REMARK minimizedRMSD -1
REMARK  1 active torsions:
REMARK  status: ('A' for Active; 'I' for Inactive)
REMARK    1  A    between atoms: C1_2  and  C2_3 
ROOT
ATOM      1  C2  UNL d   1      -0.049  -1.135   2.476  0.00  0.00    -0.081 A 
ATOM      2  C3  UNL d   1       0.264  -0.579   1.230  0.00  0.00     0.006 A 
ATOM      3  C4  UNL d   1       1.344  -1.064   0.489  0.00  0.00     0.002 A 
ATOM      4  C5  UNL d   1       2.124  -2.117   0.977  0.00  0.00    -0.080 A 
ATOM      5  C6  UNL d   1       3.267  -2.668   0.178  0.00  0.00     0.076 C 
ATOM      6  C7  UNL d   1       1.822  -2.662   2.230  0.00  0.00     0.002 A 
ATOM      7  C8  UNL d   1       0.743  -2.177   2.972  0.00  0.00     0.006 A 
ENDROOT
BRANCH   1   8
ATOM      8  C1  UNL d   1      -1.252  -0.658   3.248  0.00  0.00     0.054 C 
ATOM      9  C   UNL d   1      -1.959   0.479   2.524  0.00  0.00     0.018 C 
ENDBRANCH   1   8
TORSDOF 1
ENDMDL
