MODEL 1
REMARK minimizedAffinity 10.9750824
REMARK minimizedRMSD -1
REMARK  1 active torsions:
REMARK  status: ('A' for Active; 'I' for Inactive)
REMARK    1  A    between atoms: C1_2  and  C2_3 
ROOT
ATOM      1  C2  UNL d   1       1.555  -2.582   0.656  0.00  0.00    -0.081 A 
ATOM      2  C3  UNL d   1       1.978  -2.441   1.984  0.00  0.00     0.006 A 
ATOM      3  C4  UNL d   1       1.263  -1.635   2.873  0.00  0.00     0.002 A 
ATOM      4  C5  UNL d   1       0.110  -0.964   2.453  0.00  0.00    -0.080 A 
ATOM      5  C6  UNL d   1      -0.684  -0.120   3.405  0.00  0.00     0.076 C 
ATOM      6  C7  UNL d   1      -0.303  -1.090   1.122  0.00  0.00     0.002 A 
ATOM      7  C8  UNL d   1       0.412  -1.895   0.232  0.00  0.00     0.006 A 
ENDROOT
BRANCH   1   8
ATOM      8  C1  UNL d   1       2.287  -3.501  -0.288  0.00  0.00     0.054 C 
ATOM      9  C   UNL d   1       2.362  -4.917   0.266  0.00  0.00     0.018 C 
ENDBRANCH   1   8
TORSDOF 1
ENDMDL
