MODEL 1
REMARK minimizedAffinity -4.07149792
REMARK minimizedRMSD -1
REMARK  1 active torsions:
REMARK  status: ('A' for Active; 'I' for Inactive)
REMARK    1  A    between atoms: C1_2  and  C2_3 
ROOT
ATOM      1  C2  UNL d   1      -1.895   5.250   4.433  0.00  0.00    -0.081 A 
ATOM      2  C3  UNL d   1      -2.196   4.102   5.176  0.00  0.00     0.006 A 
ATOM      3  C4  UNL d   1      -3.523   3.706   5.360  0.00  0.00     0.002 A 
ATOM      4  C5  UNL d   1      -4.569   4.446   4.799  0.00  0.00    -0.080 A 
ATOM      5  C6  UNL d   1      -5.996   4.015   4.964  0.00  0.00     0.076 C 
ATOM      6  C7  UNL d   1      -4.269   5.603   4.072  0.00  0.00     0.002 A 
ATOM      7  C8  UNL d   1      -2.943   6.000   3.888  0.00  0.00     0.006 A 
ENDROOT
BRANCH   1   8
ATOM      8  C1  UNL d   1      -0.462   5.644   4.178  0.00  0.00     0.054 C 
ATOM      9  C   UNL d   1       0.121   4.875   3.001  0.00  0.00     0.018 C 
ENDBRANCH   1   8
TORSDOF 1
ENDMDL
