MODEL 1
REMARK minimizedAffinity 14.1206961
REMARK minimizedRMSD -1
REMARK  1 active torsions:
REMARK  status: ('A' for Active; 'I' for Inactive)
REMARK    1  A    between atoms: C1_2  and  C2_3 
ROOT
ATOM      1  C2  UNL d   1      -1.251  -0.096   3.001  0.00  0.00    -0.081 A 
ATOM      2  C3  UNL d   1       0.077   0.317   3.157  0.00  0.00     0.006 A 
ATOM      3  C4  UNL d   1       1.116  -0.395   2.551  0.00  0.00     0.002 A 
ATOM      4  C5  UNL d   1       0.842  -1.525   1.774  0.00  0.00    -0.080 A 
ATOM      5  C6  UNL d   1       1.945  -2.280   1.094  0.00  0.00     0.076 C 
ATOM      6  C7  UNL d   1      -0.484  -1.948   1.633  0.00  0.00     0.002 A 
ATOM      7  C8  UNL d   1      -1.522  -1.237   2.239  0.00  0.00     0.006 A 
ENDROOT
BRANCH   1   8
ATOM      8  C1  UNL d   1      -2.378   0.707   3.600  0.00  0.00     0.054 C 
ATOM      9  C   UNL d   1      -3.418   1.070   2.549  0.00  0.00     0.018 C 
ENDBRANCH   1   8
TORSDOF 1
ENDMDL
