MODEL 1
REMARK minimizedAffinity 9.71427345
REMARK minimizedRMSD -1
REMARK  1 active torsions:
REMARK  status: ('A' for Active; 'I' for Inactive)
REMARK    1  A    between atoms: C1_2  and  C2_3 
ROOT
ATOM      1  C2  UNL d   1       0.385  -3.531   1.145  0.00  0.00    -0.081 A 
ATOM      2  C3  UNL d   1       1.428  -2.605   1.024  0.00  0.00     0.006 A 
ATOM      3  C4  UNL d   1       1.358  -1.371   1.676  0.00  0.00     0.002 A 
ATOM      4  C5  UNL d   1       0.250  -1.047   2.465  0.00  0.00    -0.080 A 
ATOM      5  C6  UNL d   1       0.176   0.262   3.194  0.00  0.00     0.076 C 
ATOM      6  C7  UNL d   1      -0.800  -1.965   2.572  0.00  0.00     0.002 A 
ATOM      7  C8  UNL d   1      -0.732  -3.198   1.920  0.00  0.00     0.006 A 
ENDROOT
BRANCH   1   8
ATOM      8  C1  UNL d   1       0.486  -4.888   0.496  0.00  0.00     0.054 C 
ATOM      9  C   UNL d   1       0.143  -5.998   1.479  0.00  0.00     0.018 C 
ENDBRANCH   1   8
TORSDOF 1
ENDMDL
