MODEL 1
REMARK minimizedAffinity 4.0717082
REMARK minimizedRMSD -1
REMARK  1 active torsions:
REMARK  status: ('A' for Active; 'I' for Inactive)
REMARK    1  A    between atoms: C1_2  and  C2_3 
ROOT
ATOM      1  C2  UNL d   1       3.570  -3.455  -0.317  0.00  0.00    -0.077 A 
ATOM      2  C3  UNL d   1       2.344  -3.866   0.224  0.00  0.00     0.002 A 
ATOM      3  C4  UNL d   1       1.833  -5.133  -0.065  0.00  0.00     0.002 A 
ATOM      4  C5  UNL d   1       2.544  -6.000  -0.892  0.00  0.00    -0.004 A 
ATOM      5  C6  UNL d   1       3.763  -5.600  -1.437  0.00  0.00     0.002 A 
ATOM      6  C7  UNL d   1       4.274  -4.333  -1.150  0.00  0.00     0.002 A 
ENDROOT
BRANCH   1   7
ATOM      7  C1  UNL d   1       4.146  -2.108   0.033  0.00  0.00     0.055 C 
ATOM      8  C   UNL d   1       5.589  -2.227   0.502  0.00  0.00     0.019 C 
ENDBRANCH   1   7
TORSDOF 1
ENDMDL
