MODEL 1
REMARK minimizedAffinity 7.3168149
REMARK minimizedRMSD -1
REMARK  1 active torsions:
REMARK  status: ('A' for Active; 'I' for Inactive)
REMARK    1  A    between atoms: C1_2  and  C2_3 
ROOT
ATOM      1  C2  UNL d   1      -2.503   0.801  -3.574  0.00  0.00    -0.077 A 
ATOM      2  C3  UNL d   1      -2.608   0.797  -2.176  0.00  0.00     0.002 A 
ATOM      3  C4  UNL d   1      -1.935  -0.165  -1.420  0.00  0.00     0.002 A 
ATOM      4  C5  UNL d   1      -1.150  -1.126  -2.052  0.00  0.00    -0.004 A 
ATOM      5  C6  UNL d   1      -1.041  -1.132  -3.443  0.00  0.00     0.002 A 
ATOM      6  C7  UNL d   1      -1.714  -0.172  -4.200  0.00  0.00     0.002 A 
ENDROOT
BRANCH   1   7
ATOM      7  C1  UNL d   1      -3.189   1.867  -4.388  0.00  0.00     0.055 C 
ATOM      8  C   UNL d   1      -3.520   1.368  -5.787  0.00  0.00     0.019 C 
ENDBRANCH   1   7
TORSDOF 1
ENDMDL
