MODEL 1
REMARK minimizedAffinity 0.291248202
REMARK minimizedRMSD -1
REMARK  1 active torsions:
REMARK  status: ('A' for Active; 'I' for Inactive)
REMARK    1  A    between atoms: C1_2  and  C2_3 
ROOT
ATOM      1  C2  UNL d   1      -1.858   3.095   0.680  0.00  0.00    -0.077 A 
ATOM      2  C3  UNL d   1      -2.545   2.197  -0.148  0.00  0.00     0.002 A 
ATOM      3  C4  UNL d   1      -3.167   1.071   0.394  0.00  0.00     0.002 A 
ATOM      4  C5  UNL d   1      -3.112   0.834   1.766  0.00  0.00    -0.004 A 
ATOM      5  C6  UNL d   1      -2.429   1.720   2.598  0.00  0.00     0.002 A 
ATOM      6  C7  UNL d   1      -1.805   2.846   2.058  0.00  0.00     0.002 A 
ENDROOT
BRANCH   1   7
ATOM      7  C1  UNL d   1      -1.228   4.337   0.104  0.00  0.00     0.055 C 
ATOM      8  C   UNL d   1       0.290   4.240   0.107  0.00  0.00     0.019 C 
ENDBRANCH   1   7
TORSDOF 1
ENDMDL
