MODEL 1
REMARK minimizedAffinity 4.91923475
REMARK minimizedRMSD -1
REMARK  1 active torsions:
REMARK  status: ('A' for Active; 'I' for Inactive)
REMARK    1  A    between atoms: C1_2  and  C2_3 
ROOT
ATOM      1  C2  UNL d   1      -1.023   2.262   1.385  0.00  0.00    -0.077 A 
ATOM      2  C3  UNL d   1      -1.557   3.294   0.602  0.00  0.00     0.002 A 
ATOM      3  C4  UNL d   1      -0.733   4.310   0.114  0.00  0.00     0.002 A 
ATOM      4  C5  UNL d   1       0.631   4.300   0.399  0.00  0.00    -0.004 A 
ATOM      5  C6  UNL d   1       1.172   3.278   1.179  0.00  0.00     0.002 A 
ATOM      6  C7  UNL d   1       0.349   2.263   1.668  0.00  0.00     0.002 A 
ENDROOT
BRANCH   1   7
ATOM      7  C1  UNL d   1      -1.902   1.139   1.871  0.00  0.00     0.055 C 
ATOM      8  C   UNL d   1      -2.662   0.494   0.722  0.00  0.00     0.019 C 
ENDBRANCH   1   7
TORSDOF 1
ENDMDL
