MODEL 1
REMARK minimizedAffinity 8.78164101
REMARK minimizedRMSD -1
REMARK  1 active torsions:
REMARK  status: ('A' for Active; 'I' for Inactive)
REMARK    1  A    between atoms: C1_2  and  C2_3 
ROOT
ATOM      1  C2  UNL d   1       3.195  -1.418  -0.265  0.00  0.00    -0.077 A 
ATOM      2  C3  UNL d   1       4.382  -0.844  -0.743  0.00  0.00     0.002 A 
ATOM      3  C4  UNL d   1       5.469  -1.651  -1.084  0.00  0.00     0.002 A 
ATOM      4  C5  UNL d   1       5.379  -3.035  -0.956  0.00  0.00    -0.004 A 
ATOM      5  C6  UNL d   1       4.203  -3.615  -0.481  0.00  0.00     0.002 A 
ATOM      6  C7  UNL d   1       3.116  -2.811  -0.138  0.00  0.00     0.002 A 
ENDROOT
BRANCH   1   7
ATOM      7  C1  UNL d   1       2.004  -0.553   0.057  0.00  0.00     0.055 C 
ATOM      8  C   UNL d   1       1.054  -0.455  -1.128  0.00  0.00     0.019 C 
ENDBRANCH   1   7
TORSDOF 1
ENDMDL
