MODEL 1
REMARK minimizedAffinity 10.1166487
REMARK minimizedRMSD -1
REMARK  1 active torsions:
REMARK  status: ('A' for Active; 'I' for Inactive)
REMARK    1  A    between atoms: C1_2  and  C2_3 
ROOT
ATOM      1  C2  UNL d   1       2.014   2.399   2.256  0.00  0.00    -0.077 A 
ATOM      2  C3  UNL d   1       0.781   2.028   1.701  0.00  0.00     0.002 A 
ATOM      3  C4  UNL d   1       0.138   2.864   0.786  0.00  0.00     0.002 A 
ATOM      4  C5  UNL d   1       0.721   4.074   0.417  0.00  0.00    -0.004 A 
ATOM      5  C6  UNL d   1       1.946   4.453   0.965  0.00  0.00     0.002 A 
ATOM      6  C7  UNL d   1       2.590   3.619   1.880  0.00  0.00     0.002 A 
ENDROOT
BRANCH   1   7
ATOM      7  C1  UNL d   1       2.732   1.475   3.205  0.00  0.00     0.055 C 
ATOM      8  C   UNL d   1       1.754   0.740   4.109  0.00  0.00     0.019 C 
ENDBRANCH   1   7
TORSDOF 1
ENDMDL
