MODEL 1
REMARK minimizedAffinity -4.22770309
REMARK minimizedRMSD -1
REMARK  3 active torsions:
REMARK  status: ('A' for Active; 'I' for Inactive)
REMARK    1  A    between atoms: C3'_2  and  C2'_3 
REMARK    2  A    between atoms: C2'_3  and  C1'_4 
REMARK    3  A    between atoms: C1'_4  and  C1_5 
ROOT
ATOM      1  C1  N4B d   1       0.517  -0.339  -0.077  0.00  0.00    -0.075 A 
ATOM      2  C2  N4B d   1       1.896  -0.354   0.229  0.00  0.00     0.002 A 
ATOM      3  C3  N4B d   1       2.415  -1.358   1.009  0.00  0.00     0.002 A 
ATOM      4  C4  N4B d   1       1.576  -2.344   1.507  0.00  0.00    -0.004 A 
ATOM      5  C5  N4B d   1       0.250  -2.336   1.185  0.00  0.00     0.002 A 
ATOM      6  C6  N4B d   1      -0.285  -1.336   0.400  0.00  0.00     0.002 A 
ENDROOT
BRANCH   1   7
ATOM      7  C1' N4B d   1      -0.112   0.785  -0.854  0.00  0.00     0.057 C 
BRANCH   7   8
ATOM      8  C2' N4B d   1      -1.508   1.055  -0.302  0.00  0.00     0.009 C 
BRANCH   8   9
ATOM      9  C3' N4B d   1      -2.586   0.833  -1.350  0.00  0.00     0.004 C 
ATOM     10  C4' N4B d   1      -2.288   1.528  -2.645  0.00  0.00     0.003 C 
ENDBRANCH   8   9
ENDBRANCH   7   8
ENDBRANCH   1   7
TORSDOF 3
ENDMDL
