MODEL 1
REMARK minimizedAffinity -4.55811119
REMARK minimizedRMSD -1
REMARK  3 active torsions:
REMARK  status: ('A' for Active; 'I' for Inactive)
REMARK    1  A    between atoms: C3'_2  and  C2'_3 
REMARK    2  A    between atoms: C2'_3  and  C1'_4 
REMARK    3  A    between atoms: C1'_4  and  C1_5 
ROOT
ATOM      1  C1  N4B d   1       0.250  -0.220   0.063  0.00  0.00    -0.075 A 
ATOM      2  C2  N4B d   1       1.594  -0.185  -0.368  0.00  0.00     0.002 A 
ATOM      3  C3  N4B d   1       2.452  -1.201  -0.024  0.00  0.00     0.002 A 
ATOM      4  C4  N4B d   1       1.995  -2.248   0.761  0.00  0.00    -0.004 A 
ATOM      5  C5  N4B d   1       0.688  -2.288   1.151  0.00  0.00     0.002 A 
ATOM      6  C6  N4B d   1      -0.186  -1.276   0.810  0.00  0.00     0.002 A 
ENDROOT
BRANCH   1   7
ATOM      7  C1' N4B d   1      -0.703   0.910  -0.215  0.00  0.00     0.057 C 
BRANCH   7   8
ATOM      8  C2' N4B d   1      -0.779   1.142  -1.722  0.00  0.00     0.009 C 
BRANCH   8   9
ATOM      9  C3' N4B d   1      -2.032   1.905  -2.117  0.00  0.00     0.004 C 
ATOM     10  C4' N4B d   1      -2.453   1.637  -3.531  0.00  0.00     0.003 C 
ENDBRANCH   8   9
ENDBRANCH   7   8
ENDBRANCH   1   7
TORSDOF 3
ENDMDL
