MODEL 1
REMARK minimizedAffinity -5.63882923
REMARK minimizedRMSD -1
REMARK  3 active torsions:
REMARK  status: ('A' for Active; 'I' for Inactive)
REMARK    1  A    between atoms: C3'_2  and  C2'_3 
REMARK    2  A    between atoms: C2'_3  and  C1'_4 
REMARK    3  A    between atoms: C1'_4  and  C1_5 
ROOT
ATOM      1  C1  N4B d   1       0.559  -0.011  -0.043  0.00  0.00    -0.075 A 
ATOM      2  C2  N4B d   1       1.928  -0.320   0.108  0.00  0.00     0.002 A 
ATOM      3  C3  N4B d   1       2.319  -1.619   0.327  0.00  0.00     0.002 A 
ATOM      4  C4  N4B d   1       1.361  -2.617   0.418  0.00  0.00    -0.004 A 
ATOM      5  C5  N4B d   1       0.042  -2.314   0.245  0.00  0.00     0.002 A 
ATOM      6  C6  N4B d   1      -0.365  -1.014   0.020  0.00  0.00     0.002 A 
ENDROOT
BRANCH   1   7
ATOM      7  C1' N4B d   1       0.077   1.405  -0.199  0.00  0.00     0.057 C 
BRANCH   7   8
ATOM      8  C2' N4B d   1      -1.424   1.397  -0.475  0.00  0.00     0.009 C 
BRANCH   8   9
ATOM      9  C3' N4B d   1      -1.749   1.911  -1.867  0.00  0.00     0.004 C 
ATOM     10  C4' N4B d   1      -3.050   1.382  -2.392  0.00  0.00     0.003 C 
ENDBRANCH   8   9
ENDBRANCH   7   8
ENDBRANCH   1   7
TORSDOF 3
ENDMDL
