MODEL 1
REMARK minimizedAffinity -5.452384
REMARK minimizedRMSD -1
REMARK  3 active torsions:
REMARK  status: ('A' for Active; 'I' for Inactive)
REMARK    1  A    between atoms: C3'_2  and  C2'_3 
REMARK    2  A    between atoms: C2'_3  and  C1'_4 
REMARK    3  A    between atoms: C1'_4  and  C1_5 
ROOT
ATOM      1  C1  N4B d   1       0.242  -0.213   0.293  0.00  0.00    -0.075 A 
ATOM      2  C2  N4B d   1       1.631  -0.220   0.042  0.00  0.00     0.002 A 
ATOM      3  C3  N4B d   1       2.387  -1.313   0.390  0.00  0.00     0.002 A 
ATOM      4  C4  N4B d   1       1.780  -2.398   1.004  0.00  0.00    -0.004 A 
ATOM      5  C5  N4B d   1       0.433  -2.395   1.220  0.00  0.00     0.002 A 
ATOM      6  C6  N4B d   1      -0.339  -1.305   0.872  0.00  0.00     0.002 A 
ENDROOT
BRANCH   1   7
ATOM      7  C1' N4B d   1      -0.611   0.993   0.009  0.00  0.00     0.057 C 
BRANCH   7   8
ATOM      8  C2' N4B d   1      -1.143   0.906  -1.418  0.00  0.00     0.009 C 
BRANCH   8   9
ATOM      9  C3' N4B d   1      -1.254   2.274  -2.068  0.00  0.00     0.004 C 
ATOM     10  C4' N4B d   1      -0.969   2.244  -3.540  0.00  0.00     0.003 C 
ENDBRANCH   8   9
ENDBRANCH   7   8
ENDBRANCH   1   7
TORSDOF 3
ENDMDL
