MODEL 1
REMARK minimizedAffinity -4.95048428
REMARK minimizedRMSD -1
REMARK  3 active torsions:
REMARK  status: ('A' for Active; 'I' for Inactive)
REMARK    1  A    between atoms: C3'_2  and  C2'_3 
REMARK    2  A    between atoms: C2'_3  and  C1'_4 
REMARK    3  A    between atoms: C1'_4  and  C1_5 
ROOT
ATOM      1  C1  N4B d   1       0.939  -0.450   0.038  0.00  0.00    -0.075 A 
ATOM      2  C2  N4B d   1       0.042  -1.504   0.315  0.00  0.00     0.002 A 
ATOM      3  C3  N4B d   1       0.442  -2.559   1.097  0.00  0.00     0.002 A 
ATOM      4  C4  N4B d   1       1.736  -2.591   1.596  0.00  0.00    -0.004 A 
ATOM      5  C5  N4B d   1       2.589  -1.556   1.345  0.00  0.00     0.002 A 
ATOM      6  C6  N4B d   1       2.198  -0.488   0.563  0.00  0.00     0.002 A 
ENDROOT
BRANCH   1   7
ATOM      7  C1' N4B d   1       0.574   0.683  -0.883  0.00  0.00     0.057 C 
BRANCH   7   8
ATOM      8  C2' N4B d   1      -0.838   1.159  -0.555  0.00  0.00     0.009 C 
BRANCH   8   9
ATOM      9  C3' N4B d   1      -1.365   2.131  -1.596  0.00  0.00     0.004 C 
ATOM     10  C4' N4B d   1      -2.663   1.687  -2.202  0.00  0.00     0.003 C 
ENDBRANCH   8   9
ENDBRANCH   7   8
ENDBRANCH   1   7
TORSDOF 3
ENDMDL
