MODEL 1
REMARK minimizedAffinity -4.44635105
REMARK minimizedRMSD -1
REMARK  3 active torsions:
REMARK  status: ('A' for Active; 'I' for Inactive)
REMARK    1  A    between atoms: C3'_2  and  C2'_3 
REMARK    2  A    between atoms: C2'_3  and  C1'_4 
REMARK    3  A    between atoms: C1'_4  and  C1_5 
ROOT
ATOM      1  C1  N4B d   1      -0.058   0.316  -0.071  0.00  0.00    -0.075 A 
ATOM      2  C2  N4B d   1      -0.847  -0.461   0.806  0.00  0.00     0.002 A 
ATOM      3  C3  N4B d   1      -0.334  -1.611   1.354  0.00  0.00     0.002 A 
ATOM      4  C4  N4B d   1       0.952  -2.013   1.026  0.00  0.00    -0.004 A 
ATOM      5  C5  N4B d   1       1.716  -1.244   0.198  0.00  0.00     0.002 A 
ATOM      6  C6  N4B d   1       1.216  -0.083  -0.356  0.00  0.00     0.002 A 
ENDROOT
BRANCH   1   7
ATOM      7  C1' N4B d   1      -0.605   1.536  -0.761  0.00  0.00     0.057 C 
BRANCH   7   8
ATOM      8  C2' N4B d   1      -0.295   1.448  -2.253  0.00  0.00     0.009 C 
BRANCH   8   9
ATOM      9  C3' N4B d   1      -1.329   2.180  -3.092  0.00  0.00     0.004 C 
ATOM     10  C4' N4B d   1      -2.458   1.293  -3.526  0.00  0.00     0.003 C 
ENDBRANCH   8   9
ENDBRANCH   7   8
ENDBRANCH   1   7
TORSDOF 3
ENDMDL
