MODEL 1
REMARK minimizedAffinity -4.1433568
REMARK minimizedRMSD -1
REMARK  3 active torsions:
REMARK  status: ('A' for Active; 'I' for Inactive)
REMARK    1  A    between atoms: C3'_2  and  C2'_3 
REMARK    2  A    between atoms: C2'_3  and  C1'_4 
REMARK    3  A    between atoms: C1'_4  and  C1_5 
ROOT
ATOM      1  C1  N4B d   1      -0.950   1.370  -1.089  0.00  0.00    -0.075 A 
ATOM      2  C2  N4B d   1      -0.797   2.590  -1.783  0.00  0.00     0.002 A 
ATOM      3  C3  N4B d   1      -1.499   2.813  -2.942  0.00  0.00     0.002 A 
ATOM      4  C4  N4B d   1      -2.342   1.828  -3.434  0.00  0.00    -0.004 A 
ATOM      5  C5  N4B d   1      -2.505   0.663  -2.743  0.00  0.00     0.002 A 
ATOM      6  C6  N4B d   1      -1.808   0.426  -1.575  0.00  0.00     0.002 A 
ENDROOT
BRANCH   1   7
ATOM      7  C1' N4B d   1      -0.139   1.046   0.136  0.00  0.00     0.057 C 
BRANCH   7   8
ATOM      8  C2' N4B d   1       0.760  -0.151  -0.161  0.00  0.00     0.009 C 
BRANCH   8   9
ATOM      9  C3' N4B d   1       0.452  -1.332   0.743  0.00  0.00     0.004 C 
ATOM     10  C4' N4B d   1       1.549  -2.354   0.757  0.00  0.00     0.003 C 
ENDBRANCH   8   9
ENDBRANCH   7   8
ENDBRANCH   1   7
TORSDOF 3
ENDMDL
