MODEL 1
REMARK minimizedAffinity -2.41248274
REMARK minimizedRMSD -1
REMARK  3 active torsions:
REMARK  status: ('A' for Active; 'I' for Inactive)
REMARK    1  A    between atoms: C3'_2  and  C2'_3 
REMARK    2  A    between atoms: C2'_3  and  C1'_4 
REMARK    3  A    between atoms: C1'_4  and  C1_5 
ROOT
ATOM      1  C1  N4B d   1      -0.159  -0.191  -0.063  0.00  0.00    -0.075 A 
ATOM      2  C2  N4B d   1       1.250  -0.119  -0.136  0.00  0.00     0.002 A 
ATOM      3  C3  N4B d   1       2.014  -1.173   0.299  0.00  0.00     0.002 A 
ATOM      4  C4  N4B d   1       1.396  -2.297   0.827  0.00  0.00    -0.004 A 
ATOM      5  C5  N4B d   1       0.034  -2.369   0.870  0.00  0.00     0.002 A 
ATOM      6  C6  N4B d   1      -0.747  -1.318   0.433  0.00  0.00     0.002 A 
ENDROOT
BRANCH   1   7
ATOM      7  C1' N4B d   1      -1.034   0.971  -0.447  0.00  0.00     0.057 C 
BRANCH   7   8
ATOM      8  C2' N4B d   1      -0.265   1.885  -1.396  0.00  0.00     0.009 C 
BRANCH   8   9
ATOM      9  C3' N4B d   1      -1.157   2.451  -2.488  0.00  0.00     0.004 C 
ATOM     10  C4' N4B d   1      -0.400   2.793  -3.737  0.00  0.00     0.003 C 
ENDBRANCH   8   9
ENDBRANCH   7   8
ENDBRANCH   1   7
TORSDOF 3
ENDMDL
