MODEL 1
REMARK minimizedAffinity 5.73283386
REMARK minimizedRMSD -1
REMARK  1 active torsions:
REMARK  status: ('A' for Active; 'I' for Inactive)
REMARK    1  A    between atoms: C3_4  and  O_7 
ROOT
ATOM      1  C   UNL d   1       2.619  -1.272   0.459  0.00  0.00    -0.033 A 
ATOM      2  C1  UNL d   1       3.332  -1.640  -0.685  0.00  0.00     0.039 A 
ATOM      3  C2  UNL d   1       3.318  -0.816  -1.812  0.00  0.00    -0.080 A 
ATOM      4  C3  UNL d   1       2.591   0.370  -1.783  0.00  0.00     0.150 A 
ATOM      5  C4  UNL d   1       1.882   0.744  -0.646  0.00  0.00    -0.007 A 
ATOM      6  C5  UNL d   1       1.896  -0.080   0.478  0.00  0.00     0.039 A 
ENDROOT
BRANCH   4   7
ATOM      7  O   UNL d   1       2.544   1.204  -2.861  0.00  0.00    -0.526 OA
ATOM      8  H5  UNL d   1       3.056   0.803  -3.583  0.00  0.00     0.418 HD
ENDBRANCH   4   7
TORSDOF 1
ENDMDL
