MODEL 1
REMARK minimizedAffinity -0.882525444
REMARK minimizedRMSD -1
REMARK  1 active torsions:
REMARK  status: ('A' for Active; 'I' for Inactive)
REMARK    1  A    between atoms: C3_4  and  O_7 
ROOT
ATOM      1  C   UNL d   1      -1.619   0.602   2.579  0.00  0.00    -0.033 A 
ATOM      2  C1  UNL d   1      -1.819   0.217   1.252  0.00  0.00     0.039 A 
ATOM      3  C2  UNL d   1      -1.819   1.177   0.238  0.00  0.00    -0.080 A 
ATOM      4  C3  UNL d   1      -1.616   2.515   0.563  0.00  0.00     0.150 A 
ATOM      5  C4  UNL d   1      -1.412   2.905   1.883  0.00  0.00    -0.007 A 
ATOM      6  C5  UNL d   1      -1.414   1.945   2.895  0.00  0.00     0.039 A 
ENDROOT
BRANCH   4   7
ATOM      7  O   UNL d   1      -1.612   3.489  -0.391  0.00  0.00    -0.526 OA
ATOM      8  H5  UNL d   1      -1.794   3.076  -1.252  0.00  0.00     0.418 HD
ENDBRANCH   4   7
TORSDOF 1
ENDMDL
