MODEL 1
REMARK minimizedAffinity 4.50874949
REMARK minimizedRMSD -1
REMARK  1 active torsions:
REMARK  status: ('A' for Active; 'I' for Inactive)
REMARK    1  A    between atoms: C3_4  and  O_7 
ROOT
ATOM      1  C   UNL d   1      -2.893   2.588   0.433  0.00  0.00    -0.033 A 
ATOM      2  C1  UNL d   1      -1.757   2.743   1.229  0.00  0.00     0.039 A 
ATOM      3  C2  UNL d   1      -0.941   1.644   1.508  0.00  0.00    -0.080 A 
ATOM      4  C3  UNL d   1      -1.272   0.398   0.983  0.00  0.00     0.150 A 
ATOM      5  C4  UNL d   1      -2.400   0.237   0.185  0.00  0.00    -0.007 A 
ATOM      6  C5  UNL d   1      -3.213   1.335  -0.091  0.00  0.00     0.039 A 
ENDROOT
BRANCH   4   7
ATOM      7  O   UNL d   1      -0.509  -0.705   1.231  0.00  0.00    -0.526 OA
ATOM      8  H5  UNL d   1       0.221  -0.448   1.819  0.00  0.00     0.418 HD
ENDBRANCH   4   7
TORSDOF 1
ENDMDL
