MODEL 1
REMARK minimizedAffinity -3.9944849
REMARK minimizedRMSD -1
REMARK  1 active torsions:
REMARK  status: ('A' for Active; 'I' for Inactive)
REMARK    1  A    between atoms: C3_4  and  O_7 
ROOT
ATOM      1  C   UNL d   1      -2.522   1.114   0.519  0.00  0.00    -0.033 A 
ATOM      2  C1  UNL d   1      -1.379   0.406   0.140  0.00  0.00     0.039 A 
ATOM      3  C2  UNL d   1      -0.112   0.914   0.433  0.00  0.00    -0.080 A 
ATOM      4  C3  UNL d   1      -0.002   2.128   1.106  0.00  0.00     0.150 A 
ATOM      5  C4  UNL d   1      -1.136   2.836   1.490  0.00  0.00    -0.007 A 
ATOM      6  C5  UNL d   1      -2.400   2.328   1.196  0.00  0.00     0.039 A 
ENDROOT
BRANCH   4   7
ATOM      7  O   UNL d   1       1.213   2.667   1.410  0.00  0.00    -0.526 OA
ATOM      8  H5  UNL d   1       1.906   2.082   1.058  0.00  0.00     0.418 HD
ENDBRANCH   4   7
TORSDOF 1
ENDMDL
