MODEL 1
REMARK minimizedAffinity -1.41163719
REMARK minimizedRMSD -1
REMARK  1 active torsions:
REMARK  status: ('A' for Active; 'I' for Inactive)
REMARK    1  A    between atoms: C3_4  and  O_7 
ROOT
ATOM      1  C   UNL d   1       3.159   1.052  -4.477  0.00  0.00    -0.033 A 
ATOM      2  C1  UNL d   1       2.039   0.370  -3.999  0.00  0.00     0.039 A 
ATOM      3  C2  UNL d   1       0.771   0.668  -4.501  0.00  0.00    -0.080 A 
ATOM      4  C3  UNL d   1       0.637   1.648  -5.481  0.00  0.00     0.150 A 
ATOM      5  C4  UNL d   1       1.749   2.329  -5.964  0.00  0.00    -0.007 A 
ATOM      6  C5  UNL d   1       3.015   2.031  -5.461  0.00  0.00     0.039 A 
ENDROOT
BRANCH   4   7
ATOM      7  O   UNL d   1      -0.581   1.978  -5.998  0.00  0.00    -0.526 OA
ATOM      8  H5  UNL d   1      -1.260   1.447  -5.549  0.00  0.00     0.418 HD
ENDBRANCH   4   7
TORSDOF 1
ENDMDL
