MODEL 1
REMARK minimizedAffinity 2.77400279
REMARK minimizedRMSD -1
REMARK  1 active torsions:
REMARK  status: ('A' for Active; 'I' for Inactive)
REMARK    1  A    between atoms: C3_4  and  O_7 
ROOT
ATOM      1  C   UNL d   1       4.201   6.000   6.000  0.00  0.00    -0.033 A 
ATOM      2  C1  UNL d   1       4.972   5.996   4.836  0.00  0.00     0.039 A 
ATOM      3  C2  UNL d   1       4.351   5.984   3.585  0.00  0.00    -0.080 A 
ATOM      4  C3  UNL d   1       2.961   5.978   3.513  0.00  0.00     0.150 A 
ATOM      5  C4  UNL d   1       2.187   5.986   4.668  0.00  0.00    -0.007 A 
ATOM      6  C5  UNL d   1       2.809   5.997   5.916  0.00  0.00     0.039 A 
ENDROOT
BRANCH   4   7
ATOM      7  O   UNL d   1       2.310   5.962   2.315  0.00  0.00    -0.526 OA
ATOM      8  H5  UNL d   1       2.973   5.929   1.605  0.00  0.00     0.418 HD
ENDBRANCH   4   7
TORSDOF 1
ENDMDL
