MODEL 1
REMARK minimizedAffinity 6.96130466
REMARK minimizedRMSD -1
REMARK  1 active torsions:
REMARK  status: ('A' for Active; 'I' for Inactive)
REMARK    1  A    between atoms: C3_4  and  O_7 
ROOT
ATOM      1  C   UNL d   1      -2.650   5.347  -5.969  0.00  0.00    -0.033 A 
ATOM      2  C1  UNL d   1      -4.044   5.267  -5.980  0.00  0.00     0.039 A 
ATOM      3  C2  UNL d   1      -4.673   4.020  -5.989  0.00  0.00    -0.080 A 
ATOM      4  C3  UNL d   1      -3.898   2.864  -5.985  0.00  0.00     0.150 A 
ATOM      5  C4  UNL d   1      -2.509   2.937  -5.970  0.00  0.00    -0.007 A 
ATOM      6  C5  UNL d   1      -1.883   4.182  -5.963  0.00  0.00     0.039 A 
ENDROOT
BRANCH   4   7
ATOM      7  O   UNL d   1      -4.467   1.625  -5.998  0.00  0.00    -0.526 OA
ATOM      8  H5  UNL d   1      -5.432   1.729  -6.036  0.00  0.00     0.418 HD
ENDBRANCH   4   7
TORSDOF 1
ENDMDL
