MODEL 1
REMARK minimizedAffinity -4.41939306
REMARK minimizedRMSD -1
REMARK  1 active torsions:
REMARK  status: ('A' for Active; 'I' for Inactive)
REMARK    1  A    between atoms: C3_4  and  O_7 
ROOT
ATOM      1  C   UNL d   1       0.780   3.528   0.390  0.00  0.00    -0.033 A 
ATOM      2  C1  UNL d   1      -0.464   3.027   0.777  0.00  0.00     0.039 A 
ATOM      3  C2  UNL d   1      -0.732   1.660   0.672  0.00  0.00    -0.080 A 
ATOM      4  C3  UNL d   1       0.252   0.807   0.179  0.00  0.00     0.150 A 
ATOM      5  C4  UNL d   1       1.495   1.299  -0.205  0.00  0.00    -0.007 A 
ATOM      6  C5  UNL d   1       1.760   2.664  -0.100  0.00  0.00     0.039 A 
ENDROOT
BRANCH   4   7
ATOM      7  O   UNL d   1       0.035  -0.533   0.054  0.00  0.00    -0.526 OA
ATOM      8  H5  UNL d   1      -0.876  -0.724   0.330  0.00  0.00     0.418 HD
ENDBRANCH   4   7
TORSDOF 1
ENDMDL
