MODEL 1
REMARK minimizedAffinity -4.17450094
REMARK minimizedRMSD -1
REMARK  1 active torsions:
REMARK  status: ('A' for Active; 'I' for Inactive)
REMARK    1  A    between atoms: C3_4  and  O_7 
ROOT
ATOM      1  C   UNL d   1      -0.296   3.429  -0.189  0.00  0.00    -0.033 A 
ATOM      2  C1  UNL d   1       0.849   4.213  -0.035  0.00  0.00     0.039 A 
ATOM      3  C2  UNL d   1       2.038   3.633   0.412  0.00  0.00    -0.080 A 
ATOM      4  C3  UNL d   1       2.069   2.272   0.699  0.00  0.00     0.150 A 
ATOM      5  C4  UNL d   1       0.933   1.484   0.544  0.00  0.00    -0.007 A 
ATOM      6  C5  UNL d   1      -0.254   2.065   0.099  0.00  0.00     0.039 A 
ENDROOT
BRANCH   4   7
ATOM      7  O   UNL d   1       3.206   1.662   1.142  0.00  0.00    -0.526 OA
ATOM      8  H5  UNL d   1       3.902   2.335   1.229  0.00  0.00     0.418 HD
ENDBRANCH   4   7
TORSDOF 1
ENDMDL
