MODEL 1
REMARK minimizedAffinity -3.48124313
REMARK minimizedRMSD -1
REMARK  1 active torsions:
REMARK  status: ('A' for Active; 'I' for Inactive)
REMARK    1  A    between atoms: C3_4  and  O_7 
ROOT
ATOM      1  C   UNL d   1       0.027   0.262  -0.107  0.00  0.00    -0.033 A 
ATOM      2  C1  UNL d   1      -0.904  -0.117   0.863  0.00  0.00     0.039 A 
ATOM      3  C2  UNL d   1      -1.357   0.814   1.799  0.00  0.00    -0.080 A 
ATOM      4  C3  UNL d   1      -0.875   2.119   1.754  0.00  0.00     0.150 A 
ATOM      5  C4  UNL d   1       0.049   2.504   0.789  0.00  0.00    -0.007 A 
ATOM      6  C5  UNL d   1       0.502   1.573  -0.145  0.00  0.00     0.039 A 
ENDROOT
BRANCH   4   7
ATOM      7  O   UNL d   1      -1.285   3.062   2.650  0.00  0.00    -0.526 OA
ATOM      8  H5  UNL d   1      -1.901   2.645   3.275  0.00  0.00     0.418 HD
ENDBRANCH   4   7
TORSDOF 1
ENDMDL
