MODEL 1
REMARK minimizedAffinity -3.96287918
REMARK minimizedRMSD -1
REMARK  1 active torsions:
REMARK  status: ('A' for Active; 'I' for Inactive)
REMARK    1  A    between atoms: C3_4  and  O_7 
ROOT
ATOM      1  C   UNL d   1      -0.205   0.425   0.062  0.00  0.00    -0.033 A 
ATOM      2  C1  UNL d   1      -1.365   0.717  -0.659  0.00  0.00     0.039 A 
ATOM      3  C2  UNL d   1      -2.058  -0.303  -1.313  0.00  0.00    -0.080 A 
ATOM      4  C3  UNL d   1      -1.583  -1.609  -1.238  0.00  0.00     0.150 A 
ATOM      5  C4  UNL d   1      -0.431  -1.908  -0.519  0.00  0.00    -0.007 A 
ATOM      6  C5  UNL d   1       0.261  -0.888   0.133  0.00  0.00     0.039 A 
ENDROOT
BRANCH   4   7
ATOM      7  O   UNL d   1      -2.223  -2.638  -1.864  0.00  0.00    -0.526 OA
ATOM      8  H5  UNL d   1      -2.986  -2.277  -2.345  0.00  0.00     0.418 HD
ENDBRANCH   4   7
TORSDOF 1
ENDMDL
