MODEL 1
REMARK minimizedAffinity 6.27546597
REMARK minimizedRMSD -1
REMARK  1 active torsions:
REMARK  status: ('A' for Active; 'I' for Inactive)
REMARK    1  A    between atoms: C3_4  and  O_7 
ROOT
ATOM      1  C   UNL d   1       2.965  -1.390  -3.014  0.00  0.00    -0.033 A 
ATOM      2  C1  UNL d   1       2.525  -1.863  -4.251  0.00  0.00     0.039 A 
ATOM      3  C2  UNL d   1       2.186  -0.964  -5.264  0.00  0.00    -0.080 A 
ATOM      4  C3  UNL d   1       2.293   0.404  -5.027  0.00  0.00     0.150 A 
ATOM      5  C4  UNL d   1       2.735   0.882  -3.798  0.00  0.00    -0.007 A 
ATOM      6  C5  UNL d   1       3.072  -0.018  -2.787  0.00  0.00     0.039 A 
ENDROOT
BRANCH   4   7
ATOM      7  O   UNL d   1       1.969   1.320  -5.983  0.00  0.00    -0.526 OA
ATOM      8  H5  UNL d   1       1.652   0.846  -6.769  0.00  0.00     0.418 HD
ENDBRANCH   4   7
TORSDOF 1
ENDMDL
