MODEL 1
REMARK minimizedAffinity -4.09863424
REMARK minimizedRMSD -1
REMARK  1 active torsions:
REMARK  status: ('A' for Active; 'I' for Inactive)
REMARK    1  A    between atoms: C3_4  and  O_7 
ROOT
ATOM      1  C   UNL d   1      -1.666  -4.712  -1.440  0.00  0.00    -0.033 A 
ATOM      2  C1  UNL d   1      -1.805  -4.009  -0.242  0.00  0.00     0.039 A 
ATOM      3  C2  UNL d   1      -1.076  -2.837  -0.029  0.00  0.00    -0.080 A 
ATOM      4  C3  UNL d   1      -0.214  -2.379  -1.021  0.00  0.00     0.150 A 
ATOM      5  C4  UNL d   1      -0.073  -3.072  -2.219  0.00  0.00    -0.007 A 
ATOM      6  C5  UNL d   1      -0.801  -4.242  -2.429  0.00  0.00     0.039 A 
ENDROOT
BRANCH   4   7
ATOM      7  O   UNL d   1       0.522  -1.243  -0.857  0.00  0.00    -0.526 OA
ATOM      8  H5  UNL d   1       0.344  -0.887   0.029  0.00  0.00     0.418 HD
ENDBRANCH   4   7
TORSDOF 1
ENDMDL
