MODEL 1
REMARK minimizedAffinity 3.86916423
REMARK minimizedRMSD -1
REMARK  1 active torsions:
REMARK  status: ('A' for Active; 'I' for Inactive)
REMARK    1  A    between atoms: C3_4  and  O_7 
ROOT
ATOM      1  C   UNL d   1      -2.526   1.193   0.318  0.00  0.00    -0.033 A 
ATOM      2  C1  UNL d   1      -2.081  -0.062  -0.103  0.00  0.00     0.039 A 
ATOM      3  C2  UNL d   1      -0.722  -0.377  -0.052  0.00  0.00    -0.080 A 
ATOM      4  C3  UNL d   1       0.181   0.570   0.424  0.00  0.00     0.150 A 
ATOM      5  C4  UNL d   1      -0.255   1.820   0.849  0.00  0.00    -0.007 A 
ATOM      6  C5  UNL d   1      -1.612   2.133   0.795  0.00  0.00     0.039 A 
ENDROOT
BRANCH   4   7
ATOM      7  O   UNL d   1       1.518   0.310   0.488  0.00  0.00    -0.526 OA
ATOM      8  H5  UNL d   1       1.675  -0.582   0.135  0.00  0.00     0.418 HD
ENDBRANCH   4   7
TORSDOF 1
ENDMDL
