MODEL 1
REMARK minimizedAffinity -4.42126656
REMARK minimizedRMSD -1
REMARK  1 active torsions:
REMARK  status: ('A' for Active; 'I' for Inactive)
REMARK    1  A    between atoms: C3_4  and  O_7 
ROOT
ATOM      1  C   UNL d   1      -0.699   1.955   0.382  0.00  0.00    -0.033 A 
ATOM      2  C1  UNL d   1      -0.733   0.612   0.002  0.00  0.00     0.039 A 
ATOM      3  C2  UNL d   1       0.386  -0.200   0.200  0.00  0.00    -0.080 A 
ATOM      4  C3  UNL d   1       1.530   0.342   0.779  0.00  0.00     0.150 A 
ATOM      5  C4  UNL d   1       1.569   1.678   1.164  0.00  0.00    -0.007 A 
ATOM      6  C5  UNL d   1       0.452   2.488   0.965  0.00  0.00     0.039 A 
ENDROOT
BRANCH   4   7
ATOM      7  O   UNL d   1       2.648  -0.410   0.988  0.00  0.00    -0.526 OA
ATOM      8  H5  UNL d   1       2.485  -1.305   0.647  0.00  0.00     0.418 HD
ENDBRANCH   4   7
TORSDOF 1
ENDMDL
