MODEL 1
REMARK minimizedAffinity -1.3748076
REMARK minimizedRMSD -1
REMARK  1 active torsions:
REMARK  status: ('A' for Active; 'I' for Inactive)
REMARK    1  A    between atoms: C3_4  and  O_7 
ROOT
ATOM      1  C   UNL d   1       0.631  -2.101  -1.926  0.00  0.00    -0.033 A 
ATOM      2  C1  UNL d   1      -0.136  -1.983  -0.766  0.00  0.00     0.039 A 
ATOM      3  C2  UNL d   1      -1.190  -2.868  -0.530  0.00  0.00    -0.080 A 
ATOM      4  C3  UNL d   1      -1.466  -3.865  -1.462  0.00  0.00     0.150 A 
ATOM      5  C4  UNL d   1      -0.703  -3.991  -2.618  0.00  0.00    -0.007 A 
ATOM      6  C5  UNL d   1       0.348  -3.106  -2.852  0.00  0.00     0.039 A 
ENDROOT
BRANCH   4   7
ATOM      7  O   UNL d   1      -2.487  -4.749  -1.278  0.00  0.00    -0.526 OA
ATOM      8  H5  UNL d   1      -2.945  -4.523  -0.451  0.00  0.00     0.418 HD
ENDBRANCH   4   7
TORSDOF 1
ENDMDL
