MODEL 1
REMARK minimizedAffinity -3.63341069
REMARK minimizedRMSD -1
REMARK  1 active torsions:
REMARK  status: ('A' for Active; 'I' for Inactive)
REMARK    1  A    between atoms: C3_4  and  O_7 
ROOT
ATOM      1  C   UNL d   1      -1.246  -3.959  -1.820  0.00  0.00    -0.033 A 
ATOM      2  C1  UNL d   1       0.057  -3.811  -2.297  0.00  0.00     0.039 A 
ATOM      3  C2  UNL d   1       0.747  -2.615  -2.091  0.00  0.00    -0.080 A 
ATOM      4  C3  UNL d   1       0.122  -1.576  -1.406  0.00  0.00     0.150 A 
ATOM      5  C4  UNL d   1      -1.175  -1.718  -0.924  0.00  0.00    -0.007 A 
ATOM      6  C5  UNL d   1      -1.862  -2.913  -1.132  0.00  0.00     0.039 A 
ENDROOT
BRANCH   4   7
ATOM      7  O   UNL d   1       0.753  -0.388  -1.184  0.00  0.00    -0.526 OA
ATOM      8  H5  UNL d   1       1.632  -0.424  -1.598  0.00  0.00     0.418 HD
ENDBRANCH   4   7
TORSDOF 1
ENDMDL
