MODEL 1
REMARK minimizedAffinity -3.16050506
REMARK minimizedRMSD -1
REMARK  0 active torsions:
REMARK  status: ('A' for Active; 'I' for Inactive)
ROOT
ATOM      1  C   UNL d   1       0.648   1.232   0.294  0.00  0.00     0.020 A 
ATOM      2  C1  UNL d   1       1.066   0.019  -0.253  0.00  0.00     0.020 A 
ATOM      3  C2  UNL d   1       2.198  -0.623   0.253  0.00  0.00     0.034 A 
ATOM      4  C3  UNL d   1       2.917  -0.052   1.310  0.00  0.00     0.017 A 
ATOM      5  C4  UNL d   1       2.497   1.165   1.858  0.00  0.00     0.017 A 
ATOM      6  C5  UNL d   1       1.363   1.803   1.348  0.00  0.00     0.034 A 
ATOM      7 Cl   UNL d   1       3.333   1.931   3.164  0.00  0.00    -0.070 Cl
ATOM      8 Cl1  UNL d   1       4.307  -0.901   1.886  0.00  0.00    -0.070 Cl
ENDROOT
TORSDOF 0
ENDMDL
