MODEL 1
REMARK minimizedAffinity -6.21184826
REMARK minimizedRMSD -1
REMARK  0 active torsions:
REMARK  status: ('A' for Active; 'I' for Inactive)
ROOT
ATOM      1  C   UNL d   1       3.315  -0.262   0.780  0.00  0.00     0.020 A 
ATOM      2  C1  UNL d   1       2.930  -1.557   1.124  0.00  0.00     0.020 A 
ATOM      3  C2  UNL d   1       1.581  -1.852   1.333  0.00  0.00     0.034 A 
ATOM      4  C3  UNL d   1       0.612  -0.851   1.198  0.00  0.00     0.017 A 
ATOM      5  C4  UNL d   1       1.000   0.449   0.852  0.00  0.00     0.017 A 
ATOM      6  C5  UNL d   1       2.352   0.739   0.644  0.00  0.00     0.034 A 
ATOM      7 Cl   UNL d   1      -0.138   1.737   0.667  0.00  0.00    -0.070 Cl
ATOM      8 Cl1  UNL d   1      -1.037  -1.287   1.470  0.00  0.00    -0.070 Cl
ENDROOT
TORSDOF 0
ENDMDL
