MODEL 1
REMARK minimizedAffinity -3.61300039
REMARK minimizedRMSD -1
REMARK  0 active torsions:
REMARK  status: ('A' for Active; 'I' for Inactive)
ROOT
ATOM      1  C   UNL d   1      -1.252   1.130   0.161  0.00  0.00     0.020 A 
ATOM      2  C1  UNL d   1      -0.169   2.006   0.096  0.00  0.00     0.020 A 
ATOM      3  C2  UNL d   1       1.133   1.518   0.228  0.00  0.00     0.034 A 
ATOM      4  C3  UNL d   1       1.355   0.151   0.427  0.00  0.00     0.017 A 
ATOM      5  C4  UNL d   1       0.268  -0.728   0.492  0.00  0.00     0.017 A 
ATOM      6  C5  UNL d   1      -1.033  -0.234   0.359  0.00  0.00     0.034 A 
ATOM      7 Cl   UNL d   1       0.464  -2.428   0.735  0.00  0.00    -0.070 Cl
ATOM      8 Cl1  UNL d   1       2.992  -0.383   0.582  0.00  0.00    -0.070 Cl
ENDROOT
TORSDOF 0
ENDMDL
