MODEL 1
REMARK minimizedAffinity -0.87209475
REMARK minimizedRMSD -1
REMARK  0 active torsions:
REMARK  status: ('A' for Active; 'I' for Inactive)
ROOT
ATOM      1  C   UNL d   1       2.721   0.298   0.991  0.00  0.00     0.020 A 
ATOM      2  C1  UNL d   1       2.086   1.302   0.260  0.00  0.00     0.020 A 
ATOM      3  C2  UNL d   1       0.733   1.181  -0.063  0.00  0.00     0.034 A 
ATOM      4  C3  UNL d   1       0.010   0.054   0.345  0.00  0.00     0.017 A 
ATOM      5  C4  UNL d   1       0.648  -0.952   1.078  0.00  0.00     0.017 A 
ATOM      6  C5  UNL d   1       2.003  -0.826   1.399  0.00  0.00     0.034 A 
ATOM      7 Cl   UNL d   1      -0.178  -2.372   1.616  0.00  0.00    -0.070 Cl
ATOM      8 Cl1  UNL d   1      -1.660  -0.029  -0.090  0.00  0.00    -0.070 Cl
ENDROOT
TORSDOF 0
ENDMDL
