MODEL 1
REMARK minimizedAffinity -2.68361926
REMARK minimizedRMSD -1
REMARK  0 active torsions:
REMARK  status: ('A' for Active; 'I' for Inactive)
ROOT
ATOM      1  C   UNL d   1       2.092  -0.211   0.074  0.00  0.00     0.020 A 
ATOM      2  C1  UNL d   1       2.347  -1.480   0.593  0.00  0.00     0.020 A 
ATOM      3  C2  UNL d   1       1.325  -2.199   1.216  0.00  0.00     0.034 A 
ATOM      4  C3  UNL d   1       0.042  -1.649   1.323  0.00  0.00     0.017 A 
ATOM      5  C4  UNL d   1      -0.213  -0.375   0.803  0.00  0.00     0.017 A 
ATOM      6  C5  UNL d   1       0.814   0.340   0.179  0.00  0.00     0.034 A 
ATOM      7 Cl   UNL d   1      -1.770   0.370   0.897  0.00  0.00    -0.070 Cl
ATOM      8 Cl1  UNL d   1      -1.174  -2.593   2.106  0.00  0.00    -0.070 Cl
ENDROOT
TORSDOF 0
ENDMDL
