MODEL 1
REMARK minimizedAffinity -2.50260091
REMARK minimizedRMSD -1
REMARK  0 active torsions:
REMARK  status: ('A' for Active; 'I' for Inactive)
ROOT
ATOM      1  C   UNL d   1      -0.138  -2.164   0.756  0.00  0.00     0.020 A 
ATOM      2  C1  UNL d   1      -1.006  -1.228   0.195  0.00  0.00     0.020 A 
ATOM      3  C2  UNL d   1      -0.539   0.044  -0.142  0.00  0.00     0.034 A 
ATOM      4  C3  UNL d   1       0.800   0.384   0.084  0.00  0.00     0.017 A 
ATOM      5  C4  UNL d   1       1.670  -0.555   0.648  0.00  0.00     0.017 A 
ATOM      6  C5  UNL d   1       1.197  -1.828   0.982  0.00  0.00     0.034 A 
ATOM      7 Cl   UNL d   1       3.335  -0.209   0.956  0.00  0.00    -0.070 Cl
ATOM      8 Cl1  UNL d   1       1.309   1.976  -0.357  0.00  0.00    -0.070 Cl
ENDROOT
TORSDOF 0
ENDMDL
