MODEL 1
REMARK minimizedAffinity -2.23879933
REMARK minimizedRMSD -1
REMARK  0 active torsions:
REMARK  status: ('A' for Active; 'I' for Inactive)
ROOT
ATOM      1  C   UNL d   1      -0.952   0.992  -1.167  0.00  0.00     0.020 A 
ATOM      2  C1  UNL d   1      -1.806  -0.100  -1.020  0.00  0.00     0.020 A 
ATOM      3  C2  UNL d   1      -1.503  -1.104  -0.098  0.00  0.00     0.034 A 
ATOM      4  C3  UNL d   1      -0.343  -1.018   0.680  0.00  0.00     0.017 A 
ATOM      5  C4  UNL d   1       0.514   0.078   0.532  0.00  0.00     0.017 A 
ATOM      6  C5  UNL d   1       0.206   1.081  -0.393  0.00  0.00     0.034 A 
ATOM      7 Cl   UNL d   1       1.964   0.254   1.456  0.00  0.00    -0.070 Cl
ATOM      8 Cl1  UNL d   1      -0.030  -2.296   1.801  0.00  0.00    -0.070 Cl
ENDROOT
TORSDOF 0
ENDMDL
