MODEL 1
REMARK minimizedAffinity -4.15832758
REMARK minimizedRMSD -1
REMARK  0 active torsions:
REMARK  status: ('A' for Active; 'I' for Inactive)
ROOT
ATOM      1  C   UNL d   1       2.820   0.669   1.553  0.00  0.00     0.020 A 
ATOM      2  C1  UNL d   1       3.521  -0.351   0.910  0.00  0.00     0.020 A 
ATOM      3  C2  UNL d   1       2.827  -1.353   0.229  0.00  0.00     0.034 A 
ATOM      4  C3  UNL d   1       1.428  -1.338   0.189  0.00  0.00     0.017 A 
ATOM      5  C4  UNL d   1       0.725  -0.314   0.835  0.00  0.00     0.017 A 
ATOM      6  C5  UNL d   1       1.425   0.687   1.515  0.00  0.00     0.034 A 
ATOM      7 Cl   UNL d   1      -1.001  -0.228   0.830  0.00  0.00    -0.070 Cl
ATOM      8 Cl1  UNL d   1       0.634  -2.609  -0.672  0.00  0.00    -0.070 Cl
ENDROOT
TORSDOF 0
ENDMDL
