MODEL 1
REMARK minimizedAffinity 16.9937191
REMARK minimizedRMSD -1
REMARK  0 active torsions:
REMARK  status: ('A' for Active; 'I' for Inactive)
ROOT
ATOM      1  C   UNL d   1       1.799   2.392   5.409  0.00  0.00     0.124 A 
ATOM      2  C1  UNL d   1       3.110   2.110   5.051  0.00  0.00     0.062 A 
ATOM      3  C2  UNL d   1       4.041   3.138   4.937  0.00  0.00     0.162 A 
ATOM      4  C3  UNL d   1       3.664   4.459   5.181  0.00  0.00    -0.034 A 
ATOM      5  C4  UNL d   1       2.344   4.735   5.540  0.00  0.00     0.162 A 
ATOM      6  C5  UNL d   1       1.417   3.704   5.653  0.00  0.00     0.062 A 
ATOM      7  F   UNL d   1       0.151   3.978   5.999  0.00  0.00    -0.097 F 
ATOM      8  F1  UNL d   1       1.948   5.993   5.782  0.00  0.00    -0.096 F 
ATOM      9  I   UNL d   1       5.053   6.000   5.011  0.00  0.00    -0.060 I 
ATOM     10  F2  UNL d   1       5.301   2.837   4.589  0.00  0.00    -0.096 F 
ATOM     11  F3  UNL d   1       3.481   0.844   4.814  0.00  0.00    -0.097 F 
ATOM     12  F4  UNL d   1       0.905   1.401   5.517  0.00  0.00    -0.092 F 
ENDROOT
TORSDOF 0
ENDMDL
