MODEL 1
REMARK minimizedAffinity 0.0133776944
REMARK minimizedRMSD -1
REMARK  0 active torsions:
REMARK  status: ('A' for Active; 'I' for Inactive)
ROOT
ATOM      1  C   UNL d   1       4.291   4.275   2.787  0.00  0.00     0.124 A 
ATOM      2  C1  UNL d   1       2.938   4.129   2.513  0.00  0.00     0.062 A 
ATOM      3  C2  UNL d   1       1.986   4.614   3.405  0.00  0.00     0.162 A 
ATOM      4  C3  UNL d   1       2.384   5.250   4.581  0.00  0.00    -0.034 A 
ATOM      5  C4  UNL d   1       3.746   5.392   4.851  0.00  0.00     0.162 A 
ATOM      6  C5  UNL d   1       4.693   4.906   3.956  0.00  0.00     0.062 A 
ATOM      7  F   UNL d   1       6.000   5.048   4.223  0.00  0.00    -0.097 F 
ATOM      8  F1  UNL d   1       4.163   5.998   5.973  0.00  0.00    -0.096 F 
ATOM      9  I   UNL d   1       0.964   5.975   5.919  0.00  0.00    -0.060 I 
ATOM     10  F2  UNL d   1       0.686   4.459   3.114  0.00  0.00    -0.096 F 
ATOM     11  F3  UNL d   1       2.547   3.519   1.385  0.00  0.00    -0.097 F 
ATOM     12  F4  UNL d   1       5.204   3.807   1.927  0.00  0.00    -0.092 F 
ENDROOT
TORSDOF 0
ENDMDL
