MODEL 1
REMARK minimizedAffinity 16.8221912
REMARK minimizedRMSD -1
REMARK  0 active torsions:
REMARK  status: ('A' for Active; 'I' for Inactive)
ROOT
ATOM      1  C   UNL d   1       4.096   2.379   4.152  0.00  0.00     0.124 A 
ATOM      2  C1  UNL d   1       2.915   2.095   4.825  0.00  0.00     0.062 A 
ATOM      3  C2  UNL d   1       2.145   3.127   5.353  0.00  0.00     0.162 A 
ATOM      4  C3  UNL d   1       2.552   4.453   5.210  0.00  0.00    -0.034 A 
ATOM      5  C4  UNL d   1       3.741   4.731   4.533  0.00  0.00     0.162 A 
ATOM      6  C5  UNL d   1       4.507   3.696   4.007  0.00  0.00     0.062 A 
ATOM      7  F   UNL d   1       5.647   3.973   3.357  0.00  0.00    -0.097 F 
ATOM      8  F1  UNL d   1       4.162   5.995   4.378  0.00  0.00    -0.096 F 
ATOM      9  I   UNL d   1       1.404   5.999   5.999  0.00  0.00    -0.060 I 
ATOM     10  F2  UNL d   1       1.009   2.823   5.999  0.00  0.00    -0.096 F 
ATOM     11  F3  UNL d   1       2.516   0.823   4.967  0.00  0.00    -0.097 F 
ATOM     12  F4  UNL d   1       4.835   1.384   3.645  0.00  0.00    -0.092 F 
ENDROOT
TORSDOF 0
ENDMDL
