MODEL 1
REMARK minimizedAffinity 21.5747871
REMARK minimizedRMSD -1
REMARK  0 active torsions:
REMARK  status: ('A' for Active; 'I' for Inactive)
ROOT
ATOM      1  C   UNL d   1       0.828   1.965  -0.515  0.00  0.00     0.124 A 
ATOM      2  C1  UNL d   1      -0.236   1.781   0.358  0.00  0.00     0.062 A 
ATOM      3  C2  UNL d   1      -0.164   0.813   1.355  0.00  0.00     0.162 A 
ATOM      4  C3  UNL d   1       0.976   0.021   1.486  0.00  0.00    -0.034 A 
ATOM      5  C4  UNL d   1       2.042   0.211   0.605  0.00  0.00     0.162 A 
ATOM      6  C5  UNL d   1       1.966   1.180  -0.390  0.00  0.00     0.062 A 
ATOM      7  F   UNL d   1       2.995   1.356  -1.232  0.00  0.00    -0.097 F 
ATOM      8  F1  UNL d   1       3.154  -0.533   0.703  0.00  0.00    -0.096 F 
ATOM      9  I   UNL d   1       1.087  -1.428   2.976  0.00  0.00    -0.060 I 
ATOM     10  F2  UNL d   1      -1.207   0.658   2.184  0.00  0.00    -0.096 F 
ATOM     11  F3  UNL d   1      -1.336   2.538   0.239  0.00  0.00    -0.097 F 
ATOM     12  F4  UNL d   1       0.756   2.897  -1.474  0.00  0.00    -0.092 F 
ENDROOT
TORSDOF 0
ENDMDL
