MODEL 1
REMARK minimizedAffinity 14.8632507
REMARK minimizedRMSD -1
REMARK  0 active torsions:
REMARK  status: ('A' for Active; 'I' for Inactive)
ROOT
ATOM      1  C   UNL d   1      -4.729   1.968   1.237  0.00  0.00     0.124 A 
ATOM      2  C1  UNL d   1      -4.600   0.848   0.426  0.00  0.00     0.062 A 
ATOM      3  C2  UNL d   1      -3.419   0.624  -0.276  0.00  0.00     0.162 A 
ATOM      4  C3  UNL d   1      -2.356   1.522  -0.170  0.00  0.00    -0.034 A 
ATOM      5  C4  UNL d   1      -2.494   2.646   0.646  0.00  0.00     0.162 A 
ATOM      6  C5  UNL d   1      -3.676   2.865   1.346  0.00  0.00     0.062 A 
ATOM      7  F   UNL d   1      -3.799   3.947   2.129  0.00  0.00    -0.097 F 
ATOM      8  F1  UNL d   1      -1.492   3.529   0.771  0.00  0.00    -0.096 F 
ATOM      9  I   UNL d   1      -0.589   1.191  -1.218  0.00  0.00    -0.060 I 
ATOM     10  F2  UNL d   1      -3.322  -0.466  -1.051  0.00  0.00    -0.096 F 
ATOM     11  F3  UNL d   1      -5.616  -0.020   0.318  0.00  0.00    -0.097 F 
ATOM     12  F4  UNL d   1      -5.866   2.181   1.910  0.00  0.00    -0.092 F 
ENDROOT
TORSDOF 0
ENDMDL
