MODEL 1
REMARK minimizedAffinity 12.5453568
REMARK minimizedRMSD -1
REMARK  0 active torsions:
REMARK  status: ('A' for Active; 'I' for Inactive)
ROOT
ATOM      1  C   UNL d   1       1.196  -1.059  -1.868  0.00  0.00     0.124 A 
ATOM      2  C1  UNL d   1       0.773   0.249  -1.677  0.00  0.00     0.062 A 
ATOM      3  C2  UNL d   1       1.418   1.065  -0.753  0.00  0.00     0.162 A 
ATOM      4  C3  UNL d   1       2.494   0.576  -0.012  0.00  0.00    -0.034 A 
ATOM      5  C4  UNL d   1       2.913  -0.741  -0.209  0.00  0.00     0.162 A 
ATOM      6  C5  UNL d   1       2.265  -1.553  -1.134  0.00  0.00     0.062 A 
ATOM      7  F   UNL d   1       2.675  -2.816  -1.317  0.00  0.00    -0.097 F 
ATOM      8  F1  UNL d   1       3.944  -1.243   0.486  0.00  0.00    -0.096 F 
ATOM      9  I   UNL d   1       3.461   1.794   1.371  0.00  0.00    -0.060 I 
ATOM     10  F2  UNL d   1       0.988   2.325  -0.589  0.00  0.00    -0.096 F 
ATOM     11  F3  UNL d   1      -0.261   0.728  -2.385  0.00  0.00    -0.097 F 
ATOM     12  F4  UNL d   1       0.572  -1.843  -2.758  0.00  0.00    -0.092 F 
ENDROOT
TORSDOF 0
ENDMDL
