MODEL 1
REMARK minimizedAffinity 6.40958643
REMARK minimizedRMSD -1
REMARK  0 active torsions:
REMARK  status: ('A' for Active; 'I' for Inactive)
ROOT
ATOM      1  C   UNL d   1       2.824  -0.995   0.009  0.00  0.00     0.124 A 
ATOM      2  C1  UNL d   1       2.217   0.223  -0.267  0.00  0.00     0.062 A 
ATOM      3  C2  UNL d   1       2.666   1.385   0.353  0.00  0.00     0.162 A 
ATOM      4  C3  UNL d   1       3.728   1.336   1.256  0.00  0.00    -0.034 A 
ATOM      5  C4  UNL d   1       4.333   0.108   1.529  0.00  0.00     0.162 A 
ATOM      6  C5  UNL d   1       3.880  -1.051   0.907  0.00  0.00     0.062 A 
ATOM      7  F   UNL d   1       4.468  -2.227   1.175  0.00  0.00    -0.097 F 
ATOM      8  F1  UNL d   1       5.356   0.025   2.392  0.00  0.00    -0.096 F 
ATOM      9  I   UNL d   1       4.402   3.072   2.186  0.00  0.00    -0.060 I 
ATOM     10  F2  UNL d   1       2.061   2.548   0.068  0.00  0.00    -0.096 F 
ATOM     11  F3  UNL d   1       1.195   0.280  -1.133  0.00  0.00    -0.097 F 
ATOM     12  F4  UNL d   1       2.389  -2.112  -0.588  0.00  0.00    -0.092 F 
ENDROOT
TORSDOF 0
ENDMDL
