MODEL 1
REMARK minimizedAffinity -2.05198336
REMARK minimizedRMSD -1
REMARK  0 active torsions:
REMARK  status: ('A' for Active; 'I' for Inactive)
ROOT
ATOM      1  C   UNL d   1       3.796   2.750   4.768  0.00  0.00     0.124 A 
ATOM      2  C1  UNL d   1       3.841   3.986   4.140  0.00  0.00     0.062 A 
ATOM      3  C2  UNL d   1       2.720   4.810   4.133  0.00  0.00     0.162 A 
ATOM      4  C3  UNL d   1       1.542   4.401   4.759  0.00  0.00    -0.034 A 
ATOM      5  C4  UNL d   1       1.503   3.155   5.388  0.00  0.00     0.162 A 
ATOM      6  C5  UNL d   1       2.627   2.335   5.392  0.00  0.00     0.062 A 
ATOM      7  F   UNL d   1       2.581   1.141   6.000  0.00  0.00    -0.097 F 
ATOM      8  F1  UNL d   1       0.388   2.730   5.999  0.00  0.00    -0.096 F 
ATOM      9  I   UNL d   1      -0.138   5.629   4.752  0.00  0.00    -0.060 I 
ATOM     10  F2  UNL d   1       2.792   6.000   3.518  0.00  0.00    -0.096 F 
ATOM     11  F3  UNL d   1       4.969   4.389   3.536  0.00  0.00    -0.097 F 
ATOM     12  F4  UNL d   1       4.876   1.959   4.772  0.00  0.00    -0.092 F 
ENDROOT
TORSDOF 0
ENDMDL
