MODEL 1
REMARK minimizedAffinity -2.90671945
REMARK minimizedRMSD -1
REMARK  0 active torsions:
REMARK  status: ('A' for Active; 'I' for Inactive)
ROOT
ATOM      1  C   UNL d   1       4.165   2.407   5.649  0.00  0.00     0.124 A 
ATOM      2  C1  UNL d   1       4.573   3.718   5.444  0.00  0.00     0.062 A 
ATOM      3  C2  UNL d   1       3.632   4.742   5.385  0.00  0.00     0.162 A 
ATOM      4  C3  UNL d   1       2.274   4.460   5.534  0.00  0.00    -0.034 A 
ATOM      5  C4  UNL d   1       1.872   3.139   5.739  0.00  0.00     0.162 A 
ATOM      6  C5  UNL d   1       2.816   2.119   5.797  0.00  0.00     0.062 A 
ATOM      7  F   UNL d   1       2.420   0.853   5.995  0.00  0.00    -0.097 F 
ATOM      8  F1  UNL d   1       0.575   2.833   5.886  0.00  0.00    -0.096 F 
ATOM      9  I   UNL d   1       0.865   5.989   5.447  0.00  0.00    -0.060 I 
ATOM     10  F2  UNL d   1       4.054   6.000   5.185  0.00  0.00    -0.096 F 
ATOM     11  F3  UNL d   1       5.876   3.999   5.300  0.00  0.00    -0.097 F 
ATOM     12  F4  UNL d   1       5.072   1.423   5.704  0.00  0.00    -0.092 F 
ENDROOT
TORSDOF 0
ENDMDL
