MODEL 1
REMARK minimizedAffinity 15.3370724
REMARK minimizedRMSD -1
REMARK  0 active torsions:
REMARK  status: ('A' for Active; 'I' for Inactive)
ROOT
ATOM      1  C   UNL d   1      -0.793  -1.005   1.377  0.00  0.00     0.124 A 
ATOM      2  C1  UNL d   1       0.375  -0.263   1.486  0.00  0.00     0.062 A 
ATOM      3  C2  UNL d   1       1.460  -0.540   0.659  0.00  0.00     0.162 A 
ATOM      4  C3  UNL d   1       1.381  -1.564  -0.286  0.00  0.00    -0.034 A 
ATOM      5  C4  UNL d   1       0.203  -2.306  -0.388  0.00  0.00     0.162 A 
ATOM      6  C5  UNL d   1      -0.878  -2.025   0.441  0.00  0.00     0.062 A 
ATOM      7  F   UNL d   1      -2.005  -2.743   0.335  0.00  0.00    -0.097 F 
ATOM      8  F1  UNL d   1       0.094  -3.298  -1.285  0.00  0.00    -0.096 F 
ATOM      9  I   UNL d   1       3.001  -1.982  -1.524  0.00  0.00    -0.060 I 
ATOM     10  F2  UNL d   1       2.576   0.193   0.785  0.00  0.00    -0.096 F 
ATOM     11  F3  UNL d   1       0.460   0.723   2.390  0.00  0.00    -0.097 F 
ATOM     12  F4  UNL d   1      -1.835  -0.737   2.175  0.00  0.00    -0.092 F 
ENDROOT
TORSDOF 0
ENDMDL
