MODEL 1
REMARK minimizedAffinity -1.53397918
REMARK minimizedRMSD -1
REMARK  0 active torsions:
REMARK  status: ('A' for Active; 'I' for Inactive)
ROOT
ATOM      1  C1  DEN d   1      -1.137  -0.009   1.972  0.00  0.00     0.130 A 
ATOM      2  C2  DEN d   1      -2.397   0.001   1.234  0.00  0.00    -0.031 A 
ATOM      3  C3  DEN d   1      -2.137  -0.525  -0.121  0.00  0.00     0.027 A 
ATOM      4  C4  DEN d   1       0.082  -1.352  -1.142  0.00  0.00     0.027 A 
ATOM      5  C5  DEN d   1       1.426  -1.541  -0.904  0.00  0.00    -0.003 A 
ATOM      6  C6  DEN d   1       2.011  -1.204   0.287  0.00  0.00     0.001 A 
ATOM      7  C7  DEN d   1       1.241  -0.701   1.303  0.00  0.00     0.017 A 
ATOM      8  C8  DEN d   1      -0.113  -0.501   1.068  0.00  0.00    -0.094 A 
ATOM      9  C9  DEN d   1      -0.688  -0.860  -0.139  0.00  0.00    -0.072 A 
ENDROOT
TORSDOF 0
ENDMDL
