MODEL 1
REMARK minimizedAffinity -2.69671035
REMARK minimizedRMSD -1
REMARK  0 active torsions:
REMARK  status: ('A' for Active; 'I' for Inactive)
ROOT
ATOM      1  C1  DEN d   1       1.663  -1.224   3.535  0.00  0.00     0.130 A 
ATOM      2  C2  DEN d   1       1.445  -0.917   4.946  0.00  0.00    -0.031 A 
ATOM      3  C3  DEN d   1       0.228  -0.086   5.050  0.00  0.00     0.027 A 
ATOM      4  C4  DEN d   1      -1.333   0.746   3.173  0.00  0.00     0.027 A 
ATOM      5  C5  DEN d   1      -1.550   0.750   1.813  0.00  0.00    -0.003 A 
ATOM      6  C6  DEN d   1      -0.699   0.131   0.936  0.00  0.00     0.001 A 
ATOM      7  C7  DEN d   1       0.384  -0.558   1.413  0.00  0.00     0.017 A 
ATOM      8  C8  DEN d   1       0.613  -0.561   2.783  0.00  0.00    -0.094 A 
ATOM      9  C9  DEN d   1      -0.265   0.061   3.654  0.00  0.00    -0.072 A 
ENDROOT
TORSDOF 0
ENDMDL
