MODEL 1
REMARK minimizedAffinity 2.33312845
REMARK minimizedRMSD -1
REMARK  0 active torsions:
REMARK  status: ('A' for Active; 'I' for Inactive)
ROOT
ATOM      1  C1  DEN d   1       2.011   0.220   5.013  0.00  0.00     0.130 A 
ATOM      2  C2  DEN d   1       2.446  -0.764   6.000  0.00  0.00    -0.031 A 
ATOM      3  C3  DEN d   1       1.489  -1.889   5.974  0.00  0.00     0.027 A 
ATOM      4  C4  DEN d   1      -0.609  -2.202   4.506  0.00  0.00     0.027 A 
ATOM      5  C5  DEN d   1      -1.390  -1.627   3.528  0.00  0.00    -0.003 A 
ATOM      6  C6  DEN d   1      -1.114  -0.392   3.004  0.00  0.00     0.001 A 
ATOM      7  C7  DEN d   1      -0.002   0.290   3.424  0.00  0.00     0.017 A 
ATOM      8  C8  DEN d   1       0.786  -0.279   4.416  0.00  0.00    -0.094 A 
ATOM      9  C9  DEN d   1       0.497  -1.534   4.924  0.00  0.00    -0.072 A 
ENDROOT
TORSDOF 0
ENDMDL
