MODEL 1
REMARK minimizedAffinity 2.25606441
REMARK minimizedRMSD -1
REMARK  0 active torsions:
REMARK  status: ('A' for Active; 'I' for Inactive)
ROOT
ATOM      1  C1  DEN d   1      -0.609  -1.198   2.435  0.00  0.00     0.130 A 
ATOM      2  C2  DEN d   1      -2.059  -1.043   2.504  0.00  0.00    -0.031 A 
ATOM      3  C3  DEN d   1      -2.359   0.397   2.640  0.00  0.00     0.027 A 
ATOM      4  C4  DEN d   1      -0.727   2.391   2.743  0.00  0.00     0.027 A 
ATOM      5  C5  DEN d   1       0.601   2.756   2.735  0.00  0.00    -0.003 A 
ATOM      6  C6  DEN d   1       1.612   1.835   2.660  0.00  0.00     0.001 A 
ATOM      7  C7  DEN d   1       1.309   0.504   2.546  0.00  0.00     0.017 A 
ATOM      8  C8  DEN d   1      -0.028   0.127   2.561  0.00  0.00    -0.094 A 
ATOM      9  C9  DEN d   1      -1.035   1.075   2.625  0.00  0.00    -0.072 A 
ENDROOT
TORSDOF 0
ENDMDL
