MODEL 1
REMARK minimizedAffinity 9.56138515
REMARK minimizedRMSD -1
REMARK  0 active torsions:
REMARK  status: ('A' for Active; 'I' for Inactive)
ROOT
ATOM      1  C1  DEN d   1      -1.531  -1.665  -2.371  0.00  0.00     0.130 A 
ATOM      2  C2  DEN d   1      -1.323  -0.715  -1.283  0.00  0.00    -0.031 A 
ATOM      3  C3  DEN d   1      -0.420   0.347  -1.770  0.00  0.00     0.027 A 
ATOM      4  C4  DEN d   1       0.667   0.613  -4.094  0.00  0.00     0.027 A 
ATOM      5  C5  DEN d   1       0.795   0.049  -5.344  0.00  0.00    -0.003 A 
ATOM      6  C6  DEN d   1       0.190  -1.134  -5.678  0.00  0.00     0.001 A 
ATOM      7  C7  DEN d   1      -0.609  -1.768  -4.764  0.00  0.00     0.017 A 
ATOM      8  C8  DEN d   1      -0.738  -1.210  -3.499  0.00  0.00    -0.094 A 
ATOM      9  C9  DEN d   1      -0.128  -0.007  -3.185  0.00  0.00    -0.072 A 
ENDROOT
TORSDOF 0
ENDMDL
