MODEL 1
REMARK minimizedAffinity 11.4254322
REMARK minimizedRMSD -1
REMARK  0 active torsions:
REMARK  status: ('A' for Active; 'I' for Inactive)
ROOT
ATOM      1  C1  DEN d   1      -1.878   0.754   1.692  0.00  0.00     0.130 A 
ATOM      2  C2  DEN d   1      -2.914   0.379   0.734  0.00  0.00    -0.031 A 
ATOM      3  C3  DEN d   1      -2.257  -0.272  -0.417  0.00  0.00     0.027 A 
ATOM      4  C4  DEN d   1       0.250  -0.737  -0.804  0.00  0.00     0.027 A 
ATOM      5  C5  DEN d   1       1.514  -0.590  -0.276  0.00  0.00    -0.003 A 
ATOM      6  C6  DEN d   1       1.737   0.040   0.919  0.00  0.00     0.001 A 
ATOM      7  C7  DEN d   1       0.676   0.508   1.648  0.00  0.00     0.017 A 
ATOM      8  C8  DEN d   1      -0.601   0.370   1.119  0.00  0.00    -0.094 A 
ATOM      9  C9  DEN d   1      -0.806  -0.281  -0.085  0.00  0.00    -0.072 A 
ENDROOT
TORSDOF 0
ENDMDL
