MODEL 1
REMARK minimizedAffinity 11.5235167
REMARK minimizedRMSD -1
REMARK  0 active torsions:
REMARK  status: ('A' for Active; 'I' for Inactive)
ROOT
ATOM      1  C1  DEN d   1       0.290  -0.218   0.475  0.00  0.00     0.130 A 
ATOM      2  C2  DEN d   1       0.267   0.909   1.402  0.00  0.00    -0.031 A 
ATOM      3  C3  DEN d   1      -1.128   1.379   1.515  0.00  0.00     0.027 A 
ATOM      4  C4  DEN d   1      -3.245   0.472   0.353  0.00  0.00     0.027 A 
ATOM      5  C5  DEN d   1      -3.724  -0.468  -0.533  0.00  0.00    -0.003 A 
ATOM      6  C6  DEN d   1      -2.900  -1.361  -1.166  0.00  0.00     0.001 A 
ATOM      7  C7  DEN d   1      -1.559  -1.362  -0.887  0.00  0.00     0.017 A 
ATOM      8  C8  DEN d   1      -1.068  -0.413  -0.001  0.00  0.00    -0.094 A 
ATOM      9  C9  DEN d   1      -1.918   0.473   0.638  0.00  0.00    -0.072 A 
ENDROOT
TORSDOF 0
ENDMDL
