MODEL 1
REMARK minimizedAffinity 2.40483785
REMARK minimizedRMSD -1
REMARK  0 active torsions:
REMARK  status: ('A' for Active; 'I' for Inactive)
ROOT
ATOM      1  C1  DEN d   1      -2.229   0.369   0.902  0.00  0.00     0.130 A 
ATOM      2  C2  DEN d   1      -2.642  -0.722   0.023  0.00  0.00    -0.031 A 
ATOM      3  C3  DEN d   1      -1.424  -1.389  -0.479  0.00  0.00     0.027 A 
ATOM      4  C4  DEN d   1       1.048  -0.843   0.019  0.00  0.00     0.027 A 
ATOM      5  C5  DEN d   1       1.895   0.004   0.698  0.00  0.00    -0.003 A 
ATOM      6  C6  DEN d   1       1.432   1.044   1.459  0.00  0.00     0.001 A 
ATOM      7  C7  DEN d   1       0.083   1.237   1.596  0.00  0.00     0.017 A 
ATOM      8  C8  DEN d   1      -0.778   0.392   0.908  0.00  0.00    -0.094 A 
ATOM      9  C9  DEN d   1      -0.291  -0.661   0.154  0.00  0.00    -0.072 A 
ENDROOT
TORSDOF 0
ENDMDL
