MODEL 1
REMARK minimizedAffinity 11.9703856
REMARK minimizedRMSD -1
REMARK  0 active torsions:
REMARK  status: ('A' for Active; 'I' for Inactive)
ROOT
ATOM      1  C1  DEN d   1      -0.437  -0.262  -1.197  0.00  0.00     0.130 A 
ATOM      2  C2  DEN d   1      -1.507  -0.330  -0.205  0.00  0.00    -0.031 A 
ATOM      3  C3  DEN d   1      -0.913  -0.085   1.125  0.00  0.00     0.027 A 
ATOM      4  C4  DEN d   1       1.546   0.394   1.740  0.00  0.00     0.027 A 
ATOM      5  C5  DEN d   1       2.821   0.539   1.239  0.00  0.00    -0.003 A 
ATOM      6  C6  DEN d   1       3.102   0.394  -0.094  0.00  0.00     0.001 A 
ATOM      7  C7  DEN d   1       2.088   0.140  -0.978  0.00  0.00     0.017 A 
ATOM      8  C8  DEN d   1       0.801  -0.014  -0.479  0.00  0.00    -0.094 A 
ATOM      9  C9  DEN d   1       0.534   0.148   0.870  0.00  0.00    -0.072 A 
ENDROOT
TORSDOF 0
ENDMDL
