MODEL 1
REMARK minimizedAffinity 11.4740429
REMARK minimizedRMSD -1
REMARK  0 active torsions:
REMARK  status: ('A' for Active; 'I' for Inactive)
ROOT
ATOM      1  C1  DEN d   1      -1.478  -1.645  -0.368  0.00  0.00     0.130 A 
ATOM      2  C2  DEN d   1      -2.720  -0.879  -0.297  0.00  0.00    -0.031 A 
ATOM      3  C3  DEN d   1      -2.449   0.360   0.459  0.00  0.00     0.027 A 
ATOM      4  C4  DEN d   1      -0.239   1.165   1.517  0.00  0.00     0.027 A 
ATOM      5  C5  DEN d   1       1.085   0.849   1.729  0.00  0.00    -0.003 A 
ATOM      6  C6  DEN d   1       1.634  -0.326   1.290  0.00  0.00     0.001 A 
ATOM      7  C7  DEN d   1       0.867  -1.209   0.576  0.00  0.00     0.017 A 
ATOM      8  C8  DEN d   1      -0.470  -0.901   0.365  0.00  0.00    -0.094 A 
ATOM      9  C9  DEN d   1      -1.004   0.298   0.807  0.00  0.00    -0.072 A 
ENDROOT
TORSDOF 0
ENDMDL
