MODEL 1
REMARK minimizedAffinity -4.8502655
REMARK minimizedRMSD -1
REMARK  0 active torsions:
REMARK  status: ('A' for Active; 'I' for Inactive)
ROOT
ATOM      1  O1  BZF d   1      -0.976   0.562  -5.557  0.00  0.00    -0.204 OA
ATOM      2  C2  BZF d   1      -1.925  -0.398  -5.265  0.00  0.00     0.174 A 
ATOM      3  C3  BZF d   1      -1.554  -1.127  -4.192  0.00  0.00    -0.012 A 
ATOM      4  C3A BZF d   1      -0.339  -0.528  -3.733  0.00  0.00    -0.107 A 
ATOM      5  C4  BZF d   1       0.505  -0.795  -2.693  0.00  0.00     0.055 A 
ATOM      6  C5  BZF d   1       1.646  -0.068  -2.564  0.00  0.00    -0.016 A 
ATOM      7  C6  BZF d   1       1.977   0.928  -3.460  0.00  0.00     0.022 A 
ATOM      8  C7  BZF d   1       1.170   1.232  -4.505  0.00  0.00     0.029 A 
ATOM      9  C7A BZF d   1      -0.000   0.522  -4.618  0.00  0.00     0.058 A 
ENDROOT
TORSDOF 0
ENDMDL
