MODEL 1
REMARK minimizedAffinity -2.89713931
REMARK minimizedRMSD -1
REMARK  0 active torsions:
REMARK  status: ('A' for Active; 'I' for Inactive)
ROOT
ATOM      1  O1  BZF d   1       1.445   0.436  -0.304  0.00  0.00    -0.204 OA
ATOM      2  C2  BZF d   1       1.074  -0.201  -1.473  0.00  0.00     0.174 A 
ATOM      3  C3  BZF d   1      -0.204  -0.628  -1.400  0.00  0.00    -0.012 A 
ATOM      4  C3A BZF d   1      -0.688  -0.153  -0.140  0.00  0.00    -0.107 A 
ATOM      5  C4  BZF d   1      -1.892  -0.244   0.497  0.00  0.00     0.055 A 
ATOM      6  C5  BZF d   1      -2.016   0.266   1.751  0.00  0.00    -0.016 A 
ATOM      7  C6  BZF d   1      -0.956   0.867   2.398  0.00  0.00     0.022 A 
ATOM      8  C7  BZF d   1       0.256   0.985   1.804  0.00  0.00     0.029 A 
ATOM      9  C7A BZF d   1       0.375   0.501   0.524  0.00  0.00     0.058 A 
ENDROOT
TORSDOF 0
ENDMDL
