MODEL 1
REMARK minimizedAffinity -5.18631124
REMARK minimizedRMSD -1
REMARK  0 active torsions:
REMARK  status: ('A' for Active; 'I' for Inactive)
ROOT
ATOM      1  O1  BZF d   1       1.011  -0.553  -0.421  0.00  0.00    -0.204 OA
ATOM      2  C2  BZF d   1      -0.061  -0.204  -1.220  0.00  0.00     0.174 A 
ATOM      3  C3  BZF d   1      -1.067   0.300  -0.477  0.00  0.00    -0.012 A 
ATOM      4  C3A BZF d   1      -0.560   0.350   0.860  0.00  0.00    -0.107 A 
ATOM      5  C4  BZF d   1      -1.084   0.771   2.048  0.00  0.00     0.055 A 
ATOM      6  C5  BZF d   1      -0.354   0.617   3.184  0.00  0.00    -0.016 A 
ATOM      7  C6  BZF d   1       0.900   0.042   3.169  0.00  0.00     0.022 A 
ATOM      8  C7  BZF d   1       1.464  -0.387   2.014  0.00  0.00     0.029 A 
ATOM      9  C7A BZF d   1       0.742  -0.202   0.860  0.00  0.00     0.058 A 
ENDROOT
TORSDOF 0
ENDMDL
