MODEL 1
REMARK minimizedAffinity -3.80776787
REMARK minimizedRMSD -1
REMARK  0 active torsions:
REMARK  status: ('A' for Active; 'I' for Inactive)
ROOT
ATOM      1  O1  BZF d   1       1.399   1.040   0.149  0.00  0.00    -0.204 OA
ATOM      2  C2  BZF d   1       1.006   0.294  -0.945  0.00  0.00     0.174 A 
ATOM      3  C3  BZF d   1      -0.167  -0.326  -0.704  0.00  0.00    -0.012 A 
ATOM      4  C3A BZF d   1      -0.576   0.130   0.588  0.00  0.00    -0.107 A 
ATOM      5  C4  BZF d   1      -1.669  -0.118   1.369  0.00  0.00     0.055 A 
ATOM      6  C5  BZF d   1      -1.730   0.429   2.612  0.00  0.00    -0.016 A 
ATOM      7  C6  BZF d   1      -0.717   1.224   3.106  0.00  0.00     0.022 A 
ATOM      8  C7  BZF d   1       0.384   1.502   2.367  0.00  0.00     0.029 A 
ATOM      9  C7A BZF d   1       0.434   0.978   1.098  0.00  0.00     0.058 A 
ENDROOT
TORSDOF 0
ENDMDL
