MODEL 1
REMARK minimizedAffinity -4.99618244
REMARK minimizedRMSD -1
REMARK  0 active torsions:
REMARK  status: ('A' for Active; 'I' for Inactive)
ROOT
ATOM      1  O1  BZF d   1       1.248  -1.139   0.425  0.00  0.00    -0.204 OA
ATOM      2  C2  BZF d   1       0.551  -0.698  -0.684  0.00  0.00     0.174 A 
ATOM      3  C3  BZF d   1      -0.282   0.309  -0.355  0.00  0.00    -0.012 A 
ATOM      4  C3A BZF d   1      -0.028   0.573   1.028  0.00  0.00    -0.107 A 
ATOM      5  C4  BZF d   1      -0.534   1.474   1.920  0.00  0.00     0.055 A 
ATOM      6  C5  BZF d   1      -0.125   1.422   3.215  0.00  0.00    -0.016 A 
ATOM      7  C6  BZF d   1       0.783   0.479   3.653  0.00  0.00     0.022 A 
ATOM      8  C7  BZF d   1       1.316  -0.432   2.803  0.00  0.00     0.029 A 
ATOM      9  C7A BZF d   1       0.930  -0.360   1.487  0.00  0.00     0.058 A 
ENDROOT
TORSDOF 0
ENDMDL
