MODEL 1
REMARK minimizedAffinity -4.6060605
REMARK minimizedRMSD -1
REMARK  0 active torsions:
REMARK  status: ('A' for Active; 'I' for Inactive)
ROOT
ATOM      1  O1  BZF d   1       0.374   0.658  -1.010  0.00  0.00    -0.204 OA
ATOM      2  C2  BZF d   1       0.380  -0.663  -1.414  0.00  0.00     0.174 A 
ATOM      3  C3  BZF d   1      -0.135  -1.460  -0.455  0.00  0.00    -0.012 A 
ATOM      4  C3A BZF d   1      -0.569  -0.571   0.579  0.00  0.00    -0.107 A 
ATOM      5  C4  BZF d   1      -1.177  -0.761   1.787  0.00  0.00     0.055 A 
ATOM      6  C5  BZF d   1      -1.399   0.311   2.591  0.00  0.00    -0.016 A 
ATOM      7  C6  BZF d   1      -1.023   1.586   2.222  0.00  0.00     0.022 A 
ATOM      8  C7  BZF d   1      -0.421   1.825   1.031  0.00  0.00     0.029 A 
ATOM      9  C7A BZF d   1      -0.224   0.748   0.202  0.00  0.00     0.058 A 
ENDROOT
TORSDOF 0
ENDMDL
