MODEL 1
REMARK minimizedAffinity -2.65728402
REMARK minimizedRMSD -1
REMARK  0 active torsions:
REMARK  status: ('A' for Active; 'I' for Inactive)
ROOT
ATOM      1  O1  BZF d   1       1.362  -1.640   1.149  0.00  0.00    -0.204 OA
ATOM      2  C2  BZF d   1       2.629  -1.097   1.237  0.00  0.00     0.174 A 
ATOM      3  C3  BZF d   1       2.567   0.214   1.549  0.00  0.00    -0.012 A 
ATOM      4  C3A BZF d   1       1.178   0.486   1.754  0.00  0.00    -0.107 A 
ATOM      5  C4  BZF d   1       0.483   1.609   2.102  0.00  0.00     0.055 A 
ATOM      6  C5  BZF d   1      -0.874   1.559   2.147  0.00  0.00    -0.016 A 
ATOM      7  C6  BZF d   1      -1.568   0.405   1.844  0.00  0.00     0.022 A 
ATOM      8  C7  BZF d   1      -0.922  -0.735   1.499  0.00  0.00     0.029 A 
ATOM      9  C7A BZF d   1       0.451  -0.696   1.485  0.00  0.00     0.058 A 
ENDROOT
TORSDOF 0
ENDMDL
