MODEL 1
REMARK minimizedAffinity -5.35457087
REMARK minimizedRMSD -1
REMARK  0 active torsions:
REMARK  status: ('A' for Active; 'I' for Inactive)
ROOT
ATOM      1  O1  BZF d   1      -1.671  -0.047   0.637  0.00  0.00    -0.204 OA
ATOM      2  C2  BZF d   1      -1.878   0.815   1.697  0.00  0.00     0.174 A 
ATOM      3  C3  BZF d   1      -0.769   0.912   2.458  0.00  0.00    -0.012 A 
ATOM      4  C3A BZF d   1       0.220   0.129   1.784  0.00  0.00    -0.107 A 
ATOM      5  C4  BZF d   1       1.532  -0.151   2.041  0.00  0.00     0.055 A 
ATOM      6  C5  BZF d   1       2.196  -1.009   1.224  0.00  0.00    -0.016 A 
ATOM      7  C6  BZF d   1       1.580  -1.609   0.145  0.00  0.00     0.022 A 
ATOM      8  C7  BZF d   1       0.282  -1.358  -0.153  0.00  0.00     0.029 A 
ATOM      9  C7A BZF d   1      -0.383  -0.466   0.651  0.00  0.00     0.058 A 
ENDROOT
TORSDOF 0
ENDMDL
