MODEL 1
REMARK minimizedAffinity -3.03111291
REMARK minimizedRMSD -1
REMARK  0 active torsions:
REMARK  status: ('A' for Active; 'I' for Inactive)
ROOT
ATOM      1  O1  BZF d   1      -0.351  -0.890   0.003  0.00  0.00    -0.204 OA
ATOM      2  C2  BZF d   1      -1.727  -0.779   0.065  0.00  0.00     0.174 A 
ATOM      3  C3  BZF d   1      -2.097   0.023   1.085  0.00  0.00    -0.012 A 
ATOM      4  C3A BZF d   1      -0.873   0.513   1.641  0.00  0.00    -0.107 A 
ATOM      5  C4  BZF d   1      -0.584   1.364   2.669  0.00  0.00     0.055 A 
ATOM      6  C5  BZF d   1       0.716   1.578   3.003  0.00  0.00    -0.016 A 
ATOM      7  C6  BZF d   1       1.750   0.954   2.336  0.00  0.00     0.022 A 
ATOM      8  C7  BZF d   1       1.512   0.104   1.307  0.00  0.00     0.029 A 
ATOM      9  C7A BZF d   1       0.201  -0.088   0.945  0.00  0.00     0.058 A 
ENDROOT
TORSDOF 0
ENDMDL
