MODEL 1
REMARK minimizedAffinity -2.54139328
REMARK minimizedRMSD -1
REMARK  0 active torsions:
REMARK  status: ('A' for Active; 'I' for Inactive)
ROOT
ATOM      1  O1  BZF d   1      -1.278  -0.042   1.362  0.00  0.00    -0.204 OA
ATOM      2  C2  BZF d   1      -0.270  -0.293   0.452  0.00  0.00     0.174 A 
ATOM      3  C3  BZF d   1       0.929  -0.346   1.068  0.00  0.00    -0.012 A 
ATOM      4  C3A BZF d   1       0.641  -0.204   2.463  0.00  0.00    -0.107 A 
ATOM      5  C4  BZF d   1       1.419  -0.193   3.585  0.00  0.00     0.055 A 
ATOM      6  C5  BZF d   1       0.836   0.039   4.791  0.00  0.00    -0.016 A 
ATOM      7  C6  BZF d   1      -0.520   0.267   4.909  0.00  0.00     0.022 A 
ATOM      8  C7  BZF d   1      -1.332   0.260   3.825  0.00  0.00     0.029 A 
ATOM      9  C7A BZF d   1      -0.751  -0.006   2.610  0.00  0.00     0.058 A 
ENDROOT
TORSDOF 0
ENDMDL
