MODEL 1
REMARK minimizedAffinity -2.8240819
REMARK minimizedRMSD -1
REMARK  0 active torsions:
REMARK  status: ('A' for Active; 'I' for Inactive)
ROOT
ATOM      1  C1  DEN d   1       1.506  -1.180  -2.761  0.00  0.00     0.130 A 
ATOM      2  C2  DEN d   1       2.232   0.004  -2.311  0.00  0.00    -0.031 A 
ATOM      3  C3  DEN d   1       1.876   1.125  -3.203  0.00  0.00     0.027 A 
ATOM      4  C4  DEN d   1       0.275   1.144  -5.226  0.00  0.00     0.027 A 
ATOM      5  C5  DEN d   1      -0.564   0.373  -6.000  0.00  0.00    -0.003 A 
ATOM      6  C6  DEN d   1      -0.744  -0.965  -5.772  0.00  0.00     0.001 A 
ATOM      7  C7  DEN d   1      -0.111  -1.565  -4.716  0.00  0.00     0.017 A 
ATOM      8  C8  DEN d   1       0.742  -0.797  -3.935  0.00  0.00    -0.094 A 
ATOM      9  C9  DEN d   1       0.902   0.558  -4.174  0.00  0.00    -0.072 A 
ENDROOT
TORSDOF 0
ENDMDL
