MODEL 1
REMARK minimizedAffinity -3.35599041
REMARK minimizedRMSD -1
REMARK  0 active torsions:
REMARK  status: ('A' for Active; 'I' for Inactive)
ROOT
ATOM      1  C1  DEN d   1       0.941  -0.056   2.104  0.00  0.00     0.130 A 
ATOM      2  C2  DEN d   1      -0.079   0.487   2.998  0.00  0.00    -0.031 A 
ATOM      3  C3  DEN d   1      -1.298   0.734   2.202  0.00  0.00     0.027 A 
ATOM      4  C4  DEN d   1      -1.706   0.326  -0.312  0.00  0.00     0.027 A 
ATOM      5  C5  DEN d   1      -1.133  -0.112  -1.485  0.00  0.00    -0.003 A 
ATOM      6  C6  DEN d   1       0.171  -0.526  -1.551  0.00  0.00     0.001 A 
ATOM      7  C7  DEN d   1       0.933  -0.554  -0.413  0.00  0.00     0.017 A 
ATOM      8  C8  DEN d   1       0.364  -0.107   0.773  0.00  0.00    -0.094 A 
ATOM      9  C9  DEN d   1      -0.959   0.296   0.821  0.00  0.00    -0.072 A 
ENDROOT
TORSDOF 0
ENDMDL
