MODEL 1
REMARK minimizedAffinity -1.59409606
REMARK minimizedRMSD -1
REMARK  0 active torsions:
REMARK  status: ('A' for Active; 'I' for Inactive)
ROOT
ATOM      1  C1  DEN d   1       1.107  -0.603  -1.004  0.00  0.00     0.130 A 
ATOM      2  C2  DEN d   1      -0.255  -0.580  -0.477  0.00  0.00    -0.031 A 
ATOM      3  C3  DEN d   1      -1.165  -0.208  -1.579  0.00  0.00     0.027 A 
ATOM      4  C4  DEN d   1      -0.600   0.327  -4.038  0.00  0.00     0.027 A 
ATOM      5  C5  DEN d   1       0.421   0.450  -4.955  0.00  0.00    -0.003 A 
ATOM      6  C6  DEN d   1       1.735   0.265  -4.613  0.00  0.00     0.001 A 
ATOM      7  C7  DEN d   1       2.058  -0.098  -3.332  0.00  0.00     0.017 A 
ATOM      8  C8  DEN d   1       1.035  -0.216  -2.401  0.00  0.00    -0.094 A 
ATOM      9  C9  DEN d   1      -0.288  -0.037  -2.769  0.00  0.00    -0.072 A 
ENDROOT
TORSDOF 0
ENDMDL
