MODEL 1
REMARK minimizedAffinity -1.26212358
REMARK minimizedRMSD -1
REMARK  0 active torsions:
REMARK  status: ('A' for Active; 'I' for Inactive)
ROOT
ATOM      1  C1  DEN d   1       0.909  -0.978  -3.339  0.00  0.00     0.130 A 
ATOM      2  C2  DEN d   1       0.493   0.176  -4.132  0.00  0.00    -0.031 A 
ATOM      3  C3  DEN d   1      -0.009   1.210  -3.205  0.00  0.00     0.027 A 
ATOM      4  C4  DEN d   1      -0.177   1.140  -0.633  0.00  0.00     0.027 A 
ATOM      5  C5  DEN d   1       0.043   0.367   0.486  0.00  0.00    -0.003 A 
ATOM      6  C6  DEN d   1       0.531  -0.910   0.407  0.00  0.00     0.001 A 
ATOM      7  C7  DEN d   1       0.858  -1.437  -0.815  0.00  0.00     0.017 A 
ATOM      8  C8  DEN d   1       0.632  -0.667  -1.948  0.00  0.00    -0.094 A 
ATOM      9  C9  DEN d   1       0.149   0.627  -1.846  0.00  0.00    -0.072 A 
ENDROOT
TORSDOF 0
ENDMDL
