MODEL 1
REMARK minimizedAffinity -3.67555118
REMARK minimizedRMSD -1
REMARK  0 active torsions:
REMARK  status: ('A' for Active; 'I' for Inactive)
ROOT
ATOM      1  C1  DEN d   1       0.084   0.655   3.521  0.00  0.00     0.130 A 
ATOM      2  C2  DEN d   1       1.378  -0.017   3.439  0.00  0.00    -0.031 A 
ATOM      3  C3  DEN d   1       1.554  -0.499   2.055  0.00  0.00     0.027 A 
ATOM      4  C4  DEN d   1      -0.039  -0.267   0.040  0.00  0.00     0.027 A 
ATOM      5  C5  DEN d   1      -1.260   0.215  -0.376  0.00  0.00    -0.003 A 
ATOM      6  C6  DEN d   1      -2.127   0.842   0.480  0.00  0.00     0.001 A 
ATOM      7  C7  DEN d   1      -1.765   1.045   1.785  0.00  0.00     0.017 A 
ATOM      8  C8  DEN d   1      -0.538   0.555   2.213  0.00  0.00    -0.094 A 
ATOM      9  C9  DEN d   1       0.330  -0.066   1.330  0.00  0.00    -0.072 A 
ENDROOT
TORSDOF 0
ENDMDL
