MODEL 1
REMARK minimizedAffinity -4.97892523
REMARK minimizedRMSD -1
REMARK  0 active torsions:
REMARK  status: ('A' for Active; 'I' for Inactive)
ROOT
ATOM      1  C1  DEN d   1      -1.986   0.252   0.081  0.00  0.00     0.130 A 
ATOM      2  C2  DEN d   1      -2.045   0.685   1.474  0.00  0.00    -0.031 A 
ATOM      3  C3  DEN d   1      -0.754   0.354   2.110  0.00  0.00     0.027 A 
ATOM      4  C4  DEN d   1       1.321  -0.777   1.078  0.00  0.00     0.027 A 
ATOM      5  C5  DEN d   1       1.841  -1.336  -0.068  0.00  0.00    -0.003 A 
ATOM      6  C6  DEN d   1       1.116  -1.434  -1.227  0.00  0.00     0.001 A 
ATOM      7  C7  DEN d   1      -0.155  -0.926  -1.277  0.00  0.00     0.017 A 
ATOM      8  C8  DEN d   1      -0.689  -0.368  -0.123  0.00  0.00    -0.094 A 
ATOM      9  C9  DEN d   1       0.064  -0.267   1.034  0.00  0.00    -0.072 A 
ENDROOT
TORSDOF 0
ENDMDL
