MODEL 1
REMARK minimizedAffinity -2.55457759
REMARK minimizedRMSD -1
REMARK  0 active torsions:
REMARK  status: ('A' for Active; 'I' for Inactive)
ROOT
ATOM      1  C1  DEN d   1       0.806   0.561  -0.177  0.00  0.00     0.130 A 
ATOM      2  C2  DEN d   1       0.130  -0.648   0.284  0.00  0.00    -0.031 A 
ATOM      3  C3  DEN d   1      -0.178  -1.478  -0.897  0.00  0.00     0.027 A 
ATOM      4  C4  DEN d   1       0.328  -1.014  -3.383  0.00  0.00     0.027 A 
ATOM      5  C5  DEN d   1       0.877  -0.111  -4.268  0.00  0.00    -0.003 A 
ATOM      6  C6  DEN d   1       1.406   1.084  -3.857  0.00  0.00     0.001 A 
ATOM      7  C7  DEN d   1       1.438   1.389  -2.522  0.00  0.00     0.017 A 
ATOM      8  C8  DEN d   1       0.880   0.488  -1.625  0.00  0.00    -0.094 A 
ATOM      9  C9  DEN d   1       0.361  -0.721  -2.059  0.00  0.00    -0.072 A 
ENDROOT
TORSDOF 0
ENDMDL
