MODEL 1
REMARK minimizedAffinity -2.90454888
REMARK minimizedRMSD -1
REMARK  0 active torsions:
REMARK  status: ('A' for Active; 'I' for Inactive)
ROOT
ATOM      1  C1  DEN d   1       1.496   0.307  -0.419  0.00  0.00     0.130 A 
ATOM      2  C2  DEN d   1       0.196  -0.065   0.132  0.00  0.00    -0.031 A 
ATOM      3  C3  DEN d   1      -0.718  -0.336  -0.995  0.00  0.00     0.027 A 
ATOM      4  C4  DEN d   1      -0.248  -0.220  -3.529  0.00  0.00     0.027 A 
ATOM      5  C5  DEN d   1       0.706   0.061  -4.482  0.00  0.00    -0.003 A 
ATOM      6  C6  DEN d   1       1.969   0.473  -4.151  0.00  0.00     0.001 A 
ATOM      7  C7  DEN d   1       2.327   0.573  -2.832  0.00  0.00     0.017 A 
ATOM      8  C8  DEN d   1       1.369   0.298  -1.866  0.00  0.00    -0.094 A 
ATOM      9  C9  DEN d   1       0.100  -0.129  -2.220  0.00  0.00    -0.072 A 
ENDROOT
TORSDOF 0
ENDMDL
