MODEL 1
REMARK minimizedAffinity 4.35696745
REMARK minimizedRMSD -1
REMARK  0 active torsions:
REMARK  status: ('A' for Active; 'I' for Inactive)
ROOT
ATOM      1  C   UNL d   1       3.746   1.753  -4.120  0.00  0.00     0.077 C 
ATOM      2  C1  UNL d   1       3.644   3.169  -4.604  0.00  0.00    -0.074 A 
ATOM      3  C2  UNL d   1       2.398   3.777  -4.790  0.00  0.00    -0.005 A 
ATOM      4  C3  UNL d   1       2.319   5.098  -5.232  0.00  0.00     0.006 A 
ATOM      5  C4  UNL d   1       3.483   5.823  -5.491  0.00  0.00    -0.005 A 
ATOM      6  C5  UNL d   1       4.738   5.232  -5.309  0.00  0.00    -0.074 A 
ATOM      7  C6  UNL d   1       5.998   6.000  -5.574  0.00  0.00     0.077 C 
ATOM      8  C7  UNL d   1       4.809   3.907  -4.859  0.00  0.00    -0.001 A 
ENDROOT
TORSDOF 0
ENDMDL
