MODEL 1
REMARK minimizedAffinity 0.622591436
REMARK minimizedRMSD -1
REMARK  0 active torsions:
REMARK  status: ('A' for Active; 'I' for Inactive)
ROOT
ATOM      1  C   UNL d   1       1.134   4.915  -5.990  0.00  0.00     0.077 C 
ATOM      2  C1  UNL d   1       2.585   4.933  -5.612  0.00  0.00    -0.074 A 
ATOM      3  C2  UNL d   1       3.415   5.992  -5.994  0.00  0.00    -0.005 A 
ATOM      4  C3  UNL d   1       4.760   6.000  -5.627  0.00  0.00     0.006 A 
ATOM      5  C4  UNL d   1       5.289   4.949  -4.876  0.00  0.00    -0.005 A 
ATOM      6  C5  UNL d   1       4.475   3.882  -4.485  0.00  0.00    -0.074 A 
ATOM      7  C6  UNL d   1       5.026   2.750  -3.669  0.00  0.00     0.077 C 
ATOM      8  C7  UNL d   1       3.122   3.885  -4.851  0.00  0.00    -0.001 A 
ENDROOT
TORSDOF 0
ENDMDL
