MODEL 1
REMARK minimizedAffinity 1.00423002
REMARK minimizedRMSD -1
REMARK  0 active torsions:
REMARK  status: ('A' for Active; 'I' for Inactive)
ROOT
ATOM      1  C   UNL d   1       4.105   1.990  -3.421  0.00  0.00     0.077 C 
ATOM      2  C1  UNL d   1       3.789   3.208  -4.237  0.00  0.00    -0.074 A 
ATOM      3  C2  UNL d   1       2.465   3.570  -4.505  0.00  0.00    -0.005 A 
ATOM      4  C3  UNL d   1       2.186   4.711  -5.257  0.00  0.00     0.006 A 
ATOM      5  C4  UNL d   1       3.226   5.501  -5.747  0.00  0.00    -0.005 A 
ATOM      6  C5  UNL d   1       4.556   5.156  -5.488  0.00  0.00    -0.074 A 
ATOM      7  C6  UNL d   1       5.686   6.000  -6.000  0.00  0.00     0.077 C 
ATOM      8  C7  UNL d   1       4.829   4.012  -4.726  0.00  0.00    -0.001 A 
ENDROOT
TORSDOF 0
ENDMDL
