MODEL 1
REMARK minimizedAffinity 5.79080057
REMARK minimizedRMSD -1
REMARK  0 active torsions:
REMARK  status: ('A' for Active; 'I' for Inactive)
ROOT
ATOM      1  C   UNL d   1       5.768   5.999  -5.997  0.00  0.00     0.077 C 
ATOM      2  C1  UNL d   1       4.450   5.521  -5.466  0.00  0.00    -0.074 A 
ATOM      3  C2  UNL d   1       3.246   5.996  -5.998  0.00  0.00    -0.005 A 
ATOM      4  C3  UNL d   1       2.027   5.536  -5.500  0.00  0.00     0.006 A 
ATOM      5  C4  UNL d   1       1.999   4.598  -4.467  0.00  0.00    -0.005 A 
ATOM      6  C5  UNL d   1       3.192   4.112  -3.923  0.00  0.00    -0.074 A 
ATOM      7  C6  UNL d   1       3.180   3.096  -2.819  0.00  0.00     0.077 C 
ATOM      8  C7  UNL d   1       4.413   4.573  -4.434  0.00  0.00    -0.001 A 
ENDROOT
TORSDOF 0
ENDMDL
