MODEL 1
REMARK minimizedAffinity -0.876286328
REMARK minimizedRMSD -1
REMARK  0 active torsions:
REMARK  status: ('A' for Active; 'I' for Inactive)
ROOT
ATOM      1  C   UNL d   1      -0.505   2.261   2.174  0.00  0.00     0.077 C 
ATOM      2  C1  UNL d   1      -1.702   1.507   2.670  0.00  0.00    -0.074 A 
ATOM      3  C2  UNL d   1      -1.857   0.143   2.398  0.00  0.00    -0.005 A 
ATOM      4  C3  UNL d   1      -2.972  -0.547   2.874  0.00  0.00     0.006 A 
ATOM      5  C4  UNL d   1      -3.941   0.118   3.626  0.00  0.00    -0.005 A 
ATOM      6  C5  UNL d   1      -3.803   1.481   3.909  0.00  0.00    -0.074 A 
ATOM      7  C6  UNL d   1      -4.831   2.208   4.724  0.00  0.00     0.077 C 
ATOM      8  C7  UNL d   1      -2.677   2.166   3.433  0.00  0.00    -0.001 A 
ENDROOT
TORSDOF 0
ENDMDL
