MODEL 1
REMARK minimizedAffinity 5.6322999
REMARK minimizedRMSD -1
REMARK  0 active torsions:
REMARK  status: ('A' for Active; 'I' for Inactive)
ROOT
ATOM      1  C   UNL d   1      -4.456   1.973   5.201  0.00  0.00     0.077 C 
ATOM      2  C1  UNL d   1      -3.398   1.463   4.267  0.00  0.00    -0.074 A 
ATOM      3  C2  UNL d   1      -3.405   0.135   3.830  0.00  0.00    -0.005 A 
ATOM      4  C3  UNL d   1      -2.420  -0.322   2.954  0.00  0.00     0.006 A 
ATOM      5  C4  UNL d   1      -1.421   0.543   2.508  0.00  0.00    -0.005 A 
ATOM      6  C5  UNL d   1      -1.398   1.875   2.934  0.00  0.00    -0.074 A 
ATOM      7  C6  UNL d   1      -0.337   2.821   2.456  0.00  0.00     0.077 C 
ATOM      8  C7  UNL d   1      -2.395   2.328   3.808  0.00  0.00    -0.001 A 
ENDROOT
TORSDOF 0
ENDMDL
