MODEL 1
REMARK minimizedAffinity 0.465072483
REMARK minimizedRMSD -1
REMARK  0 active torsions:
REMARK  status: ('A' for Active; 'I' for Inactive)
ROOT
ATOM      1  C   UNL d   1      -4.764   2.042   4.776  0.00  0.00     0.077 C 
ATOM      2  C1  UNL d   1      -3.647   1.466   3.957  0.00  0.00    -0.074 A 
ATOM      3  C2  UNL d   1      -3.520   0.084   3.786  0.00  0.00    -0.005 A 
ATOM      4  C3  UNL d   1      -2.481  -0.436   3.013  0.00  0.00     0.006 A 
ATOM      5  C4  UNL d   1      -1.562   0.419   2.405  0.00  0.00    -0.005 A 
ATOM      6  C5  UNL d   1      -1.674   1.804   2.563  0.00  0.00    -0.074 A 
ATOM      7  C6  UNL d   1      -0.700   2.737   1.908  0.00  0.00     0.077 C 
ATOM      8  C7  UNL d   1      -2.724   2.319   3.335  0.00  0.00    -0.001 A 
ENDROOT
TORSDOF 0
ENDMDL
