MODEL 1
REMARK minimizedAffinity -4.4209199
REMARK minimizedRMSD -1
REMARK  0 active torsions:
REMARK  status: ('A' for Active; 'I' for Inactive)
ROOT
ATOM      1  C   UNL d   1       1.634   0.811   0.566  0.00  0.00     0.077 C 
ATOM      2  C1  UNL d   1       0.356   1.016   1.324  0.00  0.00    -0.074 A 
ATOM      3  C2  UNL d   1       0.084   2.232   1.959  0.00  0.00    -0.005 A 
ATOM      4  C3  UNL d   1      -1.114   2.411   2.652  0.00  0.00     0.006 A 
ATOM      5  C4  UNL d   1      -2.049   1.377   2.717  0.00  0.00    -0.005 A 
ATOM      6  C5  UNL d   1      -1.795   0.155   2.087  0.00  0.00    -0.074 A 
ATOM      7  C6  UNL d   1      -2.794  -0.963   2.139  0.00  0.00     0.077 C 
ATOM      8  C7  UNL d   1      -0.592  -0.015   1.387  0.00  0.00    -0.001 A 
ENDROOT
TORSDOF 0
ENDMDL
