MODEL 1
REMARK minimizedAffinity 4.67952204
REMARK minimizedRMSD -1
REMARK  0 active torsions:
REMARK  status: ('A' for Active; 'I' for Inactive)
ROOT
ATOM      1  C   UNL d   1      -1.140   2.733   2.406  0.00  0.00     0.077 C 
ATOM      2  C1  UNL d   1      -2.244   2.006   3.115  0.00  0.00    -0.074 A 
ATOM      3  C2  UNL d   1      -2.504   0.658   2.849  0.00  0.00    -0.005 A 
ATOM      4  C3  UNL d   1      -3.527  -0.008   3.524  0.00  0.00     0.006 A 
ATOM      5  C4  UNL d   1      -4.300   0.667   4.470  0.00  0.00    -0.005 A 
ATOM      6  C5  UNL d   1      -4.054   2.014   4.750  0.00  0.00    -0.074 A 
ATOM      7  C6  UNL d   1      -4.868   2.752   5.771  0.00  0.00     0.077 C 
ATOM      8  C7  UNL d   1      -3.019   2.674   4.073  0.00  0.00    -0.001 A 
ENDROOT
TORSDOF 0
ENDMDL
