MODEL 1
REMARK minimizedAffinity 9.10818958
REMARK minimizedRMSD -1
REMARK  0 active torsions:
REMARK  status: ('A' for Active; 'I' for Inactive)
ROOT
ATOM      1  C   UNL d   1       5.026   5.947  -5.988  0.00  0.00     0.077 C 
ATOM      2  C1  UNL d   1       4.168   5.071  -5.124  0.00  0.00    -0.074 A 
ATOM      3  C2  UNL d   1       3.225   5.624  -4.251  0.00  0.00    -0.005 A 
ATOM      4  C3  UNL d   1       2.428   4.797  -3.461  0.00  0.00     0.006 A 
ATOM      5  C4  UNL d   1       2.565   3.410  -3.534  0.00  0.00    -0.005 A 
ATOM      6  C5  UNL d   1       3.501   2.839  -4.401  0.00  0.00    -0.074 A 
ATOM      7  C6  UNL d   1       3.654   1.350  -4.500  0.00  0.00     0.077 C 
ATOM      8  C7  UNL d   1       4.294   3.677  -5.198  0.00  0.00    -0.001 A 
ENDROOT
TORSDOF 0
ENDMDL
