MODEL 1
REMARK minimizedAffinity 7.86282444
REMARK minimizedRMSD -1
REMARK  0 active torsions:
REMARK  status: ('A' for Active; 'I' for Inactive)
ROOT
ATOM      1  C   UNL d   1       1.978   3.142   0.833  0.00  0.00     0.077 C 
ATOM      2  C1  UNL d   1       0.857   2.497   1.592  0.00  0.00    -0.074 A 
ATOM      3  C2  UNL d   1      -0.419   3.070   1.614  0.00  0.00    -0.005 A 
ATOM      4  C3  UNL d   1      -1.455   2.453   2.316  0.00  0.00     0.006 A 
ATOM      5  C4  UNL d   1      -1.225   1.260   3.003  0.00  0.00    -0.005 A 
ATOM      6  C5  UNL d   1       0.044   0.672   2.991  0.00  0.00    -0.074 A 
ATOM      7  C6  UNL d   1       0.305  -0.615   3.715  0.00  0.00     0.077 C 
ATOM      8  C7  UNL d   1       1.077   1.294   2.278  0.00  0.00    -0.001 A 
ENDROOT
TORSDOF 0
ENDMDL
