MODEL 1
REMARK minimizedAffinity 4.66110039
REMARK minimizedRMSD -1
REMARK  0 active torsions:
REMARK  status: ('A' for Active; 'I' for Inactive)
ROOT
ATOM      1  C   UNL d   1      -1.749  -1.733   2.386  0.00  0.00     0.077 C 
ATOM      2  C1  UNL d   1      -2.143  -0.300   2.589  0.00  0.00    -0.074 A 
ATOM      3  C2  UNL d   1      -3.248   0.036   3.378  0.00  0.00    -0.005 A 
ATOM      4  C3  UNL d   1      -3.596   1.373   3.566  0.00  0.00     0.006 A 
ATOM      5  C4  UNL d   1      -2.845   2.386   2.968  0.00  0.00    -0.005 A 
ATOM      6  C5  UNL d   1      -1.736   2.069   2.177  0.00  0.00    -0.074 A 
ATOM      7  C6  UNL d   1      -0.912   3.145   1.536  0.00  0.00     0.077 C 
ATOM      8  C7  UNL d   1      -1.388   0.723   1.999  0.00  0.00    -0.001 A 
ENDROOT
TORSDOF 0
ENDMDL
