MODEL 1
REMARK minimizedAffinity 3.03096008
REMARK minimizedRMSD -1
REMARK  0 active torsions:
REMARK  status: ('A' for Active; 'I' for Inactive)
ROOT
ATOM      1  C   UNL d   1      -4.151   1.873   4.248  0.00  0.00     0.077 C 
ATOM      2  C1  UNL d   1      -3.094   2.309   3.277  0.00  0.00    -0.074 A 
ATOM      3  C2  UNL d   1      -1.799   1.786   3.341  0.00  0.00    -0.005 A 
ATOM      4  C3  UNL d   1      -0.830   2.194   2.425  0.00  0.00     0.006 A 
ATOM      5  C4  UNL d   1      -1.145   3.127   1.436  0.00  0.00    -0.005 A 
ATOM      6  C5  UNL d   1      -2.436   3.660   1.356  0.00  0.00    -0.074 A 
ATOM      7  C6  UNL d   1      -2.794   4.656   0.293  0.00  0.00     0.077 C 
ATOM      8  C7  UNL d   1      -3.406   3.240   2.276  0.00  0.00    -0.001 A 
ENDROOT
TORSDOF 0
ENDMDL
