MODEL 1
REMARK minimizedAffinity 1.89521015
REMARK minimizedRMSD -1
REMARK  0 active torsions:
REMARK  status: ('A' for Active; 'I' for Inactive)
ROOT
ATOM      1  C   UNL d   1       1.564  -0.136   2.606  0.00  0.00     0.077 C 
ATOM      2  C1  UNL d   1       0.339   0.727   2.533  0.00  0.00    -0.074 A 
ATOM      3  C2  UNL d   1       0.416   2.048   2.082  0.00  0.00    -0.005 A 
ATOM      4  C3  UNL d   1      -0.734   2.835   2.012  0.00  0.00     0.006 A 
ATOM      5  C4  UNL d   1      -1.970   2.309   2.390  0.00  0.00    -0.005 A 
ATOM      6  C5  UNL d   1      -2.066   0.989   2.843  0.00  0.00    -0.074 A 
ATOM      7  C6  UNL d   1      -3.388   0.405   3.244  0.00  0.00     0.077 C 
ATOM      8  C7  UNL d   1      -0.907   0.203   2.905  0.00  0.00    -0.001 A 
ENDROOT
TORSDOF 0
ENDMDL
