MODEL 1
REMARK minimizedAffinity 5.43285751
REMARK minimizedRMSD -1
REMARK  0 active torsions:
REMARK  status: ('A' for Active; 'I' for Inactive)
ROOT
ATOM      1  C   UNL d   1       3.727  -0.402   3.321  0.00  0.00     0.077 C 
ATOM      2  C1  UNL d   1       4.210  -0.671   1.927  0.00  0.00    -0.074 A 
ATOM      3  C2  UNL d   1       5.564  -0.545   1.598  0.00  0.00    -0.005 A 
ATOM      4  C3  UNL d   1       5.999  -0.808   0.299  0.00  0.00     0.006 A 
ATOM      5  C4  UNL d   1       5.088  -1.199  -0.682  0.00  0.00    -0.005 A 
ATOM      6  C5  UNL d   1       3.731  -1.331  -0.372  0.00  0.00    -0.074 A 
ATOM      7  C6  UNL d   1       2.739  -1.760  -1.412  0.00  0.00     0.077 C 
ATOM      8  C7  UNL d   1       3.302  -1.072   0.937  0.00  0.00    -0.001 A 
ENDROOT
TORSDOF 0
ENDMDL
