MODEL 1
REMARK minimizedAffinity 5.1723938
REMARK minimizedRMSD -1
REMARK  0 active torsions:
REMARK  status: ('A' for Active; 'I' for Inactive)
ROOT
ATOM      1  C   UNL d   1      -1.997  -0.807   2.282  0.00  0.00     0.077 C 
ATOM      2  C1  UNL d   1      -2.301   0.617   2.642  0.00  0.00    -0.074 A 
ATOM      3  C2  UNL d   1      -1.534   1.668   2.129  0.00  0.00    -0.005 A 
ATOM      4  C3  UNL d   1      -1.835   2.987   2.466  0.00  0.00     0.006 A 
ATOM      5  C4  UNL d   1      -2.903   3.269   3.318  0.00  0.00    -0.005 A 
ATOM      6  C5  UNL d   1      -3.681   2.231   3.841  0.00  0.00    -0.074 A 
ATOM      7  C6  UNL d   1      -4.839   2.518   4.751  0.00  0.00     0.077 C 
ATOM      8  C7  UNL d   1      -3.377   0.908   3.492  0.00  0.00    -0.001 A 
ENDROOT
TORSDOF 0
ENDMDL
