MODEL 1
REMARK minimizedAffinity 0.999428034
REMARK minimizedRMSD -1
REMARK  0 active torsions:
REMARK  status: ('A' for Active; 'I' for Inactive)
ROOT
ATOM      1  C   UNL d   1       3.699   0.568   0.738  0.00  0.00     0.077 C 
ATOM      2  C1  UNL d   1       3.195   0.056  -0.579  0.00  0.00    -0.074 A 
ATOM      3  C2  UNL d   1       3.352   0.805  -1.749  0.00  0.00    -0.005 A 
ATOM      4  C3  UNL d   1       2.886   0.311  -2.968  0.00  0.00     0.006 A 
ATOM      5  C4  UNL d   1       2.260  -0.935  -3.028  0.00  0.00    -0.005 A 
ATOM      6  C5  UNL d   1       2.095  -1.698  -1.868  0.00  0.00    -0.074 A 
ATOM      7  C6  UNL d   1       1.433  -3.043  -1.917  0.00  0.00     0.077 C 
ATOM      8  C7  UNL d   1       2.572  -1.198  -0.649  0.00  0.00    -0.001 A 
ENDROOT
TORSDOF 0
ENDMDL
