MODEL 1
REMARK minimizedAffinity -4.63879395
REMARK minimizedRMSD -1
REMARK  0 active torsions:
REMARK  status: ('A' for Active; 'I' for Inactive)
ROOT
ATOM      1  C2' OXE d   1       3.162  -0.423   0.155  0.00  0.00     0.078 C 
ATOM      2  C1' OXE d   1       2.151   2.196   0.143  0.00  0.00     0.078 C 
ATOM      3  C1  OXE d   1       1.160   1.059   0.163  0.00  0.00    -0.078 A 
ATOM      4  C2  OXE d   1       1.662  -0.219   0.121  0.00  0.00    -0.078 A 
ATOM      5  C3  OXE d   1       0.793  -1.304   0.193  0.00  0.00     0.003 A 
ATOM      6  C4  OXE d   1      -0.592  -1.107   0.151  0.00  0.00    -0.002 A 
ATOM      7  C5  OXE d   1      -1.125   0.187   0.153  0.00  0.00    -0.002 A 
ATOM      8  C6  OXE d   1      -0.265   1.278   0.202  0.00  0.00     0.003 A 
ENDROOT
TORSDOF 0
ENDMDL
