MODEL 1
REMARK minimizedAffinity -5.23900223
REMARK minimizedRMSD -1
REMARK  0 active torsions:
REMARK  status: ('A' for Active; 'I' for Inactive)
ROOT
ATOM      1  C2' OXE d   1       1.204   1.645  -0.514  0.00  0.00     0.078 C 
ATOM      2  C1' OXE d   1      -0.840  -0.199   0.038  0.00  0.00     0.078 C 
ATOM      3  C1  OXE d   1       0.535  -0.487   0.587  0.00  0.00    -0.078 A 
ATOM      4  C2  OXE d   1       1.540   0.396   0.272  0.00  0.00    -0.078 A 
ATOM      5  C3  OXE d   1       2.815   0.206   0.798  0.00  0.00     0.003 A 
ATOM      6  C4  OXE d   1       3.119  -0.957   1.517  0.00  0.00    -0.002 A 
ATOM      7  C5  OXE d   1       2.119  -1.889   1.814  0.00  0.00    -0.002 A 
ATOM      8  C6  OXE d   1       0.816  -1.649   1.394  0.00  0.00     0.003 A 
ENDROOT
TORSDOF 0
ENDMDL
