MODEL 1
REMARK minimizedAffinity -3.15081882
REMARK minimizedRMSD -1
REMARK  0 active torsions:
REMARK  status: ('A' for Active; 'I' for Inactive)
ROOT
ATOM      1  C2' OXE d   1       0.364   1.303   0.062  0.00  0.00     0.078 C 
ATOM      2  C1' OXE d   1      -1.535  -0.721   0.483  0.00  0.00     0.078 C 
ATOM      3  C1  OXE d   1      -0.120  -0.979   0.936  0.00  0.00    -0.078 A 
ATOM      4  C2  OXE d   1       0.813  -0.001   0.684  0.00  0.00    -0.078 A 
ATOM      5  C3  OXE d   1       2.121  -0.165   1.131  0.00  0.00     0.003 A 
ATOM      6  C4  OXE d   1       2.530  -1.379   1.696  0.00  0.00    -0.002 A 
ATOM      7  C5  OXE d   1       1.605  -2.403   1.926  0.00  0.00    -0.002 A 
ATOM      8  C6  OXE d   1       0.271  -2.203   1.591  0.00  0.00     0.003 A 
ENDROOT
TORSDOF 0
ENDMDL
