MODEL 1
REMARK minimizedAffinity -5.24390268
REMARK minimizedRMSD -1
REMARK  0 active torsions:
REMARK  status: ('A' for Active; 'I' for Inactive)
ROOT
ATOM      1  C2' OXE d   1      -0.779   0.379   0.383  0.00  0.00     0.078 C 
ATOM      2  C1' OXE d   1       1.367   1.885  -0.622  0.00  0.00     0.078 C 
ATOM      3  C1  OXE d   1       1.688   0.695   0.248  0.00  0.00    -0.078 A 
ATOM      4  C2  OXE d   1       0.631  -0.008   0.773  0.00  0.00    -0.078 A 
ATOM      5  C3  OXE d   1       0.872  -1.146   1.537  0.00  0.00     0.003 A 
ATOM      6  C4  OXE d   1       2.179  -1.492   1.902  0.00  0.00    -0.002 A 
ATOM      7  C5  OXE d   1       3.268  -0.766   1.410  0.00  0.00    -0.002 A 
ATOM      8  C6  OXE d   1       3.043   0.303   0.549  0.00  0.00     0.003 A 
ENDROOT
TORSDOF 0
ENDMDL
