MODEL 1
REMARK minimizedAffinity -2.46820569
REMARK minimizedRMSD -1
REMARK  0 active torsions:
REMARK  status: ('A' for Active; 'I' for Inactive)
ROOT
ATOM      1  C2' OXE d   1       2.964  -0.426   0.764  0.00  0.00     0.078 C 
ATOM      2  C1' OXE d   1       0.989  -2.293   1.468  0.00  0.00     0.078 C 
ATOM      3  C1  OXE d   1       0.539  -0.988   0.861  0.00  0.00    -0.078 A 
ATOM      4  C2  OXE d   1       1.509  -0.062   0.563  0.00  0.00    -0.078 A 
ATOM      5  C3  OXE d   1       1.152   1.136  -0.050  0.00  0.00     0.003 A 
ATOM      6  C4  OXE d   1      -0.196   1.470  -0.224  0.00  0.00    -0.002 A 
ATOM      7  C5  OXE d   1      -1.202   0.557   0.110  0.00  0.00    -0.002 A 
ATOM      8  C6  OXE d   1      -0.850  -0.691   0.613  0.00  0.00     0.003 A 
ENDROOT
TORSDOF 0
ENDMDL
