MODEL 1
REMARK minimizedAffinity 6.81374359
REMARK minimizedRMSD -1
REMARK  2 active torsions:
REMARK  status: ('A' for Active; 'I' for Inactive)
REMARK    1  A    between atoms: C1_2  and  C2_3 
REMARK    2  A    between atoms: C2_3  and  C3_4 
ROOT
ATOM      1  C3  UNL d   1      -3.742   2.604  -0.806  0.00  0.00    -0.075 A 
ATOM      2  C4  UNL d   1      -5.002   3.050  -1.231  0.00  0.00     0.002 A 
ATOM      3  C5  UNL d   1      -5.933   3.526  -0.308  0.00  0.00     0.002 A 
ATOM      4  C6  UNL d   1      -5.622   3.554   1.049  0.00  0.00    -0.004 A 
ATOM      5  C7  UNL d   1      -4.379   3.099   1.485  0.00  0.00     0.002 A 
ATOM      6  C8  UNL d   1      -3.444   2.625   0.563  0.00  0.00     0.002 A 
ENDROOT
BRANCH   1   7
ATOM      7  C2  UNL d   1      -2.719   2.115  -1.803  0.00  0.00     0.056 C 
BRANCH   7   8
ATOM      8  C1  UNL d   1      -3.325   1.480  -3.059  0.00  0.00     0.007 C 
ATOM      9  C   UNL d   1      -2.839   0.059  -3.308  0.00  0.00     0.009 C 
ENDBRANCH   7   8
ENDBRANCH   1   7
TORSDOF 2
ENDMDL
