MODEL 1
REMARK minimizedAffinity 3.78753614
REMARK minimizedRMSD -1
REMARK  2 active torsions:
REMARK  status: ('A' for Active; 'I' for Inactive)
REMARK    1  A    between atoms: C1_2  and  C2_3 
REMARK    2  A    between atoms: C2_3  and  C3_4 
ROOT
ATOM      1  C3  UNL d   1       2.229  -2.144   3.232  0.00  0.00    -0.075 A 
ATOM      2  C4  UNL d   1       3.458  -1.968   3.886  0.00  0.00     0.002 A 
ATOM      3  C5  UNL d   1       4.017  -3.005   4.633  0.00  0.00     0.002 A 
ATOM      4  C6  UNL d   1       3.353  -4.224   4.744  0.00  0.00    -0.004 A 
ATOM      5  C7  UNL d   1       2.125  -4.405   4.113  0.00  0.00     0.002 A 
ATOM      6  C8  UNL d   1       1.564  -3.370   3.361  0.00  0.00     0.002 A 
ENDROOT
BRANCH   1   7
ATOM      7  C2  UNL d   1       1.633  -1.036   2.398  0.00  0.00     0.056 C 
BRANCH   7   8
ATOM      8  C1  UNL d   1       2.077   0.370   2.818  0.00  0.00     0.007 C 
ATOM      9  C   UNL d   1       2.920   1.073   1.763  0.00  0.00     0.009 C 
ENDBRANCH   7   8
ENDBRANCH   1   7
TORSDOF 2
ENDMDL
