MODEL 1
REMARK minimizedAffinity 3.63224673
REMARK minimizedRMSD -1
REMARK  2 active torsions:
REMARK  status: ('A' for Active; 'I' for Inactive)
REMARK    1  A    between atoms: C1_2  and  C2_3 
REMARK    2  A    between atoms: C2_3  and  C3_4 
ROOT
ATOM      1  C3  UNL d   1       2.466  -2.035   3.093  0.00  0.00    -0.075 A 
ATOM      2  C4  UNL d   1       3.572  -2.085   3.953  0.00  0.00     0.002 A 
ATOM      3  C5  UNL d   1       3.949  -3.286   4.555  0.00  0.00     0.002 A 
ATOM      4  C6  UNL d   1       3.220  -4.448   4.312  0.00  0.00    -0.004 A 
ATOM      5  C7  UNL d   1       2.109  -4.407   3.472  0.00  0.00     0.002 A 
ATOM      6  C8  UNL d   1       1.733  -3.207   2.866  0.00  0.00     0.002 A 
ENDROOT
BRANCH   1   7
ATOM      7  C2  UNL d   1       2.071  -0.745   2.415  0.00  0.00     0.056 C 
BRANCH   7   8
ATOM      8  C1  UNL d   1       3.205  -0.082   1.626  0.00  0.00     0.007 C 
ATOM      9  C   UNL d   1       3.003   1.414   1.424  0.00  0.00     0.009 C 
ENDBRANCH   7   8
ENDBRANCH   1   7
TORSDOF 2
ENDMDL
