MODEL 1
REMARK minimizedAffinity -3.28480935
REMARK minimizedRMSD -1
REMARK  2 active torsions:
REMARK  status: ('A' for Active; 'I' for Inactive)
REMARK    1  A    between atoms: C1_2  and  C2_3 
REMARK    2  A    between atoms: C2_3  and  C3_4 
ROOT
ATOM      1  C3  UNL d   1       2.200  -2.974   3.848  0.00  0.00    -0.075 A 
ATOM      2  C4  UNL d   1       1.268  -4.022   3.833  0.00  0.00     0.002 A 
ATOM      3  C5  UNL d   1       1.198  -4.922   4.898  0.00  0.00     0.002 A 
ATOM      4  C6  UNL d   1       2.061  -4.791   5.983  0.00  0.00    -0.004 A 
ATOM      5  C7  UNL d   1       3.002  -3.763   6.000  0.00  0.00     0.002 A 
ATOM      6  C8  UNL d   1       3.072  -2.859   4.938  0.00  0.00     0.002 A 
ENDROOT
BRANCH   1   7
ATOM      7  C2  UNL d   1       2.261  -1.980   2.713  0.00  0.00     0.056 C 
BRANCH   7   8
ATOM      8  C1  UNL d   1       1.588  -0.638   3.021  0.00  0.00     0.007 C 
ATOM      9  C   UNL d   1       2.285   0.548   2.367  0.00  0.00     0.009 C 
ENDBRANCH   7   8
ENDBRANCH   1   7
TORSDOF 2
ENDMDL
