MODEL 1
REMARK minimizedAffinity 6.49205017
REMARK minimizedRMSD -1
REMARK  2 active torsions:
REMARK  status: ('A' for Active; 'I' for Inactive)
REMARK    1  A    between atoms: C1_2  and  C2_3 
REMARK    2  A    between atoms: C2_3  and  C3_4 
ROOT
ATOM      1  C3  UNL d   1      -2.987  -0.579  -3.040  0.00  0.00    -0.075 A 
ATOM      2  C4  UNL d   1      -2.366  -0.271  -1.821  0.00  0.00     0.002 A 
ATOM      3  C5  UNL d   1      -2.307   1.048  -1.370  0.00  0.00     0.002 A 
ATOM      4  C6  UNL d   1      -2.856   2.074  -2.134  0.00  0.00    -0.004 A 
ATOM      5  C7  UNL d   1      -3.461   1.782  -3.355  0.00  0.00     0.002 A 
ATOM      6  C8  UNL d   1      -3.526   0.462  -3.807  0.00  0.00     0.002 A 
ENDROOT
BRANCH   1   7
ATOM      7  C2  UNL d   1      -3.081  -2.008  -3.520  0.00  0.00     0.056 C 
BRANCH   7   8
ATOM      8  C1  UNL d   1      -3.126  -2.152  -5.045  0.00  0.00     0.007 C 
ATOM      9  C   UNL d   1      -4.415  -2.785  -5.550  0.00  0.00     0.009 C 
ENDBRANCH   7   8
ENDBRANCH   1   7
TORSDOF 2
ENDMDL
