MODEL 1
REMARK minimizedAffinity 7.39402723
REMARK minimizedRMSD -1
REMARK  2 active torsions:
REMARK  status: ('A' for Active; 'I' for Inactive)
REMARK    1  A    between atoms: C1_2  and  C2_3 
REMARK    2  A    between atoms: C2_3  and  C3_4 
ROOT
ATOM      1  C3  UNL d   1      -2.828   0.494  -2.467  0.00  0.00    -0.075 A 
ATOM      2  C4  UNL d   1      -2.316  -0.058  -1.284  0.00  0.00     0.002 A 
ATOM      3  C5  UNL d   1      -2.007   0.759  -0.196  0.00  0.00     0.002 A 
ATOM      4  C6  UNL d   1      -2.196   2.137  -0.280  0.00  0.00    -0.004 A 
ATOM      5  C7  UNL d   1      -2.688   2.698  -1.456  0.00  0.00     0.002 A 
ATOM      6  C8  UNL d   1      -3.002   1.883  -2.545  0.00  0.00     0.002 A 
ENDROOT
BRANCH   1   7
ATOM      7  C2  UNL d   1      -3.192  -0.388  -3.637  0.00  0.00     0.056 C 
BRANCH   7   8
ATOM      8  C1  UNL d   1      -3.141  -1.887  -3.327  0.00  0.00     0.007 C 
ATOM      9  C   UNL d   1      -4.322  -2.370  -2.496  0.00  0.00     0.009 C 
ENDBRANCH   7   8
ENDBRANCH   1   7
TORSDOF 2
ENDMDL
