MODEL 1
REMARK minimizedAffinity -3.9202795
REMARK minimizedRMSD -1
REMARK  2 active torsions:
REMARK  status: ('A' for Active; 'I' for Inactive)
REMARK    1  A    between atoms: C1_2  and  C2_3 
REMARK    2  A    between atoms: C2_3  and  C3_4 
ROOT
ATOM      1  C3  UNL d   1       0.743  -1.512   0.998  0.00  0.00    -0.075 A 
ATOM      2  C4  UNL d   1       1.038  -1.632   2.364  0.00  0.00     0.002 A 
ATOM      3  C5  UNL d   1       1.994  -0.806   2.957  0.00  0.00     0.002 A 
ATOM      4  C6  UNL d   1       2.672   0.141   2.192  0.00  0.00    -0.004 A 
ATOM      5  C7  UNL d   1       2.398   0.257   0.831  0.00  0.00     0.002 A 
ATOM      6  C8  UNL d   1       1.440  -0.565   0.236  0.00  0.00     0.002 A 
ENDROOT
BRANCH   1   7
ATOM      7  C2  UNL d   1      -0.311  -2.383   0.356  0.00  0.00     0.056 C 
BRANCH   7   8
ATOM      8  C1  UNL d   1      -1.671  -1.696   0.190  0.00  0.00     0.007 C 
ATOM      9  C   UNL d   1      -2.488  -2.254  -0.968  0.00  0.00     0.009 C 
ENDBRANCH   7   8
ENDBRANCH   1   7
TORSDOF 2
ENDMDL
