MODEL 1
REMARK minimizedAffinity 8.80788136
REMARK minimizedRMSD -1
REMARK  2 active torsions:
REMARK  status: ('A' for Active; 'I' for Inactive)
REMARK    1  A    between atoms: C1_2  and  C2_3 
REMARK    2  A    between atoms: C2_3  and  C3_4 
ROOT
ATOM      1  C3  UNL d   1       2.902  -5.974  -3.246  0.00  0.00    -0.075 A 
ATOM      2  C4  UNL d   1       4.275  -5.992  -3.531  0.00  0.00     0.002 A 
ATOM      3  C5  UNL d   1       4.724  -5.999  -4.852  0.00  0.00     0.002 A 
ATOM      4  C6  UNL d   1       3.809  -6.000  -5.902  0.00  0.00    -0.004 A 
ATOM      5  C7  UNL d   1       2.442  -5.999  -5.631  0.00  0.00     0.002 A 
ATOM      6  C8  UNL d   1       1.990  -5.988  -4.310  0.00  0.00     0.002 A 
ENDROOT
BRANCH   1   7
ATOM      7  C2  UNL d   1       2.409  -5.937  -1.819  0.00  0.00     0.056 C 
BRANCH   7   8
ATOM      8  C1  UNL d   1       2.901  -4.725  -1.022  0.00  0.00     0.007 C 
ATOM      9  C   UNL d   1       3.042  -3.466  -1.867  0.00  0.00     0.009 C 
ENDBRANCH   7   8
ENDBRANCH   1   7
TORSDOF 2
ENDMDL
