MODEL 1
REMARK minimizedAffinity 1.50038493
REMARK minimizedRMSD -1
REMARK  2 active torsions:
REMARK  status: ('A' for Active; 'I' for Inactive)
REMARK    1  A    between atoms: C1_2  and  C2_3 
REMARK    2  A    between atoms: C2_3  and  C3_4 
ROOT
ATOM      1  C3  UNL d   1      -3.505   2.979  -0.888  0.00  0.00    -0.075 A 
ATOM      2  C4  UNL d   1      -2.810   2.548   0.251  0.00  0.00     0.002 A 
ATOM      3  C5  UNL d   1      -3.388   2.656   1.516  0.00  0.00     0.002 A 
ATOM      4  C6  UNL d   1      -4.660   3.205   1.659  0.00  0.00    -0.004 A 
ATOM      5  C7  UNL d   1      -5.353   3.652   0.536  0.00  0.00     0.002 A 
ATOM      6  C8  UNL d   1      -4.779   3.541  -0.731  0.00  0.00     0.002 A 
ENDROOT
BRANCH   1   7
ATOM      7  C2  UNL d   1      -2.897   2.837  -2.263  0.00  0.00     0.056 C 
BRANCH   7   8
ATOM      8  C1  UNL d   1      -3.600   1.807  -3.153  0.00  0.00     0.007 C 
ATOM      9  C   UNL d   1      -2.969   0.422  -3.083  0.00  0.00     0.009 C 
ENDBRANCH   7   8
ENDBRANCH   1   7
TORSDOF 2
ENDMDL
