MODEL 1
REMARK minimizedAffinity 0.11607562
REMARK minimizedRMSD -1
REMARK  1 active torsions:
REMARK  status: ('A' for Active; 'I' for Inactive)
REMARK    1  A    between atoms: C3_4  and  O_7 
ROOT
ATOM      1  C   UNL d   1      -0.077   2.614  -0.396  0.00  0.00    -0.033 A 
ATOM      2  C1  UNL d   1       0.877   3.632  -0.343  0.00  0.00     0.039 A 
ATOM      3  C2  UNL d   1       1.731   3.734   0.758  0.00  0.00    -0.080 A 
ATOM      4  C3  UNL d   1       1.621   2.812   1.795  0.00  0.00     0.150 A 
ATOM      5  C4  UNL d   1       0.675   1.794   1.747  0.00  0.00    -0.007 A 
ATOM      6  C5  UNL d   1      -0.177   1.694   0.648  0.00  0.00     0.039 A 
ENDROOT
BRANCH   4   7
ATOM      7  O   UNL d   1       2.428   2.874   2.892  0.00  0.00    -0.526 OA
ATOM      8  H5  UNL d   1       3.013   3.646   2.801  0.00  0.00     0.418 HD
ENDBRANCH   4   7
TORSDOF 1
ENDMDL
