MODEL 1
REMARK minimizedAffinity -3.51516056
REMARK minimizedRMSD -1
REMARK  1 active torsions:
REMARK  status: ('A' for Active; 'I' for Inactive)
REMARK    1  A    between atoms: C3_4  and  O_7 
ROOT
ATOM      1  C   UNL d   1       0.860   2.901   1.064  0.00  0.00    -0.033 A 
ATOM      2  C1  UNL d   1       0.250   2.306  -0.043  0.00  0.00     0.039 A 
ATOM      3  C2  UNL d   1      -0.028   3.066  -1.180  0.00  0.00    -0.080 A 
ATOM      4  C3  UNL d   1       0.309   4.417  -1.199  0.00  0.00     0.150 A 
ATOM      5  C4  UNL d   1       0.920   5.014  -0.102  0.00  0.00    -0.007 A 
ATOM      6  C5  UNL d   1       1.197   4.254   1.034  0.00  0.00     0.039 A 
ENDROOT
BRANCH   4   7
ATOM      7  O   UNL d   1       0.053   5.200  -2.285  0.00  0.00    -0.526 OA
ATOM      8  H5  UNL d   1      -0.397   4.660  -2.955  0.00  0.00     0.418 HD
ENDBRANCH   4   7
TORSDOF 1
ENDMDL
