MODEL 1
REMARK minimizedAffinity -2.24952149
REMARK minimizedRMSD -1
REMARK  1 active torsions:
REMARK  status: ('A' for Active; 'I' for Inactive)
REMARK    1  A    between atoms: C3_4  and  O_7 
ROOT
ATOM      1  C   UNL d   1       0.112   1.708   0.818  0.00  0.00    -0.033 A 
ATOM      2  C1  UNL d   1      -0.043   1.448  -0.546  0.00  0.00     0.039 A 
ATOM      3  C2  UNL d   1       0.094   2.482  -1.475  0.00  0.00    -0.080 A 
ATOM      4  C3  UNL d   1       0.386   3.768  -1.029  0.00  0.00     0.150 A 
ATOM      5  C4  UNL d   1       0.545   4.033   0.327  0.00  0.00    -0.007 A 
ATOM      6  C5  UNL d   1       0.407   3.000   1.254  0.00  0.00     0.039 A 
ENDROOT
BRANCH   4   7
ATOM      7  O   UNL d   1       0.524   4.809  -1.898  0.00  0.00    -0.526 OA
ATOM      8  H5  UNL d   1       0.358   4.483  -2.798  0.00  0.00     0.418 HD
ENDBRANCH   4   7
TORSDOF 1
ENDMDL
