MODEL 1
REMARK minimizedAffinity 7.86156225
REMARK minimizedRMSD -1
REMARK  1 active torsions:
REMARK  status: ('A' for Active; 'I' for Inactive)
REMARK    1  A    between atoms: C3_4  and  O_7 
ROOT
ATOM      1  C   UNL d   1      -4.169  -2.598   2.341  0.00  0.00    -0.033 A 
ATOM      2  C1  UNL d   1      -3.540  -1.364   2.165  0.00  0.00     0.039 A 
ATOM      3  C2  UNL d   1      -4.142  -0.198   2.642  0.00  0.00    -0.080 A 
ATOM      4  C3  UNL d   1      -5.370  -0.279   3.294  0.00  0.00     0.150 A 
ATOM      5  C4  UNL d   1      -5.999  -1.506   3.476  0.00  0.00    -0.007 A 
ATOM      6  C5  UNL d   1      -5.398  -2.669   2.998  0.00  0.00     0.039 A 
ENDROOT
BRANCH   4   7
ATOM      7  O   UNL d   1      -5.998   0.832   3.772  0.00  0.00    -0.526 OA
ATOM      8  H5  UNL d   1      -5.460   1.610   3.549  0.00  0.00     0.418 HD
ENDBRANCH   4   7
TORSDOF 1
ENDMDL
