MODEL 1
REMARK minimizedAffinity -4.60938072
REMARK minimizedRMSD -1
REMARK  1 active torsions:
REMARK  status: ('A' for Active; 'I' for Inactive)
REMARK    1  A    between atoms: C3_4  and  O_7 
ROOT
ATOM      1  C   UNL d   1      -0.769   1.889  -0.032  0.00  0.00    -0.033 A 
ATOM      2  C1  UNL d   1       0.033   1.985   1.108  0.00  0.00     0.039 A 
ATOM      3  C2  UNL d   1       1.206   2.741   1.076  0.00  0.00    -0.080 A 
ATOM      4  C3  UNL d   1       1.565   3.396  -0.099  0.00  0.00     0.150 A 
ATOM      5  C4  UNL d   1       0.769   3.308  -1.236  0.00  0.00    -0.007 A 
ATOM      6  C5  UNL d   1      -0.401   2.551  -1.203  0.00  0.00     0.039 A 
ENDROOT
BRANCH   4   7
ATOM      7  O   UNL d   1       2.704   4.142  -0.180  0.00  0.00    -0.526 OA
ATOM      8  H5  UNL d   1       3.168   4.088   0.672  0.00  0.00     0.418 HD
ENDBRANCH   4   7
TORSDOF 1
ENDMDL
