MODEL 1
REMARK minimizedAffinity 2.10778856
REMARK minimizedRMSD -1
REMARK  1 active torsions:
REMARK  status: ('A' for Active; 'I' for Inactive)
REMARK    1  A    between atoms: C3_4  and  O_7 
ROOT
ATOM      1  C   UNL d   1       1.260   2.248   1.947  0.00  0.00    -0.033 A 
ATOM      2  C1  UNL d   1       1.935   3.181   1.158  0.00  0.00     0.039 A 
ATOM      3  C2  UNL d   1       1.609   3.321  -0.193  0.00  0.00    -0.080 A 
ATOM      4  C3  UNL d   1       0.608   2.524  -0.740  0.00  0.00     0.150 A 
ATOM      5  C4  UNL d   1      -0.071   1.595   0.041  0.00  0.00    -0.007 A 
ATOM      6  C5  UNL d   1       0.256   1.456   1.389  0.00  0.00     0.039 A 
ENDROOT
BRANCH   4   7
ATOM      7  O   UNL d   1       0.258   2.621  -2.054  0.00  0.00    -0.526 OA
ATOM      8  H5  UNL d   1       0.831   3.283  -2.477  0.00  0.00     0.418 HD
ENDBRANCH   4   7
TORSDOF 1
ENDMDL
