MODEL 1
REMARK minimizedAffinity -5.10578871
REMARK minimizedRMSD -1
REMARK  0 active torsions:
REMARK  status: ('A' for Active; 'I' for Inactive)
ROOT
ATOM      1  N1  IND d   1       1.341   2.079   0.275  0.00  0.00    -0.196 N 
ATOM      2  C2  IND d   1       2.115   1.009  -0.076  0.00  0.00     0.054 A 
ATOM      3  C3  IND d   1       1.557  -0.140   0.366  0.00  0.00    -0.031 A 
ATOM      4  C4  IND d   1      -0.673  -0.508   1.598  0.00  0.00     0.051 A 
ATOM      5  C5  IND d   1      -1.712   0.171   2.170  0.00  0.00    -0.031 A 
ATOM      6  C6  IND d   1      -1.790   1.549   2.137  0.00  0.00     0.015 A 
ATOM      7  C7  IND d   1      -0.832   2.301   1.517  0.00  0.00    -0.016 A 
ATOM      8  C8  IND d   1       0.228   1.615   0.942  0.00  0.00    -0.047 A 
ATOM      9  C9  IND d   1       0.334   0.220   1.009  0.00  0.00    -0.096 A 
ATOM     10  HN1 IND d   1       1.519   2.904   0.109  0.00  0.00     0.298 HD
ENDROOT
TORSDOF 0
ENDMDL
