MODEL 1
REMARK minimizedAffinity -1.40847504
REMARK minimizedRMSD -1
REMARK  0 active torsions:
REMARK  status: ('A' for Active; 'I' for Inactive)
ROOT
ATOM      1  N1  IND d   1      -2.975   2.263   3.298  0.00  0.00    -0.196 N 
ATOM      2  C2  IND d   1      -3.929   1.310   3.523  0.00  0.00     0.054 A 
ATOM      3  C3  IND d   1      -3.547   0.128   2.989  0.00  0.00    -0.031 A 
ATOM      4  C4  IND d   1      -1.355  -0.494   1.790  0.00  0.00     0.051 A 
ATOM      5  C5  IND d   1      -0.195   0.051   1.316  0.00  0.00    -0.031 A 
ATOM      6  C6  IND d   1       0.105   1.388   1.483  0.00  0.00     0.015 A 
ATOM      7  C7  IND d   1      -0.743   2.231   2.145  0.00  0.00    -0.016 A 
ATOM      8  C8  IND d   1      -1.925   1.682   2.622  0.00  0.00    -0.047 A 
ATOM      9  C9  IND d   1      -2.254   0.336   2.418  0.00  0.00    -0.096 A 
ATOM     10  HN1 IND d   1      -3.024   3.088   3.538  0.00  0.00     0.298 HD
ENDROOT
TORSDOF 0
ENDMDL
