MODEL 1
REMARK minimizedAffinity 1.15087819
REMARK minimizedRMSD -1
REMARK  0 active torsions:
REMARK  status: ('A' for Active; 'I' for Inactive)
ROOT
ATOM      1  N1  IND d   1      -1.999   2.850   2.367  0.00  0.00    -0.196 N 
ATOM      2  C2  IND d   1      -2.761   2.108   3.225  0.00  0.00     0.054 A 
ATOM      3  C3  IND d   1      -2.333   0.826   3.246  0.00  0.00    -0.031 A 
ATOM      4  C4  IND d   1      -0.337  -0.252   2.028  0.00  0.00     0.051 A 
ATOM      5  C5  IND d   1       0.634   0.017   1.105  0.00  0.00    -0.031 A 
ATOM      6  C6  IND d   1       0.782   1.269   0.546  0.00  0.00     0.015 A 
ATOM      7  C7  IND d   1      -0.032   2.308   0.899  0.00  0.00    -0.016 A 
ATOM      8  C8  IND d   1      -1.024   2.037   1.831  0.00  0.00    -0.047 A 
ATOM      9  C9  IND d   1      -1.206   0.757   2.370  0.00  0.00    -0.096 A 
ATOM     10  HN1 IND d   1      -2.109   3.684   2.191  0.00  0.00     0.298 HD
ENDROOT
TORSDOF 0
ENDMDL
