MODEL 1
REMARK minimizedAffinity -0.309819698
REMARK minimizedRMSD -1
REMARK  0 active torsions:
REMARK  status: ('A' for Active; 'I' for Inactive)
ROOT
ATOM      1  N1  IND d   1       1.562  -0.592   0.655  0.00  0.00    -0.196 N 
ATOM      2  C2  IND d   1       2.225   0.440   0.052  0.00  0.00     0.054 A 
ATOM      3  C3  IND d   1       1.448   1.547   0.025  0.00  0.00    -0.031 A 
ATOM      4  C4  IND d   1      -0.904   1.918   1.005  0.00  0.00     0.051 A 
ATOM      5  C5  IND d   1      -1.932   1.258   1.617  0.00  0.00    -0.031 A 
ATOM      6  C6  IND d   1      -1.845  -0.079   1.950  0.00  0.00     0.015 A 
ATOM      7  C7  IND d   1      -0.718  -0.805   1.691  0.00  0.00    -0.016 A 
ATOM      8  C8  IND d   1       0.326  -0.140   1.062  0.00  0.00    -0.047 A 
ATOM      9  C9  IND d   1       0.227   1.205   0.684  0.00  0.00    -0.096 A 
ATOM     10  HN1 IND d   1       1.866  -1.389   0.762  0.00  0.00     0.298 HD
ENDROOT
TORSDOF 0
ENDMDL
