MODEL 1
REMARK minimizedAffinity -5.86204481
REMARK minimizedRMSD -1
REMARK  0 active torsions:
REMARK  status: ('A' for Active; 'I' for Inactive)
ROOT
ATOM      1  N1  IND d   1      -2.481   2.317   3.168  0.00  0.00    -0.196 N 
ATOM      2  C2  IND d   1      -3.470   1.426   3.477  0.00  0.00     0.054 A 
ATOM      3  C3  IND d   1      -3.199   0.216   2.938  0.00  0.00    -0.031 A 
ATOM      4  C4  IND d   1      -1.141  -0.553   1.596  0.00  0.00     0.051 A 
ATOM      5  C5  IND d   1       0.012  -0.085   1.030  0.00  0.00    -0.031 A 
ATOM      6  C6  IND d   1       0.402   1.233   1.153  0.00  0.00     0.015 A 
ATOM      7  C7  IND d   1      -0.344   2.134   1.859  0.00  0.00    -0.016 A 
ATOM      8  C8  IND d   1      -1.519   1.664   2.429  0.00  0.00    -0.047 A 
ATOM      9  C9  IND d   1      -1.941   0.338   2.272  0.00  0.00    -0.096 A 
ATOM     10  HN1 IND d   1      -2.463   3.145   3.397  0.00  0.00     0.298 HD
ENDROOT
TORSDOF 0
ENDMDL
