MODEL 1
REMARK minimizedAffinity 1.57949722
REMARK minimizedRMSD -1
REMARK  0 active torsions:
REMARK  status: ('A' for Active; 'I' for Inactive)
ROOT
ATOM      1  N1  IND d   1      -2.385   1.159   2.964  0.00  0.00    -0.196 N 
ATOM      2  C2  IND d   1      -2.270   2.521   2.975  0.00  0.00     0.054 A 
ATOM      3  C3  IND d   1      -1.212   2.910   2.229  0.00  0.00    -0.031 A 
ATOM      4  C4  IND d   1       0.406   1.487   0.819  0.00  0.00     0.051 A 
ATOM      5  C5  IND d   1       0.723   0.191   0.524  0.00  0.00    -0.031 A 
ATOM      6  C6  IND d   1       0.004  -0.870   1.035  0.00  0.00     0.015 A 
ATOM      7  C7  IND d   1      -1.070  -0.673   1.856  0.00  0.00    -0.016 A 
ATOM      8  C8  IND d   1      -1.391   0.642   2.163  0.00  0.00    -0.047 A 
ATOM      9  C9  IND d   1      -0.639   1.721   1.681  0.00  0.00    -0.096 A 
ATOM     10  HN1 IND d   1      -2.979   0.703   3.387  0.00  0.00     0.298 HD
ENDROOT
TORSDOF 0
ENDMDL
