MODEL 1
REMARK minimizedAffinity 0.271371782
REMARK minimizedRMSD -1
REMARK  0 active torsions:
REMARK  status: ('A' for Active; 'I' for Inactive)
ROOT
ATOM      1  N1  IND d   1       0.562   1.665   1.101  0.00  0.00    -0.196 N 
ATOM      2  C2  IND d   1       0.888   0.411   0.665  0.00  0.00     0.054 A 
ATOM      3  C3  IND d   1      -0.065  -0.476   1.029  0.00  0.00    -0.031 A 
ATOM      4  C4  IND d   1      -2.291  -0.073   2.258  0.00  0.00     0.051 A 
ATOM      5  C5  IND d   1      -3.012   0.902   2.889  0.00  0.00    -0.031 A 
ATOM      6  C6  IND d   1      -2.571   2.208   2.956  0.00  0.00     0.015 A 
ATOM      7  C7  IND d   1      -1.392   2.592   2.381  0.00  0.00    -0.016 A 
ATOM      8  C8  IND d   1      -0.654   1.603   1.745  0.00  0.00    -0.047 A 
ATOM      9  C9  IND d   1      -1.076   0.268   1.711  0.00  0.00    -0.096 A 
ATOM     10  HN1 IND d   1       1.037   2.374   0.992  0.00  0.00     0.298 HD
ENDROOT
TORSDOF 0
ENDMDL
