MODEL 1
REMARK minimizedAffinity 3.35304689
REMARK minimizedRMSD -1
REMARK  0 active torsions:
REMARK  status: ('A' for Active; 'I' for Inactive)
ROOT
ATOM      1  N1  IND d   1       2.398  -0.925   0.922  0.00  0.00    -0.196 N 
ATOM      2  C2  IND d   1       2.939   0.037   0.115  0.00  0.00     0.054 A 
ATOM      3  C3  IND d   1       2.055   1.042  -0.077  0.00  0.00    -0.031 A 
ATOM      4  C4  IND d   1      -0.296   1.364   0.921  0.00  0.00     0.051 A 
ATOM      5  C5  IND d   1      -1.237   0.734   1.686  0.00  0.00    -0.031 A 
ATOM      6  C6  IND d   1      -1.009  -0.504   2.250  0.00  0.00     0.015 A 
ATOM      7  C7  IND d   1       0.179  -1.157   2.077  0.00  0.00    -0.016 A 
ATOM      8  C8  IND d   1       1.134  -0.524   1.295  0.00  0.00    -0.047 A 
ATOM      9  C9  IND d   1       0.892   0.714   0.685  0.00  0.00    -0.096 A 
ATOM     10  HN1 IND d   1       2.783  -1.657   1.157  0.00  0.00     0.298 HD
ENDROOT
TORSDOF 0
ENDMDL
