MODEL 1
REMARK minimizedAffinity 0.842980802
REMARK minimizedRMSD -1
REMARK  0 active torsions:
REMARK  status: ('A' for Active; 'I' for Inactive)
ROOT
ATOM      1  N1  IND d   1       0.869  -0.642   1.457  0.00  0.00    -0.196 N 
ATOM      2  C2  IND d   1       0.139   0.495   1.666  0.00  0.00     0.054 A 
ATOM      3  C3  IND d   1       0.575   1.488   0.858  0.00  0.00    -0.031 A 
ATOM      4  C4  IND d   1       2.403   1.440  -0.953  0.00  0.00     0.051 A 
ATOM      5  C5  IND d   1       3.371   0.635  -1.486  0.00  0.00    -0.031 A 
ATOM      6  C6  IND d   1       3.557  -0.664  -1.057  0.00  0.00     0.015 A 
ATOM      7  C7  IND d   1       2.770  -1.212  -0.084  0.00  0.00    -0.016 A 
ATOM      8  C8  IND d   1       1.790  -0.396   0.463  0.00  0.00    -0.047 A 
ATOM      9  C9  IND d   1       1.625   0.937   0.063  0.00  0.00    -0.096 A 
ATOM     10  HN1 IND d   1       0.770  -1.386   1.877  0.00  0.00     0.298 HD
ENDROOT
TORSDOF 0
ENDMDL
