MODEL 1
REMARK minimizedAffinity -1.06134462
REMARK minimizedRMSD -1
REMARK  0 active torsions:
REMARK  status: ('A' for Active; 'I' for Inactive)
ROOT
ATOM      1  N1  IND d   1      -0.136   2.741   1.887  0.00  0.00    -0.196 N 
ATOM      2  C2  IND d   1       0.925   2.232   1.192  0.00  0.00     0.054 A 
ATOM      3  C3  IND d   1       0.800   0.893   1.056  0.00  0.00    -0.031 A 
ATOM      4  C4  IND d   1      -1.115  -0.655   1.808  0.00  0.00     0.051 A 
ATOM      5  C5  IND d   1      -2.285  -0.656   2.514  0.00  0.00    -0.031 A 
ATOM      6  C6  IND d   1      -2.811   0.499   3.056  0.00  0.00     0.015 A 
ATOM      7  C7  IND d   1      -2.189   1.706   2.901  0.00  0.00    -0.016 A 
ATOM      8  C8  IND d   1      -0.996   1.709   2.191  0.00  0.00    -0.047 A 
ATOM      9  C9  IND d   1      -0.436   0.534   1.676  0.00  0.00    -0.096 A 
ATOM     10  HN1 IND d   1      -0.247   3.567   2.100  0.00  0.00     0.298 HD
ENDROOT
TORSDOF 0
ENDMDL
