MODEL 1
REMARK minimizedAffinity -5.68866014
REMARK minimizedRMSD -1
REMARK  0 active torsions:
REMARK  status: ('A' for Active; 'I' for Inactive)
ROOT
ATOM      1  N1  IND d   1       0.709   1.066   1.014  0.00  0.00    -0.196 N 
ATOM      2  C2  IND d   1       0.967   2.402   1.142  0.00  0.00     0.054 A 
ATOM      3  C3  IND d   1      -0.045   3.017   1.794  0.00  0.00    -0.031 A 
ATOM      4  C4  IND d   1      -2.176   2.007   2.828  0.00  0.00     0.051 A 
ATOM      5  C5  IND d   1      -2.870   0.835   2.936  0.00  0.00    -0.031 A 
ATOM      6  C6  IND d   1      -2.396  -0.345   2.399  0.00  0.00     0.015 A 
ATOM      7  C7  IND d   1      -1.199  -0.398   1.743  0.00  0.00    -0.016 A 
ATOM      8  C8  IND d   1      -0.495   0.792   1.626  0.00  0.00    -0.047 A 
ATOM      9  C9  IND d   1      -0.991   2.000   2.131  0.00  0.00    -0.096 A 
ATOM     10  HN1 IND d   1       1.213   0.493   0.618  0.00  0.00     0.298 HD
ENDROOT
TORSDOF 0
ENDMDL
