MODEL 1
REMARK minimizedAffinity -4.36023331
REMARK minimizedRMSD -1
REMARK  0 active torsions:
REMARK  status: ('A' for Active; 'I' for Inactive)
ROOT
ATOM      1  N1  IND d   1       0.391   1.456   0.914  0.00  0.00    -0.196 N 
ATOM      2  C2  IND d   1       0.636   0.133   0.672  0.00  0.00     0.054 A 
ATOM      3  C3  IND d   1      -0.314  -0.635   1.252  0.00  0.00    -0.031 A 
ATOM      4  C4  IND d   1      -2.417   0.072   2.557  0.00  0.00     0.051 A 
ATOM      5  C5  IND d   1      -3.050   1.171   3.066  0.00  0.00    -0.031 A 
ATOM      6  C6  IND d   1      -2.560   2.447   2.878  0.00  0.00     0.015 A 
ATOM      7  C7  IND d   1      -1.420   2.674   2.160  0.00  0.00    -0.016 A 
ATOM      8  C8  IND d   1      -0.770   1.560   1.648  0.00  0.00    -0.047 A 
ATOM      9  C9  IND d   1      -1.240   0.259   1.871  0.00  0.00    -0.096 A 
ATOM     10  HN1 IND d   1       0.879   2.113   0.651  0.00  0.00     0.298 HD
ENDROOT
TORSDOF 0
ENDMDL
