MODEL 1
REMARK minimizedAffinity 2.28931284
REMARK minimizedRMSD -1
REMARK  0 active torsions:
REMARK  status: ('A' for Active; 'I' for Inactive)
ROOT
ATOM      1  N1  IND d   1      -2.069   2.835   2.030  0.00  0.00    -0.196 N 
ATOM      2  C2  IND d   1      -2.861   2.142   2.902  0.00  0.00     0.054 A 
ATOM      3  C3  IND d   1      -2.260   0.987   3.268  0.00  0.00    -0.031 A 
ATOM      4  C4  IND d   1       0.068   0.085   2.639  0.00  0.00     0.051 A 
ATOM      5  C5  IND d   1       1.145   0.348   1.841  0.00  0.00    -0.031 A 
ATOM      6  C6  IND d   1       1.209   1.478   1.051  0.00  0.00     0.015 A 
ATOM      7  C7  IND d   1       0.198   2.397   1.039  0.00  0.00    -0.016 A 
ATOM      8  C8  IND d   1      -0.901   2.129   1.843  0.00  0.00    -0.047 A 
ATOM      9  C9  IND d   1      -0.990   0.963   2.614  0.00  0.00    -0.096 A 
ATOM     10  HN1 IND d   1      -2.267   3.586   1.661  0.00  0.00     0.298 HD
ENDROOT
TORSDOF 0
ENDMDL
