MODEL 1
REMARK minimizedAffinity -3.82472181
REMARK minimizedRMSD -1
REMARK  0 active torsions:
REMARK  status: ('A' for Active; 'I' for Inactive)
ROOT
ATOM      1  N1  IND d   1      -1.553  -0.561   1.735  0.00  0.00    -0.196 N 
ATOM      2  C2  IND d   1      -0.569  -1.336   1.186  0.00  0.00     0.054 A 
ATOM      3  C3  IND d   1       0.425  -0.559   0.699  0.00  0.00    -0.031 A 
ATOM      4  C4  IND d   1       0.693   2.000   0.787  0.00  0.00     0.051 A 
ATOM      5  C5  IND d   1       0.036   3.140   1.156  0.00  0.00    -0.031 A 
ATOM      6  C6  IND d   1      -1.209   3.104   1.752  0.00  0.00     0.015 A 
ATOM      7  C7  IND d   1      -1.840   1.920   2.011  0.00  0.00    -0.016 A 
ATOM      8  C8  IND d   1      -1.179   0.761   1.631  0.00  0.00    -0.047 A 
ATOM      9  C9  IND d   1       0.065   0.793   0.988  0.00  0.00    -0.096 A 
ATOM     10  HN1 IND d   1      -2.283  -0.850   2.085  0.00  0.00     0.298 HD
ENDROOT
TORSDOF 0
ENDMDL
