MODEL 1
REMARK minimizedAffinity 0.448156327
REMARK minimizedRMSD -1
REMARK  0 active torsions:
REMARK  status: ('A' for Active; 'I' for Inactive)
ROOT
ATOM      1  N1  IND d   1      -1.465   2.713   2.610  0.00  0.00    -0.196 N 
ATOM      2  C2  IND d   1      -2.664   2.075   2.767  0.00  0.00     0.054 A 
ATOM      3  C3  IND d   1      -2.624   0.850   2.196  0.00  0.00    -0.031 A 
ATOM      4  C4  IND d   1      -0.664  -0.351   1.039  0.00  0.00     0.051 A 
ATOM      5  C5  IND d   1       0.623  -0.158   0.621  0.00  0.00    -0.031 A 
ATOM      6  C6  IND d   1       1.294   1.026   0.853  0.00  0.00     0.015 A 
ATOM      7  C7  IND d   1       0.704   2.060   1.523  0.00  0.00    -0.016 A 
ATOM      8  C8  IND d   1      -0.605   1.869   1.942  0.00  0.00    -0.047 A 
ATOM      9  C9  IND d   1      -1.305   0.686   1.673  0.00  0.00    -0.096 A 
ATOM     10  HN1 IND d   1      -1.280   3.507   2.882  0.00  0.00     0.298 HD
ENDROOT
TORSDOF 0
ENDMDL
