MODEL 1
REMARK minimizedAffinity 2.74672723
REMARK minimizedRMSD -1
REMARK  0 active torsions:
REMARK  status: ('A' for Active; 'I' for Inactive)
ROOT
ATOM      1  N1  IND d   1      -2.169   1.907   3.890  0.00  0.00    -0.196 N 
ATOM      2  C2  IND d   1      -2.270   1.085   2.803  0.00  0.00     0.054 A 
ATOM      3  C3  IND d   1      -3.527   0.601   2.693  0.00  0.00    -0.031 A 
ATOM      4  C4  IND d   1      -5.604   1.105   4.127  0.00  0.00     0.051 A 
ATOM      5  C5  IND d   1      -6.000   1.769   5.255  0.00  0.00    -0.031 A 
ATOM      6  C6  IND d   1      -5.121   2.530   5.999  0.00  0.00     0.015 A 
ATOM      7  C7  IND d   1      -3.811   2.665   5.635  0.00  0.00    -0.016 A 
ATOM      8  C8  IND d   1      -3.405   1.987   4.494  0.00  0.00    -0.047 A 
ATOM      9  C9  IND d   1      -4.282   1.179   3.759  0.00  0.00    -0.096 A 
ATOM     10  HN1 IND d   1      -1.455   2.306   4.153  0.00  0.00     0.298 HD
ENDROOT
TORSDOF 0
ENDMDL
