MODEL 1
REMARK minimizedAffinity 3.76115537
REMARK minimizedRMSD -1
REMARK  0 active torsions:
REMARK  status: ('A' for Active; 'I' for Inactive)
ROOT
ATOM      1  N1  IND d   1      -2.287   0.555   2.971  0.00  0.00    -0.196 N 
ATOM      2  C2  IND d   1      -3.197   1.574   3.007  0.00  0.00     0.054 A 
ATOM      3  C3  IND d   1      -2.613   2.740   2.650  0.00  0.00    -0.031 A 
ATOM      4  C4  IND d   1      -0.201   3.189   1.871  0.00  0.00     0.051 A 
ATOM      5  C5  IND d   1       1.010   2.578   1.710  0.00  0.00    -0.031 A 
ATOM      6  C6  IND d   1       1.188   1.233   1.963  0.00  0.00     0.015 A 
ATOM      7  C7  IND d   1       0.153   0.444   2.378  0.00  0.00    -0.016 A 
ATOM      8  C8  IND d   1      -1.077   1.063   2.550  0.00  0.00    -0.047 A 
ATOM      9  C9  IND d   1      -1.253   2.436   2.335  0.00  0.00    -0.096 A 
ATOM     10  HN1 IND d   1      -2.443  -0.265   3.177  0.00  0.00     0.298 HD
ENDROOT
TORSDOF 0
ENDMDL
