MODEL 1
REMARK minimizedAffinity 7.97275352
REMARK minimizedRMSD -1
REMARK  1 active torsions:
REMARK  status: ('A' for Active; 'I' for Inactive)
REMARK    1  A    between atoms: C1_2  and  C2_3 
ROOT
ATOM      1  C2  UNL d   1       4.717   0.340  -4.758  0.00  0.00    -0.073 A 
ATOM      2  C3  UNL d   1       5.898  -0.405  -4.668  0.00  0.00    -0.002 A 
ATOM      3  C4  UNL d   1       5.973  -1.507  -3.814  0.00  0.00     0.004 A 
ATOM      4  C5  UNL d   1       4.868  -1.877  -3.048  0.00  0.00    -0.004 A 
ATOM      5  C6  UNL d   1       3.676  -1.151  -3.133  0.00  0.00    -0.075 A 
ATOM      6  C7  UNL d   1       2.479  -1.535  -2.313  0.00  0.00     0.076 C 
ATOM      7  C8  UNL d   1       3.609  -0.045  -3.990  0.00  0.00     0.001 A 
ENDROOT
BRANCH   1   8
ATOM      8  C1  UNL d   1       4.630   1.526  -5.684  0.00  0.00     0.053 C 
ATOM      9  C   UNL d   1       6.000   2.105  -6.000  0.00  0.00     0.018 C 
ENDBRANCH   1   8
TORSDOF 1
ENDMDL
