MODEL 1
REMARK minimizedAffinity 12.2959967
REMARK minimizedRMSD -1
REMARK  1 active torsions:
REMARK  status: ('A' for Active; 'I' for Inactive)
REMARK    1  A    between atoms: C1_2  and  C2_3 
ROOT
ATOM      1  C2  UNL d   1       3.475  -3.849   4.394  0.00  0.00    -0.073 A 
ATOM      2  C3  UNL d   1       2.901  -5.107   4.610  0.00  0.00    -0.002 A 
ATOM      3  C4  UNL d   1       1.652  -5.414   4.071  0.00  0.00     0.004 A 
ATOM      4  C5  UNL d   1       0.967  -4.471   3.304  0.00  0.00    -0.004 A 
ATOM      5  C6  UNL d   1       1.529  -3.213   3.066  0.00  0.00    -0.075 A 
ATOM      6  C7  UNL d   1       0.804  -2.187   2.246  0.00  0.00     0.076 C 
ATOM      7  C8  UNL d   1       2.783  -2.911   3.614  0.00  0.00     0.001 A 
ENDROOT
BRANCH   1   8
ATOM      8  C1  UNL d   1       4.827  -3.514   4.969  0.00  0.00     0.053 C 
ATOM      9  C   UNL d   1       5.901  -3.442   3.896  0.00  0.00     0.018 C 
ENDBRANCH   1   8
TORSDOF 1
ENDMDL
