MODEL 1
REMARK minimizedAffinity 7.36023617
REMARK minimizedRMSD -1
REMARK  1 active torsions:
REMARK  status: ('A' for Active; 'I' for Inactive)
REMARK    1  A    between atoms: C1_2  and  C2_3 
ROOT
ATOM      1  C2  UNL d   1       4.678   0.178  -5.228  0.00  0.00    -0.073 A 
ATOM      2  C3  UNL d   1       4.191   0.018  -3.926  0.00  0.00    -0.002 A 
ATOM      3  C4  UNL d   1       4.282  -1.219  -3.286  0.00  0.00     0.004 A 
ATOM      4  C5  UNL d   1       4.866  -2.305  -3.938  0.00  0.00    -0.004 A 
ATOM      5  C6  UNL d   1       5.368  -2.162  -5.235  0.00  0.00    -0.075 A 
ATOM      6  C7  UNL d   1       5.997  -3.321  -5.951  0.00  0.00     0.076 C 
ATOM      7  C8  UNL d   1       5.271  -0.918  -5.872  0.00  0.00     0.001 A 
ENDROOT
BRANCH   1   8
ATOM      8  C1  UNL d   1       4.587   1.513  -5.921  0.00  0.00     0.053 C 
ATOM      9  C   UNL d   1       5.936   2.211  -5.991  0.00  0.00     0.018 C 
ENDBRANCH   1   8
TORSDOF 1
ENDMDL
