MODEL 1
REMARK minimizedAffinity 7.79216003
REMARK minimizedRMSD -1
REMARK  1 active torsions:
REMARK  status: ('A' for Active; 'I' for Inactive)
REMARK    1  A    between atoms: C1_2  and  C2_3 
ROOT
ATOM      1  C2  UNL d   1       4.115  -0.720  -3.719  0.00  0.00    -0.073 A 
ATOM      2  C3  UNL d   1       5.121  -1.493  -4.310  0.00  0.00    -0.002 A 
ATOM      3  C4  UNL d   1       5.787  -1.034  -5.447  0.00  0.00     0.004 A 
ATOM      4  C5  UNL d   1       5.461   0.204  -5.999  0.00  0.00    -0.004 A 
ATOM      5  C6  UNL d   1       4.468   0.998  -5.416  0.00  0.00    -0.075 A 
ATOM      6  C7  UNL d   1       4.104   2.331  -6.000  0.00  0.00     0.076 C 
ATOM      7  C8  UNL d   1       3.801   0.528  -4.277  0.00  0.00     0.001 A 
ENDROOT
BRANCH   1   8
ATOM      8  C1  UNL d   1       3.397  -1.208  -2.488  0.00  0.00     0.053 C 
ATOM      9  C   UNL d   1       2.907  -2.639  -2.644  0.00  0.00     0.018 C 
ENDBRANCH   1   8
TORSDOF 1
ENDMDL
