MODEL 1
REMARK minimizedAffinity 2.09997678
REMARK minimizedRMSD -1
REMARK  1 active torsions:
REMARK  status: ('A' for Active; 'I' for Inactive)
REMARK    1  A    between atoms: C1_2  and  C2_3 
ROOT
ATOM      1  C2  UNL d   1       4.258  -1.273  -3.576  0.00  0.00    -0.073 A 
ATOM      2  C3  UNL d   1       5.385  -1.850  -4.172  0.00  0.00    -0.002 A 
ATOM      3  C4  UNL d   1       5.999  -1.233  -5.263  0.00  0.00     0.004 A 
ATOM      4  C5  UNL d   1       5.497  -0.032  -5.764  0.00  0.00    -0.004 A 
ATOM      5  C6  UNL d   1       4.379   0.566  -5.174  0.00  0.00    -0.075 A 
ATOM      6  C7  UNL d   1       3.825   1.857  -5.703  0.00  0.00     0.076 C 
ATOM      7  C8  UNL d   1       3.766  -0.061  -4.081  0.00  0.00     0.001 A 
ENDROOT
BRANCH   1   8
ATOM      8  C1  UNL d   1       3.595  -1.932  -2.394  0.00  0.00     0.053 C 
ATOM      9  C   UNL d   1       2.533  -2.933  -2.820  0.00  0.00     0.018 C 
ENDBRANCH   1   8
TORSDOF 1
ENDMDL
