MODEL 1
REMARK minimizedAffinity 1.11444283
REMARK minimizedRMSD -1
REMARK  1 active torsions:
REMARK  status: ('A' for Active; 'I' for Inactive)
REMARK    1  A    between atoms: C1_2  and  C2_3 
ROOT
ATOM      1  C2  UNL d   1       3.662  -2.337  -2.109  0.00  0.00    -0.073 A 
ATOM      2  C3  UNL d   1       2.892  -3.431  -2.522  0.00  0.00    -0.002 A 
ATOM      3  C4  UNL d   1       1.869  -3.920  -1.709  0.00  0.00     0.004 A 
ATOM      4  C5  UNL d   1       1.600  -3.317  -0.480  0.00  0.00    -0.004 A 
ATOM      5  C6  UNL d   1       2.350  -2.216  -0.055  0.00  0.00    -0.075 A 
ATOM      6  C7  UNL d   1       2.075  -1.558   1.265  0.00  0.00     0.076 C 
ATOM      7  C8  UNL d   1       3.378  -1.733  -0.876  0.00  0.00     0.001 A 
ENDROOT
BRANCH   1   8
ATOM      8  C1  UNL d   1       4.763  -1.802  -2.986  0.00  0.00     0.053 C 
ATOM      9  C   UNL d   1       4.223  -1.176  -4.263  0.00  0.00     0.018 C 
ENDBRANCH   1   8
TORSDOF 1
ENDMDL
