MODEL 1
REMARK minimizedAffinity 4.24786997
REMARK minimizedRMSD -1
REMARK  1 active torsions:
REMARK  status: ('A' for Active; 'I' for Inactive)
REMARK    1  A    between atoms: C1_2  and  C2_3 
ROOT
ATOM      1  C2  UNL d   1       5.474  -0.351  -5.115  0.00  0.00    -0.073 A 
ATOM      2  C3  UNL d   1       5.180   0.909  -5.648  0.00  0.00    -0.002 A 
ATOM      3  C4  UNL d   1       4.700   1.928  -4.825  0.00  0.00     0.004 A 
ATOM      4  C5  UNL d   1       4.516   1.702  -3.461  0.00  0.00    -0.004 A 
ATOM      5  C6  UNL d   1       4.816   0.453  -2.907  0.00  0.00    -0.075 A 
ATOM      6  C7  UNL d   1       4.622   0.192  -1.442  0.00  0.00     0.076 C 
ATOM      7  C8  UNL d   1       5.295  -0.567  -3.741  0.00  0.00     0.001 A 
ENDROOT
BRANCH   1   8
ATOM      8  C1  UNL d   1       5.998  -1.453  -5.999  0.00  0.00     0.053 C 
ATOM      9  C   UNL d   1       5.998  -2.799  -5.292  0.00  0.00     0.018 C 
ENDBRANCH   1   8
TORSDOF 1
ENDMDL
