MODEL 1
REMARK minimizedAffinity -2.55836892
REMARK minimizedRMSD -1
REMARK  0 active torsions:
REMARK  status: ('A' for Active; 'I' for Inactive)
ROOT
ATOM      1  O1  BZF d   1      -0.341  -0.217   0.355  0.00  0.00    -0.204 OA
ATOM      2  C2  BZF d   1      -0.105   1.139   0.230  0.00  0.00     0.174 A 
ATOM      3  C3  BZF d   1       1.000   1.366  -0.508  0.00  0.00    -0.012 A 
ATOM      4  C3A BZF d   1       1.434   0.074  -0.944  0.00  0.00    -0.107 A 
ATOM      5  C4  BZF d   1       2.470  -0.356  -1.722  0.00  0.00     0.055 A 
ATOM      6  C5  BZF d   1       2.657  -1.690  -1.896  0.00  0.00    -0.016 A 
ATOM      7  C6  BZF d   1       1.831  -2.622  -1.303  0.00  0.00     0.022 A 
ATOM      8  C7  BZF d   1       0.786  -2.244  -0.526  0.00  0.00     0.029 A 
ATOM      9  C7A BZF d   1       0.575  -0.896  -0.376  0.00  0.00     0.058 A 
ENDROOT
TORSDOF 0
ENDMDL
