MODEL 1
REMARK minimizedAffinity -1.68414211
REMARK minimizedRMSD -1
REMARK  0 active torsions:
REMARK  status: ('A' for Active; 'I' for Inactive)
ROOT
ATOM      1  O1  BZF d   1      -0.852   1.272   0.967  0.00  0.00    -0.204 OA
ATOM      2  C2  BZF d   1      -1.303   0.030   1.368  0.00  0.00     0.174 A 
ATOM      3  C3  BZF d   1      -0.637  -0.951   0.726  0.00  0.00    -0.012 A 
ATOM      4  C3A BZF d   1       0.352  -0.281  -0.062  0.00  0.00    -0.107 A 
ATOM      5  C4  BZF d   1       1.332  -0.716  -0.908  0.00  0.00     0.055 A 
ATOM      6  C5  BZF d   1       2.081   0.199  -1.577  0.00  0.00    -0.016 A 
ATOM      7  C6  BZF d   1       1.875   1.554  -1.429  0.00  0.00     0.022 A 
ATOM      8  C7  BZF d   1       0.918   2.034  -0.597  0.00  0.00     0.029 A 
ATOM      9  C7A BZF d   1       0.181   1.112   0.106  0.00  0.00     0.058 A 
ENDROOT
TORSDOF 0
ENDMDL
