MODEL 1
REMARK minimizedAffinity -3.45360041
REMARK minimizedRMSD -1
REMARK  0 active torsions:
REMARK  status: ('A' for Active; 'I' for Inactive)
ROOT
ATOM      1  O1  BZF d   1       0.780  -2.037  -0.093  0.00  0.00    -0.204 OA
ATOM      2  C2  BZF d   1       1.771  -2.638  -0.845  0.00  0.00     0.174 A 
ATOM      3  C3  BZF d   1       2.437  -1.723  -1.578  0.00  0.00    -0.012 A 
ATOM      4  C3A BZF d   1       1.884  -0.460  -1.195  0.00  0.00    -0.107 A 
ATOM      5  C4  BZF d   1       2.143   0.829  -1.565  0.00  0.00     0.055 A 
ATOM      6  C5  BZF d   1       1.374   1.828  -1.058  0.00  0.00    -0.016 A 
ATOM      7  C6  BZF d   1       0.337   1.575  -0.185  0.00  0.00     0.022 A 
ATOM      8  C7  BZF d   1       0.045   0.313   0.215  0.00  0.00     0.029 A 
ATOM      9  C7A BZF d   1       0.841  -0.696  -0.270  0.00  0.00     0.058 A 
ENDROOT
TORSDOF 0
ENDMDL
