MODEL 1
REMARK minimizedAffinity -5.99846745
REMARK minimizedRMSD -1
REMARK  0 active torsions:
REMARK  status: ('A' for Active; 'I' for Inactive)
ROOT
ATOM      1  O1  BZF d   1      -0.256  -1.492   0.537  0.00  0.00    -0.204 OA
ATOM      2  C2  BZF d   1      -0.534  -0.291   1.160  0.00  0.00     0.174 A 
ATOM      3  C3  BZF d   1       0.058   0.733   0.511  0.00  0.00    -0.012 A 
ATOM      4  C3A BZF d   1       0.672   0.144  -0.639  0.00  0.00    -0.107 A 
ATOM      5  C4  BZF d   1       1.398   0.651  -1.679  0.00  0.00     0.055 A 
ATOM      6  C5  BZF d   1       1.917  -0.202  -2.600  0.00  0.00    -0.016 A 
ATOM      7  C6  BZF d   1       1.734  -1.567  -2.511  0.00  0.00     0.022 A 
ATOM      8  C7  BZF d   1       1.017  -2.116  -1.500  0.00  0.00     0.029 A 
ATOM      9  C7A BZF d   1       0.464  -1.254  -0.585  0.00  0.00     0.058 A 
ENDROOT
TORSDOF 0
ENDMDL
