MODEL 1
REMARK minimizedAffinity 6.14334774
REMARK minimizedRMSD -1
REMARK  0 active torsions:
REMARK  status: ('A' for Active; 'I' for Inactive)
ROOT
ATOM      1  O1  BZF d   1      -4.586   2.260   1.719  0.00  0.00    -0.204 OA
ATOM      2  C2  BZF d   1      -4.085   1.029   1.342  0.00  0.00     0.174 A 
ATOM      3  C3  BZF d   1      -3.011   0.700   2.089  0.00  0.00    -0.012 A 
ATOM      4  C3A BZF d   1      -2.885   1.752   3.050  0.00  0.00    -0.107 A 
ATOM      5  C4  BZF d   1      -2.016   1.986   4.078  0.00  0.00     0.055 A 
ATOM      6  C5  BZF d   1      -2.121   3.144   4.781  0.00  0.00    -0.016 A 
ATOM      7  C6  BZF d   1      -3.078   4.092   4.481  0.00  0.00     0.022 A 
ATOM      8  C7  BZF d   1      -3.965   3.902   3.474  0.00  0.00     0.029 A 
ATOM      9  C7A BZF d   1      -3.883   2.718   2.783  0.00  0.00     0.058 A 
ENDROOT
TORSDOF 0
ENDMDL
