MODEL 1
REMARK minimizedAffinity -1.49032092
REMARK minimizedRMSD -1
REMARK  0 active torsions:
REMARK  status: ('A' for Active; 'I' for Inactive)
ROOT
ATOM      1  O1  BZF d   1      -0.993  -0.844  -0.008  0.00  0.00    -0.204 OA
ATOM      2  C2  BZF d   1       0.216  -0.190   0.134  0.00  0.00     0.174 A 
ATOM      3  C3  BZF d   1       0.086   0.888   0.933  0.00  0.00    -0.012 A 
ATOM      4  C3A BZF d   1      -1.270   0.858   1.388  0.00  0.00    -0.107 A 
ATOM      5  C4  BZF d   1      -1.999   1.657   2.222  0.00  0.00     0.055 A 
ATOM      6  C5  BZF d   1      -3.320   1.394   2.401  0.00  0.00    -0.016 A 
ATOM      7  C6  BZF d   1      -3.945   0.344   1.760  0.00  0.00     0.022 A 
ATOM      8  C7  BZF d   1      -3.262  -0.479   0.928  0.00  0.00     0.029 A 
ATOM      9  C7A BZF d   1      -1.920  -0.236   0.770  0.00  0.00     0.058 A 
ENDROOT
TORSDOF 0
ENDMDL
