MODEL 1
REMARK minimizedAffinity -2.06309938
REMARK minimizedRMSD -1
REMARK  0 active torsions:
REMARK  status: ('A' for Active; 'I' for Inactive)
ROOT
ATOM      1  O1  BZF d   1      -1.135  -0.518  -0.330  0.00  0.00    -0.204 OA
ATOM      2  C2  BZF d   1       0.114  -0.267   0.205  0.00  0.00     0.174 A 
ATOM      3  C3  BZF d   1       0.020   0.549   1.275  0.00  0.00    -0.012 A 
ATOM      4  C3A BZF d   1      -1.383   0.750   1.473  0.00  0.00    -0.107 A 
ATOM      5  C4  BZF d   1      -2.110   1.455   2.390  0.00  0.00     0.055 A 
ATOM      6  C5  BZF d   1      -3.462   1.506   2.262  0.00  0.00    -0.016 A 
ATOM      7  C6  BZF d   1      -4.118   0.871   1.228  0.00  0.00     0.022 A 
ATOM      8  C7  BZF d   1      -3.440   0.156   0.297  0.00  0.00     0.029 A 
ATOM      9  C7A BZF d   1      -2.076   0.075   0.443  0.00  0.00     0.058 A 
ENDROOT
TORSDOF 0
ENDMDL
