MODEL 1
REMARK minimizedAffinity -3.15904307
REMARK minimizedRMSD -1
REMARK  0 active torsions:
REMARK  status: ('A' for Active; 'I' for Inactive)
ROOT
ATOM      1  O1  BZF d   1       0.476  -0.504   0.493  0.00  0.00    -0.204 OA
ATOM      2  C2  BZF d   1       0.550   0.331  -0.605  0.00  0.00     0.174 A 
ATOM      3  C3  BZF d   1      -0.544   1.115  -0.684  0.00  0.00    -0.012 A 
ATOM      4  C3A BZF d   1      -1.310   0.813   0.486  0.00  0.00    -0.107 A 
ATOM      5  C4  BZF d   1      -2.494   1.280   0.980  0.00  0.00     0.055 A 
ATOM      6  C5  BZF d   1      -3.004   0.724   2.110  0.00  0.00    -0.016 A 
ATOM      7  C6  BZF d   1      -2.359  -0.303   2.769  0.00  0.00     0.022 A 
ATOM      8  C7  BZF d   1      -1.179  -0.796   2.320  0.00  0.00     0.029 A 
ATOM      9  C7A BZF d   1      -0.645  -0.214   1.196  0.00  0.00     0.058 A 
ENDROOT
TORSDOF 0
ENDMDL
