MODEL 1
REMARK minimizedAffinity -2.13223124
REMARK minimizedRMSD -1
REMARK  0 active torsions:
REMARK  status: ('A' for Active; 'I' for Inactive)
ROOT
ATOM      1  O1  BZF d   1      -1.267  -0.574  -0.090  0.00  0.00    -0.204 OA
ATOM      2  C2  BZF d   1      -0.030  -0.040   0.216  0.00  0.00     0.174 A 
ATOM      3  C3  BZF d   1      -0.129   0.846   1.228  0.00  0.00    -0.012 A 
ATOM      4  C3A BZF d   1      -1.499   0.799   1.637  0.00  0.00    -0.107 A 
ATOM      5  C4  BZF d   1      -2.211   1.442   2.609  0.00  0.00     0.055 A 
ATOM      6  C5  BZF d   1      -3.550   1.226   2.699  0.00  0.00    -0.016 A 
ATOM      7  C6  BZF d   1      -4.209   0.380   1.831  0.00  0.00     0.022 A 
ATOM      8  C7  BZF d   1      -3.544  -0.284   0.855  0.00  0.00     0.029 A 
ATOM      9  C7A BZF d   1      -2.186  -0.094   0.782  0.00  0.00     0.058 A 
ENDROOT
TORSDOF 0
ENDMDL
