MODEL 1
REMARK minimizedAffinity -4.13922453
REMARK minimizedRMSD -1
REMARK  0 active torsions:
REMARK  status: ('A' for Active; 'I' for Inactive)
ROOT
ATOM      1  O1  BZF d   1       1.054  -2.731  -0.270  0.00  0.00    -0.204 OA
ATOM      2  C2  BZF d   1       2.021  -3.258  -1.103  0.00  0.00     0.174 A 
ATOM      3  C3  BZF d   1       2.568  -2.295  -1.871  0.00  0.00    -0.012 A 
ATOM      4  C3A BZF d   1       1.965  -1.074  -1.430  0.00  0.00    -0.107 A 
ATOM      5  C4  BZF d   1       2.111   0.232  -1.799  0.00  0.00     0.055 A 
ATOM      6  C5  BZF d   1       1.320   1.174  -1.222  0.00  0.00    -0.016 A 
ATOM      7  C6  BZF d   1       0.371   0.845  -0.277  0.00  0.00     0.022 A 
ATOM      8  C7  BZF d   1       0.193  -0.437   0.126  0.00  0.00     0.029 A 
ATOM      9  C7A BZF d   1       1.013  -1.387  -0.432  0.00  0.00     0.058 A 
ENDROOT
TORSDOF 0
ENDMDL
