MODEL 1
REMARK minimizedAffinity -0.965879738
REMARK minimizedRMSD -1
REMARK  0 active torsions:
REMARK  status: ('A' for Active; 'I' for Inactive)
ROOT
ATOM      1  O1  BZF d   1      -0.815  -1.004   0.800  0.00  0.00    -0.204 OA
ATOM      2  C2  BZF d   1      -1.301   0.148   1.389  0.00  0.00     0.174 A 
ATOM      3  C3  BZF d   1      -0.665   1.236   0.908  0.00  0.00    -0.012 A 
ATOM      4  C3A BZF d   1       0.212   0.741  -0.108  0.00  0.00    -0.107 A 
ATOM      5  C4  BZF d   1       1.095   1.340  -0.959  0.00  0.00     0.055 A 
ATOM      6  C5  BZF d   1       1.851   0.565  -1.780  0.00  0.00    -0.016 A 
ATOM      7  C6  BZF d   1       1.754  -0.811  -1.773  0.00  0.00     0.022 A 
ATOM      8  C7  BZF d   1       0.888  -1.451  -0.949  0.00  0.00     0.029 A 
ATOM      9  C7A BZF d   1       0.099  -0.668  -0.142  0.00  0.00     0.058 A 
ENDROOT
TORSDOF 0
ENDMDL
