MODEL 1
REMARK minimizedAffinity -3.51293349
REMARK minimizedRMSD -1
REMARK  0 active torsions:
REMARK  status: ('A' for Active; 'I' for Inactive)
ROOT
ATOM      1  O1  BZF d   1      -0.051  -1.460   0.943  0.00  0.00    -0.204 OA
ATOM      2  C2  BZF d   1      -0.469  -0.175   1.230  0.00  0.00     0.174 A 
ATOM      3  C3  BZF d   1       0.134   0.717   0.418  0.00  0.00    -0.012 A 
ATOM      4  C3A BZF d   1       0.912  -0.068  -0.491  0.00  0.00    -0.107 A 
ATOM      5  C4  BZF d   1       1.723   0.245  -1.544  0.00  0.00     0.055 A 
ATOM      6  C5  BZF d   1       2.394  -0.752  -2.179  0.00  0.00    -0.016 A 
ATOM      7  C6  BZF d   1       2.282  -2.069  -1.785  0.00  0.00     0.022 A 
ATOM      8  C7  BZF d   1       1.485  -2.428  -0.749  0.00  0.00     0.029 A 
ATOM      9  C7A BZF d   1       0.780  -1.427  -0.126  0.00  0.00     0.058 A 
ENDROOT
TORSDOF 0
ENDMDL
