MODEL 1
REMARK minimizedAffinity -3.82319736
REMARK minimizedRMSD -1
REMARK  0 active torsions:
REMARK  status: ('A' for Active; 'I' for Inactive)
ROOT
ATOM      1  O1  BZF d   1       0.964  -2.639  -0.777  0.00  0.00    -0.204 OA
ATOM      2  C2  BZF d   1       2.036  -3.166  -1.471  0.00  0.00     0.174 A 
ATOM      3  C3  BZF d   1       2.724  -2.191  -2.100  0.00  0.00    -0.012 A 
ATOM      4  C3A BZF d   1       2.093  -0.970  -1.704  0.00  0.00    -0.107 A 
ATOM      5  C4  BZF d   1       2.332   0.345  -1.987  0.00  0.00     0.055 A 
ATOM      6  C5  BZF d   1       1.487   1.290  -1.498  0.00  0.00    -0.016 A 
ATOM      7  C6  BZF d   1       0.391   0.956  -0.729  0.00  0.00     0.022 A 
ATOM      8  C7  BZF d   1       0.116  -0.334  -0.418  0.00  0.00     0.029 A 
ATOM      9  C7A BZF d   1       0.987  -1.289  -0.882  0.00  0.00     0.058 A 
ENDROOT
TORSDOF 0
ENDMDL
