MODEL 1
REMARK minimizedAffinity -0.899084389
REMARK minimizedRMSD -1
REMARK  0 active torsions:
REMARK  status: ('A' for Active; 'I' for Inactive)
ROOT
ATOM      1  O1  BZF d   1       0.195  -2.615   0.041  0.00  0.00    -0.204 OA
ATOM      2  C2  BZF d   1      -0.622  -1.915   0.907  0.00  0.00     0.174 A 
ATOM      3  C3  BZF d   1      -0.407  -0.588   0.800  0.00  0.00    -0.012 A 
ATOM      4  C3A BZF d   1       0.542  -0.444  -0.261  0.00  0.00    -0.107 A 
ATOM      5  C4  BZF d   1       1.138   0.635  -0.848  0.00  0.00     0.055 A 
ATOM      6  C5  BZF d   1       2.075   0.429  -1.811  0.00  0.00    -0.016 A 
ATOM      7  C6  BZF d   1       2.442  -0.840  -2.207  0.00  0.00     0.022 A 
ATOM      8  C7  BZF d   1       1.875  -1.941  -1.657  0.00  0.00     0.029 A 
ATOM      9  C7A BZF d   1       0.905  -1.736  -0.707  0.00  0.00     0.058 A 
ENDROOT
TORSDOF 0
ENDMDL
