MODEL 1
REMARK minimizedAffinity -0.517253101
REMARK minimizedRMSD -1
REMARK  0 active torsions:
REMARK  status: ('A' for Active; 'I' for Inactive)
ROOT
ATOM      1  O1  BZF d   1      -1.477  -0.627  -0.055  0.00  0.00    -0.204 OA
ATOM      2  C2  BZF d   1      -0.182  -0.227   0.212  0.00  0.00     0.174 A 
ATOM      3  C3  BZF d   1      -0.153   0.650   1.236  0.00  0.00    -0.012 A 
ATOM      4  C3A BZF d   1      -1.506   0.738   1.694  0.00  0.00    -0.107 A 
ATOM      5  C4  BZF d   1      -2.114   1.436   2.698  0.00  0.00     0.055 A 
ATOM      6  C5  BZF d   1      -3.464   1.356   2.834  0.00  0.00    -0.016 A 
ATOM      7  C6  BZF d   1      -4.236   0.594   1.982  0.00  0.00     0.022 A 
ATOM      8  C7  BZF d   1      -3.677  -0.120   0.975  0.00  0.00     0.029 A 
ATOM      9  C7A BZF d   1      -2.310  -0.068   0.855  0.00  0.00     0.058 A 
ENDROOT
TORSDOF 0
ENDMDL
