MODEL 1
REMARK minimizedAffinity 7.98744869
REMARK minimizedRMSD -1
REMARK  0 active torsions:
REMARK  status: ('A' for Active; 'I' for Inactive)
ROOT
ATOM      1  O1  BZF d   1      -2.981   0.513   5.983  0.00  0.00    -0.204 OA
ATOM      2  C2  BZF d   1      -2.028   1.512   5.947  0.00  0.00     0.174 A 
ATOM      3  C3  BZF d   1      -1.983   2.085   4.727  0.00  0.00    -0.012 A 
ATOM      4  C3A BZF d   1      -3.033   1.464   3.980  0.00  0.00    -0.107 A 
ATOM      5  C4  BZF d   1      -3.498   1.620   2.705  0.00  0.00     0.055 A 
ATOM      6  C5  BZF d   1      -4.490   0.806   2.260  0.00  0.00    -0.016 A 
ATOM      7  C6  BZF d   1      -5.036  -0.178   3.058  0.00  0.00     0.022 A 
ATOM      8  C7  BZF d   1      -4.611  -0.368   4.331  0.00  0.00     0.029 A 
ATOM      9  C7A BZF d   1      -3.631   0.475   4.795  0.00  0.00     0.058 A 
ENDROOT
TORSDOF 0
ENDMDL
