MODEL 1
REMARK minimizedAffinity 0.369660765
REMARK minimizedRMSD -1
REMARK  0 active torsions:
REMARK  status: ('A' for Active; 'I' for Inactive)
ROOT
ATOM      1  O1  BZF d   1       1.010  -0.948   0.777  0.00  0.00    -0.204 OA
ATOM      2  C2  BZF d   1       0.837  -2.271   0.419  0.00  0.00     0.174 A 
ATOM      3  C3  BZF d   1       1.082  -2.447  -0.896  0.00  0.00    -0.012 A 
ATOM      4  C3A BZF d   1       1.519  -1.170  -1.371  0.00  0.00    -0.107 A 
ATOM      5  C4  BZF d   1       1.924  -0.711  -2.592  0.00  0.00     0.055 A 
ATOM      6  C5  BZF d   1       2.216   0.608  -2.738  0.00  0.00    -0.016 A 
ATOM      7  C6  BZF d   1       2.109   1.496  -1.688  0.00  0.00     0.022 A 
ATOM      8  C7  BZF d   1       1.716   1.087  -0.457  0.00  0.00     0.029 A 
ATOM      9  C7A BZF d   1       1.452  -0.252  -0.298  0.00  0.00     0.058 A 
ENDROOT
TORSDOF 0
ENDMDL
