MODEL 1
REMARK minimizedAffinity -1.68282485
REMARK minimizedRMSD -1
REMARK  0 active torsions:
REMARK  status: ('A' for Active; 'I' for Inactive)
ROOT
ATOM      1  O1  BZF d   1       1.895  -1.197  -1.741  0.00  0.00    -0.204 OA
ATOM      2  C2  BZF d   1       2.159   0.093  -2.159  0.00  0.00     0.174 A 
ATOM      3  C3  BZF d   1       1.458   0.985  -1.430  0.00  0.00    -0.012 A 
ATOM      4  C3A BZF d   1       0.779   0.209  -0.437  0.00  0.00    -0.107 A 
ATOM      5  C4  BZF d   1      -0.061   0.527   0.591  0.00  0.00     0.055 A 
ATOM      6  C5  BZF d   1      -0.610  -0.473   1.330  0.00  0.00    -0.016 A 
ATOM      7  C6  BZF d   1      -0.345  -1.800   1.065  0.00  0.00     0.022 A 
ATOM      8  C7  BZF d   1       0.487  -2.165   0.058  0.00  0.00     0.029 A 
ATOM      9  C7A BZF d   1       1.068  -1.156  -0.669  0.00  0.00     0.058 A 
ENDROOT
TORSDOF 0
ENDMDL
