MODEL 1
REMARK minimizedAffinity -1.14085972
REMARK minimizedRMSD -1
REMARK  0 active torsions:
REMARK  status: ('A' for Active; 'I' for Inactive)
ROOT
ATOM      1  O1  BZF d   1       0.021  -1.910   1.582  0.00  0.00    -0.204 OA
ATOM      2  C2  BZF d   1       0.910  -2.223   2.592  0.00  0.00     0.174 A 
ATOM      3  C3  BZF d   1       1.906  -1.317   2.651  0.00  0.00    -0.012 A 
ATOM      4  C3A BZF d   1       1.573  -0.327   1.673  0.00  0.00    -0.107 A 
ATOM      5  C4  BZF d   1       2.169   0.834   1.271  0.00  0.00     0.055 A 
ATOM      6  C5  BZF d   1       1.625   1.533   0.239  0.00  0.00    -0.016 A 
ATOM      7  C6  BZF d   1       0.491   1.098  -0.415  0.00  0.00     0.022 A 
ATOM      8  C7  BZF d   1      -0.138  -0.045  -0.048  0.00  0.00     0.029 A 
ATOM      9  C7A BZF d   1       0.390  -0.736   1.015  0.00  0.00     0.058 A 
ENDROOT
TORSDOF 0
ENDMDL
