MODEL 1
REMARK minimizedAffinity -0.270125329
REMARK minimizedRMSD -1
REMARK  0 active torsions:
REMARK  status: ('A' for Active; 'I' for Inactive)
ROOT
ATOM      1  O1  BZF d   1       2.143  -0.827   1.380  0.00  0.00    -0.204 OA
ATOM      2  C2  BZF d   1       2.966   0.230   1.718  0.00  0.00     0.174 A 
ATOM      3  C3  BZF d   1       2.414   1.404   1.349  0.00  0.00    -0.012 A 
ATOM      4  C3A BZF d   1       1.127   1.065   0.824  0.00  0.00    -0.107 A 
ATOM      5  C4  BZF d   1       0.098   1.803   0.311  0.00  0.00     0.055 A 
ATOM      6  C5  BZF d   1      -0.993   1.162  -0.182  0.00  0.00    -0.016 A 
ATOM      7  C6  BZF d   1      -1.088  -0.214  -0.182  0.00  0.00     0.022 A 
ATOM      8  C7  BZF d   1      -0.096  -0.989   0.321  0.00  0.00     0.029 A 
ATOM      9  C7A BZF d   1       0.994  -0.342   0.850  0.00  0.00     0.058 A 
ENDROOT
TORSDOF 0
ENDMDL
