MODEL 1
REMARK minimizedAffinity -4.70162821
REMARK minimizedRMSD -1
REMARK  0 active torsions:
REMARK  status: ('A' for Active; 'I' for Inactive)
ROOT
ATOM      1  O1  BZF d   1       1.135   0.787  -0.937  0.00  0.00    -0.204 OA
ATOM      2  C2  BZF d   1       0.703   1.061   0.346  0.00  0.00     0.174 A 
ATOM      3  C3  BZF d   1      -0.629   0.881   0.451  0.00  0.00    -0.012 A 
ATOM      4  C3A BZF d   1      -1.043   0.381  -0.824  0.00  0.00    -0.107 A 
ATOM      5  C4  BZF d   1      -2.250  -0.004  -1.335  0.00  0.00     0.055 A 
ATOM      6  C5  BZF d   1      -2.327  -0.375  -2.640  0.00  0.00    -0.016 A 
ATOM      7  C6  BZF d   1      -1.219  -0.369  -3.463  0.00  0.00     0.022 A 
ATOM      8  C7  BZF d   1      -0.000   0.000  -3.000  0.00  0.00     0.029 A 
ATOM      9  C7A BZF d   1       0.087   0.344  -1.673  0.00  0.00     0.058 A 
ENDROOT
TORSDOF 0
ENDMDL
