MODEL 1
REMARK minimizedAffinity 0.0615239553
REMARK minimizedRMSD -1
REMARK  0 active torsions:
REMARK  status: ('A' for Active; 'I' for Inactive)
ROOT
ATOM      1  O1  BZF d   1      -0.935   0.704  -3.223  0.00  0.00    -0.204 OA
ATOM      2  C2  BZF d   1      -2.161   0.263  -3.682  0.00  0.00     0.174 A 
ATOM      3  C3  BZF d   1      -2.808  -0.434  -2.726  0.00  0.00    -0.012 A 
ATOM      4  C3A BZF d   1      -1.972  -0.349  -1.568  0.00  0.00    -0.107 A 
ATOM      5  C4  BZF d   1      -2.081  -0.828  -0.294  0.00  0.00     0.055 A 
ATOM      6  C5  BZF d   1      -1.055  -0.631   0.576  0.00  0.00    -0.016 A 
ATOM      7  C6  BZF d   1       0.095   0.034   0.204  0.00  0.00     0.022 A 
ATOM      8  C7  BZF d   1       0.247   0.531  -1.048  0.00  0.00     0.029 A 
ATOM      9  C7A BZF d   1      -0.801   0.363  -1.919  0.00  0.00     0.058 A 
ENDROOT
TORSDOF 0
ENDMDL
