MODEL 1
REMARK minimizedAffinity -3.71125507
REMARK minimizedRMSD -1
REMARK  0 active torsions:
REMARK  status: ('A' for Active; 'I' for Inactive)
ROOT
ATOM      1  O1  BZF d   1      -0.870  -0.659   0.499  0.00  0.00    -0.204 OA
ATOM      2  C2  BZF d   1      -0.892   0.455  -0.318  0.00  0.00     0.174 A 
ATOM      3  C3  BZF d   1       0.248   1.164  -0.192  0.00  0.00    -0.012 A 
ATOM      4  C3A BZF d   1       1.071   0.399   0.694  0.00  0.00    -0.107 A 
ATOM      5  C4  BZF d   1       2.330   0.574   1.193  0.00  0.00     0.055 A 
ATOM      6  C5  BZF d   1       2.814  -0.321   2.093  0.00  0.00    -0.016 A 
ATOM      7  C6  BZF d   1       2.066  -1.398   2.521  0.00  0.00     0.022 A 
ATOM      8  C7  BZF d   1       0.814  -1.617   2.051  0.00  0.00     0.029 A 
ATOM      9  C7A BZF d   1       0.334  -0.732   1.116  0.00  0.00     0.058 A 
ENDROOT
TORSDOF 0
ENDMDL
