MODEL 1
REMARK minimizedAffinity -1.73124361
REMARK minimizedRMSD -1
REMARK  0 active torsions:
REMARK  status: ('A' for Active; 'I' for Inactive)
ROOT
ATOM      1  O1  BZF d   1       1.715  -0.171   1.393  0.00  0.00    -0.204 OA
ATOM      2  C2  BZF d   1       2.212   0.976   0.805  0.00  0.00     0.174 A 
ATOM      3  C3  BZF d   1       1.316   1.499  -0.057  0.00  0.00    -0.012 A 
ATOM      4  C3A BZF d   1       0.152   0.676   0.065  0.00  0.00    -0.107 A 
ATOM      5  C4  BZF d   1      -1.079   0.698  -0.524  0.00  0.00     0.055 A 
ATOM      6  C5  BZF d   1      -1.965  -0.292  -0.240  0.00  0.00    -0.016 A 
ATOM      7  C6  BZF d   1      -1.652  -1.322   0.622  0.00  0.00     0.022 A 
ATOM      8  C7  BZF d   1      -0.444  -1.385   1.234  0.00  0.00     0.029 A 
ATOM      9  C7A BZF d   1       0.442  -0.367   0.975  0.00  0.00     0.058 A 
ENDROOT
TORSDOF 0
ENDMDL
