MODEL 1
REMARK minimizedAffinity -4.11016273
REMARK minimizedRMSD -1
REMARK  0 active torsions:
REMARK  status: ('A' for Active; 'I' for Inactive)
ROOT
ATOM      1  C   UNL d   1       1.911   1.187   0.197  0.00  0.00     0.020 A 
ATOM      2  C1  UNL d   1       2.840   0.354   0.818  0.00  0.00     0.020 A 
ATOM      3  C2  UNL d   1       2.416  -0.821   1.444  0.00  0.00     0.034 A 
ATOM      4  C3  UNL d   1       1.060  -1.165   1.450  0.00  0.00     0.017 A 
ATOM      5  C4  UNL d   1       0.127  -0.328   0.826  0.00  0.00     0.017 A 
ATOM      6  C5  UNL d   1       0.557   0.847   0.201  0.00  0.00     0.034 A 
ATOM      7 Cl   UNL d   1      -1.563  -0.686   0.792  0.00  0.00    -0.070 Cl
ATOM      8 Cl1  UNL d   1       0.606  -2.632   2.242  0.00  0.00    -0.070 Cl
ENDROOT
TORSDOF 0
ENDMDL
