MODEL 1
REMARK minimizedAffinity -4.31240988
REMARK minimizedRMSD -1
REMARK  0 active torsions:
REMARK  status: ('A' for Active; 'I' for Inactive)
ROOT
ATOM      1  C   UNL d   1      -0.097  -2.218   1.414  0.00  0.00     0.020 A 
ATOM      2  C1  UNL d   1      -1.130  -1.288   1.301  0.00  0.00     0.020 A 
ATOM      3  C2  UNL d   1      -0.861   0.001   0.837  0.00  0.00     0.034 A 
ATOM      4  C3  UNL d   1       0.444   0.365   0.484  0.00  0.00     0.017 A 
ATOM      5  C4  UNL d   1       1.480  -0.569   0.598  0.00  0.00     0.017 A 
ATOM      6  C5  UNL d   1       1.205  -1.859   1.063  0.00  0.00     0.034 A 
ATOM      7 Cl   UNL d   1       3.115  -0.195   0.182  0.00  0.00    -0.070 Cl
ATOM      8 Cl1  UNL d   1       0.704   1.976  -0.082  0.00  0.00    -0.070 Cl
ENDROOT
TORSDOF 0
ENDMDL
