MODEL 1
REMARK minimizedAffinity 4.1760025
REMARK minimizedRMSD -1
REMARK  0 active torsions:
REMARK  status: ('A' for Active; 'I' for Inactive)
ROOT
ATOM      1  C   UNL d   1       3.153   0.705   1.678  0.00  0.00     0.020 A 
ATOM      2  C1  UNL d   1       3.040  -0.425   0.869  0.00  0.00     0.020 A 
ATOM      3  C2  UNL d   1       1.859  -0.665   0.164  0.00  0.00     0.034 A 
ATOM      4  C3  UNL d   1       0.785   0.227   0.267  0.00  0.00     0.017 A 
ATOM      5  C4  UNL d   1       0.899   1.361   1.079  0.00  0.00     0.017 A 
ATOM      6  C5  UNL d   1       2.084   1.596   1.783  0.00  0.00     0.034 A 
ATOM      7 Cl   UNL d   1      -0.383   2.507   1.257  0.00  0.00    -0.070 Cl
ATOM      8 Cl1  UNL d   1      -0.646  -0.131  -0.633  0.00  0.00    -0.070 Cl
ENDROOT
TORSDOF 0
ENDMDL
