MODEL 1
REMARK minimizedAffinity -0.981839538
REMARK minimizedRMSD -1
REMARK  0 active torsions:
REMARK  status: ('A' for Active; 'I' for Inactive)
ROOT
ATOM      1  C   UNL d   1      -3.406  -0.731  -2.951  0.00  0.00     0.020 A 
ATOM      2  C1  UNL d   1      -2.619   0.339  -3.377  0.00  0.00     0.020 A 
ATOM      3  C2  UNL d   1      -1.666   0.890  -2.518  0.00  0.00     0.034 A 
ATOM      4  C3  UNL d   1      -1.498   0.373  -1.229  0.00  0.00     0.017 A 
ATOM      5  C4  UNL d   1      -2.288  -0.701  -0.802  0.00  0.00     0.017 A 
ATOM      6  C5  UNL d   1      -3.240  -1.249  -1.666  0.00  0.00     0.034 A 
ATOM      7 Cl   UNL d   1      -2.137  -1.393   0.774  0.00  0.00    -0.070 Cl
ATOM      8 Cl1  UNL d   1      -0.300   1.103  -0.220  0.00  0.00    -0.070 Cl
ENDROOT
TORSDOF 0
ENDMDL
