MODEL 1
REMARK minimizedAffinity -4.75500965
REMARK minimizedRMSD -1
REMARK  0 active torsions:
REMARK  status: ('A' for Active; 'I' for Inactive)
ROOT
ATOM      1  C   UNL d   1       3.083  -0.546   0.565  0.00  0.00     0.020 A 
ATOM      2  C1  UNL d   1       2.276  -1.670   0.740  0.00  0.00     0.020 A 
ATOM      3  C2  UNL d   1       0.892  -1.566   0.585  0.00  0.00     0.034 A 
ATOM      4  C3  UNL d   1       0.310  -0.337   0.255  0.00  0.00     0.017 A 
ATOM      5  C4  UNL d   1       1.121   0.791   0.080  0.00  0.00     0.017 A 
ATOM      6  C5  UNL d   1       2.507   0.681   0.236  0.00  0.00     0.034 A 
ATOM      7 Cl   UNL d   1       0.477   2.342  -0.327  0.00  0.00    -0.070 Cl
ATOM      8 Cl1  UNL d   1      -1.408  -0.281   0.080  0.00  0.00    -0.070 Cl
ENDROOT
TORSDOF 0
ENDMDL
