MODEL 1
REMARK minimizedAffinity -2.66704583
REMARK minimizedRMSD -1
REMARK  0 active torsions:
REMARK  status: ('A' for Active; 'I' for Inactive)
ROOT
ATOM      1  C   UNL d   1      -0.980   0.415  -0.058  0.00  0.00     0.020 A 
ATOM      2  C1  UNL d   1      -0.725  -0.733  -0.807  0.00  0.00     0.020 A 
ATOM      3  C2  UNL d   1       0.550  -1.302  -0.799  0.00  0.00     0.034 A 
ATOM      4  C3  UNL d   1       1.575  -0.724  -0.040  0.00  0.00     0.017 A 
ATOM      5  C4  UNL d   1       1.317   0.428   0.712  0.00  0.00     0.017 A 
ATOM      6  C5  UNL d   1       0.039   0.994   0.700  0.00  0.00     0.034 A 
ATOM      7 Cl   UNL d   1       2.530   1.198   1.673  0.00  0.00    -0.070 Cl
ATOM      8 Cl1  UNL d   1       3.127  -1.482  -0.076  0.00  0.00    -0.070 Cl
ENDROOT
TORSDOF 0
ENDMDL
