MODEL 1
REMARK minimizedAffinity -3.25389338
REMARK minimizedRMSD -1
REMARK  0 active torsions:
REMARK  status: ('A' for Active; 'I' for Inactive)
ROOT
ATOM      1  C   UNL d   1       2.762  -1.020   0.268  0.00  0.00     0.020 A 
ATOM      2  C1  UNL d   1       3.166   0.096   0.999  0.00  0.00     0.020 A 
ATOM      3  C2  UNL d   1       2.285   1.162   1.192  0.00  0.00     0.034 A 
ATOM      4  C3  UNL d   1       0.994   1.114   0.653  0.00  0.00     0.017 A 
ATOM      5  C4  UNL d   1       0.589  -0.006  -0.081  0.00  0.00     0.017 A 
ATOM      6  C5  UNL d   1       1.476  -1.071  -0.271  0.00  0.00     0.034 A 
ATOM      7 Cl   UNL d   1      -0.988  -0.138  -0.777  0.00  0.00    -0.070 Cl
ATOM      8 Cl1  UNL d   1      -0.043   2.468   0.931  0.00  0.00    -0.070 Cl
ENDROOT
TORSDOF 0
ENDMDL
