MODEL 1
REMARK minimizedAffinity -3.4163301
REMARK minimizedRMSD -1
REMARK  0 active torsions:
REMARK  status: ('A' for Active; 'I' for Inactive)
ROOT
ATOM      1  C   UNL d   1      -0.358   1.255  -0.351  0.00  0.00     0.020 A 
ATOM      2  C1  UNL d   1      -1.187   0.133  -0.346  0.00  0.00     0.020 A 
ATOM      3  C2  UNL d   1      -0.689  -1.101   0.077  0.00  0.00     0.034 A 
ATOM      4  C3  UNL d   1       0.642  -1.217   0.496  0.00  0.00     0.017 A 
ATOM      5  C4  UNL d   1       1.473  -0.091   0.491  0.00  0.00     0.017 A 
ATOM      6  C5  UNL d   1       0.969   1.143   0.067  0.00  0.00     0.034 A 
ATOM      7 Cl   UNL d   1       3.125  -0.156   0.994  0.00  0.00    -0.070 Cl
ATOM      8 Cl1  UNL d   1       1.190  -2.774   1.006  0.00  0.00    -0.070 Cl
ENDROOT
TORSDOF 0
ENDMDL
