MODEL 1
REMARK minimizedAffinity -6.2615118
REMARK minimizedRMSD -1
REMARK  3 active torsions:
REMARK  status: ('A' for Active; 'I' for Inactive)
REMARK    1  A    between atoms: C3'_2  and  C2'_3 
REMARK    2  A    between atoms: C2'_3  and  C1'_4 
REMARK    3  A    between atoms: C1'_4  and  C1_5 
ROOT
ATOM      1  C1  N4B d   1      -0.522  -0.721   0.817  0.00  0.00    -0.075 A 
ATOM      2  C2  N4B d   1      -1.296  -0.288  -0.282  0.00  0.00     0.002 A 
ATOM      3  C3  N4B d   1      -2.639  -0.572  -0.330  0.00  0.00     0.002 A 
ATOM      4  C4  N4B d   1      -3.223  -1.300   0.696  0.00  0.00    -0.004 A 
ATOM      5  C5  N4B d   1      -2.474  -1.693   1.766  0.00  0.00     0.002 A 
ATOM      6  C6  N4B d   1      -1.124  -1.411   1.829  0.00  0.00     0.002 A 
ENDROOT
BRANCH   1   7
ATOM      7  C1' N4B d   1       0.966  -0.509   0.873  0.00  0.00     0.057 C 
BRANCH   7   8
ATOM      8  C2' N4B d   1       1.291   0.897   0.377  0.00  0.00     0.009 C 
BRANCH   8   9
ATOM      9  C3' N4B d   1       1.760   1.802   1.503  0.00  0.00     0.004 C 
ATOM     10  C4' N4B d   1       2.268   3.125   1.011  0.00  0.00     0.003 C 
ENDBRANCH   8   9
ENDBRANCH   7   8
ENDBRANCH   1   7
TORSDOF 3
ENDMDL
