MODEL 1
REMARK minimizedAffinity -5.71220446
REMARK minimizedRMSD -1
REMARK  3 active torsions:
REMARK  status: ('A' for Active; 'I' for Inactive)
REMARK    1  A    between atoms: C3'_2  and  C2'_3 
REMARK    2  A    between atoms: C2'_3  and  C1'_4 
REMARK    3  A    between atoms: C1'_4  and  C1_5 
ROOT
ATOM      1  C1  N4B d   1      -1.085  -0.625   0.194  0.00  0.00    -0.075 A 
ATOM      2  C2  N4B d   1      -2.387  -0.776  -0.330  0.00  0.00     0.002 A 
ATOM      3  C3  N4B d   1      -3.195  -1.791   0.120  0.00  0.00     0.002 A 
ATOM      4  C4  N4B d   1      -2.718  -2.674   1.077  0.00  0.00    -0.004 A 
ATOM      5  C5  N4B d   1      -1.468  -2.506   1.596  0.00  0.00     0.002 A 
ATOM      6  C6  N4B d   1      -0.646  -1.488   1.156  0.00  0.00     0.002 A 
ENDROOT
BRANCH   1   7
ATOM      7  C1' N4B d   1      -0.134   0.417  -0.329  0.00  0.00     0.057 C 
BRANCH   7   8
ATOM      8  C2' N4B d   1       1.220   0.247   0.353  0.00  0.00     0.009 C 
BRANCH   8   9
ATOM      9  C3' N4B d   1       2.128   1.442   0.120  0.00  0.00     0.004 C 
ATOM     10  C4' N4B d   1       2.542   2.115   1.394  0.00  0.00     0.003 C 
ENDBRANCH   8   9
ENDBRANCH   7   8
ENDBRANCH   1   7
TORSDOF 3
ENDMDL
