MODEL 1
REMARK minimizedAffinity -5.5069418
REMARK minimizedRMSD -1
REMARK  3 active torsions:
REMARK  status: ('A' for Active; 'I' for Inactive)
REMARK    1  A    between atoms: C3'_2  and  C2'_3 
REMARK    2  A    between atoms: C2'_3  and  C1'_4 
REMARK    3  A    between atoms: C1'_4  and  C1_5 
ROOT
ATOM      1  C1  N4B d   1      -0.347  -0.342  -0.186  0.00  0.00    -0.075 A 
ATOM      2  C2  N4B d   1      -1.566  -0.202  -0.886  0.00  0.00     0.002 A 
ATOM      3  C3  N4B d   1      -2.674  -0.906  -0.482  0.00  0.00     0.002 A 
ATOM      4  C4  N4B d   1      -2.583  -1.765   0.602  0.00  0.00    -0.004 A 
ATOM      5  C5  N4B d   1      -1.410  -1.875   1.288  0.00  0.00     0.002 A 
ATOM      6  C6  N4B d   1      -0.289  -1.171   0.896  0.00  0.00     0.002 A 
ENDROOT
BRANCH   1   7
ATOM      7  C1' N4B d   1       0.913   0.341  -0.642  0.00  0.00     0.057 C 
BRANCH   7   8
ATOM      8  C2' N4B d   1       1.794   0.628   0.571  0.00  0.00     0.009 C 
BRANCH   8   9
ATOM      9  C3' N4B d   1       2.551   1.937   0.426  0.00  0.00     0.004 C 
ATOM     10  C4' N4B d   1       2.603   2.721   1.703  0.00  0.00     0.003 C 
ENDBRANCH   8   9
ENDBRANCH   7   8
ENDBRANCH   1   7
TORSDOF 3
ENDMDL
