MODEL 1
REMARK minimizedAffinity -6.28610563
REMARK minimizedRMSD -1
REMARK  3 active torsions:
REMARK  status: ('A' for Active; 'I' for Inactive)
REMARK    1  A    between atoms: C3'_2  and  C2'_3 
REMARK    2  A    between atoms: C2'_3  and  C1'_4 
REMARK    3  A    between atoms: C1'_4  and  C1_5 
ROOT
ATOM      1  C1  N4B d   1      -0.574  -0.750   0.673  0.00  0.00    -0.075 A 
ATOM      2  C2  N4B d   1      -1.319  -0.218  -0.402  0.00  0.00     0.002 A 
ATOM      3  C3  N4B d   1      -2.681  -0.391  -0.445  0.00  0.00     0.002 A 
ATOM      4  C4  N4B d   1      -3.314  -1.105   0.561  0.00  0.00    -0.004 A 
ATOM      5  C5  N4B d   1      -2.590  -1.593   1.609  0.00  0.00     0.002 A 
ATOM      6  C6  N4B d   1      -1.222  -1.424   1.668  0.00  0.00     0.002 A 
ENDROOT
BRANCH   1   7
ATOM      7  C1' N4B d   1       0.927  -0.661   0.720  0.00  0.00     0.057 C 
BRANCH   7   8
ATOM      8  C2' N4B d   1       1.355   0.765   0.386  0.00  0.00     0.009 C 
BRANCH   8   9
ATOM      9  C3' N4B d   1       1.492   1.624   1.631  0.00  0.00     0.004 C 
ATOM     10  C4' N4B d   1       2.178   2.930   1.363  0.00  0.00     0.003 C 
ENDBRANCH   8   9
ENDBRANCH   7   8
ENDBRANCH   1   7
TORSDOF 3
ENDMDL
