MODEL 1
REMARK minimizedAffinity 1.39629793
REMARK minimizedRMSD -1
REMARK  3 active torsions:
REMARK  status: ('A' for Active; 'I' for Inactive)
REMARK    1  A    between atoms: C3'_2  and  C2'_3 
REMARK    2  A    between atoms: C2'_3  and  C1'_4 
REMARK    3  A    between atoms: C1'_4  and  C1_5 
ROOT
ATOM      1  C1  N4B d   1       0.517   0.091  -0.429  0.00  0.00    -0.075 A 
ATOM      2  C2  N4B d   1       0.590   0.835   0.769  0.00  0.00     0.002 A 
ATOM      3  C3  N4B d   1       0.710   0.187   1.973  0.00  0.00     0.002 A 
ATOM      4  C4  N4B d   1       0.739  -1.199   2.006  0.00  0.00    -0.004 A 
ATOM      5  C5  N4B d   1       0.694  -1.910   0.843  0.00  0.00     0.002 A 
ATOM      6  C6  N4B d   1       0.577  -1.272  -0.375  0.00  0.00     0.002 A 
ENDROOT
BRANCH   1   7
ATOM      7  C1' N4B d   1       0.300   0.752  -1.763  0.00  0.00     0.057 C 
BRANCH   7   8
ATOM      8  C2' N4B d   1      -0.749  -0.033  -2.546  0.00  0.00     0.009 C 
BRANCH   8   9
ATOM      9  C3' N4B d   1      -2.013  -0.259  -1.734  0.00  0.00     0.004 C 
ATOM     10  C4' N4B d   1      -2.387  -1.708  -1.634  0.00  0.00     0.003 C 
ENDBRANCH   8   9
ENDBRANCH   7   8
ENDBRANCH   1   7
TORSDOF 3
ENDMDL
