MODEL 1
REMARK minimizedAffinity -1.46395946
REMARK minimizedRMSD -1
REMARK  3 active torsions:
REMARK  status: ('A' for Active; 'I' for Inactive)
REMARK    1  A    between atoms: C3'_2  and  C2'_3 
REMARK    2  A    between atoms: C2'_3  and  C1'_4 
REMARK    3  A    between atoms: C1'_4  and  C1_5 
ROOT
ATOM      1  C1  N4B d   1       1.394   1.250   0.572  0.00  0.00    -0.075 A 
ATOM      2  C2  N4B d   1       2.409   1.824  -0.226  0.00  0.00     0.002 A 
ATOM      3  C3  N4B d   1       3.047   2.966   0.192  0.00  0.00     0.002 A 
ATOM      4  C4  N4B d   1       2.675   3.560   1.389  0.00  0.00    -0.004 A 
ATOM      5  C5  N4B d   1       1.712   2.986   2.165  0.00  0.00     0.002 A 
ATOM      6  C6  N4B d   1       1.065   1.835   1.760  0.00  0.00     0.002 A 
ENDROOT
BRANCH   1   7
ATOM      7  C1' N4B d   1       0.610   0.050   0.116  0.00  0.00     0.057 C 
BRANCH   7   8
ATOM      8  C2' N4B d   1      -0.120  -0.555   1.312  0.00  0.00     0.009 C 
BRANCH   8   9
ATOM      9  C3' N4B d   1       0.530  -1.844   1.782  0.00  0.00     0.004 C 
ATOM     10  C4' N4B d   1      -0.314  -2.594   2.770  0.00  0.00     0.003 C 
ENDBRANCH   8   9
ENDBRANCH   7   8
ENDBRANCH   1   7
TORSDOF 3
ENDMDL
