MODEL 1
REMARK minimizedAffinity -4.68600607
REMARK minimizedRMSD -1
REMARK  3 active torsions:
REMARK  status: ('A' for Active; 'I' for Inactive)
REMARK    1  A    between atoms: C3'_2  and  C2'_3 
REMARK    2  A    between atoms: C2'_3  and  C1'_4 
REMARK    3  A    between atoms: C1'_4  and  C1_5 
ROOT
ATOM      1  C1  N4B d   1      -0.795  -0.213   0.087  0.00  0.00    -0.075 A 
ATOM      2  C2  N4B d   1      -1.948  -0.150  -0.727  0.00  0.00     0.002 A 
ATOM      3  C3  N4B d   1      -2.969  -1.049  -0.541  0.00  0.00     0.002 A 
ATOM      4  C4  N4B d   1      -2.853  -2.027   0.436  0.00  0.00    -0.004 A 
ATOM      5  C5  N4B d   1      -1.748  -2.064   1.235  0.00  0.00     0.002 A 
ATOM      6  C6  N4B d   1      -0.715  -1.165   1.062  0.00  0.00     0.002 A 
ENDROOT
BRANCH   1   7
ATOM      7  C1' N4B d   1       0.384   0.694  -0.135  0.00  0.00     0.057 C 
BRANCH   7   8
ATOM      8  C2' N4B d   1       1.480   0.346   0.868  0.00  0.00     0.009 C 
BRANCH   8   9
ATOM      9  C3' N4B d   1       1.776   1.501   1.809  0.00  0.00     0.004 C 
ATOM     10  C4' N4B d   1       2.670   2.536   1.193  0.00  0.00     0.003 C 
ENDBRANCH   8   9
ENDBRANCH   7   8
ENDBRANCH   1   7
TORSDOF 3
ENDMDL
