MODEL 1
REMARK minimizedAffinity -6.65480995
REMARK minimizedRMSD -1
REMARK  3 active torsions:
REMARK  status: ('A' for Active; 'I' for Inactive)
REMARK    1  A    between atoms: C3'_2  and  C2'_3 
REMARK    2  A    between atoms: C2'_3  and  C1'_4 
REMARK    3  A    between atoms: C1'_4  and  C1_5 
ROOT
ATOM      1  C1  N4B d   1      -1.919  -0.157   0.106  0.00  0.00    -0.075 A 
ATOM      2  C2  N4B d   1      -1.297   0.812   0.925  0.00  0.00     0.002 A 
ATOM      3  C3  N4B d   1      -0.003   1.196   0.672  0.00  0.00     0.002 A 
ATOM      4  C4  N4B d   1       0.692   0.615  -0.378  0.00  0.00    -0.004 A 
ATOM      5  C5  N4B d   1       0.076  -0.301  -1.180  0.00  0.00     0.002 A 
ATOM      6  C6  N4B d   1      -1.225  -0.694  -0.940  0.00  0.00     0.002 A 
ENDROOT
BRANCH   1   7
ATOM      7  C1' N4B d   1      -3.302  -0.672   0.396  0.00  0.00     0.057 C 
BRANCH   7   8
ATOM      8  C2' N4B d   1      -3.223  -2.158   0.731  0.00  0.00     0.009 C 
BRANCH   8   9
ATOM      9  C3' N4B d   1      -2.338  -2.423   1.937  0.00  0.00     0.004 C 
ATOM     10  C4' N4B d   1      -1.204  -3.355   1.632  0.00  0.00     0.003 C 
ENDBRANCH   8   9
ENDBRANCH   7   8
ENDBRANCH   1   7
TORSDOF 3
ENDMDL
