MODEL 1
REMARK minimizedAffinity -3.35957813
REMARK minimizedRMSD -1
REMARK  3 active torsions:
REMARK  status: ('A' for Active; 'I' for Inactive)
REMARK    1  A    between atoms: C3'_2  and  C2'_3 
REMARK    2  A    between atoms: C2'_3  and  C1'_4 
REMARK    3  A    between atoms: C1'_4  and  C1_5 
ROOT
ATOM      1  C1  N4B d   1      -0.143  -0.489   0.173  0.00  0.00    -0.075 A 
ATOM      2  C2  N4B d   1      -1.232  -0.413  -0.723  0.00  0.00     0.002 A 
ATOM      3  C3  N4B d   1      -2.278  -1.296  -0.609  0.00  0.00     0.002 A 
ATOM      4  C4  N4B d   1      -2.248  -2.270   0.378  0.00  0.00    -0.004 A 
ATOM      5  C5  N4B d   1      -1.205  -2.320   1.256  0.00  0.00     0.002 A 
ATOM      6  C6  N4B d   1      -0.149  -1.437   1.155  0.00  0.00     0.002 A 
ENDROOT
BRANCH   1   7
ATOM      7  C1' N4B d   1       1.064   0.399   0.034  0.00  0.00     0.057 C 
BRANCH   7   8
ATOM      8  C2' N4B d   1       1.154   1.315   1.251  0.00  0.00     0.009 C 
BRANCH   8   9
ATOM      9  C3' N4B d   1       2.007   2.542   0.976  0.00  0.00     0.004 C 
ATOM     10  C4' N4B d   1       2.179   3.412   2.185  0.00  0.00     0.003 C 
ENDBRANCH   8   9
ENDBRANCH   7   8
ENDBRANCH   1   7
TORSDOF 3
ENDMDL
