MODEL 1
REMARK minimizedAffinity -3.86629605
REMARK minimizedRMSD -1
REMARK  3 active torsions:
REMARK  status: ('A' for Active; 'I' for Inactive)
REMARK    1  A    between atoms: C3'_2  and  C2'_3 
REMARK    2  A    between atoms: C2'_3  and  C1'_4 
REMARK    3  A    between atoms: C1'_4  and  C1_5 
ROOT
ATOM      1  C1  N4B d   1      -0.588   0.085  -0.996  0.00  0.00    -0.075 A 
ATOM      2  C2  N4B d   1      -0.814   1.097  -0.037  0.00  0.00     0.002 A 
ATOM      3  C3  N4B d   1       0.201   1.486   0.802  0.00  0.00     0.002 A 
ATOM      4  C4  N4B d   1       1.439   0.867   0.714  0.00  0.00    -0.004 A 
ATOM      5  C5  N4B d   1       1.656  -0.092  -0.232  0.00  0.00     0.002 A 
ATOM      6  C6  N4B d   1       0.647  -0.490  -1.085  0.00  0.00     0.002 A 
ENDROOT
BRANCH   1   7
ATOM      7  C1' N4B d   1      -1.691  -0.434  -1.877  0.00  0.00     0.057 C 
BRANCH   7   8
ATOM      8  C2' N4B d   1      -1.869  -1.929  -1.629  0.00  0.00     0.009 C 
BRANCH   8   9
ATOM      9  C3' N4B d   1      -2.558  -2.207  -0.304  0.00  0.00     0.004 C 
ATOM     10  C4' N4B d   1      -2.005  -3.412   0.396  0.00  0.00     0.003 C 
ENDBRANCH   8   9
ENDBRANCH   7   8
ENDBRANCH   1   7
TORSDOF 3
ENDMDL
