MODEL 1
REMARK minimizedAffinity -2.42532492
REMARK minimizedRMSD -1
REMARK  3 active torsions:
REMARK  status: ('A' for Active; 'I' for Inactive)
REMARK    1  A    between atoms: C3'_2  and  C2'_3 
REMARK    2  A    between atoms: C2'_3  and  C1'_4 
REMARK    3  A    between atoms: C1'_4  and  C1_5 
ROOT
ATOM      1  C1  N4B d   1      -1.777  -0.941  -0.294  0.00  0.00    -0.075 A 
ATOM      2  C2  N4B d   1      -1.057   0.193  -0.729  0.00  0.00     0.002 A 
ATOM      3  C3  N4B d   1       0.173   0.475  -0.186  0.00  0.00     0.002 A 
ATOM      4  C4  N4B d   1       0.691  -0.349   0.802  0.00  0.00    -0.004 A 
ATOM      5  C5  N4B d   1       0.000  -1.456   1.198  0.00  0.00     0.002 A 
ATOM      6  C6  N4B d   1      -1.235  -1.754   0.658  0.00  0.00     0.002 A 
ENDROOT
BRANCH   1   7
ATOM      7  C1' N4B d   1      -3.163  -1.242  -0.797  0.00  0.00     0.057 C 
BRANCH   7   8
ATOM      8  C2' N4B d   1      -3.341  -2.754  -0.899  0.00  0.00     0.009 C 
BRANCH   8   9
ATOM      9  C3' N4B d   1      -3.055  -3.266  -2.301  0.00  0.00     0.004 C 
ATOM     10  C4' N4B d   1      -2.293  -4.558  -2.303  0.00  0.00     0.003 C 
ENDBRANCH   8   9
ENDBRANCH   7   8
ENDBRANCH   1   7
TORSDOF 3
ENDMDL
