MODEL 1
REMARK minimizedAffinity 3.49269652
REMARK minimizedRMSD -1
REMARK  1 active torsions:
REMARK  status: ('A' for Active; 'I' for Inactive)
REMARK    1  A    between atoms: C1_2  and  C2_3 
ROOT
ATOM      1  C2  UNL d   1      -2.167  -1.069   1.001  0.00  0.00    -0.073 A 
ATOM      2  C3  UNL d   1      -3.484  -0.717   0.684  0.00  0.00    -0.002 A 
ATOM      3  C4  UNL d   1      -3.775  -0.107  -0.537  0.00  0.00     0.004 A 
ATOM      4  C5  UNL d   1      -2.757   0.150  -1.454  0.00  0.00    -0.004 A 
ATOM      5  C6  UNL d   1      -1.437  -0.206  -1.160  0.00  0.00    -0.075 A 
ATOM      6  C7  UNL d   1      -0.329   0.065  -2.136  0.00  0.00     0.076 C 
ATOM      7  C8  UNL d   1      -1.151  -0.816   0.069  0.00  0.00     0.001 A 
ENDROOT
BRANCH   1   8
ATOM      8  C1  UNL d   1      -1.848  -1.734   2.316  0.00  0.00     0.053 C 
ATOM      9  C   UNL d   1      -1.936  -0.762   3.482  0.00  0.00     0.018 C 
ENDBRANCH   1   8
TORSDOF 1
ENDMDL
