MODEL 1
REMARK minimizedAffinity -3.26677847
REMARK minimizedRMSD -1
REMARK  1 active torsions:
REMARK  status: ('A' for Active; 'I' for Inactive)
REMARK    1  A    between atoms: C1_2  and  C2_3 
ROOT
ATOM      1  C2  UNL d   1      -4.370   5.229  -3.619  0.00  0.00    -0.073 A 
ATOM      2  C3  UNL d   1      -5.483   4.857  -4.382  0.00  0.00    -0.002 A 
ATOM      3  C4  UNL d   1      -5.317   4.141  -5.569  0.00  0.00     0.004 A 
ATOM      4  C5  UNL d   1      -4.040   3.784  -6.000  0.00  0.00    -0.004 A 
ATOM      5  C6  UNL d   1      -2.916   4.135  -5.245  0.00  0.00    -0.075 A 
ATOM      6  C7  UNL d   1      -1.535   3.760  -5.696  0.00  0.00     0.076 C 
ATOM      7  C8  UNL d   1      -3.091   4.857  -4.057  0.00  0.00     0.001 A 
ENDROOT
BRANCH   1   8
ATOM      8  C1  UNL d   1      -4.545   5.996  -2.335  0.00  0.00     0.053 C 
ATOM      9  C   UNL d   1      -5.991   5.999  -1.864  0.00  0.00     0.018 C 
ENDBRANCH   1   8
TORSDOF 1
ENDMDL
