MODEL 1
REMARK minimizedAffinity 8.27049065
REMARK minimizedRMSD -1
REMARK  1 active torsions:
REMARK  status: ('A' for Active; 'I' for Inactive)
REMARK    1  A    between atoms: C1_2  and  C2_3 
ROOT
ATOM      1  C2  UNL d   1       5.338   4.986   3.183  0.00  0.00    -0.073 A 
ATOM      2  C3  UNL d   1       5.977   5.997   3.909  0.00  0.00    -0.002 A 
ATOM      3  C4  UNL d   1       5.997   5.959   5.303  0.00  0.00     0.004 A 
ATOM      4  C5  UNL d   1       5.384   4.908   5.986  0.00  0.00    -0.004 A 
ATOM      5  C6  UNL d   1       4.751   3.882   5.278  0.00  0.00    -0.075 A 
ATOM      6  C7  UNL d   1       4.085   2.745   5.997  0.00  0.00     0.076 C 
ATOM      7  C8  UNL d   1       4.733   3.928   3.877  0.00  0.00     0.001 A 
ENDROOT
BRANCH   1   8
ATOM      8  C1  UNL d   1       5.319   5.019   1.676  0.00  0.00     0.053 C 
ATOM      9  C   UNL d   1       4.003   4.511   1.111  0.00  0.00     0.018 C 
ENDBRANCH   1   8
TORSDOF 1
ENDMDL
