MODEL 1
REMARK minimizedAffinity 10.2144823
REMARK minimizedRMSD -1
REMARK  1 active torsions:
REMARK  status: ('A' for Active; 'I' for Inactive)
REMARK    1  A    between atoms: C1_2  and  C2_3 
ROOT
ATOM      1  C2  UNL d   1       2.250   1.997  -2.343  0.00  0.00    -0.073 A 
ATOM      2  C3  UNL d   1       1.869   3.111  -1.587  0.00  0.00    -0.002 A 
ATOM      3  C4  UNL d   1       2.819   3.826  -0.857  0.00  0.00     0.004 A 
ATOM      4  C5  UNL d   1       4.159   3.440  -0.881  0.00  0.00    -0.004 A 
ATOM      5  C6  UNL d   1       4.562   2.336  -1.640  0.00  0.00    -0.075 A 
ATOM      6  C7  UNL d   1       5.999   1.906  -1.674  0.00  0.00     0.076 C 
ATOM      7  C8  UNL d   1       3.601   1.621  -2.368  0.00  0.00     0.001 A 
ENDROOT
BRANCH   1   8
ATOM      8  C1  UNL d   1       1.228   1.225  -3.138  0.00  0.00     0.053 C 
ATOM      9  C   UNL d   1       0.008   0.869  -2.304  0.00  0.00     0.018 C 
ENDBRANCH   1   8
TORSDOF 1
ENDMDL
