MODEL 1
REMARK minimizedAffinity 9.84578323
REMARK minimizedRMSD -1
REMARK  1 active torsions:
REMARK  status: ('A' for Active; 'I' for Inactive)
REMARK    1  A    between atoms: C1_2  and  C2_3 
ROOT
ATOM      1  C2  UNL d   1      -2.218  -2.390   1.746  0.00  0.00    -0.073 A 
ATOM      2  C3  UNL d   1      -1.287  -2.648   0.734  0.00  0.00    -0.002 A 
ATOM      3  C4  UNL d   1      -0.945  -1.652  -0.181  0.00  0.00     0.004 A 
ATOM      4  C5  UNL d   1      -1.525  -0.386  -0.090  0.00  0.00    -0.004 A 
ATOM      5  C6  UNL d   1      -2.449  -0.105   0.921  0.00  0.00    -0.075 A 
ATOM      6  C7  UNL d   1      -3.083   1.250   1.032  0.00  0.00     0.076 C 
ATOM      7  C8  UNL d   1      -2.789  -1.112   1.835  0.00  0.00     0.001 A 
ENDROOT
BRANCH   1   8
ATOM      8  C1  UNL d   1      -2.586  -3.461   2.740  0.00  0.00     0.053 C 
ATOM      9  C   UNL d   1      -2.433  -4.857   2.156  0.00  0.00     0.018 C 
ENDBRANCH   1   8
TORSDOF 1
ENDMDL
