MODEL 1
REMARK minimizedAffinity -0.643004894
REMARK minimizedRMSD -1
REMARK  1 active torsions:
REMARK  status: ('A' for Active; 'I' for Inactive)
REMARK    1  A    between atoms: C1_2  and  C2_3 
ROOT
ATOM      1  C2  UNL d   1      -3.489   4.537  -4.834  0.00  0.00    -0.073 A 
ATOM      2  C3  UNL d   1      -4.103   5.012  -5.999  0.00  0.00    -0.002 A 
ATOM      3  C4  UNL d   1      -5.329   5.676  -5.929  0.00  0.00     0.004 A 
ATOM      4  C5  UNL d   1      -5.948   5.878  -4.695  0.00  0.00    -0.004 A 
ATOM      5  C6  UNL d   1      -5.345   5.421  -3.519  0.00  0.00    -0.075 A 
ATOM      6  C7  UNL d   1      -5.999   5.628  -2.185  0.00  0.00     0.076 C 
ATOM      7  C8  UNL d   1      -4.115   4.753  -3.598  0.00  0.00     0.001 A 
ENDROOT
BRANCH   1   8
ATOM      8  C1  UNL d   1      -2.163   3.825  -4.904  0.00  0.00     0.053 C 
ATOM      9  C   UNL d   1      -2.139   2.771  -5.999  0.00  0.00     0.018 C 
ENDBRANCH   1   8
TORSDOF 1
ENDMDL
