MODEL 1
REMARK minimizedAffinity 5.2021637
REMARK minimizedRMSD -1
REMARK  1 active torsions:
REMARK  status: ('A' for Active; 'I' for Inactive)
REMARK    1  A    between atoms: C1_2  and  C2_3 
ROOT
ATOM      1  C2  UNL d   1      -1.689  -1.459   0.773  0.00  0.00    -0.073 A 
ATOM      2  C3  UNL d   1      -0.894  -1.772  -0.336  0.00  0.00    -0.002 A 
ATOM      3  C4  UNL d   1      -0.415  -0.760  -1.168  0.00  0.00     0.004 A 
ATOM      4  C5  UNL d   1      -0.719   0.574  -0.898  0.00  0.00    -0.004 A 
ATOM      5  C6  UNL d   1      -1.502   0.909   0.212  0.00  0.00    -0.075 A 
ATOM      6  C7  UNL d   1      -1.839   2.339   0.516  0.00  0.00     0.076 C 
ATOM      7  C8  UNL d   1      -1.982  -0.114   1.042  0.00  0.00     0.001 A 
ENDROOT
BRANCH   1   8
ATOM      8  C1  UNL d   1      -2.204  -2.548   1.678  0.00  0.00     0.053 C 
ATOM      9  C   UNL d   1      -1.563  -3.892   1.374  0.00  0.00     0.018 C 
ENDBRANCH   1   8
TORSDOF 1
ENDMDL
