MODEL 1
REMARK minimizedAffinity 22.558691
REMARK minimizedRMSD -1
REMARK  1 active torsions:
REMARK  status: ('A' for Active; 'I' for Inactive)
REMARK    1  A    between atoms: C1_2  and  C2_3 
ROOT
ATOM      1  C2  UNL d   1      -2.364   1.343   1.777  0.00  0.00    -0.073 A 
ATOM      2  C3  UNL d   1      -2.793   0.312   0.934  0.00  0.00    -0.002 A 
ATOM      3  C4  UNL d   1      -2.706  -1.018   1.346  0.00  0.00     0.004 A 
ATOM      4  C5  UNL d   1      -2.196  -1.330   2.606  0.00  0.00    -0.004 A 
ATOM      5  C6  UNL d   1      -1.773  -0.313   3.468  0.00  0.00    -0.075 A 
ATOM      6  C7  UNL d   1      -1.220  -0.633   4.826  0.00  0.00     0.076 C 
ATOM      7  C8  UNL d   1      -1.862   1.020   3.046  0.00  0.00     0.001 A 
ENDROOT
BRANCH   1   8
ATOM      8  C1  UNL d   1      -2.463   2.782   1.339  0.00  0.00     0.053 C 
ATOM      9  C   UNL d   1      -1.345   3.633   1.920  0.00  0.00     0.018 C 
ENDBRANCH   1   8
TORSDOF 1
ENDMDL
