MODEL 1
REMARK minimizedAffinity -0.119746804
REMARK minimizedRMSD -1
REMARK  1 active torsions:
REMARK  status: ('A' for Active; 'I' for Inactive)
REMARK    1  A    between atoms: C1_2  and  C2_3 
ROOT
ATOM      1  C2  UNL d   1      -2.843   4.280  -4.639  0.00  0.00    -0.073 A 
ATOM      2  C3  UNL d   1      -2.841   4.740  -3.317  0.00  0.00    -0.002 A 
ATOM      3  C4  UNL d   1      -3.846   5.599  -2.869  0.00  0.00     0.004 A 
ATOM      4  C5  UNL d   1      -4.865   5.999  -3.733  0.00  0.00    -0.004 A 
ATOM      5  C6  UNL d   1      -4.890   5.541  -5.054  0.00  0.00    -0.075 A 
ATOM      6  C7  UNL d   1      -5.978   5.964  -5.997  0.00  0.00     0.076 C 
ATOM      7  C8  UNL d   1      -3.876   4.681  -5.498  0.00  0.00     0.001 A 
ENDROOT
BRANCH   1   8
ATOM      8  C1  UNL d   1      -1.764   3.348  -5.126  0.00  0.00     0.053 C 
ATOM      9  C   UNL d   1      -1.124   2.571  -3.986  0.00  0.00     0.018 C 
ENDBRANCH   1   8
TORSDOF 1
ENDMDL
