MODEL 1
REMARK minimizedAffinity 3.45524049
REMARK minimizedRMSD -1
REMARK  1 active torsions:
REMARK  status: ('A' for Active; 'I' for Inactive)
REMARK    1  A    between atoms: C1_2  and  C2_3 
ROOT
ATOM      1  C2  UNL d   1      -2.407  -3.139   4.375  0.00  0.00    -0.073 A 
ATOM      2  C3  UNL d   1      -2.298  -4.510   4.117  0.00  0.00    -0.002 A 
ATOM      3  C4  UNL d   1      -1.715  -4.960   2.932  0.00  0.00     0.004 A 
ATOM      4  C5  UNL d   1      -1.229  -4.046   1.997  0.00  0.00    -0.004 A 
ATOM      5  C6  UNL d   1      -1.318  -2.672   2.243  0.00  0.00    -0.075 A 
ATOM      6  C7  UNL d   1      -0.803  -1.675   1.246  0.00  0.00     0.076 C 
ATOM      7  C8  UNL d   1      -1.908  -2.228   3.434  0.00  0.00     0.001 A 
ENDROOT
BRANCH   1   8
ATOM      8  C1  UNL d   1      -3.031  -2.649   5.656  0.00  0.00     0.053 C 
ATOM      9  C   UNL d   1      -4.302  -3.409   5.999  0.00  0.00     0.018 C 
ENDBRANCH   1   8
TORSDOF 1
ENDMDL
