MODEL 1
REMARK minimizedAffinity 0.372115254
REMARK minimizedRMSD -1
REMARK  1 active torsions:
REMARK  status: ('A' for Active; 'I' for Inactive)
REMARK    1  A    between atoms: C1_2  and  C2_3 
ROOT
ATOM      1  C2  UNL d   1      -0.229  -0.178   0.530  0.00  0.00    -0.073 A 
ATOM      2  C3  UNL d   1      -0.519   0.514  -0.652  0.00  0.00    -0.002 A 
ATOM      3  C4  UNL d   1      -1.042  -0.162  -1.755  0.00  0.00     0.004 A 
ATOM      4  C5  UNL d   1      -1.286  -1.533  -1.686  0.00  0.00    -0.004 A 
ATOM      5  C6  UNL d   1      -1.015  -2.241  -0.510  0.00  0.00    -0.075 A 
ATOM      6  C7  UNL d   1      -1.270  -3.716  -0.421  0.00  0.00     0.076 C 
ATOM      7  C8  UNL d   1      -0.487  -1.555   0.592  0.00  0.00     0.001 A 
ENDROOT
BRANCH   1   8
ATOM      8  C1  UNL d   1       0.329   0.549   1.725  0.00  0.00     0.053 C 
ATOM      9  C   UNL d   1       0.401  -0.344   2.954  0.00  0.00     0.018 C 
ENDBRANCH   1   8
TORSDOF 1
ENDMDL
