MODEL 1
REMARK minimizedAffinity 16.9877491
REMARK minimizedRMSD -1
REMARK  0 active torsions:
REMARK  status: ('A' for Active; 'I' for Inactive)
ROOT
ATOM      1  C   UNL d   1      -1.909  -0.198   3.917  0.00  0.00     0.124 A 
ATOM      2  C1  UNL d   1      -1.086   0.577   3.110  0.00  0.00     0.062 A 
ATOM      3  C2  UNL d   1      -1.225   0.537   1.726  0.00  0.00     0.162 A 
ATOM      4  C3  UNL d   1      -2.192  -0.279   1.138  0.00  0.00    -0.034 A 
ATOM      5  C4  UNL d   1      -3.015  -1.056   1.956  0.00  0.00     0.162 A 
ATOM      6  C5  UNL d   1      -2.872  -1.013   3.339  0.00  0.00     0.062 A 
ATOM      7  F   UNL d   1      -3.667  -1.762   4.116  0.00  0.00    -0.097 F 
ATOM      8  F1  UNL d   1      -3.954  -1.852   1.424  0.00  0.00    -0.096 F 
ATOM      9  I   UNL d   1      -2.403  -0.341  -0.931  0.00  0.00    -0.060 I 
ATOM     10  F2  UNL d   1      -0.417   1.296   0.971  0.00  0.00    -0.096 F 
ATOM     11  F3  UNL d   1      -0.154   1.364   3.666  0.00  0.00    -0.097 F 
ATOM     12  F4  UNL d   1      -1.772  -0.159   5.248  0.00  0.00    -0.092 F 
ENDROOT
TORSDOF 0
ENDMDL
