MODEL 1
REMARK minimizedAffinity 16.0784798
REMARK minimizedRMSD -1
REMARK  0 active torsions:
REMARK  status: ('A' for Active; 'I' for Inactive)
ROOT
ATOM      1  C   UNL d   1       2.085   0.662  -4.873  0.00  0.00     0.124 A 
ATOM      2  C1  UNL d   1       0.789   0.163  -4.850  0.00  0.00     0.062 A 
ATOM      3  C2  UNL d   1       0.272  -0.388  -3.682  0.00  0.00     0.162 A 
ATOM      4  C3  UNL d   1       1.050  -0.443  -2.525  0.00  0.00    -0.034 A 
ATOM      5  C4  UNL d   1       2.352   0.060  -2.556  0.00  0.00     0.162 A 
ATOM      6  C5  UNL d   1       2.864   0.609  -3.727  0.00  0.00     0.062 A 
ATOM      7  F   UNL d   1       4.116   1.091  -3.747  0.00  0.00    -0.097 F 
ATOM      8  F1  UNL d   1       3.127   0.023  -1.462  0.00  0.00    -0.096 F 
ATOM      9  I   UNL d   1       0.280  -1.266  -0.776  0.00  0.00    -0.060 I 
ATOM     10  F2  UNL d   1      -0.983  -0.862  -3.689  0.00  0.00    -0.096 F 
ATOM     11  F3  UNL d   1       0.034   0.212  -5.957  0.00  0.00    -0.097 F 
ATOM     12  F4  UNL d   1       2.580   1.190  -5.999  0.00  0.00    -0.092 F 
ENDROOT
TORSDOF 0
ENDMDL
