MODEL 1
REMARK minimizedAffinity 10.4574747
REMARK minimizedRMSD -1
REMARK  0 active torsions:
REMARK  status: ('A' for Active; 'I' for Inactive)
ROOT
ATOM      1  C   UNL d   1       2.707   0.426  -4.566  0.00  0.00     0.124 A 
ATOM      2  C1  UNL d   1       3.689   0.178  -3.617  0.00  0.00     0.062 A 
ATOM      3  C2  UNL d   1       3.334  -0.127  -2.306  0.00  0.00     0.162 A 
ATOM      4  C3  UNL d   1       1.990  -0.186  -1.937  0.00  0.00    -0.034 A 
ATOM      5  C4  UNL d   1       1.008   0.065  -2.897  0.00  0.00     0.162 A 
ATOM      6  C5  UNL d   1       1.368   0.369  -4.205  0.00  0.00     0.062 A 
ATOM      7  F   UNL d   1       0.418   0.608  -5.121  0.00  0.00    -0.097 F 
ATOM      8  F1  UNL d   1      -0.293   0.016  -2.575  0.00  0.00    -0.096 F 
ATOM      9  I   UNL d   1       1.456  -0.641   0.023  0.00  0.00    -0.060 I 
ATOM     10  F2  UNL d   1       4.304  -0.362  -1.410  0.00  0.00    -0.096 F 
ATOM     11  F3  UNL d   1       4.983   0.233  -3.963  0.00  0.00    -0.097 F 
ATOM     12  F4  UNL d   1       3.051   0.719  -5.827  0.00  0.00    -0.092 F 
ENDROOT
TORSDOF 0
ENDMDL
