MODEL 1
REMARK minimizedAffinity 8.27413368
REMARK minimizedRMSD -1
REMARK  0 active torsions:
REMARK  status: ('A' for Active; 'I' for Inactive)
ROOT
ATOM      1  C   UNL d   1       2.609   0.458  -4.176  0.00  0.00     0.124 A 
ATOM      2  C1  UNL d   1       3.429  -0.135  -3.226  0.00  0.00     0.062 A 
ATOM      3  C2  UNL d   1       2.900  -1.043  -2.313  0.00  0.00     0.162 A 
ATOM      4  C3  UNL d   1       1.543  -1.364  -2.346  0.00  0.00    -0.034 A 
ATOM      5  C4  UNL d   1       0.724  -0.762  -3.304  0.00  0.00     0.162 A 
ATOM      6  C5  UNL d   1       1.258   0.144  -4.214  0.00  0.00     0.062 A 
ATOM      7  F   UNL d   1       0.465   0.716  -5.132  0.00  0.00    -0.097 F 
ATOM      8  F1  UNL d   1      -0.585  -1.048  -3.364  0.00  0.00    -0.096 F 
ATOM      9  I   UNL d   1       0.747  -2.720  -0.983  0.00  0.00    -0.060 I 
ATOM     10  F2  UNL d   1       3.715  -1.601  -1.406  0.00  0.00    -0.096 F 
ATOM     11  F3  UNL d   1       4.735   0.167  -3.187  0.00  0.00    -0.097 F 
ATOM     12  F4  UNL d   1       3.121   1.331  -5.053  0.00  0.00    -0.092 F 
ENDROOT
TORSDOF 0
ENDMDL
