MODEL 1
REMARK minimizedAffinity 15.0556183
REMARK minimizedRMSD -1
REMARK  0 active torsions:
REMARK  status: ('A' for Active; 'I' for Inactive)
ROOT
ATOM      1  C   UNL d   1       0.558  -0.245  -4.257  0.00  0.00     0.124 A 
ATOM      2  C1  UNL d   1       1.474   0.685  -3.785  0.00  0.00     0.062 A 
ATOM      3  C2  UNL d   1       1.800   0.723  -2.433  0.00  0.00     0.162 A 
ATOM      4  C3  UNL d   1       1.210  -0.174  -1.542  0.00  0.00    -0.034 A 
ATOM      5  C4  UNL d   1       0.289  -1.106  -2.024  0.00  0.00     0.162 A 
ATOM      6  C5  UNL d   1      -0.033  -1.140  -3.377  0.00  0.00     0.062 A 
ATOM      7  F   UNL d   1      -0.918  -2.039  -3.831  0.00  0.00    -0.097 F 
ATOM      8  F1  UNL d   1      -0.296  -1.983  -1.195  0.00  0.00    -0.096 F 
ATOM      9  I   UNL d   1       1.694  -0.122   0.482  0.00  0.00    -0.060 I 
ATOM     10  F2  UNL d   1       2.688   1.632  -2.004  0.00  0.00    -0.096 F 
ATOM     11  F3  UNL d   1       2.046   1.551  -4.634  0.00  0.00    -0.097 F 
ATOM     12  F4  UNL d   1       0.246  -0.278  -5.559  0.00  0.00    -0.092 F 
ENDROOT
TORSDOF 0
ENDMDL
