MODEL 1
REMARK minimizedAffinity 12.2353344
REMARK minimizedRMSD -1
REMARK  0 active torsions:
REMARK  status: ('A' for Active; 'I' for Inactive)
ROOT
ATOM      1  C   UNL d   1       0.244  -0.713  -3.595  0.00  0.00     0.124 A 
ATOM      2  C1  UNL d   1       1.129   0.241  -3.111  0.00  0.00     0.062 A 
ATOM      3  C2  UNL d   1       1.635   0.134  -1.819  0.00  0.00     0.162 A 
ATOM      4  C3  UNL d   1       1.259  -0.932  -1.002  0.00  0.00    -0.034 A 
ATOM      5  C4  UNL d   1       0.368  -1.887  -1.495  0.00  0.00     0.162 A 
ATOM      6  C5  UNL d   1      -0.136  -1.775  -2.787  0.00  0.00     0.062 A 
ATOM      7  F   UNL d   1      -0.991  -2.697  -3.254  0.00  0.00    -0.097 F 
ATOM      8  F1  UNL d   1      -0.015  -2.924  -0.737  0.00  0.00    -0.096 F 
ATOM      9  I   UNL d   1       2.014  -1.096   0.931  0.00  0.00    -0.060 I 
ATOM     10  F2  UNL d   1       2.489   1.069  -1.377  0.00  0.00    -0.096 F 
ATOM     11  F3  UNL d   1       1.497   1.269  -3.889  0.00  0.00    -0.097 F 
ATOM     12  F4  UNL d   1      -0.243  -0.606  -4.838  0.00  0.00    -0.092 F 
ENDROOT
TORSDOF 0
ENDMDL
