MODEL 1
REMARK minimizedAffinity 7.27101707
REMARK minimizedRMSD -1
REMARK  0 active torsions:
REMARK  status: ('A' for Active; 'I' for Inactive)
ROOT
ATOM      1  C   UNL d   1       0.034   0.016  -4.131  0.00  0.00     0.124 A 
ATOM      2  C1  UNL d   1       1.039   0.901  -3.766  0.00  0.00     0.062 A 
ATOM      3  C2  UNL d   1       1.615   0.824  -2.501  0.00  0.00     0.162 A 
ATOM      4  C3  UNL d   1       1.187  -0.143  -1.592  0.00  0.00    -0.034 A 
ATOM      5  C4  UNL d   1       0.175  -1.029  -1.966  0.00  0.00     0.162 A 
ATOM      6  C5  UNL d   1      -0.397  -0.948  -3.231  0.00  0.00     0.062 A 
ATOM      7  F   UNL d   1      -1.368  -1.803  -3.582  0.00  0.00    -0.097 F 
ATOM      8  F1  UNL d   1      -0.260  -1.971  -1.116  0.00  0.00    -0.096 F 
ATOM      9  I   UNL d   1       2.045  -0.263   0.301  0.00  0.00    -0.060 I 
ATOM     10  F2  UNL d   1       2.584   1.692  -2.176  0.00  0.00    -0.096 F 
ATOM     11  F3  UNL d   1       1.457   1.834  -4.634  0.00  0.00    -0.097 F 
ATOM     12  F4  UNL d   1      -0.519   0.094  -5.349  0.00  0.00    -0.092 F 
ENDROOT
TORSDOF 0
ENDMDL
