MODEL 1
REMARK minimizedAffinity 14.8816795
REMARK minimizedRMSD -1
REMARK  0 active torsions:
REMARK  status: ('A' for Active; 'I' for Inactive)
ROOT
ATOM      1  C   UNL d   1       2.182   0.646  -4.668  0.00  0.00     0.124 A 
ATOM      2  C1  UNL d   1       0.870   0.192  -4.625  0.00  0.00     0.062 A 
ATOM      3  C2  UNL d   1       0.383  -0.434  -3.481  0.00  0.00     0.162 A 
ATOM      4  C3  UNL d   1       1.208  -0.610  -2.370  0.00  0.00    -0.034 A 
ATOM      5  C4  UNL d   1       2.526  -0.152  -2.421  0.00  0.00     0.162 A 
ATOM      6  C5  UNL d   1       3.008   0.473  -3.566  0.00  0.00     0.062 A 
ATOM      7  F   UNL d   1       4.275   0.910  -3.606  0.00  0.00    -0.097 F 
ATOM      8  F1  UNL d   1       3.345  -0.305  -1.371  0.00  0.00    -0.096 F 
ATOM      9  I   UNL d   1       0.483  -1.546  -0.658  0.00  0.00    -0.060 I 
ATOM     10  F2  UNL d   1      -0.888  -0.862  -3.468  0.00  0.00    -0.096 F 
ATOM     11  F3  UNL d   1       0.071   0.357  -5.688  0.00  0.00    -0.097 F 
ATOM     12  F4  UNL d   1       2.648   1.247  -5.770  0.00  0.00    -0.092 F 
ENDROOT
TORSDOF 0
ENDMDL
