MODEL 1
REMARK minimizedAffinity 20.4677048
REMARK minimizedRMSD -1
REMARK  0 active torsions:
REMARK  status: ('A' for Active; 'I' for Inactive)
ROOT
ATOM      1  C   UNL d   1      -1.535   0.895   2.274  0.00  0.00     0.124 A 
ATOM      2  C1  UNL d   1      -1.632  -0.246   1.490  0.00  0.00     0.062 A 
ATOM      3  C2  UNL d   1      -0.488  -0.810   0.931  0.00  0.00     0.162 A 
ATOM      4  C3  UNL d   1       0.762  -0.234   1.156  0.00  0.00    -0.034 A 
ATOM      5  C4  UNL d   1       0.851   0.914   1.945  0.00  0.00     0.162 A 
ATOM      6  C5  UNL d   1      -0.295   1.474   2.500  0.00  0.00     0.062 A 
ATOM      7  F   UNL d   1      -0.200   2.577   3.258  0.00  0.00    -0.097 F 
ATOM      8  F1  UNL d   1       2.037   1.493   2.181  0.00  0.00    -0.096 F 
ATOM      9  I   UNL d   1       2.474  -1.075   0.323  0.00  0.00    -0.060 I 
ATOM     10  F2  UNL d   1      -0.611  -1.913   0.178  0.00  0.00    -0.096 F 
ATOM     11  F3  UNL d   1      -2.829  -0.806   1.268  0.00  0.00    -0.097 F 
ATOM     12  F4  UNL d   1      -2.637   1.437   2.809  0.00  0.00    -0.092 F 
ENDROOT
TORSDOF 0
ENDMDL
