MODEL 1
REMARK minimizedAffinity 14.5588493
REMARK minimizedRMSD -1
REMARK  0 active torsions:
REMARK  status: ('A' for Active; 'I' for Inactive)
ROOT
ATOM      1  C   UNL d   1       0.510  -0.274  -4.410  0.00  0.00     0.124 A 
ATOM      2  C1  UNL d   1       0.074  -1.315  -3.601  0.00  0.00     0.062 A 
ATOM      3  C2  UNL d   1       0.562  -1.445  -2.304  0.00  0.00     0.162 A 
ATOM      4  C3  UNL d   1       1.491  -0.531  -1.807  0.00  0.00    -0.034 A 
ATOM      5  C4  UNL d   1       1.926   0.512  -2.627  0.00  0.00     0.162 A 
ATOM      6  C5  UNL d   1       1.435   0.637  -3.922  0.00  0.00     0.062 A 
ATOM      7  F   UNL d   1       1.858   1.643  -4.702  0.00  0.00    -0.097 F 
ATOM      8  F1  UNL d   1       2.819   1.408  -2.180  0.00  0.00    -0.096 F 
ATOM      9  I   UNL d   1       2.223  -0.722   0.132  0.00  0.00    -0.060 I 
ATOM     10  F2  UNL d   1       0.122  -2.460  -1.545  0.00  0.00    -0.096 F 
ATOM     11  F3  UNL d   1      -0.820  -2.197  -4.071  0.00  0.00    -0.097 F 
ATOM     12  F4  UNL d   1       0.040  -0.152  -5.658  0.00  0.00    -0.092 F 
ENDROOT
TORSDOF 0
ENDMDL
