MODEL 1
REMARK minimizedAffinity -0.827646434
REMARK minimizedRMSD -1
REMARK  0 active torsions:
REMARK  status: ('A' for Active; 'I' for Inactive)
ROOT
ATOM      1  C2' OXE d   1      -0.072   2.672  -0.818  0.00  0.00     0.078 C 
ATOM      2  C1' OXE d   1      -2.134   1.390  -2.228  0.00  0.00     0.078 C 
ATOM      3  C1  OXE d   1      -1.544   0.674  -1.038  0.00  0.00    -0.078 A 
ATOM      4  C2  OXE d   1      -0.504   1.288  -0.383  0.00  0.00    -0.078 A 
ATOM      5  C3  OXE d   1       0.040   0.696   0.753  0.00  0.00     0.003 A 
ATOM      6  C4  OXE d   1      -0.358  -0.589   1.143  0.00  0.00    -0.002 A 
ATOM      7  C5  OXE d   1      -1.389  -1.249   0.465  0.00  0.00    -0.002 A 
ATOM      8  C6  OXE d   1      -2.020  -0.615  -0.599  0.00  0.00     0.003 A 
ENDROOT
TORSDOF 0
ENDMDL
