MODEL 1
REMARK minimizedAffinity 4.12880898
REMARK minimizedRMSD -1
REMARK  0 active torsions:
REMARK  status: ('A' for Active; 'I' for Inactive)
ROOT
ATOM      1  C2' OXE d   1       4.206   1.825   1.416  0.00  0.00     0.078 C 
ATOM      2  C1' OXE d   1       2.235  -0.018   0.642  0.00  0.00     0.078 C 
ATOM      3  C1  OXE d   1       2.924   0.772  -0.442  0.00  0.00    -0.078 A 
ATOM      4  C2  OXE d   1       3.854   1.705  -0.051  0.00  0.00    -0.078 A 
ATOM      5  C3  OXE d   1       4.558   2.422  -1.014  0.00  0.00     0.003 A 
ATOM      6  C4  OXE d   1       4.219   2.313  -2.368  0.00  0.00    -0.002 A 
ATOM      7  C5  OXE d   1       3.247   1.397  -2.785  0.00  0.00    -0.002 A 
ATOM      8  C6  OXE d   1       2.621   0.591  -1.841  0.00  0.00     0.003 A 
ENDROOT
TORSDOF 0
ENDMDL
