MODEL 1
REMARK minimizedAffinity 10.6420298
REMARK minimizedRMSD -1
REMARK  0 active torsions:
REMARK  status: ('A' for Active; 'I' for Inactive)
ROOT
ATOM      1  C2' OXE d   1       1.763   0.328  -0.011  0.00  0.00     0.078 C 
ATOM      2  C1' OXE d   1       0.979  -1.517  -1.975  0.00  0.00     0.078 C 
ATOM      3  C1  OXE d   1       0.012  -1.230  -0.854  0.00  0.00    -0.078 A 
ATOM      4  C2  OXE d   1       0.422  -0.361   0.128  0.00  0.00    -0.078 A 
ATOM      5  C3  OXE d   1      -0.452  -0.019   1.155  0.00  0.00     0.003 A 
ATOM      6  C4  OXE d   1      -1.686  -0.668   1.281  0.00  0.00    -0.002 A 
ATOM      7  C5  OXE d   1      -2.108  -1.586   0.313  0.00  0.00    -0.002 A 
ATOM      8  C6  OXE d   1      -1.290  -1.846  -0.781  0.00  0.00     0.003 A 
ENDROOT
TORSDOF 0
ENDMDL
