MODEL 1
REMARK minimizedAffinity 6.31760263
REMARK minimizedRMSD -1
REMARK  0 active torsions:
REMARK  status: ('A' for Active; 'I' for Inactive)
ROOT
ATOM      1  C2' OXE d   1       2.214  -1.594   0.775  0.00  0.00     0.078 C 
ATOM      2  C1' OXE d   1       0.892   0.880   0.680  0.00  0.00     0.078 C 
ATOM      3  C1  OXE d   1       0.053  -0.369   0.593  0.00  0.00    -0.078 A 
ATOM      4  C2  OXE d   1       0.712  -1.575   0.593  0.00  0.00    -0.078 A 
ATOM      5  C3  OXE d   1      -0.019  -2.760   0.570  0.00  0.00     0.003 A 
ATOM      6  C4  OXE d   1      -1.407  -2.733   0.391  0.00  0.00    -0.002 A 
ATOM      7  C5  OXE d   1      -2.094  -1.516   0.349  0.00  0.00    -0.002 A 
ATOM      8  C6  OXE d   1      -1.385  -0.328   0.491  0.00  0.00     0.003 A 
ENDROOT
TORSDOF 0
ENDMDL
