MODEL 1
REMARK minimizedAffinity 13.4669676
REMARK minimizedRMSD -1
REMARK  0 active torsions:
REMARK  status: ('A' for Active; 'I' for Inactive)
ROOT
ATOM      1  C2' OXE d   1      -2.255  -1.342  -4.189  0.00  0.00     0.078 C 
ATOM      2  C1' OXE d   1      -4.670  -2.547  -4.962  0.00  0.00     0.078 C 
ATOM      3  C1  OXE d   1      -4.745  -1.276  -4.154  0.00  0.00    -0.078 A 
ATOM      4  C2  OXE d   1      -3.559  -0.718  -3.740  0.00  0.00    -0.078 A 
ATOM      5  C3  OXE d   1      -3.570   0.484  -3.038  0.00  0.00     0.003 A 
ATOM      6  C4  OXE d   1      -4.780   1.049  -2.619  0.00  0.00    -0.002 A 
ATOM      7  C5  OXE d   1      -6.000   0.475  -2.995  0.00  0.00    -0.002 A 
ATOM      8  C6  OXE d   1      -6.000  -0.661  -3.797  0.00  0.00     0.003 A 
ENDROOT
TORSDOF 0
ENDMDL
