MODEL 1
REMARK minimizedAffinity 11.1906185
REMARK minimizedRMSD -1
REMARK  0 active torsions:
REMARK  status: ('A' for Active; 'I' for Inactive)
ROOT
ATOM      1  C2' OXE d   1      -3.534  -0.008   0.377  0.00  0.00     0.078 C 
ATOM      2  C1' OXE d   1      -1.452   1.323   1.710  0.00  0.00     0.078 C 
ATOM      3  C1  OXE d   1      -1.288  -0.153   1.445  0.00  0.00    -0.078 A 
ATOM      4  C2  OXE d   1      -2.332  -0.806   0.834  0.00  0.00    -0.078 A 
ATOM      5  C3  OXE d   1      -2.210  -2.156   0.517  0.00  0.00     0.003 A 
ATOM      6  C4  OXE d   1      -1.099  -2.888   0.952  0.00  0.00    -0.002 A 
ATOM      7  C5  OXE d   1      -0.042  -2.251   1.612  0.00  0.00    -0.002 A 
ATOM      8  C6  OXE d   1      -0.102  -0.879   1.827  0.00  0.00     0.003 A 
ENDROOT
TORSDOF 0
ENDMDL
