MODEL 1
REMARK minimizedAffinity 13.4682684
REMARK minimizedRMSD -1
REMARK  0 active torsions:
REMARK  status: ('A' for Active; 'I' for Inactive)
ROOT
ATOM      1  C2' OXE d   1       2.455  -0.434  -4.139  0.00  0.00     0.078 C 
ATOM      2  C1' OXE d   1       2.123   2.183  -5.099  0.00  0.00     0.078 C 
ATOM      3  C1  OXE d   1       3.137   1.958  -4.004  0.00  0.00    -0.078 A 
ATOM      4  C2  OXE d   1       3.259   0.683  -3.508  0.00  0.00    -0.078 A 
ATOM      5  C3  OXE d   1       4.217   0.410  -2.536  0.00  0.00     0.003 A 
ATOM      6  C4  OXE d   1       4.949   1.450  -1.951  0.00  0.00    -0.002 A 
ATOM      7  C5  OXE d   1       4.812   2.763  -2.414  0.00  0.00    -0.002 A 
ATOM      8  C6  OXE d   1       3.942   3.027  -3.467  0.00  0.00     0.003 A 
ENDROOT
TORSDOF 0
ENDMDL
