MODEL 1
REMARK minimizedAffinity -1.91639614
REMARK minimizedRMSD -1
REMARK  0 active torsions:
REMARK  status: ('A' for Active; 'I' for Inactive)
ROOT
ATOM      1  C2' OXE d   1       3.929   1.361  -0.443  0.00  0.00     0.078 C 
ATOM      2  C1' OXE d   1       3.306  -1.228   0.447  0.00  0.00     0.078 C 
ATOM      3  C1  OXE d   1       2.174  -0.240   0.307  0.00  0.00    -0.078 A 
ATOM      4  C2  OXE d   1       2.495   1.037  -0.084  0.00  0.00    -0.078 A 
ATOM      5  C3  OXE d   1       1.483   1.972  -0.281  0.00  0.00     0.003 A 
ATOM      6  C4  OXE d   1       0.160   1.668   0.062  0.00  0.00    -0.002 A 
ATOM      7  C5  OXE d   1      -0.182   0.385   0.500  0.00  0.00    -0.002 A 
ATOM      8  C6  OXE d   1       0.804  -0.591   0.587  0.00  0.00     0.003 A 
ENDROOT
TORSDOF 0
ENDMDL
