MODEL 1
REMARK minimizedAffinity 3.41298795
REMARK minimizedRMSD -1
REMARK  0 active torsions:
REMARK  status: ('A' for Active; 'I' for Inactive)
ROOT
ATOM      1  C2' OXE d   1      -3.306   0.977   3.177  0.00  0.00     0.078 C 
ATOM      2  C1' OXE d   1      -3.187   0.793   0.379  0.00  0.00     0.078 C 
ATOM      3  C1  OXE d   1      -2.075   0.155   1.174  0.00  0.00    -0.078 A 
ATOM      4  C2  OXE d   1      -2.117   0.290   2.541  0.00  0.00    -0.078 A 
ATOM      5  C3  OXE d   1      -1.145  -0.325   3.324  0.00  0.00     0.003 A 
ATOM      6  C4  OXE d   1      -0.043  -0.950   2.727  0.00  0.00    -0.002 A 
ATOM      7  C5  OXE d   1       0.039  -1.064   1.335  0.00  0.00    -0.002 A 
ATOM      8  C6  OXE d   1      -0.987  -0.555   0.547  0.00  0.00     0.003 A 
ENDROOT
TORSDOF 0
ENDMDL
