MODEL 1
REMARK minimizedAffinity 2.74314117
REMARK minimizedRMSD -1
REMARK  0 active torsions:
REMARK  status: ('A' for Active; 'I' for Inactive)
ROOT
ATOM      1  C2' OXE d   1      -4.787   0.618  -3.840  0.00  0.00     0.078 C 
ATOM      2  C1' OXE d   1      -2.354  -0.673  -4.382  0.00  0.00     0.078 C 
ATOM      3  C1  OXE d   1      -3.618  -1.494  -4.452  0.00  0.00    -0.078 A 
ATOM      4  C2  OXE d   1      -4.799  -0.865  -4.139  0.00  0.00    -0.078 A 
ATOM      5  C3  OXE d   1      -5.999  -1.563  -4.241  0.00  0.00     0.003 A 
ATOM      6  C4  OXE d   1      -6.000  -2.937  -4.509  0.00  0.00    -0.002 A 
ATOM      7  C5  OXE d   1      -4.804  -3.606  -4.791  0.00  0.00    -0.002 A 
ATOM      8  C6  OXE d   1      -3.611  -2.892  -4.808  0.00  0.00     0.003 A 
ENDROOT
TORSDOF 0
ENDMDL
