MODEL 1
REMARK minimizedAffinity 13.946188
REMARK minimizedRMSD -1
REMARK  0 active torsions:
REMARK  status: ('A' for Active; 'I' for Inactive)
ROOT
ATOM      1  C2' OXE d   1      -2.542  -2.513  -0.739  0.00  0.00     0.078 C 
ATOM      2  C1' OXE d   1      -4.169  -0.874   0.856  0.00  0.00     0.078 C 
ATOM      3  C1  OXE d   1      -2.706  -0.972   1.211  0.00  0.00    -0.078 A 
ATOM      4  C2  OXE d   1      -1.927  -1.813   0.454  0.00  0.00    -0.078 A 
ATOM      5  C3  OXE d   1      -0.561  -1.899   0.704  0.00  0.00     0.003 A 
ATOM      6  C4  OXE d   1      -0.002  -1.257   1.816  0.00  0.00    -0.002 A 
ATOM      7  C5  OXE d   1      -0.786  -0.427   2.624  0.00  0.00    -0.002 A 
ATOM      8  C6  OXE d   1      -2.128  -0.241   2.311  0.00  0.00     0.003 A 
ENDROOT
TORSDOF 0
ENDMDL
