MODEL 1
REMARK minimizedAffinity 22.2617779
REMARK minimizedRMSD -1
REMARK  0 active torsions:
REMARK  status: ('A' for Active; 'I' for Inactive)
ROOT
ATOM      1  C2' OXE d   1       1.624  -0.323   0.008  0.00  0.00     0.078 C 
ATOM      2  C1' OXE d   1       4.048  -1.501   0.794  0.00  0.00     0.078 C 
ATOM      3  C1  OXE d   1       2.855  -1.676   1.700  0.00  0.00    -0.078 A 
ATOM      4  C2  OXE d   1       1.685  -1.057   1.330  0.00  0.00    -0.078 A 
ATOM      5  C3  OXE d   1       0.539  -1.232   2.101  0.00  0.00     0.003 A 
ATOM      6  C4  OXE d   1       0.606  -1.903   3.328  0.00  0.00    -0.002 A 
ATOM      7  C5  OXE d   1       1.798  -2.508   3.742  0.00  0.00    -0.002 A 
ATOM      8  C6  OXE d   1       2.918  -2.440   2.921  0.00  0.00     0.003 A 
ENDROOT
TORSDOF 0
ENDMDL
