MODEL 1
REMARK minimizedAffinity 11.246419
REMARK minimizedRMSD -1
REMARK  0 active torsions:
REMARK  status: ('A' for Active; 'I' for Inactive)
ROOT
ATOM      1  C2' OXE d   1      -3.305   0.681  -0.159  0.00  0.00     0.078 C 
ATOM      2  C1' OXE d   1      -2.699  -1.656  -1.591  0.00  0.00     0.078 C 
ATOM      3  C1  OXE d   1      -1.862  -1.338  -0.377  0.00  0.00    -0.078 A 
ATOM      4  C2  OXE d   1      -2.136  -0.168   0.290  0.00  0.00    -0.078 A 
ATOM      5  C3  OXE d   1      -1.430   0.146   1.448  0.00  0.00     0.003 A 
ATOM      6  C4  OXE d   1      -0.343  -0.639   1.851  0.00  0.00    -0.002 A 
ATOM      7  C5  OXE d   1      -0.023  -1.814   1.163  0.00  0.00    -0.002 A 
ATOM      8  C6  OXE d   1      -0.797  -2.199   0.074  0.00  0.00     0.003 A 
ENDROOT
TORSDOF 0
ENDMDL
