MODEL 1
REMARK minimizedAffinity 10.8537827
REMARK minimizedRMSD -1
REMARK  0 active torsions:
REMARK  status: ('A' for Active; 'I' for Inactive)
ROOT
ATOM      1  C2' OXE d   1       3.567  -4.180  -0.225  0.00  0.00     0.078 C 
ATOM      2  C1' OXE d   1       5.758  -2.446   0.041  0.00  0.00     0.078 C 
ATOM      3  C1  OXE d   1       4.376  -1.857   0.170  0.00  0.00    -0.078 A 
ATOM      4  C2  OXE d   1       3.309  -2.705  -0.008  0.00  0.00    -0.078 A 
ATOM      5  C3  OXE d   1       2.012  -2.225   0.154  0.00  0.00     0.003 A 
ATOM      6  C4  OXE d   1       1.782  -0.857   0.344  0.00  0.00    -0.002 A 
ATOM      7  C5  OXE d   1       2.854   0.030   0.488  0.00  0.00    -0.002 A 
ATOM      8  C6  OXE d   1       4.154  -0.459   0.446  0.00  0.00     0.003 A 
ENDROOT
TORSDOF 0
ENDMDL
