MODEL 1
REMARK minimizedAffinity 6.74858093
REMARK minimizedRMSD -1
REMARK  0 active torsions:
REMARK  status: ('A' for Active; 'I' for Inactive)
ROOT
ATOM      1  C2' OXE d   1      -2.721   0.198   0.049  0.00  0.00     0.078 C 
ATOM      2  C1' OXE d   1      -3.471   0.442   2.744  0.00  0.00     0.078 C 
ATOM      3  C1  OXE d   1      -2.118  -0.152   2.441  0.00  0.00    -0.078 A 
ATOM      4  C2  OXE d   1      -1.779  -0.311   1.119  0.00  0.00    -0.078 A 
ATOM      5  C3  OXE d   1      -0.520  -0.803   0.784  0.00  0.00     0.003 A 
ATOM      6  C4  OXE d   1       0.342  -1.280   1.779  0.00  0.00    -0.002 A 
ATOM      7  C5  OXE d   1      -0.001  -1.165   3.130  0.00  0.00    -0.002 A 
ATOM      8  C6  OXE d   1      -1.206  -0.565   3.479  0.00  0.00     0.003 A 
ENDROOT
TORSDOF 0
ENDMDL
