MODEL 1
REMARK minimizedAffinity 2.0363121
REMARK minimizedRMSD -1
REMARK  0 active torsions:
REMARK  status: ('A' for Active; 'I' for Inactive)
ROOT
ATOM      1  C2' OXE d   1       0.457  -2.261   0.848  0.00  0.00     0.078 C 
ATOM      2  C1' OXE d   1      -2.110  -2.741  -0.180  0.00  0.00     0.078 C 
ATOM      3  C1  OXE d   1      -1.858  -1.414   0.492  0.00  0.00    -0.078 A 
ATOM      4  C2  OXE d   1      -0.612  -1.207   1.033  0.00  0.00    -0.078 A 
ATOM      5  C3  OXE d   1      -0.310   0.021   1.616  0.00  0.00     0.003 A 
ATOM      6  C4  OXE d   1      -1.308   0.987   1.792  0.00  0.00    -0.002 A 
ATOM      7  C5  OXE d   1      -2.594   0.780   1.283  0.00  0.00    -0.002 A 
ATOM      8  C6  OXE d   1      -2.874  -0.395   0.594  0.00  0.00     0.003 A 
ENDROOT
TORSDOF 0
ENDMDL
