MODEL 1
REMARK minimizedAffinity 0.355606139
REMARK minimizedRMSD -1
REMARK  0 active torsions:
REMARK  status: ('A' for Active; 'I' for Inactive)
ROOT
ATOM      1  C2' OXE d   1       3.983   0.936   1.088  0.00  0.00     0.078 C 
ATOM      2  C1' OXE d   1       5.234   2.443  -0.922  0.00  0.00     0.078 C 
ATOM      3  C1  OXE d   1       4.957   3.121   0.397  0.00  0.00    -0.078 A 
ATOM      4  C2  OXE d   1       4.303   2.390   1.359  0.00  0.00    -0.078 A 
ATOM      5  C3  OXE d   1       4.071   2.950   2.612  0.00  0.00     0.003 A 
ATOM      6  C4  OXE d   1       4.361   4.298   2.850  0.00  0.00    -0.002 A 
ATOM      7  C5  OXE d   1       4.992   5.073   1.871  0.00  0.00    -0.002 A 
ATOM      8  C6  OXE d   1       5.335   4.489   0.657  0.00  0.00     0.003 A 
ENDROOT
TORSDOF 0
ENDMDL
