MODEL 1
REMARK minimizedAffinity 6.19308805
REMARK minimizedRMSD -1
REMARK  0 active torsions:
REMARK  status: ('A' for Active; 'I' for Inactive)
ROOT
ATOM      1  C2' OXE d   1      -3.384   0.726   0.120  0.00  0.00     0.078 C 
ATOM      2  C1' OXE d   1      -1.202   1.898   1.440  0.00  0.00     0.078 C 
ATOM      3  C1  OXE d   1      -1.176   0.405   1.228  0.00  0.00    -0.078 A 
ATOM      4  C2  OXE d   1      -2.270  -0.166   0.622  0.00  0.00    -0.078 A 
ATOM      5  C3  OXE d   1      -2.274  -1.531   0.353  0.00  0.00     0.003 A 
ATOM      6  C4  OXE d   1      -1.244  -2.351   0.830  0.00  0.00    -0.002 A 
ATOM      7  C5  OXE d   1      -0.139  -1.795   1.485  0.00  0.00    -0.002 A 
ATOM      8  C6  OXE d   1      -0.070  -0.416   1.653  0.00  0.00     0.003 A 
ENDROOT
TORSDOF 0
ENDMDL
