MODEL 1
REMARK minimizedAffinity 8.67230701
REMARK minimizedRMSD -1
REMARK  0 active torsions:
REMARK  status: ('A' for Active; 'I' for Inactive)
ROOT
ATOM      1  C2' OXE d   1       1.338  -2.690  -0.046  0.00  0.00     0.078 C 
ATOM      2  C1' OXE d   1       1.683  -0.319   1.417  0.00  0.00     0.078 C 
ATOM      3  C1  OXE d   1       0.278  -0.710   1.032  0.00  0.00    -0.078 A 
ATOM      4  C2  OXE d   1       0.123  -1.847   0.276  0.00  0.00    -0.078 A 
ATOM      5  C3  OXE d   1      -1.156  -2.282  -0.059  0.00  0.00     0.003 A 
ATOM      6  C4  OXE d   1      -2.274  -1.492   0.235  0.00  0.00    -0.002 A 
ATOM      7  C5  OXE d   1      -2.134  -0.310   0.970  0.00  0.00    -0.002 A 
ATOM      8  C6  OXE d   1      -0.872   0.073   1.412  0.00  0.00     0.003 A 
ENDROOT
TORSDOF 0
ENDMDL
