MODEL 1
REMARK minimizedAffinity -4.47800732
REMARK minimizedRMSD -1
REMARK  0 active torsions:
REMARK  status: ('A' for Active; 'I' for Inactive)
ROOT
ATOM      1  C1  BNZ d   1      -1.106   1.739  -0.373  0.00  0.00     0.000 A 
ATOM      2  C2  BNZ d   1      -1.216   2.849   0.421  0.00  0.00     0.000 A 
ATOM      3  C3  BNZ d   1      -0.726   2.848   1.697  0.00  0.00     0.000 A 
ATOM      4  C4  BNZ d   1      -0.164   1.727   2.191  0.00  0.00     0.000 A 
ATOM      5  C5  BNZ d   1      -0.053   0.596   1.406  0.00  0.00     0.000 A 
ATOM      6  C6  BNZ d   1      -0.512   0.613   0.109  0.00  0.00     0.000 A 
ENDROOT
TORSDOF 0
ENDMDL
