MODEL 1
REMARK minimizedAffinity -2.27595353
REMARK minimizedRMSD -1
REMARK  0 active torsions:
REMARK  status: ('A' for Active; 'I' for Inactive)
ROOT
ATOM      1  C1  BNZ d   1      -0.014   1.236  -1.859  0.00  0.00     0.000 A 
ATOM      2  C2  BNZ d   1      -0.733   2.382  -1.646  0.00  0.00     0.000 A 
ATOM      3  C3  BNZ d   1      -1.525   2.516  -0.540  0.00  0.00     0.000 A 
ATOM      4  C4  BNZ d   1      -1.627   1.491   0.331  0.00  0.00     0.000 A 
ATOM      5  C5  BNZ d   1      -0.915   0.326   0.125  0.00  0.00     0.000 A 
ATOM      6  C6  BNZ d   1      -0.089   0.209  -0.969  0.00  0.00     0.000 A 
ENDROOT
TORSDOF 0
ENDMDL
