MODEL 1
REMARK minimizedAffinity -2.22404218
REMARK minimizedRMSD -1
REMARK  0 active torsions:
REMARK  status: ('A' for Active; 'I' for Inactive)
ROOT
ATOM      1  C1  BNZ d   1       0.658  -0.414  -0.409  0.00  0.00     0.000 A 
ATOM      2  C2  BNZ d   1       0.987  -0.725   0.883  0.00  0.00     0.000 A 
ATOM      3  C3  BNZ d   1       0.625   0.096   1.914  0.00  0.00     0.000 A 
ATOM      4  C4  BNZ d   1      -0.030   1.245   1.649  0.00  0.00     0.000 A 
ATOM      5  C5  BNZ d   1      -0.360   1.577   0.350  0.00  0.00     0.000 A 
ATOM      6  C6  BNZ d   1      -0.028   0.730  -0.682  0.00  0.00     0.000 A 
ENDROOT
TORSDOF 0
ENDMDL
