MODEL 1
REMARK minimizedAffinity -3.46991634
REMARK minimizedRMSD -1
REMARK  0 active torsions:
REMARK  status: ('A' for Active; 'I' for Inactive)
ROOT
ATOM      1  C1  BNZ d   1      -0.397   0.639  -0.765  0.00  0.00     0.000 A 
ATOM      2  C2  BNZ d   1      -0.376   0.876   0.584  0.00  0.00     0.000 A 
ATOM      3  C3  BNZ d   1       0.431   0.146   1.410  0.00  0.00     0.000 A 
ATOM      4  C4  BNZ d   1       1.186  -0.846   0.894  0.00  0.00     0.000 A 
ATOM      5  C5  BNZ d   1       1.169  -1.103  -0.463  0.00  0.00     0.000 A 
ATOM      6  C6  BNZ d   1       0.384  -0.340  -1.297  0.00  0.00     0.000 A 
ENDROOT
TORSDOF 0
ENDMDL
