MODEL 1
REMARK minimizedAffinity -3.0079217
REMARK minimizedRMSD -1
REMARK  0 active torsions:
REMARK  status: ('A' for Active; 'I' for Inactive)
ROOT
ATOM      1  C1  BNZ d   1       0.022   1.180  -0.338  0.00  0.00     0.000 A 
ATOM      2  C2  BNZ d   1       0.135   1.732   0.911  0.00  0.00     0.000 A 
ATOM      3  C3  BNZ d   1       0.079   3.086   1.085  0.00  0.00     0.000 A 
ATOM      4  C4  BNZ d   1      -0.049   3.889   0.009  0.00  0.00     0.000 A 
ATOM      5  C5  BNZ d   1      -0.155   3.348  -1.257  0.00  0.00     0.000 A 
ATOM      6  C6  BNZ d   1      -0.138   1.983  -1.425  0.00  0.00     0.000 A 
ENDROOT
TORSDOF 0
ENDMDL
