MODEL 1
REMARK minimizedAffinity -1.72848034
REMARK minimizedRMSD -1
REMARK  0 active torsions:
REMARK  status: ('A' for Active; 'I' for Inactive)
ROOT
ATOM      1  C1  BNZ d   1      -0.018   2.386   1.466  0.00  0.00     0.000 A 
ATOM      2  C2  BNZ d   1       0.051   1.115   1.969  0.00  0.00     0.000 A 
ATOM      3  C3  BNZ d   1       0.000   0.030   1.140  0.00  0.00     0.000 A 
ATOM      4  C4  BNZ d   1      -0.161   0.216  -0.186  0.00  0.00     0.000 A 
ATOM      5  C5  BNZ d   1      -0.242   1.491  -0.708  0.00  0.00     0.000 A 
ATOM      6  C6  BNZ d   1      -0.151   2.582   0.126  0.00  0.00     0.000 A 
ENDROOT
TORSDOF 0
ENDMDL
