MODEL 1
REMARK minimizedAffinity -3.91869688
REMARK minimizedRMSD -1
REMARK  0 active torsions:
REMARK  status: ('A' for Active; 'I' for Inactive)
ROOT
ATOM      1  C1  BNZ d   1       0.584  -0.098   1.040  0.00  0.00     0.000 A 
ATOM      2  C2  BNZ d   1      -0.187   0.971   1.411  0.00  0.00     0.000 A 
ATOM      3  C3  BNZ d   1      -0.912   1.667   0.484  0.00  0.00     0.000 A 
ATOM      4  C4  BNZ d   1      -0.833   1.318  -0.816  0.00  0.00     0.000 A 
ATOM      5  C5  BNZ d   1      -0.053   0.248  -1.207  0.00  0.00     0.000 A 
ATOM      6  C6  BNZ d   1       0.645  -0.474  -0.267  0.00  0.00     0.000 A 
ENDROOT
TORSDOF 0
ENDMDL
