MODEL 1
REMARK minimizedAffinity -4.38544321
REMARK minimizedRMSD -1
REMARK  0 active torsions:
REMARK  status: ('A' for Active; 'I' for Inactive)
ROOT
ATOM      1  C1  BNZ d   1      -0.864   1.058   1.145  0.00  0.00     0.000 A 
ATOM      2  C2  BNZ d   1      -1.023   2.228   1.840  0.00  0.00     0.000 A 
ATOM      3  C3  BNZ d   1      -1.108   3.425   1.185  0.00  0.00     0.000 A 
ATOM      4  C4  BNZ d   1      -0.994   3.455  -0.159  0.00  0.00     0.000 A 
ATOM      5  C5  BNZ d   1      -0.824   2.285  -0.872  0.00  0.00     0.000 A 
ATOM      6  C6  BNZ d   1      -0.779   1.078  -0.213  0.00  0.00     0.000 A 
ENDROOT
TORSDOF 0
ENDMDL
