MODEL 1
REMARK minimizedAffinity -5.46909714
REMARK minimizedRMSD -1
REMARK  0 active torsions:
REMARK  status: ('A' for Active; 'I' for Inactive)
ROOT
ATOM      1  C1  BNZ d   1      -1.251   2.928   0.246  0.00  0.00     0.000 A 
ATOM      2  C2  BNZ d   1      -0.869   2.969   1.561  0.00  0.00     0.000 A 
ATOM      3  C3  BNZ d   1      -0.231   1.907   2.138  0.00  0.00     0.000 A 
ATOM      4  C4  BNZ d   1      -0.011   0.792   1.413  0.00  0.00     0.000 A 
ATOM      5  C5  BNZ d   1      -0.398   0.731   0.089  0.00  0.00     0.000 A 
ATOM      6  C6  BNZ d   1      -1.005   1.816  -0.500  0.00  0.00     0.000 A 
ENDROOT
TORSDOF 0
ENDMDL
