MODEL 1
REMARK minimizedAffinity -4.95687675
REMARK minimizedRMSD -1
REMARK  0 active torsions:
REMARK  status: ('A' for Active; 'I' for Inactive)
ROOT
ATOM      1  C1  BNZ d   1       0.069   0.262   0.314  0.00  0.00     0.000 A 
ATOM      2  C2  BNZ d   1      -0.016   0.631   1.630  0.00  0.00     0.000 A 
ATOM      3  C3  BNZ d   1      -0.651   1.785   1.993  0.00  0.00     0.000 A 
ATOM      4  C4  BNZ d   1      -1.165   2.588   1.039  0.00  0.00     0.000 A 
ATOM      5  C5  BNZ d   1      -1.079   2.235  -0.293  0.00  0.00     0.000 A 
ATOM      6  C6  BNZ d   1      -0.473   1.053  -0.652  0.00  0.00     0.000 A 
ENDROOT
TORSDOF 0
ENDMDL
