MODEL 1
REMARK minimizedAffinity -0.719472885
REMARK minimizedRMSD -1
REMARK  0 active torsions:
REMARK  status: ('A' for Active; 'I' for Inactive)
ROOT
ATOM      1  C1  BNZ d   1      -0.085  -4.855  -2.108  0.00  0.00     0.000 A 
ATOM      2  C2  BNZ d   1      -0.758  -4.668  -3.286  0.00  0.00     0.000 A 
ATOM      3  C3  BNZ d   1      -1.747  -3.730  -3.386  0.00  0.00     0.000 A 
ATOM      4  C4  BNZ d   1      -2.088  -3.007  -2.300  0.00  0.00     0.000 A 
ATOM      5  C5  BNZ d   1      -1.425  -3.190  -1.103  0.00  0.00     0.000 A 
ATOM      6  C6  BNZ d   1      -0.404  -4.109  -1.016  0.00  0.00     0.000 A 
ENDROOT
TORSDOF 0
ENDMDL
