MODEL 1
REMARK minimizedAffinity -5.00301743
REMARK minimizedRMSD -1
REMARK  0 active torsions:
REMARK  status: ('A' for Active; 'I' for Inactive)
ROOT
ATOM      1  C1  BNZ d   1      -0.135  -0.370   0.621  0.00  0.00     0.000 A 
ATOM      2  C2  BNZ d   1      -0.387  -1.304   1.590  0.00  0.00     0.000 A 
ATOM      3  C3  BNZ d   1      -1.531  -2.052   1.560  0.00  0.00     0.000 A 
ATOM      4  C4  BNZ d   1      -2.438  -1.838   0.585  0.00  0.00     0.000 A 
ATOM      5  C5  BNZ d   1      -2.202  -0.893  -0.393  0.00  0.00     0.000 A 
ATOM      6  C6  BNZ d   1      -1.032  -0.169  -0.382  0.00  0.00     0.000 A 
ENDROOT
TORSDOF 0
ENDMDL
