MODEL 1
REMARK minimizedAffinity -4.19984722
REMARK minimizedRMSD -1
REMARK  0 active torsions:
REMARK  status: ('A' for Active; 'I' for Inactive)
ROOT
ATOM      1  C1  BNZ d   1       0.685   0.783   2.642  0.00  0.00     0.000 A 
ATOM      2  C2  BNZ d   1       1.343   1.984   2.622  0.00  0.00     0.000 A 
ATOM      3  C3  BNZ d   1       1.901   2.457   1.467  0.00  0.00     0.000 A 
ATOM      4  C4  BNZ d   1       1.834   1.711   0.345  0.00  0.00     0.000 A 
ATOM      5  C5  BNZ d   1       1.182   0.495   0.352  0.00  0.00     0.000 A 
ATOM      6  C6  BNZ d   1       0.589   0.040   1.507  0.00  0.00     0.000 A 
ENDROOT
TORSDOF 0
ENDMDL
