MODEL 1
REMARK minimizedAffinity 1.36005867
REMARK minimizedRMSD -1
REMARK  0 active torsions:
REMARK  status: ('A' for Active; 'I' for Inactive)
ROOT
ATOM      1  C1  BNZ d   1      -0.965  -0.685  -1.130  0.00  0.00     0.000 A 
ATOM      2  C2  BNZ d   1      -1.287  -1.177   0.107  0.00  0.00     0.000 A 
ATOM      3  C3  BNZ d   1      -0.371  -1.174   1.122  0.00  0.00     0.000 A 
ATOM      4  C4  BNZ d   1       0.876  -0.717   0.888  0.00  0.00     0.000 A 
ATOM      5  C5  BNZ d   1       1.219  -0.226  -0.357  0.00  0.00     0.000 A 
ATOM      6  C6  BNZ d   1       0.283  -0.195  -1.365  0.00  0.00     0.000 A 
ENDROOT
TORSDOF 0
ENDMDL
