MODEL 1
REMARK minimizedAffinity -4.03249836
REMARK minimizedRMSD -1
REMARK  0 active torsions:
REMARK  status: ('A' for Active; 'I' for Inactive)
ROOT
ATOM      1  C1  BNZ d   1       0.794   0.735   2.279  0.00  0.00     0.000 A 
ATOM      2  C2  BNZ d   1       0.499  -0.597   2.161  0.00  0.00     0.000 A 
ATOM      3  C3  BNZ d   1       1.117  -1.371   1.219  0.00  0.00     0.000 A 
ATOM      4  C4  BNZ d   1       1.998  -0.804   0.370  0.00  0.00     0.000 A 
ATOM      5  C5  BNZ d   1       2.299   0.540   0.469  0.00  0.00     0.000 A 
ATOM      6  C6  BNZ d   1       1.704   1.307   1.445  0.00  0.00     0.000 A 
ENDROOT
TORSDOF 0
ENDMDL
