MODEL 1
REMARK minimizedAffinity -3.16612244
REMARK minimizedRMSD -1
REMARK  0 active torsions:
REMARK  status: ('A' for Active; 'I' for Inactive)
ROOT
ATOM      1  C1  BNZ d   1       1.411   0.999   0.441  0.00  0.00     0.000 A 
ATOM      2  C2  BNZ d   1       0.671  -0.072   0.017  0.00  0.00     0.000 A 
ATOM      3  C3  BNZ d   1       0.040  -0.887   0.914  0.00  0.00     0.000 A 
ATOM      4  C4  BNZ d   1       0.181  -0.654   2.235  0.00  0.00     0.000 A 
ATOM      5  C5  BNZ d   1       0.931   0.417   2.679  0.00  0.00     0.000 A 
ATOM      6  C6  BNZ d   1       1.533   1.258   1.772  0.00  0.00     0.000 A 
ENDROOT
TORSDOF 0
ENDMDL
