MODEL 1
REMARK minimizedAffinity -3.24740243
REMARK minimizedRMSD -1
REMARK  0 active torsions:
REMARK  status: ('A' for Active; 'I' for Inactive)
ROOT
ATOM      1  C1  BNZ d   1       0.410   0.708  -1.129  0.00  0.00     0.000 A 
ATOM      2  C2  BNZ d   1      -0.761   0.446  -1.789  0.00  0.00     0.000 A 
ATOM      3  C3  BNZ d   1      -1.574  -0.579  -1.393  0.00  0.00     0.000 A 
ATOM      4  C4  BNZ d   1      -1.197  -1.365  -0.365  0.00  0.00     0.000 A 
ATOM      5  C5  BNZ d   1      -0.015  -1.120   0.306  0.00  0.00     0.000 A 
ATOM      6  C6  BNZ d   1       0.782  -0.063  -0.071  0.00  0.00     0.000 A 
ENDROOT
TORSDOF 0
ENDMDL
