MODEL 1
REMARK minimizedAffinity -1.04959774
REMARK minimizedRMSD -1
REMARK  0 active torsions:
REMARK  status: ('A' for Active; 'I' for Inactive)
ROOT
ATOM      1  C1  BNZ d   1       0.915   0.881   0.571  0.00  0.00     0.000 A 
ATOM      2  C2  BNZ d   1       0.833  -0.224  -0.235  0.00  0.00     0.000 A 
ATOM      3  C3  BNZ d   1      -0.201  -0.372  -1.116  0.00  0.00     0.000 A 
ATOM      4  C4  BNZ d   1      -1.172   0.563  -1.162  0.00  0.00     0.000 A 
ATOM      5  C5  BNZ d   1      -1.108   1.678  -0.349  0.00  0.00     0.000 A 
ATOM      6  C6  BNZ d   1      -0.045   1.843   0.509  0.00  0.00     0.000 A 
ENDROOT
TORSDOF 0
ENDMDL
