MODEL 1
REMARK minimizedAffinity -5.12109184
REMARK minimizedRMSD -1
REMARK  0 active torsions:
REMARK  status: ('A' for Active; 'I' for Inactive)
ROOT
ATOM      1  C1  BNZ d   1      -2.215  -2.862   1.028  0.00  0.00     0.000 A 
ATOM      2  C2  BNZ d   1      -1.191  -2.159   1.606  0.00  0.00     0.000 A 
ATOM      3  C3  BNZ d   1      -0.867  -0.906   1.166  0.00  0.00     0.000 A 
ATOM      4  C4  BNZ d   1      -1.538  -0.375   0.124  0.00  0.00     0.000 A 
ATOM      5  C5  BNZ d   1      -2.566  -1.075  -0.475  0.00  0.00     0.000 A 
ATOM      6  C6  BNZ d   1      -2.916  -2.320  -0.004  0.00  0.00     0.000 A 
ENDROOT
TORSDOF 0
ENDMDL
