MODEL 1
REMARK minimizedAffinity -3.6555078
REMARK minimizedRMSD -1
REMARK  0 active torsions:
REMARK  status: ('A' for Active; 'I' for Inactive)
ROOT
ATOM      1  C1  BNZ d   1       1.532  -0.675   0.939  0.00  0.00     0.000 A 
ATOM      2  C2  BNZ d   1       0.287  -1.245   0.885  0.00  0.00     0.000 A 
ATOM      3  C3  BNZ d   1      -0.830  -0.472   0.732  0.00  0.00     0.000 A 
ATOM      4  C4  BNZ d   1      -0.705   0.870   0.675  0.00  0.00     0.000 A 
ATOM      5  C5  BNZ d   1       0.542   1.459   0.738  0.00  0.00     0.000 A 
ATOM      6  C6  BNZ d   1       1.667   0.676   0.852  0.00  0.00     0.000 A 
ENDROOT
TORSDOF 0
ENDMDL
