MODEL 1
REMARK minimizedAffinity -4.55732441
REMARK minimizedRMSD -1
REMARK  0 active torsions:
REMARK  status: ('A' for Active; 'I' for Inactive)
ROOT
ATOM      1  C1  BNZ d   1      -1.453  -0.011  -0.754  0.00  0.00     0.000 A 
ATOM      2  C2  BNZ d   1      -0.123   0.313  -0.740  0.00  0.00     0.000 A 
ATOM      3  C3  BNZ d   1       0.661   0.006   0.337  0.00  0.00     0.000 A 
ATOM      4  C4  BNZ d   1       0.106  -0.587   1.414  0.00  0.00     0.000 A 
ATOM      5  C5  BNZ d   1      -1.236  -0.911   1.419  0.00  0.00     0.000 A 
ATOM      6  C6  BNZ d   1      -2.013  -0.636   0.317  0.00  0.00     0.000 A 
ENDROOT
TORSDOF 0
ENDMDL
