MODEL 1
REMARK minimizedAffinity -4.81843948
REMARK minimizedRMSD -1
REMARK  0 active torsions:
REMARK  status: ('A' for Active; 'I' for Inactive)
ROOT
ATOM      1  C1  BNZ d   1      -2.512  -0.565  -0.990  0.00  0.00     0.000 A 
ATOM      2  C2  BNZ d   1      -2.971  -1.335   0.045  0.00  0.00     0.000 A 
ATOM      3  C3  BNZ d   1      -2.214  -1.525   1.166  0.00  0.00     0.000 A 
ATOM      4  C4  BNZ d   1      -0.983  -0.977   1.235  0.00  0.00     0.000 A 
ATOM      5  C5  BNZ d   1      -0.502  -0.206   0.196  0.00  0.00     0.000 A 
ATOM      6  C6  BNZ d   1      -1.283   0.015  -0.915  0.00  0.00     0.000 A 
ENDROOT
TORSDOF 0
ENDMDL
