MODEL 1
REMARK minimizedAffinity -5.21979284
REMARK minimizedRMSD -1
REMARK  0 active torsions:
REMARK  status: ('A' for Active; 'I' for Inactive)
ROOT
ATOM      1  C1  BNZ d   1      -0.896  -0.113  -0.486  0.00  0.00     0.000 A 
ATOM      2  C2  BNZ d   1       0.139  -0.394   0.367  0.00  0.00     0.000 A 
ATOM      3  C3  BNZ d   1       0.073  -1.460   1.219  0.00  0.00     0.000 A 
ATOM      4  C4  BNZ d   1      -1.041  -2.219   1.246  0.00  0.00     0.000 A 
ATOM      5  C5  BNZ d   1      -2.097  -1.943   0.400  0.00  0.00     0.000 A 
ATOM      6  C6  BNZ d   1      -2.011  -0.892  -0.484  0.00  0.00     0.000 A 
ENDROOT
TORSDOF 0
ENDMDL
