MODEL 1
REMARK minimizedAffinity -0.489736766
REMARK minimizedRMSD -1
REMARK  0 active torsions:
REMARK  status: ('A' for Active; 'I' for Inactive)
ROOT
ATOM      1  C1  BNZ d   1       0.269  -0.767  -0.357  0.00  0.00     0.000 A 
ATOM      2  C2  BNZ d   1      -0.850  -1.556  -0.311  0.00  0.00     0.000 A 
ATOM      3  C3  BNZ d   1      -1.933  -1.281  -1.097  0.00  0.00     0.000 A 
ATOM      4  C4  BNZ d   1      -1.913  -0.195  -1.897  0.00  0.00     0.000 A 
ATOM      5  C5  BNZ d   1      -0.797   0.616  -1.947  0.00  0.00     0.000 A 
ATOM      6  C6  BNZ d   1       0.307   0.313  -1.184  0.00  0.00     0.000 A 
ENDROOT
TORSDOF 0
ENDMDL
