MODEL 1
REMARK minimizedAffinity -3.63675165
REMARK minimizedRMSD -1
REMARK  0 active torsions:
REMARK  status: ('A' for Active; 'I' for Inactive)
ROOT
ATOM      1  C1  BNZ d   1       1.301   0.050   1.431  0.00  0.00     0.000 A 
ATOM      2  C2  BNZ d   1       1.391   1.128   2.270  0.00  0.00     0.000 A 
ATOM      3  C3  BNZ d   1       2.030   2.270   1.876  0.00  0.00     0.000 A 
ATOM      4  C4  BNZ d   1       2.613   2.318   0.661  0.00  0.00     0.000 A 
ATOM      5  C5  BNZ d   1       2.538   1.236  -0.193  0.00  0.00     0.000 A 
ATOM      6  C6  BNZ d   1       1.861   0.102   0.191  0.00  0.00     0.000 A 
ENDROOT
TORSDOF 0
ENDMDL
