MODEL 1
REMARK minimizedAffinity -4.75305367
REMARK minimizedRMSD -1
REMARK  0 active torsions:
REMARK  status: ('A' for Active; 'I' for Inactive)
ROOT
ATOM      1  C1  BNZ d   1       0.006  -0.960   1.866  0.00  0.00     0.000 A 
ATOM      2  C2  BNZ d   1      -1.226  -0.579   1.405  0.00  0.00     0.000 A 
ATOM      3  C3  BNZ d   1      -1.356   0.075   0.212  0.00  0.00     0.000 A 
ATOM      4  C4  BNZ d   1      -0.252   0.383  -0.498  0.00  0.00     0.000 A 
ATOM      5  C5  BNZ d   1       0.998   0.014  -0.043  0.00  0.00     0.000 A 
ATOM      6  C6  BNZ d   1       1.122  -0.679   1.139  0.00  0.00     0.000 A 
ENDROOT
TORSDOF 0
ENDMDL
