MODEL 1
REMARK minimizedAffinity -1.83491707
REMARK minimizedRMSD -1
REMARK  1 active torsions:
REMARK  status: ('A' for Active; 'I' for Inactive)
REMARK    1  A    between atoms: C3_4  and  O_7 
ROOT
ATOM      1  C   UNL d   1       4.896   2.223   5.985  0.00  0.00    -0.033 A 
ATOM      2  C1  UNL d   1       5.311   3.556   5.983  0.00  0.00     0.039 A 
ATOM      3  C2  UNL d   1       4.366   4.583   5.987  0.00  0.00    -0.080 A 
ATOM      4  C3  UNL d   1       3.010   4.265   5.993  0.00  0.00     0.150 A 
ATOM      5  C4  UNL d   1       2.590   2.939   5.999  0.00  0.00    -0.007 A 
ATOM      6  C5  UNL d   1       3.535   1.914   5.994  0.00  0.00     0.039 A 
ENDROOT
BRANCH   4   7
ATOM      7  O   UNL d   1       2.051   5.233   5.991  0.00  0.00    -0.526 OA
ATOM      8  H5  UNL d   1       2.489   6.100   5.958  0.00  0.00     0.418 HD
ENDBRANCH   4   7
TORSDOF 1
ENDMDL
