MODEL 1
REMARK minimizedAffinity -3.95396638
REMARK minimizedRMSD -1
REMARK  1 active torsions:
REMARK  status: ('A' for Active; 'I' for Inactive)
REMARK    1  A    between atoms: C3_4  and  O_7 
ROOT
ATOM      1  C   UNL d   1       5.936   5.154   5.996  0.00  0.00    -0.033 A 
ATOM      2  C1  UNL d   1       5.952   3.758   5.978  0.00  0.00     0.039 A 
ATOM      3  C2  UNL d   1       5.002   3.056   5.234  0.00  0.00    -0.080 A 
ATOM      4  C3  UNL d   1       4.043   3.761   4.512  0.00  0.00     0.150 A 
ATOM      5  C4  UNL d   1       4.024   5.152   4.521  0.00  0.00    -0.007 A 
ATOM      6  C5  UNL d   1       4.973   5.851   5.266  0.00  0.00     0.039 A 
ENDROOT
BRANCH   4   7
ATOM      7  O   UNL d   1       3.092   3.120   3.774  0.00  0.00    -0.526 OA
ATOM      8  H5  UNL d   1       3.211   2.162   3.885  0.00  0.00     0.418 HD
ENDBRANCH   4   7
TORSDOF 1
ENDMDL
