MODEL 1
REMARK minimizedAffinity -2.07448602
REMARK minimizedRMSD -1
REMARK  1 active torsions:
REMARK  status: ('A' for Active; 'I' for Inactive)
REMARK    1  A    between atoms: C3_4  and  O_7 
ROOT
ATOM      1  C   UNL d   1       3.846   1.549  -0.265  0.00  0.00    -0.033 A 
ATOM      2  C1  UNL d   1       3.138   1.156   0.872  0.00  0.00     0.039 A 
ATOM      3  C2  UNL d   1       2.714  -0.168   1.010  0.00  0.00    -0.080 A 
ATOM      4  C3  UNL d   1       3.005  -1.086   0.005  0.00  0.00     0.150 A 
ATOM      5  C4  UNL d   1       3.714  -0.702  -1.129  0.00  0.00    -0.007 A 
ATOM      6  C5  UNL d   1       4.135   0.620  -1.265  0.00  0.00     0.039 A 
ENDROOT
BRANCH   4   7
ATOM      7  O   UNL d   1       2.608  -2.387   0.092  0.00  0.00    -0.526 OA
ATOM      8  H5  UNL d   1       2.105  -2.501   0.915  0.00  0.00     0.418 HD
ENDBRANCH   4   7
TORSDOF 1
ENDMDL
