MODEL 1
REMARK minimizedAffinity -4.15357494
REMARK minimizedRMSD -1
REMARK  1 active torsions:
REMARK  status: ('A' for Active; 'I' for Inactive)
REMARK    1  A    between atoms: C3_4  and  O_7 
ROOT
ATOM      1  C   UNL d   1       3.231   2.448   4.488  0.00  0.00    -0.033 A 
ATOM      2  C1  UNL d   1       3.098   3.720   3.928  0.00  0.00     0.039 A 
ATOM      3  C2  UNL d   1       3.877   4.778   4.401  0.00  0.00    -0.080 A 
ATOM      4  C3  UNL d   1       4.785   4.551   5.432  0.00  0.00     0.150 A 
ATOM      5  C4  UNL d   1       4.925   3.285   5.992  0.00  0.00    -0.007 A 
ATOM      6  C5  UNL d   1       4.146   2.230   5.519  0.00  0.00     0.039 A 
ENDROOT
BRANCH   4   7
ATOM      7  O   UNL d   1       5.564   5.553   5.930  0.00  0.00    -0.526 OA
ATOM      8  H5  UNL d   1       5.338   6.377   5.467  0.00  0.00     0.418 HD
ENDBRANCH   4   7
TORSDOF 1
ENDMDL
