MODEL 1
REMARK minimizedAffinity -4.02901077
REMARK minimizedRMSD -1
REMARK  1 active torsions:
REMARK  status: ('A' for Active; 'I' for Inactive)
REMARK    1  A    between atoms: C3_4  and  O_7 
ROOT
ATOM      1  C   UNL d   1       4.207   2.529   5.620  0.00  0.00    -0.033 A 
ATOM      2  C1  UNL d   1       3.730   2.245   4.339  0.00  0.00     0.039 A 
ATOM      3  C2  UNL d   1       3.499   3.282   3.433  0.00  0.00    -0.080 A 
ATOM      4  C3  UNL d   1       3.749   4.596   3.820  0.00  0.00     0.150 A 
ATOM      5  C4  UNL d   1       4.228   4.885   5.093  0.00  0.00    -0.007 A 
ATOM      6  C5  UNL d   1       4.457   3.849   5.997  0.00  0.00     0.039 A 
ENDROOT
BRANCH   4   7
ATOM      7  O   UNL d   1       3.534   5.642   2.972  0.00  0.00    -0.526 OA
ATOM      8  H5  UNL d   1       3.176   5.294   2.138  0.00  0.00     0.418 HD
ENDBRANCH   4   7
TORSDOF 1
ENDMDL
