MODEL 1
REMARK minimizedAffinity -3.45731807
REMARK minimizedRMSD -1
REMARK  1 active torsions:
REMARK  status: ('A' for Active; 'I' for Inactive)
REMARK    1  A    between atoms: C3_4  and  O_7 
ROOT
ATOM      1  C   UNL d   1       3.220   6.000   5.542  0.00  0.00    -0.033 A 
ATOM      2  C1  UNL d   1       4.405   5.348   5.193  0.00  0.00     0.039 A 
ATOM      3  C2  UNL d   1       4.480   3.955   5.249  0.00  0.00    -0.080 A 
ATOM      4  C3  UNL d   1       3.365   3.227   5.654  0.00  0.00     0.150 A 
ATOM      5  C4  UNL d   1       2.180   3.869   6.000  0.00  0.00    -0.007 A 
ATOM      6  C5  UNL d   1       2.108   5.260   5.944  0.00  0.00     0.039 A 
ENDROOT
BRANCH   4   7
ATOM      7  O   UNL d   1       3.391   1.866   5.730  0.00  0.00    -0.526 OA
ATOM      8  H5  UNL d   1       4.283   1.562   5.489  0.00  0.00     0.418 HD
ENDBRANCH   4   7
TORSDOF 1
ENDMDL
