MODEL 1
REMARK minimizedAffinity 0.539325178
REMARK minimizedRMSD -1
REMARK  1 active torsions:
REMARK  status: ('A' for Active; 'I' for Inactive)
REMARK    1  A    between atoms: C3_4  and  O_7 
ROOT
ATOM      1  C   UNL d   1       4.942   3.489   4.464  0.00  0.00    -0.033 A 
ATOM      2  C1  UNL d   1       3.839   2.634   4.501  0.00  0.00     0.039 A 
ATOM      3  C2  UNL d   1       2.621   3.083   5.014  0.00  0.00    -0.080 A 
ATOM      4  C3  UNL d   1       2.519   4.389   5.486  0.00  0.00     0.150 A 
ATOM      5  C4  UNL d   1       3.612   5.248   5.449  0.00  0.00    -0.007 A 
ATOM      6  C5  UNL d   1       4.828   4.797   4.937  0.00  0.00     0.039 A 
ENDROOT
BRANCH   4   7
ATOM      7  O   UNL d   1       1.352   4.871   6.000  0.00  0.00    -0.526 OA
ATOM      8  H5  UNL d   1       0.692   4.158   5.988  0.00  0.00     0.418 HD
ENDBRANCH   4   7
TORSDOF 1
ENDMDL
