MODEL 1
REMARK minimizedAffinity -4.58957434
REMARK minimizedRMSD -1
REMARK  0 active torsions:
REMARK  status: ('A' for Active; 'I' for Inactive)
ROOT
ATOM      1  C2' OXE d   1       0.603   1.380   0.155  0.00  0.00     0.078 C 
ATOM      2  C1' OXE d   1      -0.849  -1.022   0.198  0.00  0.00     0.078 C 
ATOM      3  C1  OXE d   1       0.580  -1.055   0.679  0.00  0.00    -0.078 A 
ATOM      4  C2  OXE d   1       1.298   0.115   0.611  0.00  0.00    -0.078 A 
ATOM      5  C3  OXE d   1       2.603   0.152   1.092  0.00  0.00     0.003 A 
ATOM      6  C4  OXE d   1       3.241  -1.025   1.503  0.00  0.00    -0.002 A 
ATOM      7  C5  OXE d   1       2.541  -2.235   1.543  0.00  0.00    -0.002 A 
ATOM      8  C6  OXE d   1       1.200  -2.259   1.176  0.00  0.00     0.003 A 
ENDROOT
TORSDOF 0
ENDMDL
