MODEL 1
REMARK minimizedAffinity -5.62399054
REMARK minimizedRMSD -1
REMARK  0 active torsions:
REMARK  status: ('A' for Active; 'I' for Inactive)
ROOT
ATOM      1  C2' OXE d   1      -1.102  -0.028   0.253  0.00  0.00     0.078 C 
ATOM      2  C1' OXE d   1       0.262  -2.004   1.707  0.00  0.00     0.078 C 
ATOM      3  C1  OXE d   1       1.070  -0.865   1.139  0.00  0.00    -0.078 A 
ATOM      4  C2  OXE d   1       0.402   0.073   0.389  0.00  0.00    -0.078 A 
ATOM      5  C3  OXE d   1       1.091   1.173  -0.112  0.00  0.00     0.003 A 
ATOM      6  C4  OXE d   1       2.484   1.254   0.010  0.00  0.00    -0.002 A 
ATOM      7  C5  OXE d   1       3.189   0.288   0.736  0.00  0.00    -0.002 A 
ATOM      8  C6  OXE d   1       2.494  -0.753   1.341  0.00  0.00     0.003 A 
ENDROOT
TORSDOF 0
ENDMDL
