MODEL 1
REMARK minimizedAffinity -4.81834841
REMARK minimizedRMSD -1
REMARK  0 active torsions:
REMARK  status: ('A' for Active; 'I' for Inactive)
ROOT
ATOM      1  C2' OXE d   1       2.724  -0.058   0.848  0.00  0.00     0.078 C 
ATOM      2  C1' OXE d   1       0.938  -2.224   0.893  0.00  0.00     0.078 C 
ATOM      3  C1  OXE d   1       0.409  -0.884   0.444  0.00  0.00    -0.078 A 
ATOM      4  C2  OXE d   1       1.278   0.180   0.469  0.00  0.00    -0.078 A 
ATOM      5  C3  OXE d   1       0.856   1.425   0.013  0.00  0.00     0.003 A 
ATOM      6  C4  OXE d   1      -0.485   1.639  -0.326  0.00  0.00    -0.002 A 
ATOM      7  C5  OXE d   1      -1.397   0.578  -0.321  0.00  0.00    -0.002 A 
ATOM      8  C6  OXE d   1      -0.957  -0.697   0.020  0.00  0.00     0.003 A 
ENDROOT
TORSDOF 0
ENDMDL
