MODEL 1
REMARK minimizedAffinity -5.14273787
REMARK minimizedRMSD -1
REMARK  0 active torsions:
REMARK  status: ('A' for Active; 'I' for Inactive)
ROOT
ATOM      1  C2' OXE d   1       1.502   1.742   0.364  0.00  0.00     0.078 C 
ATOM      2  C1' OXE d   1       2.994  -0.524   1.086  0.00  0.00     0.078 C 
ATOM      3  C1  OXE d   1       1.493  -0.655   1.043  0.00  0.00    -0.078 A 
ATOM      4  C2  OXE d   1       0.768   0.471   0.734  0.00  0.00    -0.078 A 
ATOM      5  C3  OXE d   1      -0.618   0.392   0.628  0.00  0.00     0.003 A 
ATOM      6  C4  OXE d   1      -1.289  -0.785   0.982  0.00  0.00    -0.002 A 
ATOM      7  C5  OXE d   1      -0.572  -1.932   1.338  0.00  0.00    -0.002 A 
ATOM      8  C6  OXE d   1       0.818  -1.896   1.332  0.00  0.00     0.003 A 
ENDROOT
TORSDOF 0
ENDMDL
