MODEL 1
REMARK minimizedAffinity -0.979149759
REMARK minimizedRMSD -1
REMARK  0 active torsions:
REMARK  status: ('A' for Active; 'I' for Inactive)
ROOT
ATOM      1  C2' OXE d   1       2.581   1.189   1.419  0.00  0.00     0.078 C 
ATOM      2  C1' OXE d   1       2.641  -0.717  -0.640  0.00  0.00     0.078 C 
ATOM      3  C1  OXE d   1       1.299  -0.158  -0.238  0.00  0.00    -0.078 A 
ATOM      4  C2  OXE d   1       1.274   0.739   0.802  0.00  0.00    -0.078 A 
ATOM      5  C3  OXE d   1       0.070   1.327   1.177  0.00  0.00     0.003 A 
ATOM      6  C4  OXE d   1      -1.136   0.898   0.608  0.00  0.00    -0.002 A 
ATOM      7  C5  OXE d   1      -1.137  -0.045  -0.425  0.00  0.00    -0.002 A 
ATOM      8  C6  OXE d   1       0.073  -0.550  -0.888  0.00  0.00     0.003 A 
ENDROOT
TORSDOF 0
ENDMDL
