MODEL 1
REMARK minimizedAffinity -3.19245791
REMARK minimizedRMSD -1
REMARK  0 active torsions:
REMARK  status: ('A' for Active; 'I' for Inactive)
ROOT
ATOM      1  C2' OXE d   1       3.034  -0.324   0.740  0.00  0.00     0.078 C 
ATOM      2  C1' OXE d   1       1.094  -2.347   0.907  0.00  0.00     0.078 C 
ATOM      3  C1  OXE d   1       0.638  -0.966   0.509  0.00  0.00    -0.078 A 
ATOM      4  C2  OXE d   1       1.586   0.028   0.475  0.00  0.00    -0.078 A 
ATOM      5  C3  OXE d   1       1.228   1.308   0.061  0.00  0.00     0.003 A 
ATOM      6  C4  OXE d   1      -0.114   1.628  -0.173  0.00  0.00    -0.002 A 
ATOM      7  C5  OXE d   1      -1.102   0.640  -0.105  0.00  0.00    -0.002 A 
ATOM      8  C6  OXE d   1      -0.737  -0.668   0.192  0.00  0.00     0.003 A 
ENDROOT
TORSDOF 0
ENDMDL
