MODEL 1
REMARK minimizedAffinity -1.73497128
REMARK minimizedRMSD -1
REMARK  0 active torsions:
REMARK  status: ('A' for Active; 'I' for Inactive)
ROOT
ATOM      1  C2' OXE d   1      -1.393  -0.742   0.953  0.00  0.00     0.078 C 
ATOM      2  C1' OXE d   1       0.884  -1.651   2.320  0.00  0.00     0.078 C 
ATOM      3  C1  OXE d   1       1.025  -0.420   1.459  0.00  0.00    -0.078 A 
ATOM      4  C2  OXE d   1      -0.082  -0.010   0.757  0.00  0.00    -0.078 A 
ATOM      5  C3  OXE d   1      -0.022   1.150  -0.009  0.00  0.00     0.003 A 
ATOM      6  C4  OXE d   1       1.196   1.816  -0.193  0.00  0.00    -0.002 A 
ATOM      7  C5  OXE d   1       2.346   1.391   0.481  0.00  0.00    -0.002 A 
ATOM      8  C6  OXE d   1       2.268   0.303   1.343  0.00  0.00     0.003 A 
ENDROOT
TORSDOF 0
ENDMDL
