MODEL 1
REMARK minimizedAffinity -2.19545984
REMARK minimizedRMSD -1
REMARK  0 active torsions:
REMARK  status: ('A' for Active; 'I' for Inactive)
ROOT
ATOM      1  C2' OXE d   1      -0.994  -0.544  -0.092  0.00  0.00     0.078 C 
ATOM      2  C1' OXE d   1      -0.629   1.939  -1.351  0.00  0.00     0.078 C 
ATOM      3  C1  OXE d   1      -1.512   0.926  -2.036  0.00  0.00    -0.078 A 
ATOM      4  C2  OXE d   1      -1.647  -0.303  -1.437  0.00  0.00    -0.078 A 
ATOM      5  C3  OXE d   1      -2.493  -1.255  -1.999  0.00  0.00     0.003 A 
ATOM      6  C4  OXE d   1      -3.085  -1.029  -3.247  0.00  0.00    -0.002 A 
ATOM      7  C5  OXE d   1      -2.928   0.201  -3.894  0.00  0.00    -0.002 A 
ATOM      8  C6  OXE d   1      -2.181   1.202  -3.283  0.00  0.00     0.003 A 
ENDROOT
TORSDOF 0
ENDMDL
