MODEL 1
REMARK minimizedAffinity -5.22721386
REMARK minimizedRMSD -1
REMARK  0 active torsions:
REMARK  status: ('A' for Active; 'I' for Inactive)
ROOT
ATOM      1  C2' OXE d   1      -0.732  -0.789  -0.194  0.00  0.00     0.078 C 
ATOM      2  C1' OXE d   1       0.038  -2.886   1.507  0.00  0.00     0.078 C 
ATOM      3  C1  OXE d   1       1.046  -1.799   1.229  0.00  0.00    -0.078 A 
ATOM      4  C2  OXE d   1       0.677  -0.802   0.359  0.00  0.00    -0.078 A 
ATOM      5  C3  OXE d   1       1.550   0.254   0.110  0.00  0.00     0.003 A 
ATOM      6  C4  OXE d   1       2.855   0.229   0.617  0.00  0.00    -0.002 A 
ATOM      7  C5  OXE d   1       3.264  -0.798   1.474  0.00  0.00    -0.002 A 
ATOM      8  C6  OXE d   1       2.360  -1.795   1.823  0.00  0.00     0.003 A 
ENDROOT
TORSDOF 0
ENDMDL
