MODEL 1
REMARK minimizedAffinity 9.68942261
REMARK minimizedRMSD -1
REMARK  0 active torsions:
REMARK  status: ('A' for Active; 'I' for Inactive)
ROOT
ATOM      1  C2' OXE d   1       5.874  -1.939  -4.975  0.00  0.00     0.078 C 
ATOM      2  C1' OXE d   1       3.883  -1.276  -3.111  0.00  0.00     0.078 C 
ATOM      3  C1  OXE d   1       4.278  -0.228  -4.120  0.00  0.00    -0.078 A 
ATOM      4  C2  OXE d   1       5.286  -0.544  -4.999  0.00  0.00    -0.078 A 
ATOM      5  C3  OXE d   1       5.652   0.367  -5.986  0.00  0.00     0.003 A 
ATOM      6  C4  OXE d   1       5.110   1.658  -5.994  0.00  0.00    -0.002 A 
ATOM      7  C5  OXE d   1       4.111   2.014  -5.083  0.00  0.00    -0.002 A 
ATOM      8  C6  OXE d   1       3.654   1.071  -4.169  0.00  0.00     0.003 A 
ENDROOT
TORSDOF 0
ENDMDL
