MODEL 1
REMARK minimizedAffinity 12.3391352
REMARK minimizedRMSD -1
REMARK  0 active torsions:
REMARK  status: ('A' for Active; 'I' for Inactive)
ROOT
ATOM      1  C2' OXE d   1      -3.767   1.508  -3.844  0.00  0.00     0.078 C 
ATOM      2  C1' OXE d   1      -5.269   0.280  -1.815  0.00  0.00     0.078 C 
ATOM      3  C1  OXE d   1      -4.101   1.141  -1.403  0.00  0.00    -0.078 A 
ATOM      4  C2  OXE d   1      -3.343   1.701  -2.403  0.00  0.00    -0.078 A 
ATOM      5  C3  OXE d   1      -2.288   2.548  -2.078  0.00  0.00     0.003 A 
ATOM      6  C4  OXE d   1      -1.897   2.712  -0.743  0.00  0.00    -0.002 A 
ATOM      7  C5  OXE d   1      -2.631   2.120   0.290  0.00  0.00    -0.002 A 
ATOM      8  C6  OXE d   1      -3.759   1.368  -0.020  0.00  0.00     0.003 A 
ENDROOT
TORSDOF 0
ENDMDL
