MODEL 1
REMARK minimizedAffinity -1.30632651
REMARK minimizedRMSD -1
REMARK  0 active torsions:
REMARK  status: ('A' for Active; 'I' for Inactive)
ROOT
ATOM      1  C2' OXE d   1       5.929  -2.901   3.035  0.00  0.00     0.078 C 
ATOM      2  C1' OXE d   1       4.029  -3.966   4.806  0.00  0.00     0.078 C 
ATOM      3  C1  OXE d   1       3.532  -3.085   3.688  0.00  0.00    -0.078 A 
ATOM      4  C2  OXE d   1       4.473  -2.530   2.854  0.00  0.00    -0.078 A 
ATOM      5  C3  OXE d   1       4.064  -1.754   1.774  0.00  0.00     0.003 A 
ATOM      6  C4  OXE d   1       2.717  -1.407   1.619  0.00  0.00    -0.002 A 
ATOM      7  C5  OXE d   1       1.746  -1.929   2.481  0.00  0.00    -0.002 A 
ATOM      8  C6  OXE d   1       2.131  -2.802   3.492  0.00  0.00     0.003 A 
ENDROOT
TORSDOF 0
ENDMDL
