MODEL 1
REMARK minimizedAffinity 3.62858129
REMARK minimizedRMSD -1
REMARK  0 active torsions:
REMARK  status: ('A' for Active; 'I' for Inactive)
ROOT
ATOM      1  C2' OXE d   1      -3.756  -2.187  -4.260  0.00  0.00     0.078 C 
ATOM      2  C1' OXE d   1      -5.977  -2.174  -5.977  0.00  0.00     0.078 C 
ATOM      3  C1  OXE d   1      -5.418  -3.512  -5.559  0.00  0.00    -0.078 A 
ATOM      4  C2  OXE d   1      -4.303  -3.508  -4.756  0.00  0.00    -0.078 A 
ATOM      5  C3  OXE d   1      -3.780  -4.713  -4.296  0.00  0.00     0.003 A 
ATOM      6  C4  OXE d   1      -4.286  -5.931  -4.768  0.00  0.00    -0.002 A 
ATOM      7  C5  OXE d   1      -5.397  -5.957  -5.618  0.00  0.00    -0.002 A 
ATOM      8  C6  OXE d   1      -6.000  -4.759  -5.988  0.00  0.00     0.003 A 
ENDROOT
TORSDOF 0
ENDMDL
