MODEL 1
REMARK minimizedAffinity 11.5002842
REMARK minimizedRMSD -1
REMARK  0 active torsions:
REMARK  status: ('A' for Active; 'I' for Inactive)
ROOT
ATOM      1  C2' OXE d   1       3.916   0.003  -3.062  0.00  0.00     0.078 C 
ATOM      2  C1' OXE d   1       5.576  -2.194  -3.607  0.00  0.00     0.078 C 
ATOM      3  C1  OXE d   1       4.170  -2.474  -3.139  0.00  0.00    -0.078 A 
ATOM      4  C2  OXE d   1       3.380  -1.393  -2.830  0.00  0.00    -0.078 A 
ATOM      5  C3  OXE d   1       2.057  -1.594  -2.446  0.00  0.00     0.003 A 
ATOM      6  C4  OXE d   1       1.572  -2.888  -2.224  0.00  0.00    -0.002 A 
ATOM      7  C5  OXE d   1       2.373  -4.003  -2.495  0.00  0.00    -0.002 A 
ATOM      8  C6  OXE d   1       3.658  -3.814  -2.992  0.00  0.00     0.003 A 
ENDROOT
TORSDOF 0
ENDMDL
