MODEL 1
REMARK minimizedAffinity 1.6190182
REMARK minimizedRMSD -1
REMARK  0 active torsions:
REMARK  status: ('A' for Active; 'I' for Inactive)
ROOT
ATOM      1  C2' OXE d   1       3.278  -2.249  -3.384  0.00  0.00     0.078 C 
ATOM      2  C1' OXE d   1       5.519  -2.573  -5.043  0.00  0.00     0.078 C 
ATOM      3  C1  OXE d   1       4.786  -1.256  -5.099  0.00  0.00    -0.078 A 
ATOM      4  C2  OXE d   1       3.663  -1.123  -4.319  0.00  0.00    -0.078 A 
ATOM      5  C3  OXE d   1       2.981   0.090  -4.292  0.00  0.00     0.003 A 
ATOM      6  C4  OXE d   1       3.338   1.123  -5.167  0.00  0.00    -0.002 A 
ATOM      7  C5  OXE d   1       4.455   0.994  -6.000  0.00  0.00    -0.002 A 
ATOM      8  C6  OXE d   1       5.214  -0.170  -5.947  0.00  0.00     0.003 A 
ENDROOT
TORSDOF 0
ENDMDL
