MODEL 1
REMARK minimizedAffinity 3.18612456
REMARK minimizedRMSD -1
REMARK  0 active torsions:
REMARK  status: ('A' for Active; 'I' for Inactive)
ROOT
ATOM      1  C2' OXE d   1       4.106  -2.501  -2.966  0.00  0.00     0.078 C 
ATOM      2  C1' OXE d   1       5.998  -3.017  -4.975  0.00  0.00     0.078 C 
ATOM      3  C1  OXE d   1       5.294  -1.683  -4.998  0.00  0.00    -0.078 A 
ATOM      4  C2  OXE d   1       4.336  -1.458  -4.039  0.00  0.00    -0.078 A 
ATOM      5  C3  OXE d   1       3.695  -0.223  -3.981  0.00  0.00     0.003 A 
ATOM      6  C4  OXE d   1       3.906   0.732  -4.983  0.00  0.00    -0.002 A 
ATOM      7  C5  OXE d   1       4.849   0.507  -5.992  0.00  0.00    -0.002 A 
ATOM      8  C6  OXE d   1       5.580  -0.676  -5.989  0.00  0.00     0.003 A 
ENDROOT
TORSDOF 0
ENDMDL
