MODEL 1
REMARK minimizedAffinity 22.6873302
REMARK minimizedRMSD -1
REMARK  0 active torsions:
REMARK  status: ('A' for Active; 'I' for Inactive)
ROOT
ATOM      1  C2' OXE d   1       3.146  -0.669  -1.385  0.00  0.00     0.078 C 
ATOM      2  C1' OXE d   1       2.147  -3.293  -1.365  0.00  0.00     0.078 C 
ATOM      3  C1  OXE d   1       1.910  -2.440  -0.143  0.00  0.00    -0.078 A 
ATOM      4  C2  OXE d   1       2.443  -1.174  -0.143  0.00  0.00    -0.078 A 
ATOM      5  C3  OXE d   1       2.208  -0.327   0.936  0.00  0.00     0.003 A 
ATOM      6  C4  OXE d   1       1.566  -0.804   2.085  0.00  0.00    -0.002 A 
ATOM      7  C5  OXE d   1       1.050  -2.104   2.121  0.00  0.00    -0.002 A 
ATOM      8  C6  OXE d   1       1.176  -2.919   1.002  0.00  0.00     0.003 A 
ENDROOT
TORSDOF 0
ENDMDL
