MODEL 1
REMARK minimizedAffinity 4.46890116
REMARK minimizedRMSD -1
REMARK  1 active torsions:
REMARK  status: ('A' for Active; 'I' for Inactive)
REMARK    1  A    between atoms: C1_2  and  C2_3 
ROOT
ATOM      1  C2  UNL d   1       3.661   0.999  -0.116  0.00  0.00    -0.076 A 
ATOM      2  C3  UNL d   1       2.866  -0.160  -0.145  0.00  0.00     0.004 A 
ATOM      3  C4  UNL d   1       1.532  -0.105  -0.544  0.00  0.00    -0.003 A 
ATOM      4  C5  UNL d   1       0.970   1.110  -0.921  0.00  0.00     0.000 A 
ATOM      5  C6  UNL d   1       1.749   2.267  -0.915  0.00  0.00     0.000 A 
ATOM      6  C7  UNL d   1       3.100   2.226  -0.531  0.00  0.00    -0.073 A 
ATOM      7  C8  UNL d   1       3.891   3.505  -0.537  0.00  0.00     0.078 C 
ENDROOT
BRANCH   1   8
ATOM      8  C1  UNL d   1       5.094   0.883   0.352  0.00  0.00     0.053 C 
ATOM      9  C   UNL d   1       5.547  -0.563   0.487  0.00  0.00     0.018 C 
ENDBRANCH   1   8
TORSDOF 1
ENDMDL
