MODEL 1
REMARK minimizedAffinity 15.9412889
REMARK minimizedRMSD -1
REMARK  1 active torsions:
REMARK  status: ('A' for Active; 'I' for Inactive)
REMARK    1  A    between atoms: C1_2  and  C2_3 
ROOT
ATOM      1  C2  UNL d   1      -0.761   3.781  -3.985  0.00  0.00    -0.076 A 
ATOM      2  C3  UNL d   1      -0.549   5.127  -3.636  0.00  0.00     0.004 A 
ATOM      3  C4  UNL d   1       0.204   5.969  -4.452  0.00  0.00    -0.003 A 
ATOM      4  C5  UNL d   1       0.758   5.480  -5.630  0.00  0.00     0.000 A 
ATOM      5  C6  UNL d   1       0.544   4.153  -6.000  0.00  0.00     0.000 A 
ATOM      6  C7  UNL d   1      -0.227   3.294  -5.197  0.00  0.00    -0.073 A 
ATOM      7  C8  UNL d   1      -0.420   1.871  -5.642  0.00  0.00     0.078 C 
ENDROOT
BRANCH   1   8
ATOM      8  C1  UNL d   1      -1.564   2.908  -3.047  0.00  0.00     0.053 C 
ATOM      9  C   UNL d   1      -3.056   3.194  -3.119  0.00  0.00     0.018 C 
ENDBRANCH   1   8
TORSDOF 1
ENDMDL
