MODEL 1
REMARK minimizedAffinity -2.29805207
REMARK minimizedRMSD -1
REMARK  1 active torsions:
REMARK  status: ('A' for Active; 'I' for Inactive)
REMARK    1  A    between atoms: C1_2  and  C2_3 
ROOT
ATOM      1  C2  UNL d   1       3.756  -3.291   2.627  0.00  0.00    -0.076 A 
ATOM      2  C3  UNL d   1       2.590  -2.510   2.717  0.00  0.00     0.004 A 
ATOM      3  C4  UNL d   1       1.924  -2.079   1.571  0.00  0.00    -0.003 A 
ATOM      4  C5  UNL d   1       2.412  -2.424   0.316  0.00  0.00     0.000 A 
ATOM      5  C6  UNL d   1       3.557  -3.213   0.207  0.00  0.00     0.000 A 
ATOM      6  C7  UNL d   1       4.231  -3.669   1.353  0.00  0.00    -0.073 A 
ATOM      7  C8  UNL d   1       5.464  -4.512   1.177  0.00  0.00     0.078 C 
ENDROOT
BRANCH   1   8
ATOM      8  C1  UNL d   1       4.451  -3.706   3.904  0.00  0.00     0.053 C 
ATOM      9  C   UNL d   1       4.414  -2.619   4.967  0.00  0.00     0.018 C 
ENDBRANCH   1   8
TORSDOF 1
ENDMDL
