MODEL 1
REMARK minimizedAffinity -1.24608636
REMARK minimizedRMSD -1
REMARK  1 active torsions:
REMARK  status: ('A' for Active; 'I' for Inactive)
REMARK    1  A    between atoms: C1_2  and  C2_3 
ROOT
ATOM      1  C2  UNL d   1       0.362  -0.552  -0.297  0.00  0.00    -0.076 A 
ATOM      2  C3  UNL d   1       0.016  -0.262  -1.628  0.00  0.00     0.004 A 
ATOM      3  C4  UNL d   1      -1.302   0.023  -1.981  0.00  0.00    -0.003 A 
ATOM      4  C5  UNL d   1      -2.295   0.024  -1.008  0.00  0.00     0.000 A 
ATOM      5  C6  UNL d   1      -1.967  -0.244   0.321  0.00  0.00     0.000 A 
ATOM      6  C7  UNL d   1      -0.640  -0.518   0.696  0.00  0.00    -0.073 A 
ATOM      7  C8  UNL d   1      -0.344  -0.806   2.142  0.00  0.00     0.078 C 
ENDROOT
BRANCH   1   8
ATOM      8  C1  UNL d   1       1.803  -0.881   0.021  0.00  0.00     0.053 C 
ATOM      9  C   UNL d   1       2.760   0.224  -0.399  0.00  0.00     0.018 C 
ENDBRANCH   1   8
TORSDOF 1
ENDMDL
