MODEL 1
REMARK minimizedAffinity 0.505334854
REMARK minimizedRMSD -1
REMARK  1 active torsions:
REMARK  status: ('A' for Active; 'I' for Inactive)
REMARK    1  A    between atoms: C1_2  and  C2_3 
ROOT
ATOM      1  C2  UNL d   1       1.098  -1.396   0.600  0.00  0.00    -0.076 A 
ATOM      2  C3  UNL d   1       0.124  -0.665   1.302  0.00  0.00     0.004 A 
ATOM      3  C4  UNL d   1      -0.405  -1.141   2.500  0.00  0.00    -0.003 A 
ATOM      4  C5  UNL d   1       0.032  -2.356   3.016  0.00  0.00     0.000 A 
ATOM      5  C6  UNL d   1       1.010  -3.086   2.342  0.00  0.00     0.000 A 
ATOM      6  C7  UNL d   1       1.566  -2.612   1.141  0.00  0.00    -0.073 A 
ATOM      7  C8  UNL d   1       2.613  -3.443   0.452  0.00  0.00     0.078 C 
ENDROOT
BRANCH   1   8
ATOM      8  C1  UNL d   1       1.615  -0.842  -0.709  0.00  0.00     0.053 C 
ATOM      9  C   UNL d   1       2.739   0.163  -0.512  0.00  0.00     0.018 C 
ENDBRANCH   1   8
TORSDOF 1
ENDMDL
