MODEL 1
REMARK minimizedAffinity 4.12049198
REMARK minimizedRMSD -1
REMARK  0 active torsions:
REMARK  status: ('A' for Active; 'I' for Inactive)
ROOT
ATOM      1  C4' PXY d   1       5.964  -2.839  -6.000  0.00  0.00     0.077 C 
ATOM      2  C1' PXY d   1       5.761   1.569  -2.266  0.00  0.00     0.077 C 
ATOM      3  C1  PXY d   1       5.809   0.421  -3.255  0.00  0.00    -0.082 A 
ATOM      4  C2  PXY d   1       5.781  -0.826  -2.811  0.00  0.00     0.003 A 
ATOM      5  C3  PXY d   1       5.857  -1.876  -3.690  0.00  0.00     0.003 A 
ATOM      6  C4  PXY d   1       5.908  -1.649  -5.039  0.00  0.00    -0.082 A 
ATOM      7  C5  PXY d   1       5.926  -0.380  -5.500  0.00  0.00     0.003 A 
ATOM      8  C6  PXY d   1       5.890   0.672  -4.590  0.00  0.00     0.003 A 
ENDROOT
TORSDOF 0
ENDMDL
