MODEL 1
REMARK minimizedAffinity 5.29002094
REMARK minimizedRMSD -1
REMARK  0 active torsions:
REMARK  status: ('A' for Active; 'I' for Inactive)
ROOT
ATOM      1  C4' PXY d   1       0.705  -5.916   1.914  0.00  0.00     0.077 C 
ATOM      2  C1' PXY d   1       0.513  -0.755  -0.681  0.00  0.00     0.077 C 
ATOM      3  C1  PXY d   1       0.551  -2.107   0.003  0.00  0.00    -0.082 A 
ATOM      4  C2  PXY d   1       1.710  -2.608   0.398  0.00  0.00     0.003 A 
ATOM      5  C3  PXY d   1       1.766  -3.844   0.989  0.00  0.00     0.003 A 
ATOM      6  C4  PXY d   1       0.618  -4.550   1.228  0.00  0.00    -0.082 A 
ATOM      7  C5  PXY d   1      -0.570  -4.041   0.838  0.00  0.00     0.003 A 
ATOM      8  C6  PXY d   1      -0.601  -2.803   0.202  0.00  0.00     0.003 A 
ENDROOT
TORSDOF 0
ENDMDL
