MODEL 1
REMARK minimizedAffinity 2.73626494
REMARK minimizedRMSD -1
REMARK  0 active torsions:
REMARK  status: ('A' for Active; 'I' for Inactive)
ROOT
ATOM      1  C4' PXY d   1       5.910  -2.861  -5.999  0.00  0.00     0.077 C 
ATOM      2  C1' PXY d   1       5.986   1.823  -2.612  0.00  0.00     0.077 C 
ATOM      3  C1  PXY d   1       5.960   0.602  -3.510  0.00  0.00    -0.082 A 
ATOM      4  C2  PXY d   1       5.977  -0.607  -2.971  0.00  0.00     0.003 A 
ATOM      5  C3  PXY d   1       5.986  -1.722  -3.769  0.00  0.00     0.003 A 
ATOM      6  C4  PXY d   1       5.925  -1.599  -5.131  0.00  0.00    -0.082 A 
ATOM      7  C5  PXY d   1       5.897  -0.370  -5.688  0.00  0.00     0.003 A 
ATOM      8  C6  PXY d   1       5.929   0.750  -4.862  0.00  0.00     0.003 A 
ENDROOT
TORSDOF 0
ENDMDL
