MODEL 1
REMARK minimizedAffinity 5.8330245
REMARK minimizedRMSD -1
REMARK  0 active torsions:
REMARK  status: ('A' for Active; 'I' for Inactive)
ROOT
ATOM      1  C4' PXY d   1       1.778  -3.536  -3.569  0.00  0.00     0.077 C 
ATOM      2  C1' PXY d   1       0.450   1.588  -1.246  0.00  0.00     0.077 C 
ATOM      3  C1  PXY d   1       0.795   0.249  -1.867  0.00  0.00    -0.082 A 
ATOM      4  C2  PXY d   1       0.753  -0.846  -1.126  0.00  0.00     0.003 A 
ATOM      5  C3  PXY d   1       1.093  -2.061  -1.663  0.00  0.00     0.003 A 
ATOM      6  C4  PXY d   1       1.428  -2.164  -2.986  0.00  0.00    -0.082 A 
ATOM      7  C5  PXY d   1       1.464  -1.053  -3.752  0.00  0.00     0.003 A 
ATOM      8  C6  PXY d   1       1.155   0.177  -3.177  0.00  0.00     0.003 A 
ENDROOT
TORSDOF 0
ENDMDL
