MODEL 1
REMARK minimizedAffinity 6.75217819
REMARK minimizedRMSD -1
REMARK  0 active torsions:
REMARK  status: ('A' for Active; 'I' for Inactive)
ROOT
ATOM      1  C4' PXY d   1       1.166  -1.189  -3.874  0.00  0.00     0.077 C 
ATOM      2  C1' PXY d   1       0.768   2.891   0.202  0.00  0.00     0.077 C 
ATOM      3  C1  PXY d   1       0.873   1.812  -0.858  0.00  0.00    -0.082 A 
ATOM      4  C2  PXY d   1       1.308   2.124  -2.068  0.00  0.00     0.003 A 
ATOM      5  C3  PXY d   1       1.379   1.167  -3.047  0.00  0.00     0.003 A 
ATOM      6  C4  PXY d   1       1.052  -0.134  -2.770  0.00  0.00    -0.082 A 
ATOM      7  C5  PXY d   1       0.618  -0.462  -1.535  0.00  0.00     0.003 A 
ATOM      8  C6  PXY d   1       0.514   0.532  -0.567  0.00  0.00     0.003 A 
ENDROOT
TORSDOF 0
ENDMDL
