MODEL 1
REMARK minimizedAffinity 5.39816284
REMARK minimizedRMSD -1
REMARK  0 active torsions:
REMARK  status: ('A' for Active; 'I' for Inactive)
ROOT
ATOM      1  C4' PXY d   1      -3.327  -1.129   3.748  0.00  0.00     0.077 C 
ATOM      2  C1' PXY d   1      -4.426   4.081   6.000  0.00  0.00     0.077 C 
ATOM      3  C1  PXY d   1      -4.140   2.709   5.421  0.00  0.00    -0.082 A 
ATOM      4  C2  PXY d   1      -3.373   2.598   4.348  0.00  0.00     0.003 A 
ATOM      5  C3  PXY d   1      -3.131   1.368   3.793  0.00  0.00     0.003 A 
ATOM      6  C4  PXY d   1      -3.635   0.235   4.373  0.00  0.00    -0.082 A 
ATOM      7  C5  PXY d   1      -4.409   0.338   5.474  0.00  0.00     0.003 A 
ATOM      8  C6  PXY d   1      -4.677   1.600   5.998  0.00  0.00     0.003 A 
ENDROOT
TORSDOF 0
ENDMDL
