MODEL 1
REMARK minimizedAffinity 1.01414049
REMARK minimizedRMSD -1
REMARK  0 active torsions:
REMARK  status: ('A' for Active; 'I' for Inactive)
ROOT
ATOM      1  C4' PXY d   1      -5.088   5.985   5.999  0.00  0.00     0.077 C 
ATOM      2  C1' PXY d   1      -4.507   4.058   0.580  0.00  0.00     0.077 C 
ATOM      3  C1  PXY d   1      -4.648   4.559   2.004  0.00  0.00    -0.082 A 
ATOM      4  C2  PXY d   1      -5.853   4.733   2.520  0.00  0.00     0.003 A 
ATOM      5  C3  PXY d   1      -5.999   5.216   3.795  0.00  0.00     0.003 A 
ATOM      6  C4  PXY d   1      -4.898   5.472   4.569  0.00  0.00    -0.082 A 
ATOM      7  C5  PXY d   1      -3.665   5.287   4.053  0.00  0.00     0.003 A 
ATOM      8  C6  PXY d   1      -3.539   4.836   2.742  0.00  0.00     0.003 A 
ENDROOT
TORSDOF 0
ENDMDL
