MODEL 1
REMARK minimizedAffinity 1.81117189
REMARK minimizedRMSD -1
REMARK  0 active torsions:
REMARK  status: ('A' for Active; 'I' for Inactive)
ROOT
ATOM      1  C4' PXY d   1       1.823   1.145  -4.667  0.00  0.00     0.077 C 
ATOM      2  C1' PXY d   1       0.358  -1.120   0.446  0.00  0.00     0.077 C 
ATOM      3  C1  PXY d   1       0.733  -0.517  -0.894  0.00  0.00    -0.082 A 
ATOM      4  C2  PXY d   1       1.361  -1.258  -1.792  0.00  0.00     0.003 A 
ATOM      5  C3  PXY d   1       1.736  -0.720  -2.996  0.00  0.00     0.003 A 
ATOM      6  C4  PXY d   1       1.417   0.575  -3.305  0.00  0.00    -0.082 A 
ATOM      7  C5  PXY d   1       0.766   1.335  -2.398  0.00  0.00     0.003 A 
ATOM      8  C6  PXY d   1       0.432   0.782  -1.166  0.00  0.00     0.003 A 
ENDROOT
TORSDOF 0
ENDMDL
