MODEL 1
REMARK minimizedAffinity 0.223428711
REMARK minimizedRMSD -1
REMARK  0 active torsions:
REMARK  status: ('A' for Active; 'I' for Inactive)
ROOT
ATOM      1  C4' PXY d   1       0.781  -2.581  -3.944  0.00  0.00     0.077 C 
ATOM      2  C1' PXY d   1       0.894   2.265  -0.795  0.00  0.00     0.077 C 
ATOM      3  C1  PXY d   1       0.859   1.001  -1.630  0.00  0.00    -0.082 A 
ATOM      4  C2  PXY d   1       0.862  -0.179  -1.032  0.00  0.00     0.003 A 
ATOM      5  C3  PXY d   1       0.863  -1.333  -1.773  0.00  0.00     0.003 A 
ATOM      6  C4  PXY d   1       0.806  -1.278  -3.140  0.00  0.00    -0.082 A 
ATOM      7  C5  PXY d   1       0.792  -0.078  -3.758  0.00  0.00     0.003 A 
ATOM      8  C6  PXY d   1       0.833   1.082  -2.989  0.00  0.00     0.003 A 
ENDROOT
TORSDOF 0
ENDMDL
