MODEL 1
REMARK minimizedAffinity 1.49468613
REMARK minimizedRMSD -1
REMARK  0 active torsions:
REMARK  status: ('A' for Active; 'I' for Inactive)
ROOT
ATOM      1  C4' PXY d   1       0.094   1.473  -0.863  0.00  0.00     0.077 C 
ATOM      2  C1' PXY d   1       2.399  -1.897  -4.955  0.00  0.00     0.077 C 
ATOM      3  C1  PXY d   1       1.800  -1.003  -3.888  0.00  0.00    -0.082 A 
ATOM      4  C2  PXY d   1       1.470  -1.517  -2.714  0.00  0.00     0.003 A 
ATOM      5  C3  PXY d   1       0.898  -0.729  -1.749  0.00  0.00     0.003 A 
ATOM      6  C4  PXY d   1       0.710   0.609  -1.968  0.00  0.00    -0.082 A 
ATOM      7  C5  PXY d   1       1.054   1.143  -3.159  0.00  0.00     0.003 A 
ATOM      8  C6  PXY d   1       1.596   0.318  -4.140  0.00  0.00     0.003 A 
ENDROOT
TORSDOF 0
ENDMDL
