MODEL 1
REMARK minimizedAffinity 5.55279541
REMARK minimizedRMSD -1
REMARK  0 active torsions:
REMARK  status: ('A' for Active; 'I' for Inactive)
ROOT
ATOM      1  C4' PXY d   1       5.995  -0.221  -5.930  0.00  0.00     0.077 C 
ATOM      2  C1' PXY d   1       3.445   4.826  -4.730  0.00  0.00     0.077 C 
ATOM      3  C1  PXY d   1       4.105   3.496  -5.038  0.00  0.00    -0.082 A 
ATOM      4  C2  PXY d   1       5.394   3.458  -5.331  0.00  0.00     0.003 A 
ATOM      5  C3  PXY d   1       6.000   2.268  -5.643  0.00  0.00     0.003 A 
ATOM      6  C4  PXY d   1       5.289   1.098  -5.603  0.00  0.00    -0.082 A 
ATOM      7  C5  PXY d   1       3.976   1.127  -5.294  0.00  0.00     0.003 A 
ATOM      8  C6  PXY d   1       3.371   2.351  -5.021  0.00  0.00     0.003 A 
ENDROOT
TORSDOF 0
ENDMDL
