MODEL 1
REMARK minimizedAffinity 1.91288304
REMARK minimizedRMSD -1
REMARK  0 active torsions:
REMARK  status: ('A' for Active; 'I' for Inactive)
ROOT
ATOM      1  C4' PXY d   1       0.552   1.797  -1.966  0.00  0.00     0.077 C 
ATOM      2  C1' PXY d   1       1.512  -3.807  -3.007  0.00  0.00     0.077 C 
ATOM      3  C1  PXY d   1       1.252  -2.341  -2.724  0.00  0.00    -0.082 A 
ATOM      4  C2  PXY d   1       1.378  -1.454  -3.698  0.00  0.00     0.003 A 
ATOM      5  C3  PXY d   1       1.178  -0.120  -3.452  0.00  0.00     0.003 A 
ATOM      6  C4  PXY d   1       0.795   0.305  -2.208  0.00  0.00    -0.082 A 
ATOM      7  C5  PXY d   1       0.654  -0.594  -1.212  0.00  0.00     0.003 A 
ATOM      8  C6  PXY d   1       0.901  -1.939  -1.472  0.00  0.00     0.003 A 
ENDROOT
TORSDOF 0
ENDMDL
