MODEL 1
REMARK minimizedAffinity 5.61073399
REMARK minimizedRMSD -1
REMARK  0 active torsions:
REMARK  status: ('A' for Active; 'I' for Inactive)
ROOT
ATOM      1  C4' PXY d   1      -3.839   3.346   5.999  0.00  0.00     0.077 C 
ATOM      2  C1' PXY d   1      -3.199  -2.244   4.673  0.00  0.00     0.077 C 
ATOM      3  C1  PXY d   1      -3.380  -0.779   5.021  0.00  0.00    -0.082 A 
ATOM      4  C2  PXY d   1      -2.446   0.094   4.682  0.00  0.00     0.003 A 
ATOM      5  C3  PXY d   1      -2.578   1.417   5.017  0.00  0.00     0.003 A 
ATOM      6  C4  PXY d   1      -3.703   1.859   5.660  0.00  0.00    -0.082 A 
ATOM      7  C5  PXY d   1      -4.666   0.977   5.999  0.00  0.00     0.003 A 
ATOM      8  C6  PXY d   1      -4.494  -0.369   5.686  0.00  0.00     0.003 A 
ENDROOT
TORSDOF 0
ENDMDL
