MODEL 1
REMARK minimizedAffinity -0.166979551
REMARK minimizedRMSD -1
REMARK  0 active torsions:
REMARK  status: ('A' for Active; 'I' for Inactive)
ROOT
ATOM      1  C4' PXY d   1       1.419   2.880  -3.922  0.00  0.00     0.077 C 
ATOM      2  C1' PXY d   1       0.869  -1.999  -0.870  0.00  0.00     0.077 C 
ATOM      3  C1  PXY d   1       1.023  -0.724  -1.677  0.00  0.00    -0.082 A 
ATOM      4  C2  PXY d   1       0.550   0.415  -1.198  0.00  0.00     0.003 A 
ATOM      5  C3  PXY d   1       0.653   1.570  -1.928  0.00  0.00     0.003 A 
ATOM      6  C4  PXY d   1       1.294   1.571  -3.138  0.00  0.00    -0.082 A 
ATOM      7  C5  PXY d   1       1.789   0.415  -3.629  0.00  0.00     0.003 A 
ATOM      8  C6  PXY d   1       1.638  -0.755  -2.891  0.00  0.00     0.003 A 
ENDROOT
TORSDOF 0
ENDMDL
