MODEL 1
REMARK minimizedAffinity 5.08365059
REMARK minimizedRMSD -1
REMARK  0 active torsions:
REMARK  status: ('A' for Active; 'I' for Inactive)
ROOT
ATOM      1  C4' PXY d   1      -0.052  -1.481   0.761  0.00  0.00     0.077 C 
ATOM      2  C1' PXY d   1       1.679  -0.280  -4.622  0.00  0.00     0.077 C 
ATOM      3  C1  PXY d   1       1.227  -0.583  -3.207  0.00  0.00    -0.082 A 
ATOM      4  C2  PXY d   1       1.280  -1.825  -2.755  0.00  0.00     0.003 A 
ATOM      5  C3  PXY d   1       0.846  -2.122  -1.489  0.00  0.00     0.003 A 
ATOM      6  C4  PXY d   1       0.402  -1.128  -0.658  0.00  0.00    -0.082 A 
ATOM      7  C5  PXY d   1       0.355   0.144  -1.108  0.00  0.00     0.003 A 
ATOM      8  C6  PXY d   1       0.762   0.418  -2.410  0.00  0.00     0.003 A 
ENDROOT
TORSDOF 0
ENDMDL
