MODEL 1
REMARK minimizedAffinity 0.479864806
REMARK minimizedRMSD -1
REMARK  0 active torsions:
REMARK  status: ('A' for Active; 'I' for Inactive)
ROOT
ATOM      1  C4' PXY d   1       1.100  -2.442  -3.348  0.00  0.00     0.077 C 
ATOM      2  C1' PXY d   1       0.958   2.699  -0.709  0.00  0.00     0.077 C 
ATOM      3  C1  PXY d   1       0.992   1.356  -1.412  0.00  0.00    -0.082 A 
ATOM      4  C2  PXY d   1       0.876   0.244  -0.705  0.00  0.00     0.003 A 
ATOM      5  C3  PXY d   1       0.936  -0.979  -1.321  0.00  0.00     0.003 A 
ATOM      6  C4  PXY d   1       1.062  -1.064  -2.682  0.00  0.00    -0.082 A 
ATOM      7  C5  PXY d   1       1.170   0.066  -3.412  0.00  0.00     0.003 A 
ATOM      8  C6  PXY d   1       1.149   1.297  -2.763  0.00  0.00     0.003 A 
ENDROOT
TORSDOF 0
ENDMDL
