MODEL 1
REMARK minimizedAffinity 3.6216116
REMARK minimizedRMSD -1
REMARK  0 active torsions:
REMARK  status: ('A' for Active; 'I' for Inactive)
ROOT
ATOM      1  C4' PXY d   1       1.417  -3.429  -3.414  0.00  0.00     0.077 C 
ATOM      2  C1' PXY d   1       0.534   1.778  -1.064  0.00  0.00     0.077 C 
ATOM      3  C1  PXY d   1       0.766   0.418  -1.692  0.00  0.00    -0.082 A 
ATOM      4  C2  PXY d   1       0.392  -0.674  -1.045  0.00  0.00     0.003 A 
ATOM      5  C3  PXY d   1       0.624  -1.913  -1.584  0.00  0.00     0.003 A 
ATOM      6  C4  PXY d   1       1.195  -2.034  -2.823  0.00  0.00    -0.082 A 
ATOM      7  C5  PXY d   1       1.569  -0.924  -3.494  0.00  0.00     0.003 A 
ATOM      8  C6  PXY d   1       1.363   0.323  -2.911  0.00  0.00     0.003 A 
ENDROOT
TORSDOF 0
ENDMDL
