MODEL 1
REMARK minimizedAffinity 3.9223876
REMARK minimizedRMSD -1
REMARK  0 active torsions:
REMARK  status: ('A' for Active; 'I' for Inactive)
ROOT
ATOM      1  C4' PXY d   1      -3.484  -2.310   4.170  0.00  0.00     0.077 C 
ATOM      2  C1' PXY d   1      -3.782   3.200   5.892  0.00  0.00     0.077 C 
ATOM      3  C1  PXY d   1      -3.709   1.751   5.452  0.00  0.00    -0.082 A 
ATOM      4  C2  PXY d   1      -2.834   1.392   4.526  0.00  0.00     0.003 A 
ATOM      5  C3  PXY d   1      -2.777   0.092   4.093  0.00  0.00     0.003 A 
ATOM      6  C4  PXY d   1      -3.586  -0.860   4.651  0.00  0.00    -0.082 A 
ATOM      7  C5  PXY d   1      -4.474  -0.504   5.604  0.00  0.00     0.003 A 
ATOM      8  C6  PXY d   1      -4.545   0.828   6.000  0.00  0.00     0.003 A 
ENDROOT
TORSDOF 0
ENDMDL
