MODEL 1
REMARK minimizedAffinity 6.95308399
REMARK minimizedRMSD -1
REMARK  1 active torsions:
REMARK  status: ('A' for Active; 'I' for Inactive)
REMARK    1  A    between atoms: C1_2  and  C2_3 
ROOT
ATOM      1  C2  UNL d   1       1.181   2.848   0.345  0.00  0.00    -0.076 A 
ATOM      2  C3  UNL d   1       2.218   3.692  -0.090  0.00  0.00     0.004 A 
ATOM      3  C4  UNL d   1       1.940   4.887  -0.753  0.00  0.00    -0.003 A 
ATOM      4  C5  UNL d   1       0.621   5.257  -0.991  0.00  0.00     0.000 A 
ATOM      5  C6  UNL d   1      -0.420   4.440  -0.551  0.00  0.00     0.000 A 
ATOM      6  C7  UNL d   1      -0.158   3.241   0.134  0.00  0.00    -0.073 A 
ATOM      7  C8  UNL d   1      -1.319   2.396   0.581  0.00  0.00     0.078 C 
ENDROOT
BRANCH   1   8
ATOM      8  C1  UNL d   1       1.544   1.552   1.035  0.00  0.00     0.053 C 
ATOM      9  C   UNL d   1       1.412   0.347   0.116  0.00  0.00     0.018 C 
ENDBRANCH   1   8
TORSDOF 1
ENDMDL
