MODEL 1
REMARK minimizedAffinity 3.8446331
REMARK minimizedRMSD -1
REMARK  1 active torsions:
REMARK  status: ('A' for Active; 'I' for Inactive)
REMARK    1  A    between atoms: C1_2  and  C2_3 
ROOT
ATOM      1  C2  UNL d   1      -3.381   4.304   0.767  0.00  0.00    -0.076 A 
ATOM      2  C3  UNL d   1      -3.027   5.178  -0.276  0.00  0.00     0.004 A 
ATOM      3  C4  UNL d   1      -1.908   4.931  -1.070  0.00  0.00    -0.003 A 
ATOM      4  C5  UNL d   1      -1.125   3.807  -0.834  0.00  0.00     0.000 A 
ATOM      5  C6  UNL d   1      -1.471   2.920   0.185  0.00  0.00     0.000 A 
ATOM      6  C7  UNL d   1      -2.605   3.145   0.984  0.00  0.00    -0.073 A 
ATOM      7  C8  UNL d   1      -2.928   2.159   2.073  0.00  0.00     0.078 C 
ENDROOT
BRANCH   1   8
ATOM      8  C1  UNL d   1      -4.589   4.637   1.613  0.00  0.00     0.053 C 
ATOM      9  C   UNL d   1      -5.184   5.995   1.270  0.00  0.00     0.018 C 
ENDBRANCH   1   8
TORSDOF 1
ENDMDL
