MODEL 1
REMARK minimizedAffinity 7.44771051
REMARK minimizedRMSD -1
REMARK  1 active torsions:
REMARK  status: ('A' for Active; 'I' for Inactive)
REMARK    1  A    between atoms: C1_2  and  C2_3 
ROOT
ATOM      1  C2  UNL d   1       0.318   3.271  -1.215  0.00  0.00    -0.076 A 
ATOM      2  C3  UNL d   1       1.520   3.997  -1.150  0.00  0.00     0.004 A 
ATOM      3  C4  UNL d   1       1.560   5.350  -1.481  0.00  0.00    -0.003 A 
ATOM      4  C5  UNL d   1       0.398   6.000  -1.882  0.00  0.00     0.000 A 
ATOM      5  C6  UNL d   1      -0.807   5.300  -1.935  0.00  0.00     0.000 A 
ATOM      6  C7  UNL d   1      -0.868   3.939  -1.589  0.00  0.00    -0.073 A 
ATOM      7  C8  UNL d   1      -2.193   3.232  -1.671  0.00  0.00     0.078 C 
ENDROOT
BRANCH   1   8
ATOM      8  C1  UNL d   1       0.341   1.799  -0.871  0.00  0.00     0.053 C 
ATOM      9  C   UNL d   1       0.386   0.912  -2.105  0.00  0.00     0.018 C 
ENDBRANCH   1   8
TORSDOF 1
ENDMDL
