MODEL 1
REMARK minimizedAffinity 7.88517141
REMARK minimizedRMSD -1
REMARK  1 active torsions:
REMARK  status: ('A' for Active; 'I' for Inactive)
REMARK    1  A    between atoms: C1_2  and  C2_3 
ROOT
ATOM      1  C2  UNL d   1      -0.975   2.317  -2.249  0.00  0.00    -0.076 A 
ATOM      2  C3  UNL d   1      -2.115   3.062  -2.594  0.00  0.00     0.004 A 
ATOM      3  C4  UNL d   1      -2.908   2.700  -3.682  0.00  0.00    -0.003 A 
ATOM      4  C5  UNL d   1      -2.572   1.585  -4.442  0.00  0.00     0.000 A 
ATOM      5  C6  UNL d   1      -1.454   0.824  -4.104  0.00  0.00     0.000 A 
ATOM      6  C7  UNL d   1      -0.654   1.166  -3.000  0.00  0.00    -0.073 A 
ATOM      7  C8  UNL d   1       0.543   0.312  -2.685  0.00  0.00     0.078 C 
ENDROOT
BRANCH   1   8
ATOM      8  C1  UNL d   1      -0.138   2.773  -1.075  0.00  0.00     0.053 C 
ATOM      9  C   UNL d   1       0.208   4.252  -1.146  0.00  0.00     0.018 C 
ENDBRANCH   1   8
TORSDOF 1
ENDMDL
