MODEL 1
REMARK minimizedAffinity -0.657102764
REMARK minimizedRMSD -1
REMARK  1 active torsions:
REMARK  status: ('A' for Active; 'I' for Inactive)
REMARK    1  A    between atoms: C1_2  and  C2_3 
ROOT
ATOM      1  C2  UNL d   1      -3.452   3.806   1.363  0.00  0.00    -0.076 A 
ATOM      2  C3  UNL d   1      -4.658   3.108   1.177  0.00  0.00     0.004 A 
ATOM      3  C4  UNL d   1      -5.887   3.751   1.313  0.00  0.00    -0.003 A 
ATOM      4  C5  UNL d   1      -5.930   5.103   1.637  0.00  0.00     0.000 A 
ATOM      5  C6  UNL d   1      -4.743   5.814   1.808  0.00  0.00     0.000 A 
ATOM      6  C7  UNL d   1      -3.496   5.185   1.658  0.00  0.00    -0.073 A 
ATOM      7  C8  UNL d   1      -2.247   5.999   1.860  0.00  0.00     0.078 C 
ENDROOT
BRANCH   1   8
ATOM      8  C1  UNL d   1      -2.150   3.049   1.229  0.00  0.00     0.053 C 
ATOM      9  C   UNL d   1      -1.536   3.187  -0.155  0.00  0.00     0.018 C 
ENDBRANCH   1   8
TORSDOF 1
ENDMDL
