MODEL 1
REMARK minimizedAffinity 6.27899551
REMARK minimizedRMSD -1
REMARK  1 active torsions:
REMARK  status: ('A' for Active; 'I' for Inactive)
REMARK    1  A    between atoms: C1_2  and  C2_3 
ROOT
ATOM      1  C2  UNL d   1       2.831  -1.913   0.431  0.00  0.00    -0.076 A 
ATOM      2  C3  UNL d   1       3.940  -2.515  -0.190  0.00  0.00     0.004 A 
ATOM      3  C4  UNL d   1       5.127  -2.725   0.509  0.00  0.00    -0.003 A 
ATOM      4  C5  UNL d   1       5.226  -2.337   1.841  0.00  0.00     0.000 A 
ATOM      5  C6  UNL d   1       4.130  -1.754   2.477  0.00  0.00     0.000 A 
ATOM      6  C7  UNL d   1       2.921  -1.550   1.792  0.00  0.00    -0.073 A 
ATOM      7  C8  UNL d   1       1.773  -0.911   2.526  0.00  0.00     0.078 C 
ENDROOT
BRANCH   1   8
ATOM      8  C1  UNL d   1       1.579  -1.686  -0.385  0.00  0.00     0.053 C 
ATOM      9  C   UNL d   1       0.625  -2.870  -0.330  0.00  0.00     0.018 C 
ENDBRANCH   1   8
TORSDOF 1
ENDMDL
