MODEL 1
REMARK minimizedAffinity 11.2419081
REMARK minimizedRMSD -1
REMARK  1 active torsions:
REMARK  status: ('A' for Active; 'I' for Inactive)
REMARK    1  A    between atoms: C1_2  and  C2_3 
ROOT
ATOM      1  C2  UNL d   1      -1.492   5.136  -2.056  0.00  0.00    -0.076 A 
ATOM      2  C3  UNL d   1      -0.318   5.886  -2.240  0.00  0.00     0.004 A 
ATOM      3  C4  UNL d   1       0.928   5.364  -1.898  0.00  0.00    -0.003 A 
ATOM      4  C5  UNL d   1       1.021   4.082  -1.368  0.00  0.00     0.000 A 
ATOM      5  C6  UNL d   1      -0.132   3.316  -1.195  0.00  0.00     0.000 A 
ATOM      6  C7  UNL d   1      -1.395   3.822  -1.549  0.00  0.00    -0.073 A 
ATOM      7  C8  UNL d   1      -2.605   2.955  -1.335  0.00  0.00     0.078 C 
ENDROOT
BRANCH   1   8
ATOM      8  C1  UNL d   1      -2.818   5.765  -2.419  0.00  0.00     0.053 C 
ATOM      9  C   UNL d   1      -3.187   5.546  -3.878  0.00  0.00     0.018 C 
ENDBRANCH   1   8
TORSDOF 1
ENDMDL
