MODEL 1
REMARK minimizedAffinity 14.4431973
REMARK minimizedRMSD -1
REMARK  1 active torsions:
REMARK  status: ('A' for Active; 'I' for Inactive)
REMARK    1  A    between atoms: C1_2  and  C2_3 
ROOT
ATOM      1  C2  UNL d   1      -0.051   3.140  -1.356  0.00  0.00    -0.076 A 
ATOM      2  C3  UNL d   1       1.145   3.858  -1.534  0.00  0.00     0.004 A 
ATOM      3  C4  UNL d   1       1.134   5.153  -2.049  0.00  0.00    -0.003 A 
ATOM      4  C5  UNL d   1      -0.073   5.752  -2.394  0.00  0.00     0.000 A 
ATOM      5  C6  UNL d   1      -1.270   5.061  -2.208  0.00  0.00     0.000 A 
ATOM      6  C7  UNL d   1      -1.278   3.760  -1.675  0.00  0.00    -0.073 A 
ATOM      7  C8  UNL d   1      -2.597   3.059  -1.501  0.00  0.00     0.078 C 
ENDROOT
BRANCH   1   8
ATOM      8  C1  UNL d   1       0.026   1.729  -0.819  0.00  0.00     0.053 C 
ATOM      9  C   UNL d   1       0.296   1.689   0.678  0.00  0.00     0.018 C 
ENDBRANCH   1   8
TORSDOF 1
ENDMDL
