MODEL 1
REMARK minimizedAffinity 12.5868721
REMARK minimizedRMSD -1
REMARK  1 active torsions:
REMARK  status: ('A' for Active; 'I' for Inactive)
REMARK    1  A    between atoms: C1_2  and  C2_3 
ROOT
ATOM      1  C2  UNL d   1      -1.831   2.091  -1.908  0.00  0.00    -0.076 A 
ATOM      2  C3  UNL d   1      -3.181   2.150  -2.298  0.00  0.00     0.004 A 
ATOM      3  C4  UNL d   1      -4.156   2.648  -1.435  0.00  0.00    -0.003 A 
ATOM      4  C5  UNL d   1      -3.797   3.095  -0.168  0.00  0.00     0.000 A 
ATOM      5  C6  UNL d   1      -2.460   3.060   0.229  0.00  0.00     0.000 A 
ATOM      6  C7  UNL d   1      -1.463   2.577  -0.635  0.00  0.00    -0.073 A 
ATOM      7  C8  UNL d   1      -0.038   2.556  -0.153  0.00  0.00     0.078 C 
ENDROOT
BRANCH   1   8
ATOM      8  C1  UNL d   1      -0.822   1.516  -2.877  0.00  0.00     0.053 C 
ATOM      9  C   UNL d   1      -1.431   0.473  -3.801  0.00  0.00     0.018 C 
ENDBRANCH   1   8
TORSDOF 1
ENDMDL
