MODEL 1
REMARK minimizedAffinity -3.65577292
REMARK minimizedRMSD -1
REMARK  0 active torsions:
REMARK  status: ('A' for Active; 'I' for Inactive)
ROOT
ATOM      1  C1  DEN d   1      -0.208  -0.279  -1.138  0.00  0.00     0.130 A 
ATOM      2  C2  DEN d   1       1.096  -0.806  -0.747  0.00  0.00    -0.031 A 
ATOM      3  C3  DEN d   1       1.409  -0.297   0.603  0.00  0.00     0.027 A 
ATOM      4  C4  DEN d   1       0.005   1.246   2.120  0.00  0.00     0.027 A 
ATOM      5  C5  DEN d   1      -1.169   1.960   2.216  0.00  0.00    -0.003 A 
ATOM      6  C6  DEN d   1      -2.081   2.006   1.196  0.00  0.00     0.001 A 
ATOM      7  C7  DEN d   1      -1.856   1.288   0.051  0.00  0.00     0.017 A 
ATOM      8  C8  DEN d   1      -0.672   0.571  -0.056  0.00  0.00    -0.094 A 
ATOM      9  C9  DEN d   1       0.232   0.527   0.992  0.00  0.00    -0.072 A 
ENDROOT
TORSDOF 0
ENDMDL
