MODEL 1
REMARK minimizedAffinity -5.66635132
REMARK minimizedRMSD -1
REMARK  0 active torsions:
REMARK  status: ('A' for Active; 'I' for Inactive)
ROOT
ATOM      1  C1  DEN d   1       0.949  -1.272   0.333  0.00  0.00     0.130 A 
ATOM      2  C2  DEN d   1       0.853  -1.664  -1.071  0.00  0.00    -0.031 A 
ATOM      3  C3  DEN d   1       0.037  -0.653  -1.773  0.00  0.00     0.027 A 
ATOM      4  C4  DEN d   1      -1.077   1.473  -0.829  0.00  0.00     0.027 A 
ATOM      5  C5  DEN d   1      -1.286   2.220   0.309  0.00  0.00    -0.003 A 
ATOM      6  C6  DEN d   1      -0.797   1.841   1.531  0.00  0.00     0.001 A 
ATOM      7  C7  DEN d   1      -0.036   0.707   1.636  0.00  0.00     0.017 A 
ATOM      8  C8  DEN d   1       0.173  -0.056   0.494  0.00  0.00    -0.094 A 
ATOM      9  C9  DEN d   1      -0.320   0.350  -0.735  0.00  0.00    -0.072 A 
ENDROOT
TORSDOF 0
ENDMDL
