MODEL 1
REMARK minimizedAffinity -3.89198279
REMARK minimizedRMSD -1
REMARK  0 active torsions:
REMARK  status: ('A' for Active; 'I' for Inactive)
ROOT
ATOM      1  C1  DEN d   1      -0.468   1.181  -1.633  0.00  0.00     0.130 A 
ATOM      2  C2  DEN d   1       0.340  -0.005  -1.902  0.00  0.00    -0.031 A 
ATOM      3  C3  DEN d   1       0.749  -0.582  -0.606  0.00  0.00     0.027 A 
ATOM      4  C4  DEN d   1       0.209   0.238   1.778  0.00  0.00     0.027 A 
ATOM      5  C5  DEN d   1      -0.434   1.211   2.512  0.00  0.00    -0.003 A 
ATOM      6  C6  DEN d   1      -1.100   2.251   1.921  0.00  0.00     0.001 A 
ATOM      7  C7  DEN d   1      -1.176   2.320   0.554  0.00  0.00     0.017 A 
ATOM      8  C8  DEN d   1      -0.523   1.347  -0.192  0.00  0.00    -0.094 A 
ATOM      9  C9  DEN d   1       0.134   0.296   0.425  0.00  0.00    -0.072 A 
ENDROOT
TORSDOF 0
ENDMDL
