MODEL 1
REMARK minimizedAffinity -3.03666711
REMARK minimizedRMSD -1
REMARK  0 active torsions:
REMARK  status: ('A' for Active; 'I' for Inactive)
ROOT
ATOM      1  C1  DEN d   1      -1.319  -0.255  -1.077  0.00  0.00     0.130 A 
ATOM      2  C2  DEN d   1      -0.473  -1.442  -1.179  0.00  0.00    -0.031 A 
ATOM      3  C3  DEN d   1       0.434  -1.457  -0.014  0.00  0.00     0.027 A 
ATOM      4  C4  DEN d   1       0.608   0.229   1.930  0.00  0.00     0.027 A 
ATOM      5  C5  DEN d   1       0.105   1.404   2.445  0.00  0.00    -0.003 A 
ATOM      6  C6  DEN d   1      -0.875   2.119   1.811  0.00  0.00     0.001 A 
ATOM      7  C7  DEN d   1      -1.416   1.644   0.646  0.00  0.00     0.017 A 
ATOM      8  C8  DEN d   1      -0.910   0.464   0.116  0.00  0.00    -0.094 A 
ATOM      9  C9  DEN d   1       0.073  -0.251   0.779  0.00  0.00    -0.072 A 
ENDROOT
TORSDOF 0
ENDMDL
