MODEL 1
REMARK minimizedAffinity -4.61925125
REMARK minimizedRMSD -1
REMARK  0 active torsions:
REMARK  status: ('A' for Active; 'I' for Inactive)
ROOT
ATOM      1  C1  DEN d   1       0.938  -0.287   0.639  0.00  0.00     0.130 A 
ATOM      2  C2  DEN d   1       1.068  -0.712  -0.752  0.00  0.00    -0.031 A 
ATOM      3  C3  DEN d   1       0.118   0.077  -1.562  0.00  0.00     0.027 A 
ATOM      4  C4  DEN d   1      -1.530   1.909  -0.801  0.00  0.00     0.027 A 
ATOM      5  C5  DEN d   1      -2.010   2.607   0.285  0.00  0.00    -0.003 A 
ATOM      6  C6  DEN d   1      -1.568   2.368   1.560  0.00  0.00     0.001 A 
ATOM      7  C7  DEN d   1      -0.586   1.437   1.774  0.00  0.00     0.017 A 
ATOM      8  C8  DEN d   1      -0.103   0.724   0.685  0.00  0.00    -0.094 A 
ATOM      9  C9  DEN d   1      -0.553   0.990  -0.598  0.00  0.00    -0.072 A 
ENDROOT
TORSDOF 0
ENDMDL
