MODEL 1
REMARK minimizedAffinity -4.97565889
REMARK minimizedRMSD -1
REMARK  0 active torsions:
REMARK  status: ('A' for Active; 'I' for Inactive)
ROOT
ATOM      1  C1  DEN d   1      -0.610   2.947   1.230  0.00  0.00     0.130 A 
ATOM      2  C2  DEN d   1      -0.452   2.230   2.492  0.00  0.00    -0.031 A 
ATOM      3  C3  DEN d   1       0.012   0.862   2.185  0.00  0.00     0.027 A 
ATOM      4  C4  DEN d   1       0.505  -0.207  -0.109  0.00  0.00     0.027 A 
ATOM      5  C5  DEN d   1       0.506   0.006  -1.470  0.00  0.00    -0.003 A 
ATOM      6  C6  DEN d   1       0.106   1.194  -2.024  0.00  0.00     0.001 A 
ATOM      7  C7  DEN d   1      -0.269   2.230  -1.209  0.00  0.00     0.017 A 
ATOM      8  C8  DEN d   1      -0.280   2.020   0.163  0.00  0.00    -0.094 A 
ATOM      9  C9  DEN d   1       0.140   0.816   0.704  0.00  0.00    -0.072 A 
ENDROOT
TORSDOF 0
ENDMDL
