MODEL 1
REMARK minimizedAffinity 10.3949795
REMARK minimizedRMSD -1
REMARK  1 active torsions:
REMARK  status: ('A' for Active; 'I' for Inactive)
REMARK    1  A    between atoms: N_2  and  C1_3 
ROOT
ATOM      1  C1  UNL d   1      -4.995   4.545   3.270  0.00  0.00     0.143 A 
ATOM      2  C2  UNL d   1      -6.000   4.312   4.215  0.00  0.00    -0.057 A 
ATOM      3  C3  UNL d   1      -5.973   4.931   5.471  0.00  0.00     0.033 A 
ATOM      4  C4  UNL d   1      -4.921   5.773   5.816  0.00  0.00    -0.042 A 
ATOM      5  C5  UNL d   1      -3.898   5.999   4.902  0.00  0.00     0.033 A 
ATOM      6  C6  UNL d   1      -3.934   5.384   3.647  0.00  0.00    -0.057 A 
ENDROOT
BRANCH   1   7
ATOM      7  N   UNL d   1      -4.913   3.884   2.042  0.00  0.00    -0.732 N 
ATOM      8  C   UNL d   1      -4.560   2.482   1.982  0.00  0.00     0.284 C 
ATOM      9  H3  UNL d   1      -5.661   4.152   1.406  0.00  0.00     0.395 HD
ENDBRANCH   1   7
TORSDOF 1
ENDMDL
