MODEL 1
REMARK minimizedAffinity 0.695766389
REMARK minimizedRMSD -1
REMARK  1 active torsions:
REMARK  status: ('A' for Active; 'I' for Inactive)
REMARK    1  A    between atoms: N_2  and  C1_3 
ROOT
ATOM      1  C1  UNL d   1      -4.912   4.343   3.434  0.00  0.00     0.143 A 
ATOM      2  C2  UNL d   1      -3.821   5.174   3.709  0.00  0.00    -0.057 A 
ATOM      3  C3  UNL d   1      -3.795   5.984   4.851  0.00  0.00     0.033 A 
ATOM      4  C4  UNL d   1      -4.877   6.000   5.724  0.00  0.00    -0.042 A 
ATOM      5  C5  UNL d   1      -5.983   5.201   5.458  0.00  0.00     0.033 A 
ATOM      6  C6  UNL d   1      -6.000   4.388   4.320  0.00  0.00    -0.057 A 
ENDROOT
BRANCH   1   7
ATOM      7  N   UNL d   1      -5.039   3.588   2.265  0.00  0.00    -0.732 N 
ATOM      8  C   UNL d   1      -4.153   2.473   2.007  0.00  0.00     0.284 C 
ATOM      9  H3  UNL d   1      -6.011   3.412   2.021  0.00  0.00     0.395 HD
ENDBRANCH   1   7
TORSDOF 1
ENDMDL
