MODEL 1
REMARK minimizedAffinity 9.25892735
REMARK minimizedRMSD -1
REMARK  1 active torsions:
REMARK  status: ('A' for Active; 'I' for Inactive)
REMARK    1  A    between atoms: N_2  and  C1_3 
ROOT
ATOM      1  C1  UNL d   1       2.695  -0.753   1.285  0.00  0.00     0.143 A 
ATOM      2  C2  UNL d   1       3.579   0.309   1.503  0.00  0.00    -0.057 A 
ATOM      3  C3  UNL d   1       3.696   1.357   0.583  0.00  0.00     0.033 A 
ATOM      4  C4  UNL d   1       2.949   1.348  -0.590  0.00  0.00    -0.042 A 
ATOM      5  C5  UNL d   1       2.081   0.290  -0.840  0.00  0.00     0.033 A 
ATOM      6  C6  UNL d   1       1.964  -0.751   0.086  0.00  0.00    -0.057 A 
ENDROOT
BRANCH   1   7
ATOM      7  N   UNL d   1       2.605  -1.874   2.114  0.00  0.00    -0.732 N 
ATOM      8  C   UNL d   1       1.378  -2.173   2.820  0.00  0.00     0.284 C 
ATOM      9  H3  UNL d   1       3.065  -2.690   1.715  0.00  0.00     0.395 HD
ENDBRANCH   1   7
TORSDOF 1
ENDMDL
