MODEL 1
REMARK minimizedAffinity 4.78445053
REMARK minimizedRMSD -1
REMARK  1 active torsions:
REMARK  status: ('A' for Active; 'I' for Inactive)
REMARK    1  A    between atoms: N_2  and  C1_3 
ROOT
ATOM      1  C1  UNL d   1      -5.141   4.199   3.536  0.00  0.00     0.143 A 
ATOM      2  C2  UNL d   1      -4.072   5.101   3.509  0.00  0.00    -0.057 A 
ATOM      3  C3  UNL d   1      -3.840   5.984   4.570  0.00  0.00     0.033 A 
ATOM      4  C4  UNL d   1      -4.694   6.000   5.669  0.00  0.00    -0.042 A 
ATOM      5  C5  UNL d   1      -5.777   5.129   5.706  0.00  0.00     0.033 A 
ATOM      6  C6  UNL d   1      -6.000   4.245   4.645  0.00  0.00    -0.057 A 
ENDROOT
BRANCH   1   7
ATOM      7  N   UNL d   1      -5.482   3.365   2.468  0.00  0.00    -0.732 N 
ATOM      8  C   UNL d   1      -4.460   2.645   1.739  0.00  0.00     0.284 C 
ATOM      9  H3  UNL d   1      -6.322   2.821   2.653  0.00  0.00     0.395 HD
ENDBRANCH   1   7
TORSDOF 1
ENDMDL
