MODEL 1
REMARK minimizedAffinity 4.64047623
REMARK minimizedRMSD -1
REMARK  1 active torsions:
REMARK  status: ('A' for Active; 'I' for Inactive)
REMARK    1  A    between atoms: N_2  and  C1_3 
ROOT
ATOM      1  C1  UNL d   1       1.376   0.664  -0.901  0.00  0.00     0.143 A 
ATOM      2  C2  UNL d   1       2.461   0.477  -1.763  0.00  0.00    -0.057 A 
ATOM      3  C3  UNL d   1       3.733   0.157  -1.272  0.00  0.00     0.033 A 
ATOM      4  C4  UNL d   1       3.949   0.047   0.098  0.00  0.00    -0.042 A 
ATOM      5  C5  UNL d   1       2.890   0.253   0.975  0.00  0.00     0.033 A 
ATOM      6  C6  UNL d   1       1.621   0.565   0.478  0.00  0.00    -0.057 A 
ENDROOT
BRANCH   1   7
ATOM      7  N   UNL d   1       0.111   1.079  -1.321  0.00  0.00    -0.732 N 
ATOM      8  C   UNL d   1      -0.983   0.136  -1.410  0.00  0.00     0.284 C 
ATOM      9  H3  UNL d   1      -0.150   1.983  -0.933  0.00  0.00     0.395 HD
ENDBRANCH   1   7
TORSDOF 1
ENDMDL
