MODEL 1
REMARK minimizedAffinity 7.60689306
REMARK minimizedRMSD -1
REMARK  1 active torsions:
REMARK  status: ('A' for Active; 'I' for Inactive)
REMARK    1  A    between atoms: N_2  and  C1_3 
ROOT
ATOM      1  C1  UNL d   1       3.557   0.966  -1.411  0.00  0.00     0.143 A 
ATOM      2  C2  UNL d   1       4.141   0.594  -0.195  0.00  0.00    -0.057 A 
ATOM      3  C3  UNL d   1       3.357   0.233   0.907  0.00  0.00     0.033 A 
ATOM      4  C4  UNL d   1       1.969   0.265   0.821  0.00  0.00    -0.042 A 
ATOM      5  C5  UNL d   1       1.367   0.656  -0.369  0.00  0.00     0.033 A 
ATOM      6  C6  UNL d   1       2.155   1.010  -1.468  0.00  0.00    -0.057 A 
ENDROOT
BRANCH   1   7
ATOM      7  N   UNL d   1       4.281   1.431  -2.512  0.00  0.00    -0.732 N 
ATOM      8  C   UNL d   1       5.519   2.157  -2.327  0.00  0.00     0.284 C 
ATOM      9  H3  UNL d   1       4.304   0.757  -3.274  0.00  0.00     0.395 HD
ENDBRANCH   1   7
TORSDOF 1
ENDMDL
