MODEL 1
REMARK minimizedAffinity 2.92469835
REMARK minimizedRMSD -1
REMARK  1 active torsions:
REMARK  status: ('A' for Active; 'I' for Inactive)
REMARK    1  A    between atoms: N_2  and  C1_3 
ROOT
ATOM      1  C1  UNL d   1      -5.204   4.475   3.721  0.00  0.00     0.143 A 
ATOM      2  C2  UNL d   1      -5.998   4.466   4.874  0.00  0.00    -0.057 A 
ATOM      3  C3  UNL d   1      -5.656   5.228   5.997  0.00  0.00     0.033 A 
ATOM      4  C4  UNL d   1      -4.495   5.994   5.998  0.00  0.00    -0.042 A 
ATOM      5  C5  UNL d   1      -3.678   6.000   4.873  0.00  0.00     0.033 A 
ATOM      6  C6  UNL d   1      -4.028   5.241   3.752  0.00  0.00    -0.057 A 
ENDROOT
BRANCH   1   7
ATOM      7  N   UNL d   1      -5.438   3.663   2.609  0.00  0.00    -0.732 N 
ATOM      8  C   UNL d   1      -4.396   2.799   2.095  0.00  0.00     0.284 C 
ATOM      9  H3  UNL d   1      -6.361   3.235   2.628  0.00  0.00     0.395 HD
ENDBRANCH   1   7
TORSDOF 1
ENDMDL
