MODEL 1
REMARK minimizedAffinity 0.966262639
REMARK minimizedRMSD -1
REMARK  1 active torsions:
REMARK  status: ('A' for Active; 'I' for Inactive)
REMARK    1  A    between atoms: N_2  and  C1_3 
ROOT
ATOM      1  C1  UNL d   1      -5.204   4.555   3.682  0.00  0.00     0.143 A 
ATOM      2  C2  UNL d   1      -6.000   4.542   4.833  0.00  0.00    -0.057 A 
ATOM      3  C3  UNL d   1      -5.636   5.263   5.976  0.00  0.00     0.033 A 
ATOM      4  C4  UNL d   1      -4.451   5.991   5.999  0.00  0.00    -0.042 A 
ATOM      5  C5  UNL d   1      -3.631   5.998   4.876  0.00  0.00     0.033 A 
ATOM      6  C6  UNL d   1      -4.003   5.281   3.735  0.00  0.00    -0.057 A 
ENDROOT
BRANCH   1   7
ATOM      7  N   UNL d   1      -5.461   3.780   2.549  0.00  0.00    -0.732 N 
ATOM      8  C   UNL d   1      -4.402   3.020   1.920  0.00  0.00     0.284 C 
ATOM      9  H3  UNL d   1      -6.348   3.286   2.610  0.00  0.00     0.395 HD
ENDBRANCH   1   7
TORSDOF 1
ENDMDL
