MODEL 1
REMARK minimizedAffinity 6.83744287
REMARK minimizedRMSD -1
REMARK  1 active torsions:
REMARK  status: ('A' for Active; 'I' for Inactive)
REMARK    1  A    between atoms: N_2  and  C1_3 
ROOT
ATOM      1  C1  UNL d   1       4.498  -4.865  -1.680  0.00  0.00     0.143 A 
ATOM      2  C2  UNL d   1       4.495  -4.159  -2.888  0.00  0.00    -0.057 A 
ATOM      3  C3  UNL d   1       5.249  -2.990  -3.048  0.00  0.00     0.033 A 
ATOM      4  C4  UNL d   1       6.000  -2.490  -1.989  0.00  0.00    -0.042 A 
ATOM      5  C5  UNL d   1       5.999  -3.161  -0.772  0.00  0.00     0.033 A 
ATOM      6  C6  UNL d   1       5.249  -4.332  -0.621  0.00  0.00    -0.057 A 
ENDROOT
BRANCH   1   7
ATOM      7  N   UNL d   1       3.693  -5.978  -1.427  0.00  0.00    -0.732 N 
ATOM      8  C   UNL d   1       2.399  -5.824  -0.799  0.00  0.00     0.284 C 
ATOM      9  H3  UNL d   1       3.706  -6.649  -2.192  0.00  0.00     0.395 HD
ENDBRANCH   1   7
TORSDOF 1
ENDMDL
