MODEL 1
REMARK minimizedAffinity 10.8400984
REMARK minimizedRMSD -1
REMARK  1 active torsions:
REMARK  status: ('A' for Active; 'I' for Inactive)
REMARK    1  A    between atoms: N_2  and  C1_3 
ROOT
ATOM      1  C1  UNL d   1      -3.283   4.929  -0.585  0.00  0.00     0.143 A 
ATOM      2  C2  UNL d   1      -3.806   4.569  -1.832  0.00  0.00    -0.057 A 
ATOM      3  C3  UNL d   1      -5.102   4.938  -2.210  0.00  0.00     0.033 A 
ATOM      4  C4  UNL d   1      -5.913   5.651  -1.333  0.00  0.00    -0.042 A 
ATOM      5  C5  UNL d   1      -5.423   5.998  -0.078  0.00  0.00     0.033 A 
ATOM      6  C6  UNL d   1      -4.125   5.632   0.291  0.00  0.00    -0.057 A 
ENDROOT
BRANCH   1   7
ATOM      7  N   UNL d   1      -2.038   4.508  -0.113  0.00  0.00    -0.732 N 
ATOM      8  C   UNL d   1      -1.812   3.121   0.236  0.00  0.00     0.284 C 
ATOM      9  H3  UNL d   1      -1.266   4.941  -0.613  0.00  0.00     0.395 HD
ENDBRANCH   1   7
TORSDOF 1
ENDMDL
