MODEL 1
REMARK minimizedAffinity 5.21449709
REMARK minimizedRMSD -1
REMARK  1 active torsions:
REMARK  status: ('A' for Active; 'I' for Inactive)
REMARK    1  A    between atoms: N_2  and  C1_3 
ROOT
ATOM      1  C1  UNL d   1       0.186   2.158   2.108  0.00  0.00     0.143 A 
ATOM      2  C2  UNL d   1       1.028   2.788   1.185  0.00  0.00    -0.057 A 
ATOM      3  C3  UNL d   1       0.555   3.804   0.346  0.00  0.00     0.033 A 
ATOM      4  C4  UNL d   1      -0.781   4.189   0.395  0.00  0.00    -0.042 A 
ATOM      5  C5  UNL d   1      -1.642   3.560   1.287  0.00  0.00     0.033 A 
ATOM      6  C6  UNL d   1      -1.161   2.550   2.127  0.00  0.00    -0.057 A 
ENDROOT
BRANCH   1   7
ATOM      7  N   UNL d   1       0.573   1.075   2.900  0.00  0.00    -0.732 N 
ATOM      8  C   UNL d   1       1.890   1.032   3.499  0.00  0.00     0.284 C 
ATOM      9  H3  UNL d   1      -0.173   0.757   3.515  0.00  0.00     0.395 HD
ENDBRANCH   1   7
TORSDOF 1
ENDMDL
