MODEL 1
REMARK minimizedAffinity 3.95882344
REMARK minimizedRMSD -1
REMARK  1 active torsions:
REMARK  status: ('A' for Active; 'I' for Inactive)
REMARK    1  A    between atoms: N_2  and  C1_3 
ROOT
ATOM      1  C1  UNL d   1       1.559  -1.083   4.649  0.00  0.00     0.143 A 
ATOM      2  C2  UNL d   1       2.246  -0.282   3.731  0.00  0.00    -0.057 A 
ATOM      3  C3  UNL d   1       1.616   0.794   3.093  0.00  0.00     0.033 A 
ATOM      4  C4  UNL d   1       0.276   1.070   3.341  0.00  0.00    -0.042 A 
ATOM      5  C5  UNL d   1      -0.433   0.272   4.231  0.00  0.00     0.033 A 
ATOM      6  C6  UNL d   1       0.202  -0.797   4.870  0.00  0.00    -0.057 A 
ENDROOT
BRANCH   1   7
ATOM      7  N   UNL d   1       2.100  -2.227   5.242  0.00  0.00    -0.732 N 
ATOM      8  C   UNL d   1       3.331  -2.152   5.999  0.00  0.00     0.284 C 
ATOM      9  H3  UNL d   1       1.389  -2.820   5.662  0.00  0.00     0.395 HD
ENDBRANCH   1   7
TORSDOF 1
ENDMDL
