MODEL 1
REMARK minimizedAffinity 7.54069138
REMARK minimizedRMSD -1
REMARK  1 active torsions:
REMARK  status: ('A' for Active; 'I' for Inactive)
REMARK    1  A    between atoms: N_2  and  C1_3 
ROOT
ATOM      1  C1  UNL d   1       1.488   4.192   0.648  0.00  0.00     0.143 A 
ATOM      2  C2  UNL d   1       0.908   2.950   0.929  0.00  0.00    -0.057 A 
ATOM      3  C3  UNL d   1      -0.403   2.656   0.536  0.00  0.00     0.033 A 
ATOM      4  C4  UNL d   1      -1.170   3.612  -0.122  0.00  0.00    -0.042 A 
ATOM      5  C5  UNL d   1      -0.622   4.862  -0.390  0.00  0.00     0.033 A 
ATOM      6  C6  UNL d   1       0.690   5.147  -0.001  0.00  0.00    -0.057 A 
ENDROOT
BRANCH   1   7
ATOM      7  N   UNL d   1       2.752   4.580   1.099  0.00  0.00    -0.732 N 
ATOM      8  C   UNL d   1       3.118   5.979   1.155  0.00  0.00     0.284 C 
ATOM      9  H3  UNL d   1       3.062   4.036   1.901  0.00  0.00     0.395 HD
ENDBRANCH   1   7
TORSDOF 1
ENDMDL
