MODEL 1
REMARK minimizedAffinity 10.2905197
REMARK minimizedRMSD -1
REMARK  1 active torsions:
REMARK  status: ('A' for Active; 'I' for Inactive)
REMARK    1  A    between atoms: N_2  and  C1_3 
ROOT
ATOM      1  C1  UNL d   1       1.855   0.771   4.153  0.00  0.00     0.143 A 
ATOM      2  C2  UNL d   1       1.134   1.495   3.198  0.00  0.00    -0.057 A 
ATOM      3  C3  UNL d   1       1.687   2.616   2.567  0.00  0.00     0.033 A 
ATOM      4  C4  UNL d   1       2.965   3.051   2.902  0.00  0.00    -0.042 A 
ATOM      5  C5  UNL d   1       3.691   2.361   3.866  0.00  0.00     0.033 A 
ATOM      6  C6  UNL d   1       3.136   1.239   4.488  0.00  0.00    -0.057 A 
ENDROOT
BRANCH   1   7
ATOM      7  N   UNL d   1       1.324  -0.292   4.887  0.00  0.00    -0.732 N 
ATOM      8  C   UNL d   1       1.857  -1.630   4.738  0.00  0.00     0.284 C 
ATOM      9  H3  UNL d   1       1.113  -0.034   5.848  0.00  0.00     0.395 HD
ENDBRANCH   1   7
TORSDOF 1
ENDMDL
