MODEL 1
REMARK minimizedAffinity 9.74567604
REMARK minimizedRMSD -1
REMARK  1 active torsions:
REMARK  status: ('A' for Active; 'I' for Inactive)
REMARK    1  A    between atoms: N_2  and  C1_3 
ROOT
ATOM      1  C1  UNL d   1       0.332   3.291   0.333  0.00  0.00     0.143 A 
ATOM      2  C2  UNL d   1       1.396   3.845   1.054  0.00  0.00    -0.057 A 
ATOM      3  C3  UNL d   1       1.783   5.178   0.869  0.00  0.00     0.033 A 
ATOM      4  C4  UNL d   1       1.130   5.975  -0.065  0.00  0.00    -0.042 A 
ATOM      5  C5  UNL d   1       0.086   5.438  -0.812  0.00  0.00     0.033 A 
ATOM      6  C6  UNL d   1      -0.300   4.108  -0.617  0.00  0.00    -0.057 A 
ENDROOT
BRANCH   1   7
ATOM      7  N   UNL d   1      -0.036   1.946   0.401  0.00  0.00    -0.732 N 
ATOM      8  C   UNL d   1       0.337   1.025  -0.651  0.00  0.00     0.284 C 
ATOM      9  H3  UNL d   1       0.057   1.564   1.339  0.00  0.00     0.395 HD
ENDBRANCH   1   7
TORSDOF 1
ENDMDL
