MODEL 1
REMARK minimizedAffinity 6.8046217
REMARK minimizedRMSD -1
REMARK  1 active torsions:
REMARK  status: ('A' for Active; 'I' for Inactive)
REMARK    1  A    between atoms: N_2  and  C1_3 
ROOT
ATOM      1  C1  UNL d   1       2.580  -5.689  -2.886  0.00  0.00     0.143 A 
ATOM      2  C2  UNL d   1       2.960  -5.255  -4.161  0.00  0.00    -0.057 A 
ATOM      3  C3  UNL d   1       4.279  -4.872  -4.434  0.00  0.00     0.033 A 
ATOM      4  C4  UNL d   1       5.237  -4.887  -3.426  0.00  0.00    -0.042 A 
ATOM      5  C5  UNL d   1       4.876  -5.291  -2.145  0.00  0.00     0.033 A 
ATOM      6  C6  UNL d   1       3.559  -5.679  -1.881  0.00  0.00    -0.057 A 
ENDROOT
BRANCH   1   7
ATOM      7  N   UNL d   1       1.264  -5.989  -2.527  0.00  0.00    -0.732 N 
ATOM      8  C   UNL d   1       0.863  -6.000  -1.137  0.00  0.00     0.284 C 
ATOM      9  H3  UNL d   1       0.584  -5.562  -3.153  0.00  0.00     0.395 HD
ENDBRANCH   1   7
TORSDOF 1
ENDMDL
