MODEL 1
REMARK minimizedAffinity 4.55221844
REMARK minimizedRMSD -1
REMARK  0 active torsions:
REMARK  status: ('A' for Active; 'I' for Inactive)
ROOT
ATOM      1  C   UNL d   1      -0.931   2.423   2.397  0.00  0.00     0.020 A 
ATOM      2  C1  UNL d   1      -0.510   2.745   1.107  0.00  0.00     0.020 A 
ATOM      3  C2  UNL d   1       0.349   1.886   0.418  0.00  0.00     0.034 A 
ATOM      4  C3  UNL d   1       0.789   0.701   1.018  0.00  0.00     0.017 A 
ATOM      5  C4  UNL d   1       0.366   0.379   2.313  0.00  0.00     0.017 A 
ATOM      6  C5  UNL d   1      -0.494   1.242   2.998  0.00  0.00     0.034 A 
ATOM      7 Cl   UNL d   1       0.867  -1.066   3.119  0.00  0.00    -0.070 Cl
ATOM      8 Cl1  UNL d   1       1.850  -0.314   0.108  0.00  0.00    -0.070 Cl
ENDROOT
TORSDOF 0
ENDMDL
