MODEL 1
REMARK minimizedAffinity 4.70019865
REMARK minimizedRMSD -1
REMARK  0 active torsions:
REMARK  status: ('A' for Active; 'I' for Inactive)
ROOT
ATOM      1  C   UNL d   1      -0.145   2.187   1.137  0.00  0.00     0.020 A 
ATOM      2  C1  UNL d   1       0.889   1.648   1.901  0.00  0.00     0.020 A 
ATOM      3  C2  UNL d   1       1.784   0.744   1.325  0.00  0.00     0.034 A 
ATOM      4  C3  UNL d   1       1.646   0.376  -0.019  0.00  0.00     0.017 A 
ATOM      5  C4  UNL d   1       0.607   0.918  -0.785  0.00  0.00     0.017 A 
ATOM      6  C5  UNL d   1      -0.286   1.823  -0.203  0.00  0.00     0.034 A 
ATOM      7 Cl   UNL d   1       0.373   0.512  -2.448  0.00  0.00    -0.070 Cl
ATOM      8 Cl1  UNL d   1       2.789  -0.747  -0.666  0.00  0.00    -0.070 Cl
ENDROOT
TORSDOF 0
ENDMDL
