MODEL 1
REMARK minimizedAffinity 2.23224258
REMARK minimizedRMSD -1
REMARK  0 active torsions:
REMARK  status: ('A' for Active; 'I' for Inactive)
ROOT
ATOM      1  C   UNL d   1      -0.356   0.855  -3.271  0.00  0.00     0.020 A 
ATOM      2  C1  UNL d   1      -1.084   1.866  -2.644  0.00  0.00     0.020 A 
ATOM      3  C2  UNL d   1      -0.945   2.077  -1.271  0.00  0.00     0.034 A 
ATOM      4  C3  UNL d   1      -0.076   1.277  -0.520  0.00  0.00     0.017 A 
ATOM      5  C4  UNL d   1       0.654   0.263  -1.150  0.00  0.00     0.017 A 
ATOM      6  C5  UNL d   1       0.511   0.055  -2.526  0.00  0.00     0.034 A 
ATOM      7 Cl   UNL d   1       1.745  -0.765  -0.290  0.00  0.00    -0.070 Cl
ATOM      8 Cl1  UNL d   1       0.047   1.595   1.174  0.00  0.00    -0.070 Cl
ENDROOT
TORSDOF 0
ENDMDL
