MODEL 1
REMARK minimizedAffinity 6.28009033
REMARK minimizedRMSD -1
REMARK  0 active torsions:
REMARK  status: ('A' for Active; 'I' for Inactive)
ROOT
ATOM      1  C   UNL d   1      -0.645  -0.896  -1.410  0.00  0.00     0.020 A 
ATOM      2  C1  UNL d   1      -1.975  -1.283  -1.250  0.00  0.00     0.020 A 
ATOM      3  C2  UNL d   1      -2.997  -0.340  -1.379  0.00  0.00     0.034 A 
ATOM      4  C3  UNL d   1      -2.691   0.995  -1.669  0.00  0.00     0.017 A 
ATOM      5  C4  UNL d   1      -1.355   1.382  -1.830  0.00  0.00     0.017 A 
ATOM      6  C5  UNL d   1      -0.336   0.434  -1.699  0.00  0.00     0.034 A 
ATOM      7 Cl   UNL d   1      -0.899   3.010  -2.189  0.00  0.00    -0.070 Cl
ATOM      8 Cl1  UNL d   1      -4.004   2.107  -1.816  0.00  0.00    -0.070 Cl
ENDROOT
TORSDOF 0
ENDMDL
