MODEL 1
REMARK minimizedAffinity 0.97160393
REMARK minimizedRMSD -1
REMARK  0 active torsions:
REMARK  status: ('A' for Active; 'I' for Inactive)
ROOT
ATOM      1  C   UNL d   1      -0.071   2.333   0.675  0.00  0.00     0.020 A 
ATOM      2  C1  UNL d   1      -1.214   3.110   0.861  0.00  0.00     0.020 A 
ATOM      3  C2  UNL d   1      -1.955   3.537  -0.243  0.00  0.00     0.034 A 
ATOM      4  C3  UNL d   1      -1.554   3.187  -1.538  0.00  0.00     0.017 A 
ATOM      5  C4  UNL d   1      -0.406   2.408  -1.723  0.00  0.00     0.017 A 
ATOM      6  C5  UNL d   1       0.332   1.983  -0.614  0.00  0.00     0.034 A 
ATOM      7 Cl   UNL d   1       0.151   1.937  -3.290  0.00  0.00    -0.070 Cl
ATOM      8 Cl1  UNL d   1      -2.518   3.750  -2.856  0.00  0.00    -0.070 Cl
ENDROOT
TORSDOF 0
ENDMDL
