MODEL 1
REMARK minimizedAffinity -1.85160053
REMARK minimizedRMSD -1
REMARK  0 active torsions:
REMARK  status: ('A' for Active; 'I' for Inactive)
ROOT
ATOM      1  C   UNL d   1       1.587   5.236  -0.622  0.00  0.00     0.020 A 
ATOM      2  C1  UNL d   1       0.487   4.472  -1.012  0.00  0.00     0.020 A 
ATOM      3  C2  UNL d   1       0.090   3.377  -0.243  0.00  0.00     0.034 A 
ATOM      4  C3  UNL d   1       0.793   3.041   0.920  0.00  0.00     0.017 A 
ATOM      5  C4  UNL d   1       1.897   3.808   1.310  0.00  0.00     0.017 A 
ATOM      6  C5  UNL d   1       2.290   4.904   0.536  0.00  0.00     0.034 A 
ATOM      7 Cl   UNL d   1       2.814   3.456   2.732  0.00  0.00    -0.070 Cl
ATOM      8 Cl1  UNL d   1       0.246   1.673   1.823  0.00  0.00    -0.070 Cl
ENDROOT
TORSDOF 0
ENDMDL
