MODEL 1
REMARK minimizedAffinity 9.63209534
REMARK minimizedRMSD -1
REMARK  0 active torsions:
REMARK  status: ('A' for Active; 'I' for Inactive)
ROOT
ATOM      1  C   UNL d   1      -0.940   2.656  -1.867  0.00  0.00     0.020 A 
ATOM      2  C1  UNL d   1      -1.605   1.706  -1.093  0.00  0.00     0.020 A 
ATOM      3  C2  UNL d   1      -1.246   1.519   0.244  0.00  0.00     0.034 A 
ATOM      4  C3  UNL d   1      -0.220   2.285   0.811  0.00  0.00     0.017 A 
ATOM      5  C4  UNL d   1       0.446   3.239   0.033  0.00  0.00     0.017 A 
ATOM      6  C5  UNL d   1       0.083   3.421  -1.305  0.00  0.00     0.034 A 
ATOM      7 Cl   UNL d   1       1.721   4.221   0.662  0.00  0.00    -0.070 Cl
ATOM      8 Cl1  UNL d   1       0.171   2.001   2.470  0.00  0.00    -0.070 Cl
ENDROOT
TORSDOF 0
ENDMDL
