MODEL 1
REMARK minimizedAffinity -0.971132576
REMARK minimizedRMSD -1
REMARK  1 active torsions:
REMARK  status: ('A' for Active; 'I' for Inactive)
REMARK    1  A    between atoms: C1_2  and  C2_3 
ROOT
ATOM      1  C2  UNL d   1       0.685  -1.791   0.190  0.00  0.00    -0.081 A 
ATOM      2  C3  UNL d   1       0.462  -3.173   0.160  0.00  0.00     0.006 A 
ATOM      3  C4  UNL d   1       1.532  -4.059   0.010  0.00  0.00     0.002 A 
ATOM      4  C5  UNL d   1       2.841  -3.579  -0.105  0.00  0.00    -0.080 A 
ATOM      5  C6  UNL d   1       4.001  -4.521  -0.236  0.00  0.00     0.076 C 
ATOM      6  C7  UNL d   1       3.061  -2.198  -0.093  0.00  0.00     0.002 A 
ATOM      7  C8  UNL d   1       1.992  -1.311   0.056  0.00  0.00     0.006 A 
ENDROOT
BRANCH   1   8
ATOM      8  C1  UNL d   1      -0.459  -0.836   0.416  0.00  0.00     0.054 C 
ATOM      9  C   UNL d   1      -0.439  -0.275   1.831  0.00  0.00     0.018 C 
ENDBRANCH   1   8
TORSDOF 1
ENDMDL
