MODEL 1
REMARK minimizedAffinity -2.37874889
REMARK minimizedRMSD -1
REMARK  1 active torsions:
REMARK  status: ('A' for Active; 'I' for Inactive)
REMARK    1  A    between atoms: C1_2  and  C2_3 
ROOT
ATOM      1  C2  UNL d   1       1.142  -0.304   0.220  0.00  0.00    -0.081 A 
ATOM      2  C3  UNL d   1       1.424   0.768   1.076  0.00  0.00     0.006 A 
ATOM      3  C4  UNL d   1       2.104   1.892   0.602  0.00  0.00     0.002 A 
ATOM      4  C5  UNL d   1       2.506   1.967  -0.736  0.00  0.00    -0.080 A 
ATOM      5  C6  UNL d   1       3.210   3.181  -1.265  0.00  0.00     0.076 C 
ATOM      6  C7  UNL d   1       2.240   0.889  -1.587  0.00  0.00     0.002 A 
ATOM      7  C8  UNL d   1       1.561  -0.236  -1.113  0.00  0.00     0.006 A 
ENDROOT
BRANCH   1   8
ATOM      8  C1  UNL d   1       0.352  -1.490   0.712  0.00  0.00     0.054 C 
ATOM      9  C   UNL d   1       0.943  -2.798   0.204  0.00  0.00     0.018 C 
ENDBRANCH   1   8
TORSDOF 1
ENDMDL
