MODEL 1
REMARK minimizedAffinity -1.61577129
REMARK minimizedRMSD -1
REMARK  1 active torsions:
REMARK  status: ('A' for Active; 'I' for Inactive)
REMARK    1  A    between atoms: C1_2  and  C2_3 
ROOT
ATOM      1  C2  UNL d   1       0.364  -1.268   1.342  0.00  0.00    -0.081 A 
ATOM      2  C3  UNL d   1       0.497  -2.631   1.635  0.00  0.00     0.006 A 
ATOM      3  C4  UNL d   1       1.419  -3.418   0.942  0.00  0.00     0.002 A 
ATOM      4  C5  UNL d   1       2.229  -2.855  -0.050  0.00  0.00    -0.080 A 
ATOM      5  C6  UNL d   1       3.244  -3.682  -0.781  0.00  0.00     0.076 C 
ATOM      6  C7  UNL d   1       2.085  -1.497  -0.355  0.00  0.00     0.002 A 
ATOM      7  C8  UNL d   1       1.163  -0.709   0.338  0.00  0.00     0.006 A 
ENDROOT
BRANCH   1   8
ATOM      8  C1  UNL d   1      -0.583  -0.402   2.133  0.00  0.00     0.054 C 
ATOM      9  C   UNL d   1      -1.853  -0.111   1.346  0.00  0.00     0.018 C 
ENDBRANCH   1   8
TORSDOF 1
ENDMDL
