MODEL 1
REMARK minimizedAffinity 2.92866611
REMARK minimizedRMSD -1
REMARK  1 active torsions:
REMARK  status: ('A' for Active; 'I' for Inactive)
REMARK    1  A    between atoms: C1_2  and  C2_3 
ROOT
ATOM      1  C2  UNL d   1       2.644  -3.636  -0.287  0.00  0.00    -0.081 A 
ATOM      2  C3  UNL d   1       1.319  -4.030  -0.067  0.00  0.00     0.006 A 
ATOM      3  C4  UNL d   1       0.360  -3.097   0.334  0.00  0.00     0.002 A 
ATOM      4  C5  UNL d   1       0.708  -1.754   0.513  0.00  0.00    -0.080 A 
ATOM      5  C6  UNL d   1      -0.318  -0.736   0.914  0.00  0.00     0.076 C 
ATOM      6  C7  UNL d   1       2.036  -1.363   0.310  0.00  0.00     0.002 A 
ATOM      7  C8  UNL d   1       2.995  -2.296  -0.090  0.00  0.00     0.006 A 
ENDROOT
BRANCH   1   8
ATOM      8  C1  UNL d   1       3.667  -4.628  -0.782  0.00  0.00     0.054 C 
ATOM      9  C   UNL d   1       4.263  -5.427   0.368  0.00  0.00     0.018 C 
ENDBRANCH   1   8
TORSDOF 1
ENDMDL
