MODEL 1
REMARK minimizedAffinity -5.33946609
REMARK minimizedRMSD -1
REMARK  1 active torsions:
REMARK  status: ('A' for Active; 'I' for Inactive)
REMARK    1  A    between atoms: C1_2  and  C2_3 
ROOT
ATOM      1  C2  UNL d   1       2.772  -3.672  -0.107  0.00  0.00    -0.081 A 
ATOM      2  C3  UNL d   1       1.498  -4.188  -0.378  0.00  0.00     0.006 A 
ATOM      3  C4  UNL d   1       0.378  -3.354  -0.355  0.00  0.00     0.002 A 
ATOM      4  C5  UNL d   1       0.512  -1.991  -0.068  0.00  0.00    -0.080 A 
ATOM      5  C6  UNL d   1      -0.679  -1.080  -0.070  0.00  0.00     0.076 C 
ATOM      6  C7  UNL d   1       1.782  -1.480   0.220  0.00  0.00     0.002 A 
ATOM      7  C8  UNL d   1       2.903  -2.313   0.197  0.00  0.00     0.006 A 
ENDROOT
BRANCH   1   8
ATOM      8  C1  UNL d   1       3.991  -4.555  -0.195  0.00  0.00     0.054 C 
ATOM      9  C   UNL d   1       3.870  -5.758   0.729  0.00  0.00     0.018 C 
ENDBRANCH   1   8
TORSDOF 1
ENDMDL
