MODEL 1
REMARK minimizedAffinity -3.46499228
REMARK minimizedRMSD -1
REMARK  1 active torsions:
REMARK  status: ('A' for Active; 'I' for Inactive)
REMARK    1  A    between atoms: C1_2  and  C2_3 
ROOT
ATOM      1  C2  UNL d   1      -0.526  -0.888   1.120  0.00  0.00    -0.081 A 
ATOM      2  C3  UNL d   1      -0.902  -2.070   0.470  0.00  0.00     0.006 A 
ATOM      3  C4  UNL d   1       0.066  -2.986   0.050  0.00  0.00     0.002 A 
ATOM      4  C5  UNL d   1       1.424  -2.739   0.281  0.00  0.00    -0.080 A 
ATOM      5  C6  UNL d   1       2.471  -3.729  -0.138  0.00  0.00     0.076 C 
ATOM      6  C7  UNL d   1       1.800  -1.550   0.914  0.00  0.00     0.002 A 
ATOM      7  C8  UNL d   1       0.833  -0.634   1.333  0.00  0.00     0.006 A 
ENDROOT
BRANCH   1   8
ATOM      8  C1  UNL d   1      -1.571   0.071   1.631  0.00  0.00     0.054 C 
ATOM      9  C   UNL d   1      -2.706   0.237   0.631  0.00  0.00     0.018 C 
ENDBRANCH   1   8
TORSDOF 1
ENDMDL
