MODEL 1
REMARK minimizedAffinity -0.247837603
REMARK minimizedRMSD -1
REMARK  1 active torsions:
REMARK  status: ('A' for Active; 'I' for Inactive)
REMARK    1  A    between atoms: C1_2  and  C2_3 
ROOT
ATOM      1  C2  UNL d   1       1.964  -2.625   0.092  0.00  0.00    -0.081 A 
ATOM      2  C3  UNL d   1       1.405  -1.341   0.097  0.00  0.00     0.006 A 
ATOM      3  C4  UNL d   1       0.041  -1.163   0.338  0.00  0.00     0.002 A 
ATOM      4  C5  UNL d   1      -0.786  -2.265   0.586  0.00  0.00    -0.080 A 
ATOM      5  C6  UNL d   1      -2.246  -2.085   0.875  0.00  0.00     0.076 C 
ATOM      6  C7  UNL d   1      -0.231  -3.549   0.563  0.00  0.00     0.002 A 
ATOM      7  C8  UNL d   1       1.133  -3.727   0.322  0.00  0.00     0.006 A 
ENDROOT
BRANCH   1   8
ATOM      8  C1  UNL d   1       3.446  -2.815  -0.103  0.00  0.00     0.054 C 
ATOM      9  C   UNL d   1       3.790  -4.278  -0.342  0.00  0.00     0.018 C 
ENDBRANCH   1   8
TORSDOF 1
ENDMDL
