MODEL 1
REMARK minimizedAffinity -5.35311651
REMARK minimizedRMSD -1
REMARK  1 active torsions:
REMARK  status: ('A' for Active; 'I' for Inactive)
REMARK    1  A    between atoms: C1_2  and  C2_3 
ROOT
ATOM      1  C2  UNL d   1       2.872  -2.969  -0.046  0.00  0.00    -0.081 A 
ATOM      2  C3  UNL d   1       1.633  -3.596   0.140  0.00  0.00     0.006 A 
ATOM      3  C4  UNL d   1       0.490  -2.839   0.406  0.00  0.00     0.002 A 
ATOM      4  C5  UNL d   1       0.563  -1.444   0.483  0.00  0.00    -0.080 A 
ATOM      5  C6  UNL d   1      -0.663  -0.619   0.738  0.00  0.00     0.076 C 
ATOM      6  C7  UNL d   1       1.803  -0.819   0.314  0.00  0.00     0.002 A 
ATOM      7  C8  UNL d   1       2.947  -1.575   0.049  0.00  0.00     0.006 A 
ENDROOT
BRANCH   1   8
ATOM      8  C1  UNL d   1       4.095  -3.776  -0.398  0.00  0.00     0.054 C 
ATOM      9  C   UNL d   1       4.028  -5.173   0.205  0.00  0.00     0.018 C 
ENDBRANCH   1   8
TORSDOF 1
ENDMDL
