MODEL 1
REMARK minimizedAffinity 2.5032866
REMARK minimizedRMSD -1
REMARK  1 active torsions:
REMARK  status: ('A' for Active; 'I' for Inactive)
REMARK    1  A    between atoms: C1_2  and  C2_3 
ROOT
ATOM      1  C2  UNL d   1       1.157  -3.166   0.216  0.00  0.00    -0.081 A 
ATOM      2  C3  UNL d   1       1.940  -2.265   0.948  0.00  0.00     0.006 A 
ATOM      3  C4  UNL d   1       1.385  -1.080   1.436  0.00  0.00     0.002 A 
ATOM      4  C5  UNL d   1       0.038  -0.780   1.208  0.00  0.00    -0.080 A 
ATOM      5  C6  UNL d   1      -0.578   0.474   1.753  0.00  0.00     0.076 C 
ATOM      6  C7  UNL d   1      -0.740  -1.672   0.463  0.00  0.00     0.002 A 
ATOM      7  C8  UNL d   1      -0.185  -2.857  -0.026  0.00  0.00     0.006 A 
ENDROOT
BRANCH   1   8
ATOM      8  C1  UNL d   1       1.736  -4.476  -0.256  0.00  0.00     0.054 C 
ATOM      9  C   UNL d   1       3.132  -4.700   0.308  0.00  0.00     0.018 C 
ENDBRANCH   1   8
TORSDOF 1
ENDMDL
