MODEL 1
REMARK minimizedAffinity 3.90984607
REMARK minimizedRMSD -1
REMARK  1 active torsions:
REMARK  status: ('A' for Active; 'I' for Inactive)
REMARK    1  A    between atoms: C1_2  and  C2_3 
ROOT
ATOM      1  C2  UNL d   1       0.853  -2.353   0.310  0.00  0.00    -0.081 A 
ATOM      2  C3  UNL d   1       1.571  -1.379   1.016  0.00  0.00     0.006 A 
ATOM      3  C4  UNL d   1       0.929  -0.234   1.494  0.00  0.00     0.002 A 
ATOM      4  C5  UNL d   1      -0.442  -0.048   1.282  0.00  0.00    -0.080 A 
ATOM      5  C6  UNL d   1      -1.149   1.162   1.816  0.00  0.00     0.076 C 
ATOM      6  C7  UNL d   1      -1.155  -1.013   0.562  0.00  0.00     0.002 A 
ATOM      7  C8  UNL d   1      -0.514  -2.157   0.083  0.00  0.00     0.006 A 
ENDROOT
BRANCH   1   8
ATOM      8  C1  UNL d   1       1.529  -3.619  -0.151  0.00  0.00     0.054 C 
ATOM      9  C   UNL d   1       0.702  -4.334  -1.210  0.00  0.00     0.018 C 
ENDBRANCH   1   8
TORSDOF 1
ENDMDL
