MODEL 1
REMARK minimizedAffinity 2.27398491
REMARK minimizedRMSD -1
REMARK  1 active torsions:
REMARK  status: ('A' for Active; 'I' for Inactive)
REMARK    1  A    between atoms: C1_2  and  C2_3 
ROOT
ATOM      1  C2  UNL d   1      -0.091  -0.890   1.021  0.00  0.00    -0.081 A 
ATOM      2  C3  UNL d   1      -0.598  -2.060   0.443  0.00  0.00     0.006 A 
ATOM      3  C4  UNL d   1       0.168  -3.228   0.420  0.00  0.00     0.002 A 
ATOM      4  C5  UNL d   1       1.449  -3.248   0.982  0.00  0.00    -0.080 A 
ATOM      5  C6  UNL d   1       2.270  -4.503   0.991  0.00  0.00     0.076 C 
ATOM      6  C7  UNL d   1       1.962  -2.074   1.544  0.00  0.00     0.002 A 
ATOM      7  C8  UNL d   1       1.197  -0.906   1.566  0.00  0.00     0.006 A 
ENDROOT
BRANCH   1   8
ATOM      8  C1  UNL d   1      -0.939   0.354   1.104  0.00  0.00     0.054 C 
ATOM      9  C   UNL d   1      -2.382   0.066   0.715  0.00  0.00     0.018 C 
ENDBRANCH   1   8
TORSDOF 1
ENDMDL
