MODEL 1
REMARK minimizedAffinity -2.72950482
REMARK minimizedRMSD -1
REMARK  1 active torsions:
REMARK  status: ('A' for Active; 'I' for Inactive)
REMARK    1  A    between atoms: C1_2  and  C2_3 
ROOT
ATOM      1  C2  UNL d   1       1.158   0.296   0.008  0.00  0.00    -0.077 A 
ATOM      2  C3  UNL d   1       0.944   0.567  -1.350  0.00  0.00     0.002 A 
ATOM      3  C4  UNL d   1      -0.310   0.351  -1.925  0.00  0.00     0.002 A 
ATOM      4  C5  UNL d   1      -1.360  -0.132  -1.148  0.00  0.00    -0.004 A 
ATOM      5  C6  UNL d   1      -1.157  -0.406   0.204  0.00  0.00     0.002 A 
ATOM      6  C7  UNL d   1       0.096  -0.192   0.780  0.00  0.00     0.002 A 
ENDROOT
BRANCH   1   7
ATOM      7  C1  UNL d   1       2.496   0.575   0.641  0.00  0.00     0.055 C 
ATOM      8  C   UNL d   1       2.518   1.941   1.312  0.00  0.00     0.019 C 
ENDBRANCH   1   7
TORSDOF 1
ENDMDL
