MODEL 1
REMARK minimizedAffinity -1.22341883
REMARK minimizedRMSD -1
REMARK  1 active torsions:
REMARK  status: ('A' for Active; 'I' for Inactive)
REMARK    1  A    between atoms: C1_2  and  C2_3 
ROOT
ATOM      1  C2  UNL d   1      -1.161  -0.590  -0.637  0.00  0.00    -0.077 A 
ATOM      2  C3  UNL d   1      -0.270   0.299  -1.255  0.00  0.00     0.002 A 
ATOM      3  C4  UNL d   1       1.026   0.457  -0.760  0.00  0.00     0.002 A 
ATOM      4  C5  UNL d   1       1.444  -0.273   0.351  0.00  0.00    -0.004 A 
ATOM      5  C6  UNL d   1       0.564  -1.158   0.973  0.00  0.00     0.002 A 
ATOM      6  C7  UNL d   1      -0.732  -1.316   0.481  0.00  0.00     0.002 A 
ENDROOT
BRANCH   1   7
ATOM      7  C1  UNL d   1      -2.543  -0.798  -1.199  0.00  0.00     0.055 C 
ATOM      8  C   UNL d   1      -3.353  -1.753  -0.335  0.00  0.00     0.019 C 
ENDBRANCH   1   7
TORSDOF 1
ENDMDL
