MODEL 1
REMARK minimizedAffinity -2.33933902
REMARK minimizedRMSD -1
REMARK  1 active torsions:
REMARK  status: ('A' for Active; 'I' for Inactive)
REMARK    1  A    between atoms: C1_2  and  C2_3 
ROOT
ATOM      1  C2  UNL d   1       0.267  -0.084  -0.077  0.00  0.00    -0.077 A 
ATOM      2  C3  UNL d   1      -0.016   0.403  -1.361  0.00  0.00     0.002 A 
ATOM      3  C4  UNL d   1      -1.236   0.109  -1.974  0.00  0.00     0.002 A 
ATOM      4  C5  UNL d   1      -2.182  -0.669  -1.310  0.00  0.00    -0.004 A 
ATOM      5  C6  UNL d   1      -1.909  -1.159  -0.034  0.00  0.00     0.002 A 
ATOM      6  C7  UNL d   1      -0.690  -0.867   0.580  0.00  0.00     0.002 A 
ENDROOT
BRANCH   1   7
ATOM      7  C1  UNL d   1       1.561   0.273   0.606  0.00  0.00     0.055 C 
ATOM      8  C   UNL d   1       2.058   1.644   0.170  0.00  0.00     0.019 C 
ENDBRANCH   1   7
TORSDOF 1
ENDMDL
