MODEL 1
REMARK minimizedAffinity -2.06811118
REMARK minimizedRMSD -1
REMARK  1 active torsions:
REMARK  status: ('A' for Active; 'I' for Inactive)
REMARK    1  A    between atoms: C1_2  and  C2_3 
ROOT
ATOM      1  C2  UNL d   1       1.099   0.701   0.075  0.00  0.00    -0.077 A 
ATOM      2  C3  UNL d   1       0.137   1.075  -0.874  0.00  0.00     0.002 A 
ATOM      3  C4  UNL d   1      -0.992   0.281  -1.086  0.00  0.00     0.002 A 
ATOM      4  C5  UNL d   1      -1.170  -0.890  -0.351  0.00  0.00    -0.004 A 
ATOM      5  C6  UNL d   1      -0.217  -1.271   0.593  0.00  0.00     0.002 A 
ATOM      6  C7  UNL d   1       0.912  -0.479   0.805  0.00  0.00     0.002 A 
ENDROOT
BRANCH   1   7
ATOM      7  C1  UNL d   1       2.292   1.582   0.340  0.00  0.00     0.055 C 
ATOM      8  C   UNL d   1       2.032   2.533   1.499  0.00  0.00     0.019 C 
ENDBRANCH   1   7
TORSDOF 1
ENDMDL
