MODEL 1
REMARK minimizedAffinity -3.45714092
REMARK minimizedRMSD -1
REMARK  1 active torsions:
REMARK  status: ('A' for Active; 'I' for Inactive)
REMARK    1  A    between atoms: C1_2  and  C2_3 
ROOT
ATOM      1  C2  UNL d   1       1.782   0.426   0.465  0.00  0.00    -0.077 A 
ATOM      2  C3  UNL d   1       0.498   0.615  -0.064  0.00  0.00     0.002 A 
ATOM      3  C4  UNL d   1      -0.513  -0.315   0.184  0.00  0.00     0.002 A 
ATOM      4  C5  UNL d   1      -0.251  -1.439   0.965  0.00  0.00    -0.004 A 
ATOM      5  C6  UNL d   1       1.023  -1.638   1.494  0.00  0.00     0.002 A 
ATOM      6  C7  UNL d   1       2.035  -0.709   1.246  0.00  0.00     0.002 A 
ENDROOT
BRANCH   1   7
ATOM      7  C1  UNL d   1       2.861   1.453   0.239  0.00  0.00     0.055 C 
ATOM      8  C   UNL d   1       2.849   2.516   1.328  0.00  0.00     0.019 C 
ENDBRANCH   1   7
TORSDOF 1
ENDMDL
