MODEL 1
REMARK minimizedAffinity -2.92626929
REMARK minimizedRMSD -1
REMARK  1 active torsions:
REMARK  status: ('A' for Active; 'I' for Inactive)
REMARK    1  A    between atoms: C1_2  and  C2_3 
ROOT
ATOM      1  C2  UNL d   1       1.645   0.780   0.774  0.00  0.00    -0.077 A 
ATOM      2  C3  UNL d   1       1.497   1.717   1.807  0.00  0.00     0.002 A 
ATOM      3  C4  UNL d   1       2.369   2.803   1.904  0.00  0.00     0.002 A 
ATOM      4  C5  UNL d   1       3.391   2.965   0.971  0.00  0.00    -0.004 A 
ATOM      5  C6  UNL d   1       3.547   2.037  -0.058  0.00  0.00     0.002 A 
ATOM      6  C7  UNL d   1       2.678   0.950  -0.156  0.00  0.00     0.002 A 
ENDROOT
BRANCH   1   7
ATOM      7  C1  UNL d   1       0.676  -0.365   0.639  0.00  0.00     0.055 C 
ATOM      8  C   UNL d   1      -0.613   0.078  -0.038  0.00  0.00     0.019 C 
ENDBRANCH   1   7
TORSDOF 1
ENDMDL
