MODEL 1
REMARK minimizedAffinity 9.26080894
REMARK minimizedRMSD -1
REMARK  1 active torsions:
REMARK  status: ('A' for Active; 'I' for Inactive)
REMARK    1  A    between atoms: C1_2  and  C2_3 
ROOT
ATOM      1  C2  UNL d   1      -1.991  -1.051  -0.765  0.00  0.00    -0.077 A 
ATOM      2  C3  UNL d   1      -1.040  -1.071  -1.795  0.00  0.00     0.002 A 
ATOM      3  C4  UNL d   1      -1.041  -0.077  -2.775  0.00  0.00     0.002 A 
ATOM      4  C5  UNL d   1      -1.987   0.945  -2.734  0.00  0.00    -0.004 A 
ATOM      5  C6  UNL d   1      -2.938   0.972  -1.714  0.00  0.00     0.002 A 
ATOM      6  C7  UNL d   1      -2.940  -0.021  -0.734  0.00  0.00     0.002 A 
ENDROOT
BRANCH   1   7
ATOM      7  C1  UNL d   1      -1.962  -2.094   0.322  0.00  0.00     0.055 C 
ATOM      8  C   UNL d   1      -0.783  -1.882   1.261  0.00  0.00     0.019 C 
ENDBRANCH   1   7
TORSDOF 1
ENDMDL
