MODEL 1
REMARK minimizedAffinity -4.608356
REMARK minimizedRMSD -1
REMARK  1 active torsions:
REMARK  status: ('A' for Active; 'I' for Inactive)
REMARK    1  A    between atoms: C1_2  and  C2_3 
ROOT
ATOM      1  C2  UNL d   1      -0.200   0.051  -0.294  0.00  0.00    -0.077 A 
ATOM      2  C3  UNL d   1       1.090   0.556  -0.078  0.00  0.00     0.002 A 
ATOM      3  C4  UNL d   1       1.988  -0.127   0.744  0.00  0.00     0.002 A 
ATOM      4  C5  UNL d   1       1.608  -1.321   1.354  0.00  0.00    -0.004 A 
ATOM      5  C6  UNL d   1       0.326  -1.830   1.147  0.00  0.00     0.002 A 
ATOM      6  C7  UNL d   1      -0.573  -1.148   0.327  0.00  0.00     0.002 A 
ENDROOT
BRANCH   1   7
ATOM      7  C1  UNL d   1      -1.153   0.761  -1.219  0.00  0.00     0.055 C 
ATOM      8  C   UNL d   1      -2.240  -0.178  -1.721  0.00  0.00     0.019 C 
ENDBRANCH   1   7
TORSDOF 1
ENDMDL
