MODEL 1
REMARK minimizedAffinity -4.40009689
REMARK minimizedRMSD -1
REMARK  1 active torsions:
REMARK  status: ('A' for Active; 'I' for Inactive)
REMARK    1  A    between atoms: C1_2  and  C2_3 
ROOT
ATOM      1  C2  UNL d   1      -0.202  -0.183  -0.059  0.00  0.00    -0.077 A 
ATOM      2  C3  UNL d   1      -0.684   0.703  -1.033  0.00  0.00     0.002 A 
ATOM      3  C4  UNL d   1      -1.914   0.473  -1.651  0.00  0.00     0.002 A 
ATOM      4  C5  UNL d   1      -2.674  -0.641  -1.300  0.00  0.00    -0.004 A 
ATOM      5  C6  UNL d   1      -2.203  -1.530  -0.335  0.00  0.00     0.002 A 
ATOM      6  C7  UNL d   1      -0.973  -1.302   0.283  0.00  0.00     0.002 A 
ENDROOT
BRANCH   1   7
ATOM      7  C1  UNL d   1       1.102   0.090   0.644  0.00  0.00     0.055 C 
ATOM      8  C   UNL d   1       1.952   1.085  -0.133  0.00  0.00     0.019 C 
ENDBRANCH   1   7
TORSDOF 1
ENDMDL
