MODEL 1
REMARK minimizedAffinity -4.47452307
REMARK minimizedRMSD -1
REMARK  1 active torsions:
REMARK  status: ('A' for Active; 'I' for Inactive)
REMARK    1  A    between atoms: C1_2  and  C2_3 
ROOT
ATOM      1  C2  UNL d   1       1.054   1.167   0.674  0.00  0.00    -0.077 A 
ATOM      2  C3  UNL d   1       0.871   2.148   1.660  0.00  0.00     0.002 A 
ATOM      3  C4  UNL d   1       1.801   3.178   1.811  0.00  0.00     0.002 A 
ATOM      4  C5  UNL d   1       2.917   3.240   0.979  0.00  0.00    -0.004 A 
ATOM      5  C6  UNL d   1       3.108   2.269  -0.003  0.00  0.00     0.002 A 
ATOM      6  C7  UNL d   1       2.181   1.237  -0.155  0.00  0.00     0.002 A 
ENDROOT
BRANCH   1   7
ATOM      7  C1  UNL d   1       0.027   0.083   0.477  0.00  0.00     0.055 C 
ATOM      8  C   UNL d   1      -0.798   0.324  -0.779  0.00  0.00     0.019 C 
ENDBRANCH   1   7
TORSDOF 1
ENDMDL
