MODEL 1
REMARK minimizedAffinity -3.74721742
REMARK minimizedRMSD -1
REMARK  1 active torsions:
REMARK  status: ('A' for Active; 'I' for Inactive)
REMARK    1  A    between atoms: C1_2  and  C2_3 
ROOT
ATOM      1  C2  UNL d   1       1.707   0.790   0.043  0.00  0.00    -0.077 A 
ATOM      2  C3  UNL d   1       1.330   1.517   1.180  0.00  0.00     0.002 A 
ATOM      3  C4  UNL d   1       1.969   2.718   1.495  0.00  0.00     0.002 A 
ATOM      4  C5  UNL d   1       2.986   3.204   0.676  0.00  0.00    -0.004 A 
ATOM      5  C6  UNL d   1       3.370   2.487  -0.456  0.00  0.00     0.002 A 
ATOM      6  C7  UNL d   1       2.733   1.286  -0.772  0.00  0.00     0.002 A 
ENDROOT
BRANCH   1   7
ATOM      7  C1  UNL d   1       0.986  -0.480  -0.326  0.00  0.00     0.055 C 
ATOM      8  C   UNL d   1      -0.362  -0.184  -0.969  0.00  0.00     0.019 C 
ENDBRANCH   1   7
TORSDOF 1
ENDMDL
