MODEL 1
REMARK minimizedAffinity -3.34825587
REMARK minimizedRMSD -1
REMARK  1 active torsions:
REMARK  status: ('A' for Active; 'I' for Inactive)
REMARK    1  A    between atoms: C1_2  and  C2_3 
ROOT
ATOM      1  C2  UNL d   1       0.153   0.311  -0.023  0.00  0.00    -0.077 A 
ATOM      2  C3  UNL d   1       1.531   0.168  -0.232  0.00  0.00     0.002 A 
ATOM      3  C4  UNL d   1       2.424   1.118   0.268  0.00  0.00     0.002 A 
ATOM      4  C5  UNL d   1       1.949   2.215   0.983  0.00  0.00    -0.004 A 
ATOM      5  C6  UNL d   1       0.579   2.368   1.194  0.00  0.00     0.002 A 
ATOM      6  C7  UNL d   1      -0.315   1.420   0.695  0.00  0.00     0.002 A 
ENDROOT
BRANCH   1   7
ATOM      7  C1  UNL d   1      -0.808  -0.738  -0.518  0.00  0.00     0.055 C 
ATOM      8  C   UNL d   1      -1.920  -0.120  -1.354  0.00  0.00     0.019 C 
ENDBRANCH   1   7
TORSDOF 1
ENDMDL
