MODEL 1
REMARK minimizedAffinity -1.87865663
REMARK minimizedRMSD -1
REMARK  1 active torsions:
REMARK  status: ('A' for Active; 'I' for Inactive)
REMARK    1  A    between atoms: C1_2  and  C2_3 
ROOT
ATOM      1  C2  UNL d   1       1.337   1.226   0.621  0.00  0.00    -0.077 A 
ATOM      2  C3  UNL d   1       2.582   1.399   0.001  0.00  0.00     0.002 A 
ATOM      3  C4  UNL d   1       3.438   2.423   0.409  0.00  0.00     0.002 A 
ATOM      4  C5  UNL d   1       3.061   3.279   1.441  0.00  0.00    -0.004 A 
ATOM      5  C6  UNL d   1       1.824   3.116   2.063  0.00  0.00     0.002 A 
ATOM      6  C7  UNL d   1       0.966   2.094   1.656  0.00  0.00     0.002 A 
ENDROOT
BRANCH   1   7
ATOM      7  C1  UNL d   1       0.433   0.091   0.216  0.00  0.00     0.055 C 
ATOM      8  C   UNL d   1      -0.496   0.501  -0.917  0.00  0.00     0.019 C 
ENDBRANCH   1   7
TORSDOF 1
ENDMDL
