MODEL 1
REMARK minimizedAffinity -3.87378764
REMARK minimizedRMSD -1
REMARK  0 active torsions:
REMARK  status: ('A' for Active; 'I' for Inactive)
ROOT
ATOM      1  C4' PXY d   1      -5.980   2.422   5.993  0.00  0.00     0.077 C 
ATOM      2  C1' PXY d   1      -4.507   5.991   1.690  0.00  0.00     0.077 C 
ATOM      3  C1  PXY d   1      -4.895   5.065   2.827  0.00  0.00    -0.082 A 
ATOM      4  C2  PXY d   1      -4.502   3.802   2.804  0.00  0.00     0.003 A 
ATOM      5  C3  PXY d   1      -4.870   2.943   3.808  0.00  0.00     0.003 A 
ATOM      6  C4  PXY d   1      -5.604   3.395   4.872  0.00  0.00    -0.082 A 
ATOM      7  C5  PXY d   1      -6.000   4.685   4.907  0.00  0.00     0.003 A 
ATOM      8  C6  PXY d   1      -5.650   5.531   3.858  0.00  0.00     0.003 A 
ENDROOT
TORSDOF 0
ENDMDL
