MODEL 1
REMARK minimizedAffinity -3.36928391
REMARK minimizedRMSD -1
REMARK  0 active torsions:
REMARK  status: ('A' for Active; 'I' for Inactive)
ROOT
ATOM      1  C4' PXY d   1      -4.869   5.999   0.798  0.00  0.00     0.077 C 
ATOM      2  C1' PXY d   1      -4.931   3.478   6.000  0.00  0.00     0.077 C 
ATOM      3  C1  PXY d   1      -4.902   4.141   4.637  0.00  0.00    -0.082 A 
ATOM      4  C2  PXY d   1      -6.000   4.705   4.160  0.00  0.00     0.003 A 
ATOM      5  C3  PXY d   1      -5.999   5.281   2.916  0.00  0.00     0.003 A 
ATOM      6  C4  PXY d   1      -4.850   5.326   2.174  0.00  0.00    -0.082 A 
ATOM      7  C5  PXY d   1      -3.723   4.762   2.658  0.00  0.00     0.003 A 
ATOM      8  C6  PXY d   1      -3.754   4.147   3.905  0.00  0.00     0.003 A 
ENDROOT
TORSDOF 0
ENDMDL
