MODEL 1
REMARK minimizedAffinity 3.80799484
REMARK minimizedRMSD -1
REMARK  0 active torsions:
REMARK  status: ('A' for Active; 'I' for Inactive)
ROOT
ATOM      1  C4' PXY d   1      -3.924   0.891   1.081  0.00  0.00     0.077 C 
ATOM      2  C1' PXY d   1      -5.945   5.998   2.883  0.00  0.00     0.077 C 
ATOM      3  C1  PXY d   1      -5.419   4.661   2.398  0.00  0.00    -0.082 A 
ATOM      4  C2  PXY d   1      -5.266   3.668   3.258  0.00  0.00     0.003 A 
ATOM      5  C3  PXY d   1      -4.762   2.462   2.843  0.00  0.00     0.003 A 
ATOM      6  C4  PXY d   1      -4.461   2.255   1.524  0.00  0.00    -0.082 A 
ATOM      7  C5  PXY d   1      -4.624   3.260   0.638  0.00  0.00     0.003 A 
ATOM      8  C6  PXY d   1      -5.098   4.489   1.087  0.00  0.00     0.003 A 
ENDROOT
TORSDOF 0
ENDMDL
