MODEL 1
REMARK minimizedAffinity -4.26966238
REMARK minimizedRMSD -1
REMARK  0 active torsions:
REMARK  status: ('A' for Active; 'I' for Inactive)
ROOT
ATOM      1  C4' PXY d   1      -5.251   6.000   0.710  0.00  0.00     0.077 C 
ATOM      2  C1' PXY d   1      -4.546   2.640   5.361  0.00  0.00     0.077 C 
ATOM      3  C1  PXY d   1      -4.732   3.531   4.149  0.00  0.00    -0.082 A 
ATOM      4  C2  PXY d   1      -5.115   3.000   2.999  0.00  0.00     0.003 A 
ATOM      5  C3  PXY d   1      -5.258   3.787   1.885  0.00  0.00     0.003 A 
ATOM      6  C4  PXY d   1      -5.059   5.140   1.962  0.00  0.00    -0.082 A 
ATOM      7  C5  PXY d   1      -4.679   5.690   3.134  0.00  0.00     0.003 A 
ATOM      8  C6  PXY d   1      -4.499   4.868   4.243  0.00  0.00     0.003 A 
ENDROOT
TORSDOF 0
ENDMDL
