MODEL 1
REMARK minimizedAffinity -2.78232217
REMARK minimizedRMSD -1
REMARK  0 active torsions:
REMARK  status: ('A' for Active; 'I' for Inactive)
ROOT
ATOM      1  C4' PXY d   1      -4.632   2.636   5.710  0.00  0.00     0.077 C 
ATOM      2  C1' PXY d   1      -5.275   5.840   0.942  0.00  0.00     0.077 C 
ATOM      3  C1  PXY d   1      -5.114   4.991   2.187  0.00  0.00    -0.082 A 
ATOM      4  C2  PXY d   1      -4.835   5.570   3.343  0.00  0.00     0.003 A 
ATOM      5  C3  PXY d   1      -4.654   4.814   4.473  0.00  0.00     0.003 A 
ATOM      6  C4  PXY d   1      -4.813   3.455   4.429  0.00  0.00    -0.082 A 
ATOM      7  C5  PXY d   1      -5.107   2.857   3.255  0.00  0.00     0.003 A 
ATOM      8  C6  PXY d   1      -5.246   3.638   2.112  0.00  0.00     0.003 A 
ENDROOT
TORSDOF 0
ENDMDL
