MODEL 1
REMARK minimizedAffinity -3.13763928
REMARK minimizedRMSD -1
REMARK  0 active torsions:
REMARK  status: ('A' for Active; 'I' for Inactive)
ROOT
ATOM      1  C4' PXY d   1      -5.623   1.876   5.939  0.00  0.00     0.077 C 
ATOM      2  C1' PXY d   1      -5.610   6.000   1.889  0.00  0.00     0.077 C 
ATOM      3  C1  PXY d   1      -5.612   4.927   2.960  0.00  0.00    -0.082 A 
ATOM      4  C2  PXY d   1      -5.248   3.694   2.652  0.00  0.00     0.003 A 
ATOM      5  C3  PXY d   1      -5.274   2.704   3.601  0.00  0.00     0.003 A 
ATOM      6  C4  PXY d   1      -5.627   2.993   4.892  0.00  0.00    -0.082 A 
ATOM      7  C5  PXY d   1      -5.990   4.251   5.217  0.00  0.00     0.003 A 
ATOM      8  C6  PXY d   1      -5.996   5.232   4.230  0.00  0.00     0.003 A 
ENDROOT
TORSDOF 0
ENDMDL
