MODEL 1
REMARK minimizedAffinity -3.6287539
REMARK minimizedRMSD -1
REMARK  0 active torsions:
REMARK  status: ('A' for Active; 'I' for Inactive)
ROOT
ATOM      1  C4' PXY d   1      -5.888   5.210   5.999  0.00  0.00     0.077 C 
ATOM      2  C1' PXY d   1      -4.244   5.014   0.461  0.00  0.00     0.077 C 
ATOM      3  C1  PXY d   1      -4.671   5.053   1.915  0.00  0.00    -0.082 A 
ATOM      4  C2  PXY d   1      -5.624   5.889   2.294  0.00  0.00     0.003 A 
ATOM      5  C3  PXY d   1      -6.000   5.960   3.611  0.00  0.00     0.003 A 
ATOM      6  C4  PXY d   1      -5.432   5.130   4.540  0.00  0.00    -0.082 A 
ATOM      7  C5  PXY d   1      -4.467   4.266   4.158  0.00  0.00     0.003 A 
ATOM      8  C6  PXY d   1      -4.071   4.238   2.824  0.00  0.00     0.003 A 
ENDROOT
TORSDOF 0
ENDMDL
