MODEL 1
REMARK minimizedAffinity -3.02535844
REMARK minimizedRMSD -1
REMARK  0 active torsions:
REMARK  status: ('A' for Active; 'I' for Inactive)
ROOT
ATOM      1  C4' PXY d   1      -3.744   1.897   2.581  0.00  0.00     0.077 C 
ATOM      2  C1' PXY d   1      -5.961   5.998   6.000  0.00  0.00     0.077 C 
ATOM      3  C1  PXY d   1      -5.378   4.915   5.114  0.00  0.00    -0.082 A 
ATOM      4  C2  PXY d   1      -4.797   5.246   3.972  0.00  0.00     0.003 A 
ATOM      5  C3  PXY d   1      -4.294   4.276   3.143  0.00  0.00     0.003 A 
ATOM      6  C4  PXY d   1      -4.338   2.959   3.512  0.00  0.00    -0.082 A 
ATOM      7  C5  PXY d   1      -4.920   2.614   4.680  0.00  0.00     0.003 A 
ATOM      8  C6  PXY d   1      -5.462   3.610   5.488  0.00  0.00     0.003 A 
ENDROOT
TORSDOF 0
ENDMDL
