MODEL 1
REMARK minimizedAffinity -3.31535959
REMARK minimizedRMSD -1
REMARK  0 active torsions:
REMARK  status: ('A' for Active; 'I' for Inactive)
ROOT
ATOM      1  C4' PXY d   1      -4.959   6.000   0.853  0.00  0.00     0.077 C 
ATOM      2  C1' PXY d   1      -5.405   3.406   6.000  0.00  0.00     0.077 C 
ATOM      3  C1  PXY d   1      -5.284   4.097   4.656  0.00  0.00    -0.082 A 
ATOM      4  C2  PXY d   1      -5.973   3.642   3.622  0.00  0.00     0.003 A 
ATOM      5  C3  PXY d   1      -5.852   4.236   2.392  0.00  0.00     0.003 A 
ATOM      6  C4  PXY d   1      -5.057   5.339   2.231  0.00  0.00    -0.082 A 
ATOM      7  C5  PXY d   1      -4.359   5.816   3.284  0.00  0.00     0.003 A 
ATOM      8  C6  PXY d   1      -4.464   5.174   4.514  0.00  0.00     0.003 A 
ENDROOT
TORSDOF 0
ENDMDL
