MODEL 1
REMARK minimizedAffinity -3.3030827
REMARK minimizedRMSD -1
REMARK  0 active torsions:
REMARK  status: ('A' for Active; 'I' for Inactive)
ROOT
ATOM      1  C4' PXY d   1      -4.815   3.590   6.000  0.00  0.00     0.077 C 
ATOM      2  C1' PXY d   1      -5.413   5.997   0.778  0.00  0.00     0.077 C 
ATOM      3  C1  PXY d   1      -5.258   5.377   2.153  0.00  0.00    -0.082 A 
ATOM      4  C2  PXY d   1      -4.620   4.225   2.283  0.00  0.00     0.003 A 
ATOM      5  C3  PXY d   1      -4.498   3.635   3.515  0.00  0.00     0.003 A 
ATOM      6  C4  PXY d   1      -4.988   4.257   4.632  0.00  0.00    -0.082 A 
ATOM      7  C5  PXY d   1      -5.630   5.438   4.509  0.00  0.00     0.003 A 
ATOM      8  C6  PXY d   1      -5.779   6.000   3.245  0.00  0.00     0.003 A 
ENDROOT
TORSDOF 0
ENDMDL
