MODEL 1
REMARK minimizedAffinity -3.28976488
REMARK minimizedRMSD -1
REMARK  0 active torsions:
REMARK  status: ('A' for Active; 'I' for Inactive)
ROOT
ATOM      1  C4' PXY d   1      -4.919   6.000   1.040  0.00  0.00     0.077 C 
ATOM      2  C1' PXY d   1      -5.124   3.037   6.000  0.00  0.00     0.077 C 
ATOM      3  C1  PXY d   1      -5.082   3.819   4.702  0.00  0.00    -0.082 A 
ATOM      4  C2  PXY d   1      -4.341   3.381   3.697  0.00  0.00     0.003 A 
ATOM      5  C3  PXY d   1      -4.266   4.093   2.528  0.00  0.00     0.003 A 
ATOM      6  C4  PXY d   1      -4.999   5.237   2.366  0.00  0.00    -0.082 A 
ATOM      7  C5  PXY d   1      -5.766   5.686   3.382  0.00  0.00     0.003 A 
ATOM      8  C6  PXY d   1      -5.797   4.971   4.575  0.00  0.00     0.003 A 
ENDROOT
TORSDOF 0
ENDMDL
