MODEL 1
REMARK minimizedAffinity -3.80926919
REMARK minimizedRMSD -1
REMARK  0 active torsions:
REMARK  status: ('A' for Active; 'I' for Inactive)
ROOT
ATOM      1  C4' PXY d   1      -5.148   5.978   1.465  0.00  0.00     0.077 C 
ATOM      2  C1' PXY d   1      -5.367   2.259   5.884  0.00  0.00     0.077 C 
ATOM      3  C1  PXY d   1      -5.310   3.244   4.733  0.00  0.00    -0.082 A 
ATOM      4  C2  PXY d   1      -5.731   2.875   3.535  0.00  0.00     0.003 A 
ATOM      5  C3  PXY d   1      -5.657   3.743   2.476  0.00  0.00     0.003 A 
ATOM      6  C4  PXY d   1      -5.196   5.020   2.658  0.00  0.00    -0.082 A 
ATOM      7  C5  PXY d   1      -4.774   5.407   3.880  0.00  0.00     0.003 A 
ATOM      8  C6  PXY d   1      -4.820   4.498   4.933  0.00  0.00     0.003 A 
ENDROOT
TORSDOF 0
ENDMDL
