MODEL 1
REMARK minimizedAffinity -3.85128188
REMARK minimizedRMSD -1
REMARK  0 active torsions:
REMARK  status: ('A' for Active; 'I' for Inactive)
ROOT
ATOM      1  C4' PXY d   1      -4.869   6.000   1.078  0.00  0.00     0.077 C 
ATOM      2  C1' PXY d   1      -5.985   2.733   5.715  0.00  0.00     0.077 C 
ATOM      3  C1  PXY d   1      -5.702   3.599   4.502  0.00  0.00    -0.082 A 
ATOM      4  C2  PXY d   1      -5.156   3.057   3.426  0.00  0.00     0.003 A 
ATOM      5  C3  PXY d   1      -4.863   3.831   2.333  0.00  0.00     0.003 A 
ATOM      6  C4  PXY d   1      -5.181   5.163   2.321  0.00  0.00    -0.082 A 
ATOM      7  C5  PXY d   1      -5.749   5.720   3.412  0.00  0.00     0.003 A 
ATOM      8  C6  PXY d   1      -6.000   4.926   4.527  0.00  0.00     0.003 A 
ENDROOT
TORSDOF 0
ENDMDL
