MODEL 1
REMARK minimizedAffinity -2.95931911
REMARK minimizedRMSD -1
REMARK  0 active torsions:
REMARK  status: ('A' for Active; 'I' for Inactive)
ROOT
ATOM      1  C4' PXY d   1      -5.262   5.574   1.497  0.00  0.00     0.077 C 
ATOM      2  C1' PXY d   1      -5.631   1.966   5.999  0.00  0.00     0.077 C 
ATOM      3  C1  PXY d   1      -5.524   2.905   4.813  0.00  0.00    -0.082 A 
ATOM      4  C2  PXY d   1      -6.000   4.136   4.909  0.00  0.00     0.003 A 
ATOM      5  C3  PXY d   1      -5.940   4.988   3.837  0.00  0.00     0.003 A 
ATOM      6  C4  PXY d   1      -5.340   4.594   2.671  0.00  0.00    -0.082 A 
ATOM      7  C5  PXY d   1      -4.843   3.343   2.569  0.00  0.00     0.003 A 
ATOM      8  C6  PXY d   1      -4.950   2.480   3.656  0.00  0.00     0.003 A 
ENDROOT
TORSDOF 0
ENDMDL
