MODEL 1
REMARK minimizedAffinity -2.13344741
REMARK minimizedRMSD -1
REMARK  0 active torsions:
REMARK  status: ('A' for Active; 'I' for Inactive)
ROOT
ATOM      1  C4' PXY d   1      -5.515   2.948   5.952  0.00  0.00     0.077 C 
ATOM      2  C1' PXY d   1      -4.858   6.000   1.087  0.00  0.00     0.077 C 
ATOM      3  C1  PXY d   1      -5.042   5.195   2.358  0.00  0.00    -0.082 A 
ATOM      4  C2  PXY d   1      -4.434   5.579   3.469  0.00  0.00     0.003 A 
ATOM      5  C3  PXY d   1      -4.564   4.845   4.620  0.00  0.00     0.003 A 
ATOM      6  C4  PXY d   1      -5.366   3.736   4.647  0.00  0.00    -0.082 A 
ATOM      7  C5  PXY d   1      -5.998   3.343   3.521  0.00  0.00     0.003 A 
ATOM      8  C6  PXY d   1      -5.820   4.079   2.352  0.00  0.00     0.003 A 
ENDROOT
TORSDOF 0
ENDMDL
