MODEL 1
REMARK minimizedAffinity -4.07881117
REMARK minimizedRMSD -1
REMARK  0 active torsions:
REMARK  status: ('A' for Active; 'I' for Inactive)
ROOT
ATOM      1  C4' PXY d   1      -5.055   2.269   5.866  0.00  0.00     0.077 C 
ATOM      2  C1' PXY d   1      -5.142   5.620   1.157  0.00  0.00     0.077 C 
ATOM      3  C1  PXY d   1      -5.106   4.744   2.394  0.00  0.00    -0.082 A 
ATOM      4  C2  PXY d   1      -5.998   3.776   2.535  0.00  0.00     0.003 A 
ATOM      5  C3  PXY d   1      -6.000   2.995   3.662  0.00  0.00     0.003 A 
ATOM      6  C4  PXY d   1      -5.047   3.172   4.630  0.00  0.00    -0.082 A 
ATOM      7  C5  PXY d   1      -4.128   4.150   4.488  0.00  0.00     0.003 A 
ATOM      8  C6  PXY d   1      -4.168   4.959   3.355  0.00  0.00     0.003 A 
ENDROOT
TORSDOF 0
ENDMDL
