MODEL 1
REMARK minimizedAffinity -3.27179098
REMARK minimizedRMSD -1
REMARK  0 active torsions:
REMARK  status: ('A' for Active; 'I' for Inactive)
ROOT
ATOM      1  C4' PXY d   1      -5.114   2.727   5.999  0.00  0.00     0.077 C 
ATOM      2  C1' PXY d   1      -5.035   5.992   1.229  0.00  0.00     0.077 C 
ATOM      3  C1  PXY d   1      -5.050   5.127   2.474  0.00  0.00    -0.082 A 
ATOM      4  C2  PXY d   1      -5.984   5.315   3.391  0.00  0.00     0.003 A 
ATOM      5  C3  PXY d   1      -5.993   4.563   4.538  0.00  0.00     0.003 A 
ATOM      6  C4  PXY d   1      -5.067   3.571   4.722  0.00  0.00    -0.082 A 
ATOM      7  C5  PXY d   1      -4.117   3.365   3.786  0.00  0.00     0.003 A 
ATOM      8  C6  PXY d   1      -4.101   4.167   2.648  0.00  0.00     0.003 A 
ENDROOT
TORSDOF 0
ENDMDL
