MODEL 1
REMARK minimizedAffinity -3.43735456
REMARK minimizedRMSD -1
REMARK  0 active torsions:
REMARK  status: ('A' for Active; 'I' for Inactive)
ROOT
ATOM      1  C4' PXY d   1      -5.978   2.360   5.938  0.00  0.00     0.077 C 
ATOM      2  C1' PXY d   1      -4.861   6.000   1.588  0.00  0.00     0.077 C 
ATOM      3  C1  PXY d   1      -5.145   5.051   2.736  0.00  0.00    -0.082 A 
ATOM      4  C2  PXY d   1      -5.695   3.874   2.490  0.00  0.00     0.003 A 
ATOM      5  C3  PXY d   1      -5.988   3.016   3.520  0.00  0.00     0.003 A 
ATOM      6  C4  PXY d   1      -5.665   3.346   4.809  0.00  0.00    -0.082 A 
ATOM      7  C5  PXY d   1      -5.094   4.542   5.066  0.00  0.00     0.003 A 
ATOM      8  C6  PXY d   1      -4.842   5.414   4.012  0.00  0.00     0.003 A 
ENDROOT
TORSDOF 0
ENDMDL
