MODEL 1
REMARK minimizedAffinity -3.30533576
REMARK minimizedRMSD -1
REMARK  0 active torsions:
REMARK  status: ('A' for Active; 'I' for Inactive)
ROOT
ATOM      1  C4' PXY d   1      -4.559   5.614   1.676  0.00  0.00     0.077 C 
ATOM      2  C1' PXY d   1      -5.956   2.039   5.999  0.00  0.00     0.077 C 
ATOM      3  C1  PXY d   1      -5.588   2.986   4.874  0.00  0.00    -0.082 A 
ATOM      4  C2  PXY d   1      -5.997   2.729   3.642  0.00  0.00     0.003 A 
ATOM      5  C3  PXY d   1      -5.646   3.558   2.607  0.00  0.00     0.003 A 
ATOM      6  C4  PXY d   1      -4.914   4.691   2.845  0.00  0.00    -0.082 A 
ATOM      7  C5  PXY d   1      -4.503   4.966   4.100  0.00  0.00     0.003 A 
ATOM      8  C6  PXY d   1      -4.834   4.090   5.130  0.00  0.00     0.003 A 
ENDROOT
TORSDOF 0
ENDMDL
