MODEL 1
REMARK minimizedAffinity -2.3098464
REMARK minimizedRMSD -1
REMARK  2 active torsions:
REMARK  status: ('A' for Active; 'I' for Inactive)
REMARK    1  A    between atoms: C1_2  and  C2_3 
REMARK    2  A    between atoms: C2_3  and  C3_4 
ROOT
ATOM      1  C3  UNL d   1       0.899   0.203   0.736  0.00  0.00    -0.075 A 
ATOM      2  C4  UNL d   1      -0.242   0.565   0.006  0.00  0.00     0.002 A 
ATOM      3  C5  UNL d   1      -1.448  -0.110   0.196  0.00  0.00     0.002 A 
ATOM      4  C6  UNL d   1      -1.527  -1.159   1.109  0.00  0.00    -0.004 A 
ATOM      5  C7  UNL d   1      -0.395  -1.538   1.828  0.00  0.00     0.002 A 
ATOM      6  C8  UNL d   1       0.812  -0.862   1.643  0.00  0.00     0.002 A 
ENDROOT
BRANCH   1   7
ATOM      7  C2  UNL d   1       2.200   0.948   0.556  0.00  0.00     0.056 C 
BRANCH   7   8
ATOM      8  C1  UNL d   1       2.500   1.956   1.671  0.00  0.00     0.007 C 
ATOM      9  C   UNL d   1       2.646   3.385   1.164  0.00  0.00     0.009 C 
ENDBRANCH   7   8
ENDBRANCH   1   7
TORSDOF 2
ENDMDL
