MODEL 1
REMARK minimizedAffinity -3.77093816
REMARK minimizedRMSD -1
REMARK  2 active torsions:
REMARK  status: ('A' for Active; 'I' for Inactive)
REMARK    1  A    between atoms: C1_2  and  C2_3 
REMARK    2  A    between atoms: C2_3  and  C3_4 
ROOT
ATOM      1  C3  UNL d   1       0.083  -0.361  -0.182  0.00  0.00    -0.075 A 
ATOM      2  C4  UNL d   1      -0.785  -0.898   0.781  0.00  0.00     0.002 A 
ATOM      3  C5  UNL d   1      -2.081  -1.279   0.432  0.00  0.00     0.002 A 
ATOM      4  C6  UNL d   1      -2.529  -1.119  -0.877  0.00  0.00    -0.004 A 
ATOM      5  C7  UNL d   1      -1.681  -0.571  -1.838  0.00  0.00     0.002 A 
ATOM      6  C8  UNL d   1      -0.382  -0.193  -1.493  0.00  0.00     0.002 A 
ENDROOT
BRANCH   1   7
ATOM      7  C2  UNL d   1       1.496   0.026   0.183  0.00  0.00     0.056 C 
BRANCH   7   8
ATOM      8  C1  UNL d   1       1.650   1.486   0.622  0.00  0.00     0.007 C 
ATOM      9  C   UNL d   1       2.870   2.169   0.019  0.00  0.00     0.009 C 
ENDBRANCH   7   8
ENDBRANCH   1   7
TORSDOF 2
ENDMDL
