MODEL 1
REMARK minimizedAffinity -1.98508465
REMARK minimizedRMSD -1
REMARK  2 active torsions:
REMARK  status: ('A' for Active; 'I' for Inactive)
REMARK    1  A    between atoms: C1_2  and  C2_3 
REMARK    2  A    between atoms: C2_3  and  C3_4 
ROOT
ATOM      1  C3  UNL d   1       0.106   0.678  -0.064  0.00  0.00    -0.075 A 
ATOM      2  C4  UNL d   1      -0.110   2.041   0.188  0.00  0.00     0.002 A 
ATOM      3  C5  UNL d   1       0.962   2.887   0.474  0.00  0.00     0.002 A 
ATOM      4  C6  UNL d   1       2.259   2.381   0.522  0.00  0.00    -0.004 A 
ATOM      5  C7  UNL d   1       2.484   1.025   0.290  0.00  0.00     0.002 A 
ATOM      6  C8  UNL d   1       1.413   0.178  -0.001  0.00  0.00     0.002 A 
ENDROOT
BRANCH   1   7
ATOM      7  C2  UNL d   1      -1.046  -0.237  -0.403  0.00  0.00     0.056 C 
BRANCH   7   8
ATOM      8  C1  UNL d   1      -1.143  -0.593  -1.890  0.00  0.00     0.007 C 
ATOM      9  C   UNL d   1      -2.203  -1.646  -2.187  0.00  0.00     0.009 C 
ENDBRANCH   7   8
ENDBRANCH   1   7
TORSDOF 2
ENDMDL
