MODEL 1
REMARK minimizedAffinity -1.49183428
REMARK minimizedRMSD -1
REMARK  2 active torsions:
REMARK  status: ('A' for Active; 'I' for Inactive)
REMARK    1  A    between atoms: C1_2  and  C2_3 
REMARK    2  A    between atoms: C2_3  and  C3_4 
ROOT
ATOM      1  C3  UNL d   1       0.970   0.301   0.366  0.00  0.00    -0.075 A 
ATOM      2  C4  UNL d   1      -0.292   0.430  -0.231  0.00  0.00     0.002 A 
ATOM      3  C5  UNL d   1      -1.347  -0.395   0.158  0.00  0.00     0.002 A 
ATOM      4  C6  UNL d   1      -1.152  -1.364   1.140  0.00  0.00    -0.004 A 
ATOM      5  C7  UNL d   1       0.102  -1.512   1.728  0.00  0.00     0.002 A 
ATOM      6  C8  UNL d   1       1.159  -0.685   1.344  0.00  0.00     0.002 A 
ENDROOT
BRANCH   1   7
ATOM      7  C2  UNL d   1       2.109   1.211  -0.029  0.00  0.00     0.056 C 
BRANCH   7   8
ATOM      8  C1  UNL d   1       2.567   2.157   1.085  0.00  0.00     0.007 C 
ATOM      9  C   UNL d   1       2.702   3.604   0.628  0.00  0.00     0.009 C 
ENDBRANCH   7   8
ENDBRANCH   1   7
TORSDOF 2
ENDMDL
