MODEL 1
REMARK minimizedAffinity -5.65263653
REMARK minimizedRMSD -1
REMARK  2 active torsions:
REMARK  status: ('A' for Active; 'I' for Inactive)
REMARK    1  A    between atoms: C1_2  and  C2_3 
REMARK    2  A    between atoms: C2_3  and  C3_4 
ROOT
ATOM      1  C3  UNL d   1      -0.400  -0.059  -0.338  0.00  0.00    -0.075 A 
ATOM      2  C4  UNL d   1      -0.973  -1.003   0.526  0.00  0.00     0.002 A 
ATOM      3  C5  UNL d   1      -2.335  -1.297   0.450  0.00  0.00     0.002 A 
ATOM      4  C6  UNL d   1      -3.141  -0.644  -0.480  0.00  0.00    -0.004 A 
ATOM      5  C7  UNL d   1      -2.585   0.309  -1.331  0.00  0.00     0.002 A 
ATOM      6  C8  UNL d   1      -1.222   0.601  -1.261  0.00  0.00     0.002 A 
ENDROOT
BRANCH   1   7
ATOM      7  C2  UNL d   1       1.079   0.242  -0.281  0.00  0.00     0.056 C 
BRANCH   7   8
ATOM      8  C1  UNL d   1       1.410   1.654   0.214  0.00  0.00     0.007 C 
ATOM      9  C   UNL d   1       2.906   1.929   0.290  0.00  0.00     0.009 C 
ENDBRANCH   7   8
ENDBRANCH   1   7
TORSDOF 2
ENDMDL
