MODEL 1
REMARK minimizedAffinity -5.50051308
REMARK minimizedRMSD -1
REMARK  2 active torsions:
REMARK  status: ('A' for Active; 'I' for Inactive)
REMARK    1  A    between atoms: C1_2  and  C2_3 
REMARK    2  A    between atoms: C2_3  and  C3_4 
ROOT
ATOM      1  C3  UNL d   1       0.135   0.326   0.239  0.00  0.00    -0.075 A 
ATOM      2  C4  UNL d   1      -0.005   0.600  -1.129  0.00  0.00     0.002 A 
ATOM      3  C5  UNL d   1      -1.174   0.248  -1.805  0.00  0.00     0.002 A 
ATOM      4  C6  UNL d   1      -2.210  -0.390  -1.127  0.00  0.00    -0.004 A 
ATOM      5  C7  UNL d   1      -2.074  -0.682   0.228  0.00  0.00     0.002 A 
ATOM      6  C8  UNL d   1      -0.908  -0.327   0.909  0.00  0.00     0.002 A 
ENDROOT
BRANCH   1   7
ATOM      7  C2  UNL d   1       1.385   0.731   0.984  0.00  0.00     0.056 C 
BRANCH   7   8
ATOM      8  C1  UNL d   1       2.221   1.797   0.267  0.00  0.00     0.007 C 
ATOM      9  C   UNL d   1       1.904   3.215   0.723  0.00  0.00     0.009 C 
ENDBRANCH   7   8
ENDBRANCH   1   7
TORSDOF 2
ENDMDL
