MODEL 1
REMARK minimizedAffinity -2.56692886
REMARK minimizedRMSD -1
REMARK  2 active torsions:
REMARK  status: ('A' for Active; 'I' for Inactive)
REMARK    1  A    between atoms: C1_2  and  C2_3 
REMARK    2  A    between atoms: C2_3  and  C3_4 
ROOT
ATOM      1  C3  UNL d   1       0.061  -0.275   0.036  0.00  0.00    -0.075 A 
ATOM      2  C4  UNL d   1      -0.716  -0.555   1.169  0.00  0.00     0.002 A 
ATOM      3  C5  UNL d   1      -2.095  -0.735   1.056  0.00  0.00     0.002 A 
ATOM      4  C6  UNL d   1      -2.714  -0.628  -0.187  0.00  0.00    -0.004 A 
ATOM      5  C7  UNL d   1      -1.955  -0.335  -1.317  0.00  0.00     0.002 A 
ATOM      6  C8  UNL d   1      -0.574  -0.158  -1.208  0.00  0.00     0.002 A 
ENDROOT
BRANCH   1   7
ATOM      7  C2  UNL d   1       1.558  -0.108   0.147  0.00  0.00     0.056 C 
BRANCH   7   8
ATOM      8  C1  UNL d   1       2.096   1.159  -0.526  0.00  0.00     0.007 C 
ATOM      9  C   UNL d   1       2.785   2.108   0.446  0.00  0.00     0.009 C 
ENDBRANCH   7   8
ENDBRANCH   1   7
TORSDOF 2
ENDMDL
