MODEL 1
REMARK minimizedAffinity -2.68413925
REMARK minimizedRMSD -1
REMARK  2 active torsions:
REMARK  status: ('A' for Active; 'I' for Inactive)
REMARK    1  A    between atoms: C1_2  and  C2_3 
REMARK    2  A    between atoms: C2_3  and  C3_4 
ROOT
ATOM      1  C3  UNL d   1       1.601   1.225   0.553  0.00  0.00    -0.075 A 
ATOM      2  C4  UNL d   1       2.113   1.201   1.858  0.00  0.00     0.002 A 
ATOM      3  C5  UNL d   1       2.742   2.325   2.394  0.00  0.00     0.002 A 
ATOM      4  C6  UNL d   1       2.877   3.482   1.630  0.00  0.00    -0.004 A 
ATOM      5  C7  UNL d   1       2.388   3.512   0.326  0.00  0.00     0.002 A 
ATOM      6  C8  UNL d   1       1.754   2.390  -0.211  0.00  0.00     0.002 A 
ENDROOT
BRANCH   1   7
ATOM      7  C2  UNL d   1       0.893   0.022  -0.022  0.00  0.00     0.056 C 
BRANCH   7   8
ATOM      8  C1  UNL d   1      -0.631   0.168  -0.089  0.00  0.00     0.007 C 
ATOM      9  C   UNL d   1      -1.364  -0.728   0.900  0.00  0.00     0.009 C 
ENDBRANCH   7   8
ENDBRANCH   1   7
TORSDOF 2
ENDMDL
