MODEL 1
REMARK minimizedAffinity -2.59942222
REMARK minimizedRMSD -1
REMARK  1 active torsions:
REMARK  status: ('A' for Active; 'I' for Inactive)
REMARK    1  A    between atoms: C1_2  and  C2_3 
ROOT
ATOM      1  C2  UNL d   1       0.480   0.048  -0.915  0.00  0.00    -0.081 A 
ATOM      2  C3  UNL d   1       0.610   1.222  -0.161  0.00  0.00     0.006 A 
ATOM      3  C4  UNL d   1       0.337   1.217   1.209  0.00  0.00     0.002 A 
ATOM      4  C5  UNL d   1      -0.062   0.040   1.849  0.00  0.00    -0.080 A 
ATOM      5  C6  UNL d   1      -0.328   0.015   3.325  0.00  0.00     0.076 C 
ATOM      6  C7  UNL d   1      -0.208  -1.129   1.094  0.00  0.00     0.002 A 
ATOM      7  C8  UNL d   1       0.063  -1.125  -0.276  0.00  0.00     0.006 A 
ENDROOT
BRANCH   1   8
ATOM      8  C1  UNL d   1       0.836   0.034  -2.379  0.00  0.00     0.054 C 
ATOM      9  C   UNL d   1       0.942  -1.388  -2.909  0.00  0.00     0.018 C 
ENDBRANCH   1   8
TORSDOF 1
ENDMDL
