MODEL 1
REMARK minimizedAffinity -2.87896228
REMARK minimizedRMSD -1
REMARK  1 active torsions:
REMARK  status: ('A' for Active; 'I' for Inactive)
REMARK    1  A    between atoms: C1_2  and  C2_3 
ROOT
ATOM      1  C2  UNL d   1      -0.085  -0.514   0.266  0.00  0.00    -0.081 A 
ATOM      2  C3  UNL d   1       0.006   0.500  -0.695  0.00  0.00     0.006 A 
ATOM      3  C4  UNL d   1       0.427   0.208  -1.994  0.00  0.00     0.002 A 
ATOM      4  C5  UNL d   1       0.757  -1.103  -2.356  0.00  0.00    -0.080 A 
ATOM      5  C6  UNL d   1       1.182  -1.434  -3.756  0.00  0.00     0.076 C 
ATOM      6  C7  UNL d   1       0.683  -2.113  -1.391  0.00  0.00     0.002 A 
ATOM      7  C8  UNL d   1       0.262  -1.822  -0.092  0.00  0.00     0.006 A 
ENDROOT
BRANCH   1   8
ATOM      8  C1  UNL d   1      -0.601  -0.214   1.651  0.00  0.00     0.054 C 
ATOM      9  C   UNL d   1      -0.183  -1.291   2.642  0.00  0.00     0.018 C 
ENDBRANCH   1   8
TORSDOF 1
ENDMDL
