MODEL 1
REMARK minimizedAffinity -5.64083338
REMARK minimizedRMSD -1
REMARK  1 active torsions:
REMARK  status: ('A' for Active; 'I' for Inactive)
REMARK    1  A    between atoms: C1_2  and  C2_3 
ROOT
ATOM      1  C2  UNL d   1       0.398  -0.070  -0.893  0.00  0.00    -0.081 A 
ATOM      2  C3  UNL d   1       1.348   0.233   0.090  0.00  0.00     0.006 A 
ATOM      3  C4  UNL d   1       1.006   0.186   1.443  0.00  0.00     0.002 A 
ATOM      4  C5  UNL d   1      -0.288  -0.172   1.836  0.00  0.00    -0.080 A 
ATOM      5  C6  UNL d   1      -0.660  -0.256   3.287  0.00  0.00     0.076 C 
ATOM      6  C7  UNL d   1      -1.242  -0.458   0.854  0.00  0.00     0.002 A 
ATOM      7  C8  UNL d   1      -0.901  -0.410  -0.500  0.00  0.00     0.006 A 
ENDROOT
BRANCH   1   8
ATOM      8  C1  UNL d   1       0.781  -0.083  -2.351  0.00  0.00     0.054 C 
ATOM      9  C   UNL d   1       0.722  -1.491  -2.926  0.00  0.00     0.018 C 
ENDBRANCH   1   8
TORSDOF 1
ENDMDL
