MODEL 1
REMARK minimizedAffinity -1.45692575
REMARK minimizedRMSD -1
REMARK  1 active torsions:
REMARK  status: ('A' for Active; 'I' for Inactive)
REMARK    1  A    between atoms: C1_2  and  C2_3 
ROOT
ATOM      1  C2  UNL d   1       0.774  -1.032  -1.029  0.00  0.00    -0.081 A 
ATOM      2  C3  UNL d   1       1.511  -0.085  -0.308  0.00  0.00     0.006 A 
ATOM      3  C4  UNL d   1       1.143   0.257   0.996  0.00  0.00     0.002 A 
ATOM      4  C5  UNL d   1       0.036  -0.348   1.602  0.00  0.00    -0.080 A 
ATOM      5  C6  UNL d   1      -0.353  -0.012   3.011  0.00  0.00     0.076 C 
ATOM      6  C7  UNL d   1      -0.712  -1.280   0.875  0.00  0.00     0.002 A 
ATOM      7  C8  UNL d   1      -0.344  -1.622  -0.428  0.00  0.00     0.006 A 
ENDROOT
BRANCH   1   8
ATOM      8  C1  UNL d   1       1.207  -1.450  -2.411  0.00  0.00     0.054 C 
ATOM      9  C   UNL d   1       0.423  -2.663  -2.893  0.00  0.00     0.018 C 
ENDBRANCH   1   8
TORSDOF 1
ENDMDL
