MODEL 1
REMARK minimizedAffinity -3.80665493
REMARK minimizedRMSD -1
REMARK  1 active torsions:
REMARK  status: ('A' for Active; 'I' for Inactive)
REMARK    1  A    between atoms: C1_2  and  C2_3 
ROOT
ATOM      1  C2  UNL d   1       0.195   0.117  -0.593  0.00  0.00    -0.081 A 
ATOM      2  C3  UNL d   1       1.043   0.343   0.498  0.00  0.00     0.006 A 
ATOM      3  C4  UNL d   1       0.634   0.015   1.793  0.00  0.00     0.002 A 
ATOM      4  C5  UNL d   1      -0.625  -0.552   2.017  0.00  0.00    -0.080 A 
ATOM      5  C6  UNL d   1      -1.064  -0.937   3.399  0.00  0.00     0.076 C 
ATOM      6  C7  UNL d   1      -1.479  -0.762   0.930  0.00  0.00     0.002 A 
ATOM      7  C8  UNL d   1      -1.071  -0.434  -0.365  0.00  0.00     0.006 A 
ENDROOT
BRANCH   1   8
ATOM      8  C1  UNL d   1       0.658   0.410  -1.997  0.00  0.00     0.054 C 
ATOM      9  C   UNL d   1       1.356  -0.795  -2.612  0.00  0.00     0.018 C 
ENDBRANCH   1   8
TORSDOF 1
ENDMDL
