MODEL 1
REMARK minimizedAffinity -5.34072447
REMARK minimizedRMSD -1
REMARK  1 active torsions:
REMARK  status: ('A' for Active; 'I' for Inactive)
REMARK    1  A    between atoms: C1_2  and  C2_3 
ROOT
ATOM      1  C2  UNL d   1      -0.102   0.384  -0.701  0.00  0.00    -0.081 A 
ATOM      2  C3  UNL d   1       0.756   0.432   0.405  0.00  0.00     0.006 A 
ATOM      3  C4  UNL d   1       0.260   0.228   1.695  0.00  0.00     0.002 A 
ATOM      4  C5  UNL d   1      -1.099  -0.036   1.900  0.00  0.00    -0.080 A 
ATOM      5  C6  UNL d   1      -1.638  -0.287   3.276  0.00  0.00     0.076 C 
ATOM      6  C7  UNL d   1      -1.958  -0.067   0.797  0.00  0.00     0.002 A 
ATOM      7  C8  UNL d   1      -1.463   0.138  -0.493  0.00  0.00     0.006 A 
ENDROOT
BRANCH   1   8
ATOM      8  C1  UNL d   1       0.441   0.540  -2.098  0.00  0.00     0.054 C 
ATOM      9  C   UNL d   1       0.609  -0.810  -2.780  0.00  0.00     0.018 C 
ENDBRANCH   1   8
TORSDOF 1
ENDMDL
