MODEL 1
REMARK minimizedAffinity -4.95668268
REMARK minimizedRMSD -1
REMARK  1 active torsions:
REMARK  status: ('A' for Active; 'I' for Inactive)
REMARK    1  A    between atoms: C1_2  and  C2_3 
ROOT
ATOM      1  C2  UNL d   1      -0.091   0.564  -0.709  0.00  0.00    -0.081 A 
ATOM      2  C3  UNL d   1       0.975   0.670   0.193  0.00  0.00     0.006 A 
ATOM      3  C4  UNL d   1       0.802   0.330   1.537  0.00  0.00     0.002 A 
ATOM      4  C5  UNL d   1      -0.437  -0.129   1.999  0.00  0.00    -0.080 A 
ATOM      5  C6  UNL d   1      -0.628  -0.525   3.433  0.00  0.00     0.076 C 
ATOM      6  C7  UNL d   1      -1.506  -0.218   1.102  0.00  0.00     0.002 A 
ATOM      7  C8  UNL d   1      -1.334   0.122  -0.242  0.00  0.00     0.006 A 
ENDROOT
BRANCH   1   8
ATOM      8  C1  UNL d   1       0.110   0.868  -2.172  0.00  0.00     0.054 C 
ATOM      9  C   UNL d   1       0.915  -0.226  -2.859  0.00  0.00     0.018 C 
ENDBRANCH   1   8
TORSDOF 1
ENDMDL
