MODEL 1
REMARK minimizedAffinity -4.90423679
REMARK minimizedRMSD -1
REMARK  1 active torsions:
REMARK  status: ('A' for Active; 'I' for Inactive)
REMARK    1  A    between atoms: C1_2  and  C2_3 
ROOT
ATOM      1  C2  UNL d   1       0.502  -0.215  -0.697  0.00  0.00    -0.081 A 
ATOM      2  C3  UNL d   1       1.290   0.189   0.388  0.00  0.00     0.006 A 
ATOM      3  C4  UNL d   1       0.853  -0.021   1.698  0.00  0.00     0.002 A 
ATOM      4  C5  UNL d   1      -0.374  -0.645   1.945  0.00  0.00    -0.080 A 
ATOM      5  C6  UNL d   1      -0.841  -0.905   3.346  0.00  0.00     0.076 C 
ATOM      6  C7  UNL d   1      -1.169  -1.034   0.861  0.00  0.00     0.002 A 
ATOM      7  C8  UNL d   1      -0.733  -0.823  -0.449  0.00  0.00     0.006 A 
ENDROOT
BRANCH   1   8
ATOM      8  C1  UNL d   1       1.000  -0.048  -2.110  0.00  0.00     0.054 C 
ATOM      9  C   UNL d   1       1.076  -1.386  -2.831  0.00  0.00     0.018 C 
ENDBRANCH   1   8
TORSDOF 1
ENDMDL
