MODEL 1
REMARK minimizedAffinity -4.25091887
REMARK minimizedRMSD -1
REMARK  1 active torsions:
REMARK  status: ('A' for Active; 'I' for Inactive)
REMARK    1  A    between atoms: C1_2  and  C2_3 
ROOT
ATOM      1  C2  UNL d   1       0.314   0.502  -0.555  0.00  0.00    -0.081 A 
ATOM      2  C3  UNL d   1       0.885   0.357   0.715  0.00  0.00     0.006 A 
ATOM      3  C4  UNL d   1       0.080   0.099   1.828  0.00  0.00     0.002 A 
ATOM      4  C5  UNL d   1      -1.306  -0.028   1.687  0.00  0.00    -0.080 A 
ATOM      5  C6  UNL d   1      -2.178  -0.336   2.869  0.00  0.00     0.076 C 
ATOM      6  C7  UNL d   1      -1.878   0.134   0.421  0.00  0.00     0.002 A 
ATOM      7  C8  UNL d   1      -1.075   0.393  -0.691  0.00  0.00     0.006 A 
ENDROOT
BRANCH   1   8
ATOM      8  C1  UNL d   1       1.185   0.717  -1.767  0.00  0.00     0.054 C 
ATOM      9  C   UNL d   1       1.214  -0.520  -2.653  0.00  0.00     0.018 C 
ENDBRANCH   1   8
TORSDOF 1
ENDMDL
