MODEL 1
REMARK minimizedAffinity -2.96264553
REMARK minimizedRMSD -1
REMARK  1 active torsions:
REMARK  status: ('A' for Active; 'I' for Inactive)
REMARK    1  A    between atoms: C1_2  and  C2_3 
ROOT
ATOM      1  C2  UNL d   1       0.408  -0.120  -1.118  0.00  0.00    -0.081 A 
ATOM      2  C3  UNL d   1      -0.843  -0.347  -0.532  0.00  0.00     0.006 A 
ATOM      3  C4  UNL d   1      -0.998  -0.280   0.855  0.00  0.00     0.002 A 
ATOM      4  C5  UNL d   1       0.093   0.021   1.677  0.00  0.00    -0.080 A 
ATOM      5  C6  UNL d   1      -0.066   0.126   3.165  0.00  0.00     0.076 C 
ATOM      6  C7  UNL d   1       1.347   0.231   1.093  0.00  0.00     0.002 A 
ATOM      7  C8  UNL d   1       1.502   0.164  -0.293  0.00  0.00     0.006 A 
ENDROOT
BRANCH   1   8
ATOM      8  C1  UNL d   1       0.565  -0.127  -2.617  0.00  0.00     0.054 C 
ATOM      9  C   UNL d   1       0.713  -1.545  -3.151  0.00  0.00     0.018 C 
ENDBRANCH   1   8
TORSDOF 1
ENDMDL
