MODEL 1
REMARK minimizedAffinity -2.21780515
REMARK minimizedRMSD -1
REMARK  0 active torsions:
REMARK  status: ('A' for Active; 'I' for Inactive)
ROOT
ATOM      1  C   UNL d   1      -4.491   0.372  -6.000  0.00  0.00     0.172 C 
ATOM      2  N   UNL d   1      -4.354  -0.178  -4.671  0.00  0.00    -0.070 N 
ATOM      3  C1  UNL d   1      -3.226  -0.763  -4.161  0.00  0.00    -0.004 A 
ATOM      4  C2  UNL d   1      -3.502  -1.155  -2.869  0.00  0.00    -0.047 A 
ATOM      5  C3  UNL d   1      -4.842  -0.793  -2.593  0.00  0.00    -0.047 A 
ATOM      6  C4  UNL d   1      -5.346  -0.190  -3.726  0.00  0.00    -0.004 A 
ENDROOT
TORSDOF 0
ENDMDL
