MODEL 1
REMARK minimizedAffinity -2.51488018
REMARK minimizedRMSD -1
REMARK  0 active torsions:
REMARK  status: ('A' for Active; 'I' for Inactive)
ROOT
ATOM      1  C   UNL d   1      -4.060  -1.766  -3.029  0.00  0.00     0.172 C 
ATOM      2  N   UNL d   1      -4.218  -0.859  -4.142  0.00  0.00    -0.070 N 
ATOM      3  C1  UNL d   1      -5.406  -0.352  -4.596  0.00  0.00    -0.004 A 
ATOM      4  C2  UNL d   1      -5.131   0.470  -5.668  0.00  0.00    -0.047 A 
ATOM      5  C3  UNL d   1      -3.730   0.456  -5.864  0.00  0.00    -0.047 A 
ATOM      6  C4  UNL d   1      -3.189  -0.375  -4.906  0.00  0.00    -0.004 A 
ENDROOT
TORSDOF 0
ENDMDL
