MODEL 1
REMARK minimizedAffinity 0.168483078
REMARK minimizedRMSD -1
REMARK  0 active torsions:
REMARK  status: ('A' for Active; 'I' for Inactive)
ROOT
ATOM      1  C   UNL d   1      -3.534   0.436  -5.865  0.00  0.00     0.172 C 
ATOM      2  N   UNL d   1      -3.969  -0.171  -4.630  0.00  0.00    -0.070 N 
ATOM      3  C1  UNL d   1      -3.172  -0.855  -3.752  0.00  0.00    -0.004 A 
ATOM      4  C2  UNL d   1      -3.961  -1.274  -2.703  0.00  0.00    -0.047 A 
ATOM      5  C3  UNL d   1      -5.280  -0.828  -2.960  0.00  0.00    -0.047 A 
ATOM      6  C4  UNL d   1      -5.256  -0.148  -4.160  0.00  0.00    -0.004 A 
ENDROOT
TORSDOF 0
ENDMDL
