MODEL 1
REMARK minimizedAffinity 1.84044576
REMARK minimizedRMSD -1
REMARK  0 active torsions:
REMARK  status: ('A' for Active; 'I' for Inactive)
ROOT
ATOM      1  C   UNL d   1      -2.462  -1.143  -4.083  0.00  0.00     0.172 C 
ATOM      2  N   UNL d   1      -3.157   0.094  -4.351  0.00  0.00    -0.070 N 
ATOM      3  C1  UNL d   1      -3.492   1.040  -3.420  0.00  0.00    -0.004 A 
ATOM      4  C2  UNL d   1      -4.142   2.065  -4.073  0.00  0.00    -0.047 A 
ATOM      5  C3  UNL d   1      -4.201   1.722  -5.445  0.00  0.00    -0.047 A 
ATOM      6  C4  UNL d   1      -3.584   0.497  -5.589  0.00  0.00    -0.004 A 
ENDROOT
TORSDOF 0
ENDMDL
