MODEL 1
REMARK minimizedAffinity -2.36016369
REMARK minimizedRMSD -1
REMARK  0 active torsions:
REMARK  status: ('A' for Active; 'I' for Inactive)
ROOT
ATOM      1  C   UNL d   1      -2.622   0.752  -6.000  0.00  0.00     0.172 C 
ATOM      2  N   UNL d   1      -3.484   0.003  -5.116  0.00  0.00    -0.070 N 
ATOM      3  C1  UNL d   1      -3.068  -0.868  -4.145  0.00  0.00    -0.004 A 
ATOM      4  C2  UNL d   1      -4.189  -1.375  -3.524  0.00  0.00    -0.047 A 
ATOM      5  C3  UNL d   1      -5.318  -0.790  -4.145  0.00  0.00    -0.047 A 
ATOM      6  C4  UNL d   1      -4.853   0.059  -5.127  0.00  0.00    -0.004 A 
ENDROOT
TORSDOF 0
ENDMDL
