MODEL 1
REMARK minimizedAffinity -2.86883259
REMARK minimizedRMSD -1
REMARK  0 active torsions:
REMARK  status: ('A' for Active; 'I' for Inactive)
ROOT
ATOM      1  C   UNL d   1      -3.174  -1.113  -2.886  0.00  0.00     0.172 C 
ATOM      2  N   UNL d   1      -3.890  -0.430  -3.938  0.00  0.00    -0.070 N 
ATOM      3  C1  UNL d   1      -3.339   0.056  -5.093  0.00  0.00    -0.004 A 
ATOM      4  C2  UNL d   1      -4.349   0.635  -5.832  0.00  0.00    -0.047 A 
ATOM      5  C3  UNL d   1      -5.548   0.492  -5.094  0.00  0.00    -0.047 A 
ATOM      6  C4  UNL d   1      -5.235  -0.170  -3.926  0.00  0.00    -0.004 A 
ENDROOT
TORSDOF 0
ENDMDL
