MODEL 1
REMARK minimizedAffinity -1.4852947
REMARK minimizedRMSD -1
REMARK  0 active torsions:
REMARK  status: ('A' for Active; 'I' for Inactive)
ROOT
ATOM      1  C   UNL d   1       2.610  -1.518   0.106  0.00  0.00     0.172 C 
ATOM      2  N   UNL d   1       3.627  -0.493   0.101  0.00  0.00    -0.070 N 
ATOM      3  C1  UNL d   1       4.975  -0.706   0.210  0.00  0.00    -0.004 A 
ATOM      4  C2  UNL d   1       5.602   0.521   0.163  0.00  0.00    -0.047 A 
ATOM      5  C3  UNL d   1       4.595   1.505   0.021  0.00  0.00    -0.047 A 
ATOM      6  C4  UNL d   1       3.382   0.850  -0.015  0.00  0.00    -0.004 A 
ENDROOT
TORSDOF 0
ENDMDL
