MODEL 1
REMARK minimizedAffinity 0.795380116
REMARK minimizedRMSD -1
REMARK  0 active torsions:
REMARK  status: ('A' for Active; 'I' for Inactive)
ROOT
ATOM      1  C   UNL d   1      -1.922  -1.795  -4.822  0.00  0.00     0.172 C 
ATOM      2  N   UNL d   1      -2.720  -0.591  -4.811  0.00  0.00    -0.070 N 
ATOM      3  C1  UNL d   1      -3.566  -0.204  -3.806  0.00  0.00    -0.004 A 
ATOM      4  C2  UNL d   1      -4.138   0.995  -4.174  0.00  0.00    -0.047 A 
ATOM      5  C3  UNL d   1      -3.619   1.339  -5.445  0.00  0.00    -0.047 A 
ATOM      6  C4  UNL d   1      -2.744   0.340  -5.815  0.00  0.00    -0.004 A 
ENDROOT
TORSDOF 0
ENDMDL
