MODEL 1
REMARK minimizedAffinity 5.75709486
REMARK minimizedRMSD -1
REMARK  1 active torsions:
REMARK  status: ('A' for Active; 'I' for Inactive)
REMARK    1  A    between atoms: N_2  and  C1_3 
ROOT
ATOM      1  C1  UNL d   1      -0.067   4.144  -0.442  0.00  0.00     0.143 A 
ATOM      2  C2  UNL d   1      -0.335   4.146  -1.815  0.00  0.00    -0.057 A 
ATOM      3  C3  UNL d   1      -1.218   5.073  -2.382  0.00  0.00     0.033 A 
ATOM      4  C4  UNL d   1      -1.873   5.999  -1.577  0.00  0.00    -0.042 A 
ATOM      5  C5  UNL d   1      -1.642   5.999  -0.206  0.00  0.00     0.033 A 
ATOM      6  C6  UNL d   1      -0.754   5.075   0.352  0.00  0.00    -0.057 A 
ENDROOT
BRANCH   1   7
ATOM      7  N   UNL d   1       0.725   3.185   0.194  0.00  0.00    -0.732 N 
ATOM      8  C   UNL d   1       0.326   2.629   1.470  0.00  0.00     0.284 C 
ATOM      9  H3  UNL d   1       1.106   2.502  -0.456  0.00  0.00     0.395 HD
ENDBRANCH   1   7
TORSDOF 1
ENDMDL
