MODEL 1
REMARK minimizedAffinity 7.67233658
REMARK minimizedRMSD -1
REMARK  1 active torsions:
REMARK  status: ('A' for Active; 'I' for Inactive)
REMARK    1  A    between atoms: N_2  and  C1_3 
ROOT
ATOM      1  C1  UNL d   1       2.616  -2.321  -0.925  0.00  0.00     0.143 A 
ATOM      2  C2  UNL d   1       1.867  -3.489  -0.749  0.00  0.00    -0.057 A 
ATOM      3  C3  UNL d   1       0.496  -3.522  -1.032  0.00  0.00     0.033 A 
ATOM      4  C4  UNL d   1      -0.158  -2.374  -1.469  0.00  0.00    -0.042 A 
ATOM      5  C5  UNL d   1       0.563  -1.196  -1.627  0.00  0.00     0.033 A 
ATOM      6  C6  UNL d   1       1.933  -1.171  -1.350  0.00  0.00    -0.057 A 
ENDROOT
BRANCH   1   7
ATOM      7  N   UNL d   1       3.962  -2.199  -0.568  0.00  0.00    -0.732 N 
ATOM      8  C   UNL d   1       4.962  -3.061  -1.160  0.00  0.00     0.284 C 
ATOM      9  H3  UNL d   1       4.252  -1.229  -0.473  0.00  0.00     0.395 HD
ENDBRANCH   1   7
TORSDOF 1
ENDMDL
