MODEL 1
REMARK minimizedAffinity 3.13637424
REMARK minimizedRMSD -1
REMARK  1 active torsions:
REMARK  status: ('A' for Active; 'I' for Inactive)
REMARK    1  A    between atoms: N_2  and  C1_3 
ROOT
ATOM      1  C1  UNL d   1      -0.702   3.778   0.051  0.00  0.00     0.143 A 
ATOM      2  C2  UNL d   1       0.463   4.015  -0.687  0.00  0.00    -0.057 A 
ATOM      3  C3  UNL d   1       0.420   4.683  -1.917  0.00  0.00     0.033 A 
ATOM      4  C4  UNL d   1      -0.797   5.101  -2.446  0.00  0.00    -0.042 A 
ATOM      5  C5  UNL d   1      -1.970   4.854  -1.742  0.00  0.00     0.033 A 
ATOM      6  C6  UNL d   1      -1.920   4.193  -0.511  0.00  0.00    -0.057 A 
ENDROOT
BRANCH   1   7
ATOM      7  N   UNL d   1      -0.736   3.033   1.232  0.00  0.00    -0.732 N 
ATOM      8  C   UNL d   1       0.407   2.245   1.640  0.00  0.00     0.284 C 
ATOM      9  H3  UNL d   1      -1.190   3.532   1.993  0.00  0.00     0.395 HD
ENDBRANCH   1   7
TORSDOF 1
ENDMDL
