MODEL 1
REMARK minimizedAffinity 2.17251325
REMARK minimizedRMSD -1
REMARK  1 active torsions:
REMARK  status: ('A' for Active; 'I' for Inactive)
REMARK    1  A    between atoms: N_2  and  C1_3 
ROOT
ATOM      1  C1  UNL d   1      -4.974  -1.342   4.104  0.00  0.00     0.143 A 
ATOM      2  C2  UNL d   1      -3.966  -1.126   3.158  0.00  0.00    -0.057 A 
ATOM      3  C3  UNL d   1      -3.956   0.024   2.359  0.00  0.00     0.033 A 
ATOM      4  C4  UNL d   1      -4.972   0.966   2.472  0.00  0.00    -0.042 A 
ATOM      5  C5  UNL d   1      -5.998   0.760   3.388  0.00  0.00     0.033 A 
ATOM      6  C6  UNL d   1      -5.999  -0.387   4.188  0.00  0.00    -0.057 A 
ENDROOT
BRANCH   1   7
ATOM      7  N   UNL d   1      -5.094  -2.512   4.859  0.00  0.00    -0.732 N 
ATOM      8  C   UNL d   1      -5.994  -2.569   5.991  0.00  0.00     0.284 C 
ATOM      9  H3  UNL d   1      -5.100  -3.349   4.280  0.00  0.00     0.395 HD
ENDBRANCH   1   7
TORSDOF 1
ENDMDL
