MODEL 1
REMARK minimizedAffinity 3.62532759
REMARK minimizedRMSD -1
REMARK  1 active torsions:
REMARK  status: ('A' for Active; 'I' for Inactive)
REMARK    1  A    between atoms: N_2  and  C1_3 
ROOT
ATOM      1  C1  UNL d   1       0.155   4.537  -1.491  0.00  0.00     0.143 A 
ATOM      2  C2  UNL d   1      -1.189   4.644  -1.864  0.00  0.00    -0.057 A 
ATOM      3  C3  UNL d   1      -1.570   5.345  -3.014  0.00  0.00     0.033 A 
ATOM      4  C4  UNL d   1      -0.612   5.979  -3.799  0.00  0.00    -0.042 A 
ATOM      5  C5  UNL d   1       0.728   5.907  -3.434  0.00  0.00     0.033 A 
ATOM      6  C6  UNL d   1       1.103   5.199  -2.287  0.00  0.00    -0.057 A 
ENDROOT
BRANCH   1   7
ATOM      7  N   UNL d   1       0.589   3.937  -0.306  0.00  0.00    -0.732 N 
ATOM      8  C   UNL d   1      -0.365   3.513   0.697  0.00  0.00     0.284 C 
ATOM      9  H3  UNL d   1       1.351   3.281  -0.459  0.00  0.00     0.395 HD
ENDBRANCH   1   7
TORSDOF 1
ENDMDL
