MODEL 1
REMARK minimizedAffinity 1.50377452
REMARK minimizedRMSD -1
REMARK  1 active torsions:
REMARK  status: ('A' for Active; 'I' for Inactive)
REMARK    1  A    between atoms: N_2  and  C1_3 
ROOT
ATOM      1  C1  UNL d   1      -0.257   3.305   0.156  0.00  0.00     0.143 A 
ATOM      2  C2  UNL d   1      -0.475   3.085  -1.209  0.00  0.00    -0.057 A 
ATOM      3  C3  UNL d   1      -0.783   4.142  -2.075  0.00  0.00     0.033 A 
ATOM      4  C4  UNL d   1      -0.907   5.437  -1.584  0.00  0.00    -0.042 A 
ATOM      5  C5  UNL d   1      -0.720   5.676  -0.227  0.00  0.00     0.033 A 
ATOM      6  C6  UNL d   1      -0.406   4.618   0.631  0.00  0.00    -0.057 A 
ENDROOT
BRANCH   1   7
ATOM      7  N   UNL d   1      -0.045   2.283   1.084  0.00  0.00    -0.732 N 
ATOM      8  C   UNL d   1      -0.064   2.562   2.504  0.00  0.00     0.284 C 
ATOM      9  H3  UNL d   1      -0.514   1.419   0.824  0.00  0.00     0.395 HD
ENDBRANCH   1   7
TORSDOF 1
ENDMDL
