MODEL 1
REMARK minimizedAffinity 5.04508114
REMARK minimizedRMSD -1
REMARK  1 active torsions:
REMARK  status: ('A' for Active; 'I' for Inactive)
REMARK    1  A    between atoms: N_2  and  C1_3 
ROOT
ATOM      1  C1  UNL d   1       0.500   2.754   1.328  0.00  0.00     0.143 A 
ATOM      2  C2  UNL d   1      -0.153   2.204   2.436  0.00  0.00    -0.057 A 
ATOM      3  C3  UNL d   1       0.515   2.013   3.651  0.00  0.00     0.033 A 
ATOM      4  C4  UNL d   1       1.861   2.344   3.772  0.00  0.00    -0.042 A 
ATOM      5  C5  UNL d   1       2.537   2.869   2.676  0.00  0.00     0.033 A 
ATOM      6  C6  UNL d   1       1.862   3.064   1.467  0.00  0.00    -0.057 A 
ENDROOT
BRANCH   1   7
ATOM      7  N   UNL d   1      -0.082   2.877   0.064  0.00  0.00    -0.732 N 
ATOM      8  C   UNL d   1      -0.163   4.167  -0.588  0.00  0.00     0.284 C 
ATOM      9  H3  UNL d   1       0.173   2.113  -0.557  0.00  0.00     0.395 HD
ENDBRANCH   1   7
TORSDOF 1
ENDMDL
