MODEL 1
REMARK minimizedAffinity -3.55531001
REMARK minimizedRMSD -1
REMARK  2 active torsions:
REMARK  status: ('A' for Active; 'I' for Inactive)
REMARK    1  A    between atoms: C2'_3  and  C1'_4 
REMARK    2  A    between atoms: C1'_4  and  C1_5 
ROOT
ATOM      1  C1  I4B d   1       0.769   0.042   1.000  0.00  0.00    -0.075 A 
ATOM      2  C2  I4B d   1      -0.050  -0.892   1.583  0.00  0.00     0.003 A 
ATOM      3  C3  I4B d   1       0.444  -1.730   2.613  0.00  0.00     0.002 A 
ATOM      4  C4  I4B d   1       1.767  -1.633   2.991  0.00  0.00    -0.004 A 
ATOM      5  C5  I4B d   1       2.590  -0.670   2.415  0.00  0.00     0.002 A 
ATOM      6  C6  I4B d   1       2.085   0.182   1.422  0.00  0.00     0.003 A 
ENDROOT
BRANCH   1   7
ATOM      7  C1' I4B d   1       0.224   0.887  -0.107  0.00  0.00     0.060 C 
BRANCH   7   8
ATOM      8  C2' I4B d   1       0.145   0.029  -1.354  0.00  0.00    -0.013 C 
ATOM      9  C4' I4B d   1       1.273  -0.967  -1.402  0.00  0.00     0.013 C 
ATOM     10  C3' I4B d   1      -1.187  -0.659  -1.357  0.00  0.00     0.013 C 
ENDBRANCH   7   8
ENDBRANCH   1   7
TORSDOF 2
ENDMDL
