MODEL 1
REMARK minimizedAffinity 8.92441177
REMARK minimizedRMSD -1
REMARK  2 active torsions:
REMARK  status: ('A' for Active; 'I' for Inactive)
REMARK    1  A    between atoms: C2'_3  and  C1'_4 
REMARK    2  A    between atoms: C1'_4  and  C1_5 
ROOT
ATOM      1  C1  I4B d   1       1.308  -1.306   1.853  0.00  0.00    -0.075 A 
ATOM      2  C2  I4B d   1       2.341  -0.608   2.427  0.00  0.00     0.003 A 
ATOM      3  C3  I4B d   1       2.092   0.278   3.503  0.00  0.00     0.002 A 
ATOM      4  C4  I4B d   1       0.796   0.473   3.937  0.00  0.00    -0.004 A 
ATOM      5  C5  I4B d   1      -0.247  -0.253   3.369  0.00  0.00     0.002 A 
ATOM      6  C6  I4B d   1       0.011  -1.157   2.329  0.00  0.00     0.003 A 
ENDROOT
BRANCH   1   7
ATOM      7  C1' I4B d   1       1.602  -2.208   0.697  0.00  0.00     0.060 C 
BRANCH   7   8
ATOM      8  C2' I4B d   1       1.987  -1.342  -0.485  0.00  0.00    -0.013 C 
ATOM      9  C4' I4B d   1       3.097  -1.972  -1.284  0.00  0.00     0.013 C 
ATOM     10  C3' I4B d   1       0.763  -1.137  -1.327  0.00  0.00     0.013 C 
ENDBRANCH   7   8
ENDBRANCH   1   7
TORSDOF 2
ENDMDL
