MODEL 1
REMARK minimizedAffinity 2.7633183
REMARK minimizedRMSD -1
REMARK  2 active torsions:
REMARK  status: ('A' for Active; 'I' for Inactive)
REMARK    1  A    between atoms: C2'_3  and  C1'_4 
REMARK    2  A    between atoms: C1'_4  and  C1_5 
ROOT
ATOM      1  C1  I4B d   1      -0.679   0.068  -0.642  0.00  0.00    -0.075 A 
ATOM      2  C2  I4B d   1       0.650  -0.263  -0.553  0.00  0.00     0.003 A 
ATOM      3  C3  I4B d   1       1.190  -0.721   0.673  0.00  0.00     0.002 A 
ATOM      4  C4  I4B d   1       0.382  -0.785   1.790  0.00  0.00    -0.004 A 
ATOM      5  C5  I4B d   1      -0.970  -0.471   1.692  0.00  0.00     0.002 A 
ATOM      6  C6  I4B d   1      -1.508  -0.054   0.466  0.00  0.00     0.003 A 
ENDROOT
BRANCH   1   7
ATOM      7  C1' I4B d   1      -1.209   0.579  -1.944  0.00  0.00     0.060 C 
BRANCH   7   8
ATOM      8  C2' I4B d   1      -2.214   1.673  -1.642  0.00  0.00    -0.013 C 
ATOM      9  C4' I4B d   1      -1.668   3.029  -2.002  0.00  0.00     0.013 C 
ATOM     10  C3' I4B d   1      -3.468   1.373  -2.407  0.00  0.00     0.013 C 
ENDBRANCH   7   8
ENDBRANCH   1   7
TORSDOF 2
ENDMDL
