MODEL 1
REMARK minimizedAffinity 1.38414299
REMARK minimizedRMSD -1
REMARK  2 active torsions:
REMARK  status: ('A' for Active; 'I' for Inactive)
REMARK    1  A    between atoms: C2'_3  and  C1'_4 
REMARK    2  A    between atoms: C1'_4  and  C1_5 
ROOT
ATOM      1  C1  I4B d   1       0.372  -1.711   0.715  0.00  0.00    -0.075 A 
ATOM      2  C2  I4B d   1       0.330  -2.458   1.866  0.00  0.00     0.003 A 
ATOM      3  C3  I4B d   1       1.345  -3.408   2.136  0.00  0.00     0.002 A 
ATOM      4  C4  I4B d   1       2.348  -3.613   1.210  0.00  0.00    -0.004 A 
ATOM      5  C5  I4B d   1       2.401  -2.839   0.055  0.00  0.00     0.002 A 
ATOM      6  C6  I4B d   1       1.414  -1.873  -0.189  0.00  0.00     0.003 A 
ENDROOT
BRANCH   1   7
ATOM      7  C1' I4B d   1      -0.734  -0.740   0.446  0.00  0.00     0.060 C 
BRANCH   7   8
ATOM      8  C2' I4B d   1      -1.495  -0.529   1.739  0.00  0.00    -0.013 C 
ATOM      9  C4' I4B d   1      -1.309   0.873   2.259  0.00  0.00     0.013 C 
ATOM     10  C3' I4B d   1      -2.942  -0.821   1.477  0.00  0.00     0.013 C 
ENDBRANCH   7   8
ENDBRANCH   1   7
TORSDOF 2
ENDMDL
