MODEL 1
REMARK minimizedAffinity 8.75460339
REMARK minimizedRMSD -1
REMARK  2 active torsions:
REMARK  status: ('A' for Active; 'I' for Inactive)
REMARK    1  A    between atoms: C2'_3  and  C1'_4 
REMARK    2  A    between atoms: C1'_4  and  C1_5 
ROOT
ATOM      1  C1  I4B d   1      -0.302  -1.130   1.904  0.00  0.00    -0.075 A 
ATOM      2  C2  I4B d   1      -0.686  -0.939   0.600  0.00  0.00     0.003 A 
ATOM      3  C3  I4B d   1      -1.856  -0.200   0.302  0.00  0.00     0.002 A 
ATOM      4  C4  I4B d   1      -2.635   0.285   1.333  0.00  0.00    -0.004 A 
ATOM      5  C5  I4B d   1      -2.232   0.110   2.654  0.00  0.00     0.002 A 
ATOM      6  C6  I4B d   1      -1.052  -0.591   2.942  0.00  0.00     0.003 A 
ENDROOT
BRANCH   1   7
ATOM      7  C1' I4B d   1       0.921  -1.944   2.184  0.00  0.00     0.060 C 
BRANCH   7   8
ATOM      8  C2' I4B d   1       1.311  -2.656   0.905  0.00  0.00    -0.013 C 
ATOM      9  C4' I4B d   1       1.758  -1.678  -0.149  0.00  0.00     0.013 C 
ATOM     10  C3' I4B d   1       2.399  -3.634   1.233  0.00  0.00     0.013 C 
ENDBRANCH   7   8
ENDBRANCH   1   7
TORSDOF 2
ENDMDL
