MODEL 1
REMARK minimizedAffinity -0.250549853
REMARK minimizedRMSD -1
REMARK  2 active torsions:
REMARK  status: ('A' for Active; 'I' for Inactive)
REMARK    1  A    between atoms: C2'_3  and  C1'_4 
REMARK    2  A    between atoms: C1'_4  and  C1_5 
ROOT
ATOM      1  C1  I4B d   1       1.176  -2.093   1.783  0.00  0.00    -0.075 A 
ATOM      2  C2  I4B d   1       1.195  -1.445   0.573  0.00  0.00     0.003 A 
ATOM      3  C3  I4B d   1       0.136  -0.577   0.213  0.00  0.00     0.002 A 
ATOM      4  C4  I4B d   1      -0.939  -0.426   1.065  0.00  0.00    -0.004 A 
ATOM      5  C5  I4B d   1      -0.945  -1.066   2.301  0.00  0.00     0.002 A 
ATOM      6  C6  I4B d   1       0.124  -1.895   2.668  0.00  0.00     0.003 A 
ENDROOT
BRANCH   1   7
ATOM      7  C1' I4B d   1       2.295  -3.028   2.117  0.00  0.00     0.060 C 
BRANCH   7   8
ATOM      8  C2' I4B d   1       2.244  -4.185   1.140  0.00  0.00    -0.013 C 
ATOM      9  C4' I4B d   1       3.626  -4.576   0.687  0.00  0.00     0.013 C 
ATOM     10  C3' I4B d   1       1.551  -5.330   1.814  0.00  0.00     0.013 C 
ENDBRANCH   7   8
ENDBRANCH   1   7
TORSDOF 2
ENDMDL
