MODEL 1
REMARK minimizedAffinity 1.94630969
REMARK minimizedRMSD -1
REMARK  2 active torsions:
REMARK  status: ('A' for Active; 'I' for Inactive)
REMARK    1  A    between atoms: C2'_3  and  C1'_4 
REMARK    2  A    between atoms: C1'_4  and  C1_5 
ROOT
ATOM      1  C1  I4B d   1      -0.221  -1.099   1.476  0.00  0.00    -0.075 A 
ATOM      2  C2  I4B d   1       0.540  -1.177   2.615  0.00  0.00     0.003 A 
ATOM      3  C3  I4B d   1       1.658  -0.324   2.785  0.00  0.00     0.002 A 
ATOM      4  C4  I4B d   1       2.005   0.550   1.776  0.00  0.00    -0.004 A 
ATOM      5  C5  I4B d   1       1.218   0.644   0.631  0.00  0.00     0.002 A 
ATOM      6  C6  I4B d   1       0.091  -0.177   0.485  0.00  0.00     0.003 A 
ENDROOT
BRANCH   1   7
ATOM      7  C1' I4B d   1      -1.375  -2.038   1.315  0.00  0.00     0.060 C 
BRANCH   7   8
ATOM      8  C2' I4B d   1      -2.296  -1.468   0.255  0.00  0.00    -0.013 C 
ATOM      9  C4' I4B d   1      -1.711  -1.635  -1.122  0.00  0.00     0.013 C 
ATOM     10  C3' I4B d   1      -3.620  -2.163   0.370  0.00  0.00     0.013 C 
ENDBRANCH   7   8
ENDBRANCH   1   7
TORSDOF 2
ENDMDL
