MODEL 1
REMARK minimizedAffinity 7.83188105
REMARK minimizedRMSD -1
REMARK  0 active torsions:
REMARK  status: ('A' for Active; 'I' for Inactive)
ROOT
ATOM      1  C   UNL d   1      -0.563  -1.271  -1.864  0.00  0.00     0.077 C 
ATOM      2  C1  UNL d   1      -1.148  -1.860  -0.614  0.00  0.00    -0.074 A 
ATOM      3  C2  UNL d   1      -2.259  -1.277   0.004  0.00  0.00    -0.005 A 
ATOM      4  C3  UNL d   1      -2.797  -1.842   1.160  0.00  0.00     0.006 A 
ATOM      5  C4  UNL d   1      -2.231  -2.993   1.709  0.00  0.00    -0.005 A 
ATOM      6  C5  UNL d   1      -1.120  -3.591   1.104  0.00  0.00    -0.074 A 
ATOM      7  C6  UNL d   1      -0.506  -4.834   1.676  0.00  0.00     0.077 C 
ATOM      8  C7  UNL d   1      -0.589  -3.021  -0.061  0.00  0.00    -0.001 A 
ENDROOT
TORSDOF 0
ENDMDL
