MODEL 1
REMARK minimizedAffinity 8.25260448
REMARK minimizedRMSD -1
REMARK  0 active torsions:
REMARK  status: ('A' for Active; 'I' for Inactive)
ROOT
ATOM      1  C   UNL d   1      -1.122  -0.900   3.798  0.00  0.00     0.077 C 
ATOM      2  C1  UNL d   1      -1.063  -1.464   2.409  0.00  0.00    -0.074 A 
ATOM      3  C2  UNL d   1      -1.129  -0.627   1.290  0.00  0.00    -0.005 A 
ATOM      4  C3  UNL d   1      -1.063  -1.164   0.005  0.00  0.00     0.006 A 
ATOM      5  C4  UNL d   1      -0.931  -2.541  -0.175  0.00  0.00    -0.005 A 
ATOM      6  C5  UNL d   1      -0.862  -3.394   0.932  0.00  0.00    -0.074 A 
ATOM      7  C6  UNL d   1      -0.711  -4.876   0.756  0.00  0.00     0.077 C 
ATOM      8  C7  UNL d   1      -0.922  -2.846   2.220  0.00  0.00    -0.001 A 
ENDROOT
TORSDOF 0
ENDMDL
