MODEL 1
REMARK minimizedAffinity 3.73470855
REMARK minimizedRMSD -1
REMARK  0 active torsions:
REMARK  status: ('A' for Active; 'I' for Inactive)
ROOT
ATOM      1  C   UNL d   1      -2.625  -1.169  -0.769  0.00  0.00     0.077 C 
ATOM      2  C1  UNL d   1      -1.897  -1.974   0.267  0.00  0.00    -0.074 A 
ATOM      3  C2  UNL d   1      -1.360  -3.227  -0.043  0.00  0.00    -0.005 A 
ATOM      4  C3  UNL d   1      -0.678  -3.960   0.929  0.00  0.00     0.006 A 
ATOM      5  C4  UNL d   1      -0.527  -3.447   2.218  0.00  0.00    -0.005 A 
ATOM      6  C5  UNL d   1      -1.056  -2.195   2.546  0.00  0.00    -0.074 A 
ATOM      7  C6  UNL d   1      -0.894  -1.625   3.923  0.00  0.00     0.077 C 
ATOM      8  C7  UNL d   1      -1.734  -1.462   1.562  0.00  0.00    -0.001 A 
ENDROOT
TORSDOF 0
ENDMDL
