MODEL 1
REMARK minimizedAffinity 10.647974
REMARK minimizedRMSD -1
REMARK  0 active torsions:
REMARK  status: ('A' for Active; 'I' for Inactive)
ROOT
ATOM      1  C   UNL d   1      -0.672  -4.273   1.457  0.00  0.00     0.077 C 
ATOM      2  C1  UNL d   1      -0.962  -2.821   1.695  0.00  0.00    -0.074 A 
ATOM      3  C2  UNL d   1      -1.137  -1.938   0.625  0.00  0.00    -0.005 A 
ATOM      4  C3  UNL d   1      -1.415  -0.592   0.863  0.00  0.00     0.006 A 
ATOM      5  C4  UNL d   1      -1.521  -0.116   2.170  0.00  0.00    -0.005 A 
ATOM      6  C5  UNL d   1      -1.350  -0.985   3.253  0.00  0.00    -0.074 A 
ATOM      7  C6  UNL d   1      -1.471  -0.492   4.664  0.00  0.00     0.077 C 
ATOM      8  C7  UNL d   1      -1.078  -2.337   3.006  0.00  0.00    -0.001 A 
ENDROOT
TORSDOF 0
ENDMDL
