MODEL 1
REMARK minimizedAffinity 4.42153788
REMARK minimizedRMSD -1
REMARK  0 active torsions:
REMARK  status: ('A' for Active; 'I' for Inactive)
ROOT
ATOM      1  C   UNL d   1      -0.785  -5.999   2.785  0.00  0.00     0.077 C 
ATOM      2  C1  UNL d   1      -0.971  -4.710   2.041  0.00  0.00    -0.074 A 
ATOM      3  C2  UNL d   1      -0.975  -4.681   0.643  0.00  0.00    -0.005 A 
ATOM      4  C3  UNL d   1      -1.158  -3.476  -0.036  0.00  0.00     0.006 A 
ATOM      5  C4  UNL d   1      -1.339  -2.290   0.676  0.00  0.00    -0.005 A 
ATOM      6  C5  UNL d   1      -1.339  -2.299   2.075  0.00  0.00    -0.074 A 
ATOM      7  C6  UNL d   1      -1.542  -1.035   2.855  0.00  0.00     0.077 C 
ATOM      8  C7  UNL d   1      -1.161  -3.515   2.749  0.00  0.00    -0.001 A 
ENDROOT
TORSDOF 0
ENDMDL
