MODEL 1
REMARK minimizedAffinity 3.83921909
REMARK minimizedRMSD -1
REMARK  0 active torsions:
REMARK  status: ('A' for Active; 'I' for Inactive)
ROOT
ATOM      1  C   UNL d   1      -0.563  -5.125   1.046  0.00  0.00     0.077 C 
ATOM      2  C1  UNL d   1      -0.980  -3.719   1.362  0.00  0.00    -0.074 A 
ATOM      3  C2  UNL d   1      -1.145  -2.772   0.346  0.00  0.00    -0.005 A 
ATOM      4  C3  UNL d   1      -1.542  -1.472   0.655  0.00  0.00     0.006 A 
ATOM      5  C4  UNL d   1      -1.779  -1.105   1.980  0.00  0.00    -0.005 A 
ATOM      6  C5  UNL d   1      -1.620  -2.038   3.009  0.00  0.00    -0.074 A 
ATOM      7  C6  UNL d   1      -1.880  -1.663   4.438  0.00  0.00     0.077 C 
ATOM      8  C7  UNL d   1      -1.228  -3.345   2.691  0.00  0.00    -0.001 A 
ENDROOT
TORSDOF 0
ENDMDL
