MODEL 1
REMARK minimizedAffinity 9.45180225
REMARK minimizedRMSD -1
REMARK  0 active torsions:
REMARK  status: ('A' for Active; 'I' for Inactive)
ROOT
ATOM      1  C   UNL d   1      -1.425   0.162   3.920  0.00  0.00     0.077 C 
ATOM      2  C1  UNL d   1      -1.180  -1.044   3.063  0.00  0.00    -0.074 A 
ATOM      3  C2  UNL d   1      -0.890  -2.287   3.636  0.00  0.00    -0.005 A 
ATOM      4  C3  UNL d   1      -0.675  -3.402   2.827  0.00  0.00     0.006 A 
ATOM      5  C4  UNL d   1      -0.746  -3.286   1.438  0.00  0.00    -0.005 A 
ATOM      6  C5  UNL d   1      -1.036  -2.052   0.847  0.00  0.00    -0.074 A 
ATOM      7  C6  UNL d   1      -1.127  -1.913  -0.644  0.00  0.00     0.077 C 
ATOM      8  C7  UNL d   1      -1.259  -0.938   1.667  0.00  0.00    -0.001 A 
ENDROOT
TORSDOF 0
ENDMDL
