MODEL 1
REMARK minimizedAffinity 8.06057453
REMARK minimizedRMSD -1
REMARK  0 active torsions:
REMARK  status: ('A' for Active; 'I' for Inactive)
ROOT
ATOM      1  C   UNL d   1       3.833   4.015   6.000  0.00  0.00     0.077 C 
ATOM      2  C1  UNL d   1       4.085   2.714   5.297  0.00  0.00    -0.074 A 
ATOM      3  C2  UNL d   1       4.068   1.503   5.997  0.00  0.00    -0.005 A 
ATOM      4  C3  UNL d   1       4.295   0.301   5.328  0.00  0.00     0.006 A 
ATOM      5  C4  UNL d   1       4.541   0.296   3.954  0.00  0.00    -0.005 A 
ATOM      6  C5  UNL d   1       4.561   1.497   3.237  0.00  0.00    -0.074 A 
ATOM      7  C6  UNL d   1       4.814   1.509   1.759  0.00  0.00     0.077 C 
ATOM      8  C7  UNL d   1       4.325   2.700   3.916  0.00  0.00    -0.001 A 
ENDROOT
TORSDOF 0
ENDMDL
