MODEL 1
REMARK minimizedAffinity 8.52333164
REMARK minimizedRMSD -1
REMARK  0 active torsions:
REMARK  status: ('A' for Active; 'I' for Inactive)
ROOT
ATOM      1  C   UNL d   1      -1.320  -4.553   1.882  0.00  0.00     0.077 C 
ATOM      2  C1  UNL d   1      -1.274  -3.055   1.926  0.00  0.00    -0.074 A 
ATOM      3  C2  UNL d   1      -1.268  -2.301   0.748  0.00  0.00    -0.005 A 
ATOM      4  C3  UNL d   1      -1.234  -0.907   0.805  0.00  0.00     0.006 A 
ATOM      5  C4  UNL d   1      -1.206  -0.255   2.039  0.00  0.00    -0.005 A 
ATOM      6  C5  UNL d   1      -1.213  -0.992   3.227  0.00  0.00    -0.074 A 
ATOM      7  C6  UNL d   1      -1.193  -0.307   4.561  0.00  0.00     0.077 C 
ATOM      8  C7  UNL d   1      -1.254  -2.392   3.161  0.00  0.00    -0.001 A 
ENDROOT
TORSDOF 0
ENDMDL
