MODEL 1
REMARK minimizedAffinity 13.5124502
REMARK minimizedRMSD -1
REMARK  0 active torsions:
REMARK  status: ('A' for Active; 'I' for Inactive)
ROOT
ATOM      1  C   UNL d   1      -5.999  -2.320   1.527  0.00  0.00     0.077 C 
ATOM      2  C1  UNL d   1      -4.585  -1.913   1.233  0.00  0.00    -0.074 A 
ATOM      3  C2  UNL d   1      -4.302  -0.683   0.631  0.00  0.00    -0.005 A 
ATOM      4  C3  UNL d   1      -2.982  -0.314   0.373  0.00  0.00     0.006 A 
ATOM      5  C4  UNL d   1      -1.934  -1.170   0.713  0.00  0.00    -0.005 A 
ATOM      6  C5  UNL d   1      -2.198  -2.403   1.316  0.00  0.00    -0.074 A 
ATOM      7  C6  UNL d   1      -1.082  -3.331   1.697  0.00  0.00     0.077 C 
ATOM      8  C7  UNL d   1      -3.526  -2.764   1.579  0.00  0.00    -0.001 A 
ENDROOT
TORSDOF 0
ENDMDL
