MODEL 1
REMARK minimizedAffinity 4.19814777
REMARK minimizedRMSD -1
REMARK  0 active torsions:
REMARK  status: ('A' for Active; 'I' for Inactive)
ROOT
ATOM      1  C   UNL d   1      -2.627  -1.270   0.421  0.00  0.00     0.077 C 
ATOM      2  C1  UNL d   1      -2.221  -2.712   0.476  0.00  0.00    -0.074 A 
ATOM      3  C2  UNL d   1      -0.993  -3.133  -0.044  0.00  0.00    -0.005 A 
ATOM      4  C3  UNL d   1      -0.624  -4.477   0.022  0.00  0.00     0.006 A 
ATOM      5  C4  UNL d   1      -1.478  -5.412   0.609  0.00  0.00    -0.005 A 
ATOM      6  C5  UNL d   1      -2.710  -5.009   1.135  0.00  0.00    -0.074 A 
ATOM      7  C6  UNL d   1      -3.635  -5.999   1.778  0.00  0.00     0.077 C 
ATOM      8  C7  UNL d   1      -3.070  -3.656   1.071  0.00  0.00    -0.001 A 
ENDROOT
TORSDOF 0
ENDMDL
