MODEL 1
REMARK minimizedAffinity 4.2278161
REMARK minimizedRMSD -1
REMARK  0 active torsions:
REMARK  status: ('A' for Active; 'I' for Inactive)
ROOT
ATOM      1  C   UNL d   1      -1.012  -1.549   2.564  0.00  0.00     0.077 C 
ATOM      2  C1  UNL d   1      -1.159  -2.138   1.193  0.00  0.00    -0.074 A 
ATOM      3  C2  UNL d   1      -0.655  -3.409   0.898  0.00  0.00    -0.005 A 
ATOM      4  C3  UNL d   1      -0.808  -3.948  -0.379  0.00  0.00     0.006 A 
ATOM      5  C4  UNL d   1      -1.466  -3.224  -1.373  0.00  0.00    -0.005 A 
ATOM      6  C5  UNL d   1      -1.978  -1.952  -1.097  0.00  0.00    -0.074 A 
ATOM      7  C6  UNL d   1      -2.696  -1.163  -2.152  0.00  0.00     0.077 C 
ATOM      8  C7  UNL d   1      -1.826  -1.420   0.191  0.00  0.00    -0.001 A 
ENDROOT
TORSDOF 0
ENDMDL
