MODEL 1
REMARK minimizedAffinity 2.79574132
REMARK minimizedRMSD -1
REMARK  0 active torsions:
REMARK  status: ('A' for Active; 'I' for Inactive)
ROOT
ATOM      1  C   UNL d   1      -1.674  -2.662  -3.257  0.00  0.00     0.077 C 
ATOM      2  C1  UNL d   1      -1.789  -2.448  -1.777  0.00  0.00    -0.074 A 
ATOM      3  C2  UNL d   1      -2.551  -1.396  -1.259  0.00  0.00    -0.005 A 
ATOM      4  C3  UNL d   1      -2.656  -1.215   0.120  0.00  0.00     0.006 A 
ATOM      5  C4  UNL d   1      -2.001  -2.084   0.994  0.00  0.00    -0.005 A 
ATOM      6  C5  UNL d   1      -1.235  -3.142   0.495  0.00  0.00    -0.074 A 
ATOM      7  C6  UNL d   1      -0.532  -4.090   1.421  0.00  0.00     0.077 C 
ATOM      8  C7  UNL d   1      -1.140  -3.321  -0.892  0.00  0.00    -0.001 A 
ENDROOT
TORSDOF 0
ENDMDL
