MODEL 1
REMARK minimizedAffinity 15.644412
REMARK minimizedRMSD -1
REMARK  0 active torsions:
REMARK  status: ('A' for Active; 'I' for Inactive)
ROOT
ATOM      1  C   UNL d   1      -0.751  -4.568   1.415  0.00  0.00     0.077 C 
ATOM      2  C1  UNL d   1      -0.952  -3.111   1.122  0.00  0.00    -0.074 A 
ATOM      3  C2  UNL d   1      -1.382  -2.230   2.120  0.00  0.00    -0.005 A 
ATOM      4  C3  UNL d   1      -1.555  -0.875   1.835  0.00  0.00     0.006 A 
ATOM      5  C4  UNL d   1      -1.301  -0.389   0.552  0.00  0.00    -0.005 A 
ATOM      6  C5  UNL d   1      -0.870  -1.254  -0.458  0.00  0.00    -0.074 A 
ATOM      7  C6  UNL d   1      -0.582  -0.746  -1.840  0.00  0.00     0.077 C 
ATOM      8  C7  UNL d   1      -0.691  -2.613  -0.162  0.00  0.00    -0.001 A 
ENDROOT
TORSDOF 0
ENDMDL
