MODEL 1
REMARK minimizedAffinity 3.14218616
REMARK minimizedRMSD -1
REMARK  0 active torsions:
REMARK  status: ('A' for Active; 'I' for Inactive)
ROOT
ATOM      1  C   UNL d   1      -1.934  -2.263  -2.406  0.00  0.00     0.077 C 
ATOM      2  C1  UNL d   1      -1.949  -2.302  -0.907  0.00  0.00    -0.074 A 
ATOM      3  C2  UNL d   1      -2.746  -1.416  -0.174  0.00  0.00    -0.005 A 
ATOM      4  C3  UNL d   1      -2.758  -1.470   1.220  0.00  0.00     0.006 A 
ATOM      5  C4  UNL d   1      -1.974  -2.408   1.894  0.00  0.00    -0.005 A 
ATOM      6  C5  UNL d   1      -1.171  -3.301   1.177  0.00  0.00    -0.074 A 
ATOM      7  C6  UNL d   1      -0.330  -4.322   1.885  0.00  0.00     0.077 C 
ATOM      8  C7  UNL d   1      -1.171  -3.246  -0.223  0.00  0.00    -0.001 A 
ENDROOT
TORSDOF 0
ENDMDL
