MODEL 1
REMARK minimizedAffinity 13.6716795
REMARK minimizedRMSD -1
REMARK  0 active torsions:
REMARK  status: ('A' for Active; 'I' for Inactive)
ROOT
ATOM      1  C   UNL d   1      -0.575  -3.876   1.653  0.00  0.00     0.077 C 
ATOM      2  C1  UNL d   1      -1.110  -2.754   0.814  0.00  0.00    -0.074 A 
ATOM      3  C2  UNL d   1      -2.140  -1.933   1.283  0.00  0.00    -0.005 A 
ATOM      4  C3  UNL d   1      -2.620  -0.887   0.495  0.00  0.00     0.006 A 
ATOM      5  C4  UNL d   1      -2.076  -0.652  -0.769  0.00  0.00    -0.005 A 
ATOM      6  C5  UNL d   1      -1.045  -1.463  -1.254  0.00  0.00    -0.074 A 
ATOM      7  C6  UNL d   1      -0.443  -1.218  -2.606  0.00  0.00     0.077 C 
ATOM      8  C7  UNL d   1      -0.563  -2.507  -0.453  0.00  0.00    -0.001 A 
ENDROOT
TORSDOF 0
ENDMDL
