MODEL 1
REMARK minimizedAffinity 1.74613166
REMARK minimizedRMSD -1
REMARK  0 active torsions:
REMARK  status: ('A' for Active; 'I' for Inactive)
ROOT
ATOM      1  C   UNL d   1      -4.141   3.344   5.945  0.00  0.00     0.077 C 
ATOM      2  C1  UNL d   1      -4.430   1.873   5.964  0.00  0.00    -0.074 A 
ATOM      3  C2  UNL d   1      -5.746   1.400   5.993  0.00  0.00    -0.005 A 
ATOM      4  C3  UNL d   1      -6.000   0.028   6.000  0.00  0.00     0.006 A 
ATOM      5  C4  UNL d   1      -4.943  -0.882   5.978  0.00  0.00    -0.005 A 
ATOM      6  C5  UNL d   1      -3.620  -0.428   5.948  0.00  0.00    -0.074 A 
ATOM      7  C6  UNL d   1      -2.473  -1.393   5.914  0.00  0.00     0.077 C 
ATOM      8  C7  UNL d   1      -3.374   0.952   5.934  0.00  0.00    -0.001 A 
ENDROOT
TORSDOF 0
ENDMDL
