MODEL 1
REMARK minimizedAffinity 17.5847931
REMARK minimizedRMSD -1
REMARK  1 active torsions:
REMARK  status: ('A' for Active; 'I' for Inactive)
REMARK    1  A    between atoms: C1_2  and  C2_3 
ROOT
ATOM      1  C2  UNL d   1       4.038   2.709   0.147  0.00  0.00    -0.081 A 
ATOM      2  C3  UNL d   1       4.475   1.389   0.310  0.00  0.00     0.006 A 
ATOM      3  C4  UNL d   1       3.804   0.337  -0.319  0.00  0.00     0.002 A 
ATOM      4  C5  UNL d   1       2.690   0.589  -1.127  0.00  0.00    -0.080 A 
ATOM      5  C6  UNL d   1       1.979  -0.528  -1.832  0.00  0.00     0.076 C 
ATOM      6  C7  UNL d   1       2.243   1.906  -1.277  0.00  0.00     0.002 A 
ATOM      7  C8  UNL d   1       2.913   2.957  -0.648  0.00  0.00     0.006 A 
ENDROOT
BRANCH   1   8
ATOM      8  C1  UNL d   1       4.798   3.851   0.771  0.00  0.00     0.054 C 
ATOM      9  C   UNL d   1       5.152   4.910  -0.262  0.00  0.00     0.018 C 
ENDBRANCH   1   8
TORSDOF 1
ENDMDL
