MODEL 1
REMARK minimizedAffinity 12.6038036
REMARK minimizedRMSD -1
REMARK  1 active torsions:
REMARK  status: ('A' for Active; 'I' for Inactive)
REMARK    1  A    between atoms: C1_2  and  C2_3 
ROOT
ATOM      1  C2  UNL d   1      -0.654  -1.049  -2.102  0.00  0.00    -0.081 A 
ATOM      2  C3  UNL d   1      -1.845  -0.582  -2.672  0.00  0.00     0.006 A 
ATOM      3  C4  UNL d   1      -3.056  -0.713  -1.988  0.00  0.00     0.002 A 
ATOM      4  C5  UNL d   1      -3.095  -1.305  -0.721  0.00  0.00    -0.080 A 
ATOM      5  C6  UNL d   1      -4.384  -1.424   0.037  0.00  0.00     0.076 C 
ATOM      6  C7  UNL d   1      -1.908  -1.787  -0.159  0.00  0.00     0.002 A 
ATOM      7  C8  UNL d   1      -0.697  -1.657  -0.842  0.00  0.00     0.006 A 
ENDROOT
BRANCH   1   8
ATOM      8  C1  UNL d   1       0.663  -0.851  -2.809  0.00  0.00     0.054 C 
ATOM      9  C   UNL d   1       1.563   0.108  -2.043  0.00  0.00     0.018 C 
ENDBRANCH   1   8
TORSDOF 1
ENDMDL
