MODEL 1
REMARK minimizedAffinity 9.99227905
REMARK minimizedRMSD -1
REMARK  1 active torsions:
REMARK  status: ('A' for Active; 'I' for Inactive)
REMARK    1  A    between atoms: C1_2  and  C2_3 
ROOT
ATOM      1  C2  UNL d   1      -2.608  -1.081   5.119  0.00  0.00    -0.081 A 
ATOM      2  C3  UNL d   1      -2.241   0.217   5.493  0.00  0.00     0.006 A 
ATOM      3  C4  UNL d   1      -3.217   1.187   5.734  0.00  0.00     0.002 A 
ATOM      4  C5  UNL d   1      -4.575   0.873   5.612  0.00  0.00    -0.080 A 
ATOM      5  C6  UNL d   1      -5.634   1.896   5.897  0.00  0.00     0.076 C 
ATOM      6  C7  UNL d   1      -4.941  -0.419   5.221  0.00  0.00     0.002 A 
ATOM      7  C8  UNL d   1      -3.965  -1.389   4.979  0.00  0.00     0.006 A 
ENDROOT
BRANCH   1   8
ATOM      8  C1  UNL d   1      -1.559  -2.146   4.921  0.00  0.00     0.054 C 
ATOM      9  C   UNL d   1      -1.645  -2.755   3.529  0.00  0.00     0.018 C 
ENDBRANCH   1   8
TORSDOF 1
ENDMDL
