MODEL 1
REMARK minimizedAffinity 17.9235859
REMARK minimizedRMSD -1
REMARK  1 active torsions:
REMARK  status: ('A' for Active; 'I' for Inactive)
REMARK    1  A    between atoms: C1_2  and  C2_3 
ROOT
ATOM      1  C2  UNL d   1      -2.217  -2.734   2.065  0.00  0.00    -0.081 A 
ATOM      2  C3  UNL d   1      -1.015  -3.064   1.428  0.00  0.00     0.006 A 
ATOM      3  C4  UNL d   1      -0.790  -2.691   0.101  0.00  0.00     0.002 A 
ATOM      4  C5  UNL d   1      -1.761  -1.976  -0.609  0.00  0.00    -0.080 A 
ATOM      5  C6  UNL d   1      -1.520  -1.543  -2.024  0.00  0.00     0.076 C 
ATOM      6  C7  UNL d   1      -2.969  -1.661   0.022  0.00  0.00     0.002 A 
ATOM      7  C8  UNL d   1      -3.194  -2.034   1.348  0.00  0.00     0.006 A 
ENDROOT
BRANCH   1   8
ATOM      8  C1  UNL d   1      -2.436  -3.079   3.516  0.00  0.00     0.054 C 
ATOM      9  C   UNL d   1      -1.967  -1.955   4.428  0.00  0.00     0.018 C 
ENDBRANCH   1   8
TORSDOF 1
ENDMDL
