MODEL 1
REMARK minimizedAffinity 14.2504215
REMARK minimizedRMSD -1
REMARK  1 active torsions:
REMARK  status: ('A' for Active; 'I' for Inactive)
REMARK    1  A    between atoms: C1_2  and  C2_3 
ROOT
ATOM      1  C2  UNL d   1       3.095   1.289  -1.378  0.00  0.00    -0.081 A 
ATOM      2  C3  UNL d   1       1.839   1.865  -1.603  0.00  0.00     0.006 A 
ATOM      3  C4  UNL d   1       0.825   1.132  -2.225  0.00  0.00     0.002 A 
ATOM      4  C5  UNL d   1       1.048  -0.190  -2.625  0.00  0.00    -0.080 A 
ATOM      5  C6  UNL d   1      -0.041  -0.997  -3.266  0.00  0.00     0.076 C 
ATOM      6  C7  UNL d   1       2.308  -0.759  -2.416  0.00  0.00     0.002 A 
ATOM      7  C8  UNL d   1       3.322  -0.027  -1.795  0.00  0.00     0.006 A 
ENDROOT
BRANCH   1   8
ATOM      8  C1  UNL d   1       4.170   2.054  -0.649  0.00  0.00     0.054 C 
ATOM      9  C   UNL d   1       3.585   2.891   0.480  0.00  0.00     0.018 C 
ENDBRANCH   1   8
TORSDOF 1
ENDMDL
