MODEL 1
REMARK minimizedAffinity 11.5817852
REMARK minimizedRMSD -1
REMARK  1 active torsions:
REMARK  status: ('A' for Active; 'I' for Inactive)
REMARK    1  A    between atoms: C1_2  and  C2_3 
ROOT
ATOM      1  C2  UNL d   1      -4.944   0.930   5.626  0.00  0.00    -0.081 A 
ATOM      2  C3  UNL d   1      -5.302  -0.273   5.004  0.00  0.00     0.006 A 
ATOM      3  C4  UNL d   1      -4.333  -1.236   4.716  0.00  0.00     0.002 A 
ATOM      4  C5  UNL d   1      -2.992  -1.017   5.051  0.00  0.00    -0.080 A 
ATOM      5  C6  UNL d   1      -1.947  -2.056   4.774  0.00  0.00     0.076 C 
ATOM      6  C7  UNL d   1      -2.632   0.192   5.656  0.00  0.00     0.002 A 
ATOM      7  C8  UNL d   1      -3.601   1.156   5.944  0.00  0.00     0.006 A 
ENDROOT
BRANCH   1   8
ATOM      8  C1  UNL d   1      -5.997   1.944   5.997  0.00  0.00     0.054 C 
ATOM      9  C   UNL d   1      -5.428   3.355   5.999  0.00  0.00     0.018 C 
ENDBRANCH   1   8
TORSDOF 1
ENDMDL
