MODEL 1
REMARK minimizedAffinity 4.98919821
REMARK minimizedRMSD -1
REMARK  1 active torsions:
REMARK  status: ('A' for Active; 'I' for Inactive)
REMARK    1  A    between atoms: C1_2  and  C2_3 
ROOT
ATOM      1  C2  UNL d   1      -5.146   5.002   0.266  0.00  0.00    -0.081 A 
ATOM      2  C3  UNL d   1      -5.922   5.659  -0.696  0.00  0.00     0.006 A 
ATOM      3  C4  UNL d   1      -5.376   5.995  -1.938  0.00  0.00     0.002 A 
ATOM      4  C5  UNL d   1      -4.049   5.672  -2.240  0.00  0.00    -0.080 A 
ATOM      5  C6  UNL d   1      -3.460   5.999  -3.580  0.00  0.00     0.076 C 
ATOM      6  C7  UNL d   1      -3.268   5.031  -1.273  0.00  0.00     0.002 A 
ATOM      7  C8  UNL d   1      -3.813   4.696  -0.031  0.00  0.00     0.006 A 
ENDROOT
BRANCH   1   8
ATOM      8  C1  UNL d   1      -5.750   4.581   1.581  0.00  0.00     0.054 C 
ATOM      9  C   UNL d   1      -5.381   3.145   1.926  0.00  0.00     0.018 C 
ENDBRANCH   1   8
TORSDOF 1
ENDMDL
