MODEL 1
REMARK minimizedAffinity 11.4120588
REMARK minimizedRMSD -1
REMARK  1 active torsions:
REMARK  status: ('A' for Active; 'I' for Inactive)
REMARK    1  A    between atoms: C1_2  and  C2_3 
ROOT
ATOM      1  C2  UNL d   1      -3.172  -0.824   4.936  0.00  0.00    -0.081 A 
ATOM      2  C3  UNL d   1      -4.544  -1.102   4.960  0.00  0.00     0.006 A 
ATOM      3  C4  UNL d   1      -5.461  -0.110   5.316  0.00  0.00     0.002 A 
ATOM      4  C5  UNL d   1      -5.023   1.177   5.646  0.00  0.00    -0.080 A 
ATOM      5  C6  UNL d   1      -5.999   2.259   6.000  0.00  0.00     0.076 C 
ATOM      6  C7  UNL d   1      -3.651   1.450   5.639  0.00  0.00     0.002 A 
ATOM      7  C8  UNL d   1      -2.733   0.458   5.284  0.00  0.00     0.006 A 
ENDROOT
BRANCH   1   8
ATOM      8  C1  UNL d   1      -2.185  -1.873   4.490  0.00  0.00     0.054 C 
ATOM      9  C   UNL d   1      -1.049  -2.025   5.492  0.00  0.00     0.018 C 
ENDBRANCH   1   8
TORSDOF 1
ENDMDL
