MODEL 1
REMARK minimizedAffinity 10.0401297
REMARK minimizedRMSD -1
REMARK  1 active torsions:
REMARK  status: ('A' for Active; 'I' for Inactive)
REMARK    1  A    between atoms: C1_2  and  C2_3 
ROOT
ATOM      1  C2  UNL d   1      -4.851   3.479   5.785  0.00  0.00    -0.081 A 
ATOM      2  C3  UNL d   1      -3.472   3.250   5.862  0.00  0.00     0.006 A 
ATOM      3  C4  UNL d   1      -2.971   1.946   5.893  0.00  0.00     0.002 A 
ATOM      4  C5  UNL d   1      -3.840   0.850   5.840  0.00  0.00    -0.080 A 
ATOM      5  C6  UNL d   1      -3.313  -0.554   5.842  0.00  0.00     0.076 C 
ATOM      6  C7  UNL d   1      -5.218   1.079   5.780  0.00  0.00     0.002 A 
ATOM      7  C8  UNL d   1      -5.720   2.382   5.750  0.00  0.00     0.006 A 
ENDROOT
BRANCH   1   8
ATOM      8  C1  UNL d   1      -5.390   4.883   5.686  0.00  0.00     0.054 C 
ATOM      9  C   UNL d   1      -4.311   5.913   5.987  0.00  0.00     0.018 C 
ENDBRANCH   1   8
TORSDOF 1
ENDMDL
