MODEL 1
REMARK minimizedAffinity 10.9544954
REMARK minimizedRMSD -1
REMARK  1 active torsions:
REMARK  status: ('A' for Active; 'I' for Inactive)
REMARK    1  A    between atoms: C1_2  and  C2_3 
ROOT
ATOM      1  C2  UNL d   1       2.400   2.070  -1.370  0.00  0.00    -0.081 A 
ATOM      2  C3  UNL d   1       1.496   2.504  -2.347  0.00  0.00     0.006 A 
ATOM      3  C4  UNL d   1       0.666   1.590  -3.000  0.00  0.00     0.002 A 
ATOM      4  C5  UNL d   1       0.721   0.229  -2.682  0.00  0.00    -0.080 A 
ATOM      5  C6  UNL d   1      -0.186  -0.759  -3.354  0.00  0.00     0.076 C 
ATOM      6  C7  UNL d   1       1.637  -0.207  -1.719  0.00  0.00     0.002 A 
ATOM      7  C8  UNL d   1       2.467   0.706  -1.066  0.00  0.00     0.006 A 
ENDROOT
BRANCH   1   8
ATOM      8  C1  UNL d   1       3.251   3.062  -0.618  0.00  0.00     0.054 C 
ATOM      9  C   UNL d   1       4.152   2.365   0.392  0.00  0.00     0.018 C 
ENDBRANCH   1   8
TORSDOF 1
ENDMDL
