MODEL 1
REMARK minimizedAffinity 9.68503952
REMARK minimizedRMSD -1
REMARK  1 active torsions:
REMARK  status: ('A' for Active; 'I' for Inactive)
REMARK    1  A    between atoms: C1_2  and  C2_3 
ROOT
ATOM      1  C2  UNL d   1      -2.149  -2.965   1.531  0.00  0.00    -0.081 A 
ATOM      2  C3  UNL d   1      -1.059  -3.484   0.823  0.00  0.00     0.006 A 
ATOM      3  C4  UNL d   1      -0.634  -2.882  -0.364  0.00  0.00     0.002 A 
ATOM      4  C5  UNL d   1      -1.287  -1.747  -0.858  0.00  0.00    -0.080 A 
ATOM      5  C6  UNL d   1      -0.823  -1.073  -2.115  0.00  0.00     0.076 C 
ATOM      6  C7  UNL d   1      -2.388  -1.239  -0.159  0.00  0.00     0.002 A 
ATOM      7  C8  UNL d   1      -2.813  -1.841   1.027  0.00  0.00     0.006 A 
ENDROOT
BRANCH   1   8
ATOM      8  C1  UNL d   1      -2.569  -3.573   2.845  0.00  0.00     0.054 C 
ATOM      9  C   UNL d   1      -2.682  -2.515   3.934  0.00  0.00     0.018 C 
ENDBRANCH   1   8
TORSDOF 1
ENDMDL
