MODEL 1
REMARK minimizedAffinity -5.808465
REMARK minimizedRMSD -1
REMARK  2 active torsions:
REMARK  status: ('A' for Active; 'I' for Inactive)
REMARK    1  A    between atoms: C2'_3  and  C1'_4 
REMARK    2  A    between atoms: C1'_4  and  C1_5 
ROOT
ATOM      1  C1  I4B d   1      -0.035  -0.440  -3.617  0.00  0.00    -0.075 A 
ATOM      2  C2  I4B d   1      -0.632  -1.664  -3.791  0.00  0.00     0.003 A 
ATOM      3  C3  I4B d   1      -1.555  -1.863  -4.846  0.00  0.00     0.002 A 
ATOM      4  C4  I4B d   1      -1.887  -0.806  -5.668  0.00  0.00    -0.004 A 
ATOM      5  C5  I4B d   1      -1.263   0.428  -5.505  0.00  0.00     0.002 A 
ATOM      6  C6  I4B d   1      -0.322   0.609  -4.481  0.00  0.00     0.003 A 
ENDROOT
BRANCH   1   7
ATOM      7  C1' I4B d   1       0.910  -0.255  -2.473  0.00  0.00     0.060 C 
BRANCH   7   8
ATOM      8  C2' I4B d   1       0.223  -0.748  -1.216  0.00  0.00    -0.013 C 
ATOM      9  C4' I4B d   1       1.052  -1.792  -0.515  0.00  0.00     0.013 C 
ATOM     10  C3' I4B d   1      -0.022   0.435  -0.327  0.00  0.00     0.013 C 
ENDBRANCH   7   8
ENDBRANCH   1   7
TORSDOF 2
ENDMDL
