MODEL 1
REMARK minimizedAffinity -4.7485671
REMARK minimizedRMSD -1
REMARK  2 active torsions:
REMARK  status: ('A' for Active; 'I' for Inactive)
REMARK    1  A    between atoms: C2'_3  and  C1'_4 
REMARK    2  A    between atoms: C1'_4  and  C1_5 
ROOT
ATOM      1  C1  I4B d   1       0.533  -0.625  -2.211  0.00  0.00    -0.075 A 
ATOM      2  C2  I4B d   1      -0.482  -0.882  -3.099  0.00  0.00     0.003 A 
ATOM      3  C3  I4B d   1      -0.427  -0.362  -4.415  0.00  0.00     0.002 A 
ATOM      4  C4  I4B d   1       0.629   0.447  -4.782  0.00  0.00    -0.004 A 
ATOM      5  C5  I4B d   1       1.669   0.687  -3.889  0.00  0.00     0.002 A 
ATOM      6  C6  I4B d   1       1.627   0.138  -2.599  0.00  0.00     0.003 A 
ENDROOT
BRANCH   1   7
ATOM      7  C1' I4B d   1       0.428  -1.163  -0.820  0.00  0.00     0.060 C 
BRANCH   7   8
ATOM      8  C2' I4B d   1       0.322   0.014   0.129  0.00  0.00    -0.013 C 
ATOM      9  C4' I4B d   1      -1.104   0.248   0.551  0.00  0.00     0.013 C 
ATOM     10  C3' I4B d   1       1.199  -0.266   1.313  0.00  0.00     0.013 C 
ENDBRANCH   7   8
ENDBRANCH   1   7
TORSDOF 2
ENDMDL
