MODEL 1
REMARK minimizedAffinity -6.64100361
REMARK minimizedRMSD -1
REMARK  2 active torsions:
REMARK  status: ('A' for Active; 'I' for Inactive)
REMARK    1  A    between atoms: C2'_3  and  C1'_4 
REMARK    2  A    between atoms: C1'_4  and  C1_5 
ROOT
ATOM      1  C1  I4B d   1      -0.448  -0.325  -1.296  0.00  0.00    -0.075 A 
ATOM      2  C2  I4B d   1      -0.985  -0.632  -2.521  0.00  0.00     0.003 A 
ATOM      3  C3  I4B d   1      -0.273  -0.331  -3.707  0.00  0.00     0.002 A 
ATOM      4  C4  I4B d   1       0.942   0.318  -3.625  0.00  0.00    -0.004 A 
ATOM      5  C5  I4B d   1       1.496   0.608  -2.381  0.00  0.00     0.002 A 
ATOM      6  C6  I4B d   1       0.802   0.273  -1.208  0.00  0.00     0.003 A 
ENDROOT
BRANCH   1   7
ATOM      7  C1' I4B d   1      -1.242  -0.626  -0.065  0.00  0.00     0.060 C 
BRANCH   7   8
ATOM      8  C2' I4B d   1      -1.307   0.636   0.770  0.00  0.00    -0.013 C 
ATOM      9  C4' I4B d   1      -2.705   1.197   0.801  0.00  0.00     0.013 C 
ATOM     10  C3' I4B d   1      -0.826   0.304   2.150  0.00  0.00     0.013 C 
ENDBRANCH   7   8
ENDBRANCH   1   7
TORSDOF 2
ENDMDL
