MODEL 1
REMARK minimizedAffinity -2.50973415
REMARK minimizedRMSD -1
REMARK  2 active torsions:
REMARK  status: ('A' for Active; 'I' for Inactive)
REMARK    1  A    between atoms: C2'_3  and  C1'_4 
REMARK    2  A    between atoms: C1'_4  and  C1_5 
ROOT
ATOM      1  C1  I4B d   1       0.609  -0.213  -2.441  0.00  0.00    -0.075 A 
ATOM      2  C2  I4B d   1      -0.470  -0.046  -3.273  0.00  0.00     0.003 A 
ATOM      3  C3  I4B d   1      -0.311   0.591  -4.528  0.00  0.00     0.002 A 
ATOM      4  C4  I4B d   1       0.926   1.087  -4.886  0.00  0.00    -0.004 A 
ATOM      5  C5  I4B d   1       2.023   0.897  -4.051  0.00  0.00     0.002 A 
ATOM      6  C6  I4B d   1       1.867   0.232  -2.826  0.00  0.00     0.003 A 
ENDROOT
BRANCH   1   7
ATOM      7  C1' I4B d   1       0.398  -0.861  -1.109  0.00  0.00     0.060 C 
BRANCH   7   8
ATOM      8  C2' I4B d   1      -0.489   0.048  -0.284  0.00  0.00    -0.013 C 
ATOM      9  C4' I4B d   1      -1.810  -0.608   0.020  0.00  0.00     0.013 C 
ATOM     10  C3' I4B d   1       0.246   0.393   0.977  0.00  0.00     0.013 C 
ENDBRANCH   7   8
ENDBRANCH   1   7
TORSDOF 2
ENDMDL
