MODEL 1
REMARK minimizedAffinity -5.91899538
REMARK minimizedRMSD -1
REMARK  3 active torsions:
REMARK  status: ('A' for Active; 'I' for Inactive)
REMARK    1  A    between atoms: C3'_2  and  C2'_3 
REMARK    2  A    between atoms: C2'_3  and  C1'_4 
REMARK    3  A    between atoms: C1'_4  and  C1_5 
ROOT
ATOM      1  C1  N4B d   1       1.055   0.547  -1.080  0.00  0.00    -0.075 A 
ATOM      2  C2  N4B d   1       1.339   1.592  -1.987  0.00  0.00     0.002 A 
ATOM      3  C3  N4B d   1       1.523   2.871  -1.524  0.00  0.00     0.002 A 
ATOM      4  C4  N4B d   1       1.411   3.133  -0.167  0.00  0.00    -0.004 A 
ATOM      5  C5  N4B d   1       1.162   2.113   0.705  0.00  0.00     0.002 A 
ATOM      6  C6  N4B d   1       0.978   0.822   0.255  0.00  0.00     0.002 A 
ENDROOT
BRANCH   1   7
ATOM      7  C1' N4B d   1       0.760  -0.852  -1.547  0.00  0.00     0.057 C 
BRANCH   7   8
ATOM      8  C2' N4B d   1       1.507  -1.844  -0.661  0.00  0.00     0.009 C 
BRANCH   8   9
ATOM      9  C3' N4B d   1       0.628  -3.013  -0.250  0.00  0.00     0.004 C 
ATOM     10  C4' N4B d   1      -0.454  -3.304  -1.246  0.00  0.00     0.003 C 
ENDBRANCH   8   9
ENDBRANCH   7   8
ENDBRANCH   1   7
TORSDOF 3
ENDMDL
