MODEL 1
REMARK minimizedAffinity 1.76959717
REMARK minimizedRMSD -1
REMARK  3 active torsions:
REMARK  status: ('A' for Active; 'I' for Inactive)
REMARK    1  A    between atoms: C3'_2  and  C2'_3 
REMARK    2  A    between atoms: C2'_3  and  C1'_4 
REMARK    3  A    between atoms: C1'_4  and  C1_5 
ROOT
ATOM      1  C1  N4B d   1       1.370   0.241  -2.254  0.00  0.00    -0.075 A 
ATOM      2  C2  N4B d   1       1.187  -0.596  -1.131  0.00  0.00     0.002 A 
ATOM      3  C3  N4B d   1       1.193  -0.059   0.134  0.00  0.00     0.002 A 
ATOM      4  C4  N4B d   1       1.397   1.302   0.300  0.00  0.00    -0.004 A 
ATOM      5  C5  N4B d   1       1.546   2.108  -0.791  0.00  0.00     0.002 A 
ATOM      6  C6  N4B d   1       1.539   1.583  -2.068  0.00  0.00     0.002 A 
ENDROOT
BRANCH   1   7
ATOM      7  C1' N4B d   1       1.457  -0.312  -3.650  0.00  0.00     0.057 C 
BRANCH   7   8
ATOM      8  C2' N4B d   1       1.901  -1.770  -3.585  0.00  0.00     0.009 C 
BRANCH   8   9
ATOM      9  C3' N4B d   1       2.599  -2.209  -4.860  0.00  0.00     0.004 C 
ATOM     10  C4' N4B d   1       2.387  -1.254  -5.997  0.00  0.00     0.003 C 
ENDBRANCH   8   9
ENDBRANCH   7   8
ENDBRANCH   1   7
TORSDOF 3
ENDMDL
