MODEL 1
REMARK minimizedAffinity 5.42823553
REMARK minimizedRMSD -1
REMARK  3 active torsions:
REMARK  status: ('A' for Active; 'I' for Inactive)
REMARK    1  A    between atoms: C3'_2  and  C2'_3 
REMARK    2  A    between atoms: C2'_3  and  C1'_4 
REMARK    3  A    between atoms: C1'_4  and  C1_5 
ROOT
ATOM      1  C1  N4B d   1       1.769   3.709  -1.386  0.00  0.00    -0.075 A 
ATOM      2  C2  N4B d   1       2.402   2.514  -0.977  0.00  0.00     0.002 A 
ATOM      3  C3  N4B d   1       2.016   1.313  -1.520  0.00  0.00     0.002 A 
ATOM      4  C4  N4B d   1       0.993   1.280  -2.456  0.00  0.00    -0.004 A 
ATOM      5  C5  N4B d   1       0.405   2.442  -2.864  0.00  0.00     0.002 A 
ATOM      6  C6  N4B d   1       0.785   3.656  -2.329  0.00  0.00     0.002 A 
ENDROOT
BRANCH   1   7
ATOM      7  C1' N4B d   1       2.098   5.036  -0.758  0.00  0.00     0.057 C 
BRANCH   7   8
ATOM      8  C2' N4B d   1       1.438   5.116   0.616  0.00  0.00     0.009 C 
BRANCH   8   9
ATOM      9  C3' N4B d   1       1.535   3.801   1.370  0.00  0.00     0.004 C 
ATOM     10  C4' N4B d   1       2.180   3.949   2.716  0.00  0.00     0.003 C 
ENDBRANCH   8   9
ENDBRANCH   7   8
ENDBRANCH   1   7
TORSDOF 3
ENDMDL
