MODEL 1
REMARK minimizedAffinity -0.717198551
REMARK minimizedRMSD -1
REMARK  3 active torsions:
REMARK  status: ('A' for Active; 'I' for Inactive)
REMARK    1  A    between atoms: C3'_2  and  C2'_3 
REMARK    2  A    between atoms: C2'_3  and  C1'_4 
REMARK    3  A    between atoms: C1'_4  and  C1_5 
ROOT
ATOM      1  C1  N4B d   1       1.091   2.351  -1.028  0.00  0.00    -0.075 A 
ATOM      2  C2  N4B d   1       1.401   1.300  -1.918  0.00  0.00     0.002 A 
ATOM      3  C3  N4B d   1       1.445   0.005  -1.462  0.00  0.00     0.002 A 
ATOM      4  C4  N4B d   1       1.202  -0.259  -0.123  0.00  0.00    -0.004 A 
ATOM      5  C5  N4B d   1       0.878   0.759   0.725  0.00  0.00     0.002 A 
ATOM      6  C6  N4B d   1       0.827   2.065   0.280  0.00  0.00     0.002 A 
ENDROOT
BRANCH   1   7
ATOM      7  C1' N4B d   1       1.116   3.792  -1.461  0.00  0.00     0.057 C 
BRANCH   7   8
ATOM      8  C2' N4B d   1       1.112   4.687  -0.225  0.00  0.00     0.009 C 
BRANCH   8   9
ATOM      9  C3' N4B d   1       1.849   5.993  -0.468  0.00  0.00     0.004 C 
ATOM     10  C4' N4B d   1       2.614   5.998  -1.757  0.00  0.00     0.003 C 
ENDBRANCH   8   9
ENDBRANCH   7   8
ENDBRANCH   1   7
TORSDOF 3
ENDMDL
