MODEL 1
REMARK minimizedAffinity -1.92811072
REMARK minimizedRMSD -1
REMARK  3 active torsions:
REMARK  status: ('A' for Active; 'I' for Inactive)
REMARK    1  A    between atoms: C3'_2  and  C2'_3 
REMARK    2  A    between atoms: C2'_3  and  C1'_4 
REMARK    3  A    between atoms: C1'_4  and  C1_5 
ROOT
ATOM      1  C1  N4B d   1       1.164   2.261  -0.993  0.00  0.00    -0.075 A 
ATOM      2  C2  N4B d   1       1.053   2.706   0.343  0.00  0.00     0.002 A 
ATOM      3  C3  N4B d   1       1.275   4.026   0.648  0.00  0.00     0.002 A 
ATOM      4  C4  N4B d   1       1.627   4.913  -0.359  0.00  0.00    -0.004 A 
ATOM      5  C5  N4B d   1       1.707   4.481  -1.651  0.00  0.00     0.002 A 
ATOM      6  C6  N4B d   1       1.482   3.157  -1.972  0.00  0.00     0.002 A 
ENDROOT
BRANCH   1   7
ATOM      7  C1' N4B d   1       1.014   0.811  -1.362  0.00  0.00     0.057 C 
BRANCH   7   8
ATOM      8  C2' N4B d   1       1.443  -0.054  -0.180  0.00  0.00     0.009 C 
BRANCH   8   9
ATOM      9  C3' N4B d   1       1.098  -1.518  -0.392  0.00  0.00     0.004 C 
ATOM     10  C4' N4B d   1       0.399  -1.767  -1.695  0.00  0.00     0.003 C 
ENDBRANCH   8   9
ENDBRANCH   7   8
ENDBRANCH   1   7
TORSDOF 3
ENDMDL
