MODEL 1
REMARK minimizedAffinity 7.99508286
REMARK minimizedRMSD -1
REMARK  1 active torsions:
REMARK  status: ('A' for Active; 'I' for Inactive)
REMARK    1  A    between atoms: C3_4  and  O_7 
ROOT
ATOM      1  C   UNL d   1      -0.084  -1.268  -0.612  0.00  0.00    -0.033 A 
ATOM      2  C1  UNL d   1      -1.478  -1.323  -0.573  0.00  0.00     0.039 A 
ATOM      3  C2  UNL d   1      -2.127  -2.554  -0.457  0.00  0.00    -0.080 A 
ATOM      4  C3  UNL d   1      -1.370  -3.720  -0.379  0.00  0.00     0.150 A 
ATOM      5  C4  UNL d   1       0.019  -3.672  -0.412  0.00  0.00    -0.007 A 
ATOM      6  C5  UNL d   1       0.665  -2.442  -0.530  0.00  0.00     0.039 A 
ENDROOT
BRANCH   4   7
ATOM      7  O   UNL d   1      -1.959  -4.945  -0.269  0.00  0.00    -0.526 OA
ATOM      8  H5  UNL d   1      -2.923  -4.826  -0.288  0.00  0.00     0.418 HD
ENDBRANCH   4   7
TORSDOF 1
ENDMDL
