MODEL 1
REMARK minimizedAffinity 3.60699058
REMARK minimizedRMSD -1
REMARK  1 active torsions:
REMARK  status: ('A' for Active; 'I' for Inactive)
REMARK    1  A    between atoms: C3_4  and  O_7 
ROOT
ATOM      1  C   UNL d   1      -2.577   3.384   2.281  0.00  0.00    -0.033 A 
ATOM      2  C1  UNL d   1      -3.702   3.776   3.010  0.00  0.00     0.039 A 
ATOM      3  C2  UNL d   1      -4.864   4.172   2.345  0.00  0.00    -0.080 A 
ATOM      4  C3  UNL d   1      -4.889   4.170   0.953  0.00  0.00     0.150 A 
ATOM      5  C4  UNL d   1      -3.774   3.777   0.221  0.00  0.00    -0.007 A 
ATOM      6  C5  UNL d   1      -2.614   3.383   0.886  0.00  0.00     0.039 A 
ENDROOT
BRANCH   4   7
ATOM      7  O   UNL d   1      -5.999   4.552   0.260  0.00  0.00    -0.526 OA
ATOM      8  H5  UNL d   1      -6.681   4.825   0.897  0.00  0.00     0.418 HD
ENDBRANCH   4   7
TORSDOF 1
ENDMDL
