MODEL 1
REMARK minimizedAffinity -1.6701411
REMARK minimizedRMSD -1
REMARK  1 active torsions:
REMARK  status: ('A' for Active; 'I' for Inactive)
REMARK    1  A    between atoms: C3_4  and  O_7 
ROOT
ATOM      1  C   UNL d   1       5.897   5.885  -3.911  0.00  0.00    -0.033 A 
ATOM      2  C1  UNL d   1       4.647   5.713  -4.508  0.00  0.00     0.039 A 
ATOM      3  C2  UNL d   1       3.497   5.650  -3.718  0.00  0.00    -0.080 A 
ATOM      4  C3  UNL d   1       3.610   5.761  -2.335  0.00  0.00     0.150 A 
ATOM      5  C4  UNL d   1       4.852   5.937  -1.734  0.00  0.00    -0.007 A 
ATOM      6  C5  UNL d   1       6.000   5.999  -2.524  0.00  0.00     0.039 A 
ENDROOT
BRANCH   4   7
ATOM      7  O   UNL d   1       2.517   5.700  -1.523  0.00  0.00    -0.526 OA
ATOM      8  H5  UNL d   1       1.732   5.548  -2.075  0.00  0.00     0.418 HD
ENDBRANCH   4   7
TORSDOF 1
ENDMDL
