MODEL 1
REMARK minimizedAffinity 0.578259051
REMARK minimizedRMSD -1
REMARK  1 active torsions:
REMARK  status: ('A' for Active; 'I' for Inactive)
REMARK    1  A    between atoms: C3_4  and  O_7 
ROOT
ATOM      1  C   UNL d   1       3.750  -5.999  -2.290  0.00  0.00    -0.033 A 
ATOM      2  C1  UNL d   1       2.998  -5.999  -1.113  0.00  0.00     0.039 A 
ATOM      3  C2  UNL d   1       2.525  -4.796  -0.584  0.00  0.00    -0.080 A 
ATOM      4  C3  UNL d   1       2.810  -3.602  -1.241  0.00  0.00     0.150 A 
ATOM      5  C4  UNL d   1       3.555  -3.595  -2.416  0.00  0.00    -0.007 A 
ATOM      6  C5  UNL d   1       4.027  -4.797  -2.942  0.00  0.00     0.039 A 
ENDROOT
BRANCH   4   7
ATOM      7  O   UNL d   1       2.374  -2.403  -0.761  0.00  0.00    -0.526 OA
ATOM      8  H5  UNL d   1       1.898  -2.560   0.071  0.00  0.00     0.418 HD
ENDBRANCH   4   7
TORSDOF 1
ENDMDL
