MODEL 1
REMARK minimizedAffinity 10.482831
REMARK minimizedRMSD -1
REMARK  1 active torsions:
REMARK  status: ('A' for Active; 'I' for Inactive)
REMARK    1  A    between atoms: C3_4  and  O_7 
ROOT
ATOM      1  C   UNL d   1       2.247   2.006   1.641  0.00  0.00    -0.033 A 
ATOM      2  C1  UNL d   1       2.377   0.629   1.836  0.00  0.00     0.039 A 
ATOM      3  C2  UNL d   1       1.240  -0.179   1.900  0.00  0.00    -0.080 A 
ATOM      4  C3  UNL d   1      -0.018   0.401   1.766  0.00  0.00     0.150 A 
ATOM      5  C4  UNL d   1      -0.155   1.771   1.567  0.00  0.00    -0.007 A 
ATOM      6  C5  UNL d   1       0.981   2.576   1.505  0.00  0.00     0.039 A 
ENDROOT
BRANCH   4   7
ATOM      7  O   UNL d   1      -1.157  -0.347   1.825  0.00  0.00    -0.526 OA
ATOM      8  H5  UNL d   1      -0.910  -1.271   1.995  0.00  0.00     0.418 HD
ENDBRANCH   4   7
TORSDOF 1
ENDMDL
