MODEL 1
REMARK minimizedAffinity 2.3652184
REMARK minimizedRMSD -1
REMARK  1 active torsions:
REMARK  status: ('A' for Active; 'I' for Inactive)
REMARK    1  A    between atoms: C3_4  and  O_7 
ROOT
ATOM      1  C   UNL d   1       2.140  -4.956   5.983  0.00  0.00    -0.033 A 
ATOM      2  C1  UNL d   1       3.244  -4.220   5.551  0.00  0.00     0.039 A 
ATOM      3  C2  UNL d   1       3.083  -2.898   5.130  0.00  0.00    -0.080 A 
ATOM      4  C3  UNL d   1       1.814  -2.326   5.147  0.00  0.00     0.150 A 
ATOM      5  C4  UNL d   1       0.710  -3.052   5.581  0.00  0.00    -0.007 A 
ATOM      6  C5  UNL d   1       0.873  -4.372   6.000  0.00  0.00     0.039 A 
ENDROOT
BRANCH   4   7
ATOM      7  O   UNL d   1       1.607  -1.041   4.741  0.00  0.00    -0.526 OA
ATOM      8  H5  UNL d   1       2.455  -0.672   4.442  0.00  0.00     0.418 HD
ENDBRANCH   4   7
TORSDOF 1
ENDMDL
