MODEL 1
REMARK minimizedAffinity 0.585193872
REMARK minimizedRMSD -1
REMARK  1 active torsions:
REMARK  status: ('A' for Active; 'I' for Inactive)
REMARK    1  A    between atoms: C3_4  and  O_7 
ROOT
ATOM      1  C   UNL d   1       2.603  -1.348   2.190  0.00  0.00    -0.033 A 
ATOM      2  C1  UNL d   1       2.837  -2.711   2.001  0.00  0.00     0.039 A 
ATOM      3  C2  UNL d   1       2.404  -3.634   2.955  0.00  0.00    -0.080 A 
ATOM      4  C3  UNL d   1       1.739  -3.182   4.092  0.00  0.00     0.150 A 
ATOM      5  C4  UNL d   1       1.499  -1.825   4.284  0.00  0.00    -0.007 A 
ATOM      6  C5  UNL d   1       1.933  -0.905   3.331  0.00  0.00     0.039 A 
ENDROOT
BRANCH   4   7
ATOM      7  O   UNL d   1       1.302  -4.044   5.053  0.00  0.00    -0.526 OA
ATOM      8  H5  UNL d   1       1.563  -4.945   4.799  0.00  0.00     0.418 HD
ENDBRANCH   4   7
TORSDOF 1
ENDMDL
