MODEL 1
REMARK minimizedAffinity 8.20688629
REMARK minimizedRMSD -1
REMARK  2 active torsions:
REMARK  status: ('A' for Active; 'I' for Inactive)
REMARK    1  A    between atoms: C1_2  and  C2_3 
REMARK    2  A    between atoms: C2_3  and  C3_4 
ROOT
ATOM      1  C3  UNL d   1       5.069   5.862   3.513  0.00  0.00    -0.075 A 
ATOM      2  C4  UNL d   1       5.797   5.836   4.712  0.00  0.00     0.002 A 
ATOM      3  C5  UNL d   1       5.139   5.862   5.941  0.00  0.00     0.002 A 
ATOM      4  C6  UNL d   1       3.748   5.924   5.989  0.00  0.00    -0.004 A 
ATOM      5  C7  UNL d   1       3.015   5.967   4.805  0.00  0.00     0.002 A 
ATOM      6  C8  UNL d   1       3.671   5.936   3.573  0.00  0.00     0.002 A 
ENDROOT
BRANCH   1   7
ATOM      7  C2  UNL d   1       5.775   5.804   2.179  0.00  0.00     0.056 C 
BRANCH   7   8
ATOM      8  C1  UNL d   1       4.845   5.984   0.974  0.00  0.00     0.007 C 
ATOM      9  C   UNL d   1       5.504   5.624  -0.351  0.00  0.00     0.009 C 
ENDBRANCH   7   8
ENDBRANCH   1   7
TORSDOF 2
ENDMDL
