MODEL 1
REMARK minimizedAffinity 5.57148933
REMARK minimizedRMSD -1
REMARK  2 active torsions:
REMARK  status: ('A' for Active; 'I' for Inactive)
REMARK    1  A    between atoms: C1_2  and  C2_3 
REMARK    2  A    between atoms: C2_3  and  C3_4 
ROOT
ATOM      1  C3  UNL d   1      -3.333  -1.511   2.984  0.00  0.00    -0.075 A 
ATOM      2  C4  UNL d   1      -3.686  -1.994   4.253  0.00  0.00     0.002 A 
ATOM      3  C5  UNL d   1      -5.010  -2.328   4.541  0.00  0.00     0.002 A 
ATOM      4  C6  UNL d   1      -5.997  -2.175   3.570  0.00  0.00    -0.004 A 
ATOM      5  C7  UNL d   1      -5.661  -1.681   2.311  0.00  0.00     0.002 A 
ATOM      6  C8  UNL d   1      -4.336  -1.349   2.019  0.00  0.00     0.002 A 
ENDROOT
BRANCH   1   7
ATOM      7  C2  UNL d   1      -1.898  -1.175   2.657  0.00  0.00     0.056 C 
BRANCH   7   8
ATOM      8  C1  UNL d   1      -1.364  -1.876   1.404  0.00  0.00     0.007 C 
ATOM      9  C   UNL d   1      -0.062  -2.629   1.645  0.00  0.00     0.009 C 
ENDBRANCH   7   8
ENDBRANCH   1   7
TORSDOF 2
ENDMDL
