MODEL 1
REMARK minimizedAffinity 8.11158943
REMARK minimizedRMSD -1
REMARK  2 active torsions:
REMARK  status: ('A' for Active; 'I' for Inactive)
REMARK    1  A    between atoms: C1_2  and  C2_3 
REMARK    2  A    between atoms: C2_3  and  C3_4 
ROOT
ATOM      1  C3  UNL d   1      -3.770   0.076   1.165  0.00  0.00    -0.075 A 
ATOM      2  C4  UNL d   1      -5.164  -0.068   1.216  0.00  0.00     0.002 A 
ATOM      3  C5  UNL d   1      -5.999   1.001   0.889  0.00  0.00     0.002 A 
ATOM      4  C6  UNL d   1      -5.453   2.228   0.518  0.00  0.00    -0.004 A 
ATOM      5  C7  UNL d   1      -4.070   2.387   0.480  0.00  0.00     0.002 A 
ATOM      6  C8  UNL d   1      -3.231   1.318   0.802  0.00  0.00     0.002 A 
ENDROOT
BRANCH   1   7
ATOM      7  C2  UNL d   1      -2.861  -1.085   1.488  0.00  0.00     0.056 C 
BRANCH   7   8
ATOM      8  C1  UNL d   1      -2.076  -1.617   0.284  0.00  0.00     0.007 C 
ATOM      9  C   UNL d   1      -2.599  -2.950  -0.232  0.00  0.00     0.009 C 
ENDBRANCH   7   8
ENDBRANCH   1   7
TORSDOF 2
ENDMDL
