MODEL 1
REMARK minimizedAffinity 5.74171352
REMARK minimizedRMSD -1
REMARK  2 active torsions:
REMARK  status: ('A' for Active; 'I' for Inactive)
REMARK    1  A    between atoms: C1_2  and  C2_3 
REMARK    2  A    between atoms: C2_3  and  C3_4 
ROOT
ATOM      1  C3  UNL d   1      -2.352  -4.438   1.399  0.00  0.00    -0.075 A 
ATOM      2  C4  UNL d   1      -2.189  -5.734   1.907  0.00  0.00     0.002 A 
ATOM      3  C5  UNL d   1      -1.218  -6.000   2.873  0.00  0.00     0.002 A 
ATOM      4  C6  UNL d   1      -0.392  -4.977   3.335  0.00  0.00    -0.004 A 
ATOM      5  C7  UNL d   1      -0.534  -3.688   2.825  0.00  0.00     0.002 A 
ATOM      6  C8  UNL d   1      -1.508  -3.419   1.862  0.00  0.00     0.002 A 
ENDROOT
BRANCH   1   7
ATOM      7  C2  UNL d   1      -3.421  -4.138   0.376  0.00  0.00     0.056 C 
BRANCH   7   8
ATOM      8  C1  UNL d   1      -3.022  -4.484  -1.063  0.00  0.00     0.007 C 
ATOM      9  C   UNL d   1      -2.314  -3.343  -1.781  0.00  0.00     0.009 C 
ENDBRANCH   7   8
ENDBRANCH   1   7
TORSDOF 2
ENDMDL
