MODEL 1
REMARK minimizedAffinity 6.95170307
REMARK minimizedRMSD -1
REMARK  2 active torsions:
REMARK  status: ('A' for Active; 'I' for Inactive)
REMARK    1  A    between atoms: C1_2  and  C2_3 
REMARK    2  A    between atoms: C2_3  and  C3_4 
ROOT
ATOM      1  C3  UNL d   1       4.161   4.760   3.658  0.00  0.00    -0.075 A 
ATOM      2  C4  UNL d   1       3.386   4.753   4.826  0.00  0.00     0.002 A 
ATOM      3  C5  UNL d   1       3.848   5.374   5.987  0.00  0.00     0.002 A 
ATOM      4  C6  UNL d   1       5.093   6.000   5.997  0.00  0.00    -0.004 A 
ATOM      5  C7  UNL d   1       5.879   5.998   4.846  0.00  0.00     0.002 A 
ATOM      6  C8  UNL d   1       5.416   5.381   3.683  0.00  0.00     0.002 A 
ENDROOT
BRANCH   1   7
ATOM      7  C2  UNL d   1       3.653   4.115   2.390  0.00  0.00     0.056 C 
BRANCH   7   8
ATOM      8  C1  UNL d   1       4.091   2.657   2.213  0.00  0.00     0.007 C 
ATOM      9  C   UNL d   1       2.925   1.703   1.987  0.00  0.00     0.009 C 
ENDBRANCH   7   8
ENDBRANCH   1   7
TORSDOF 2
ENDMDL
