MODEL 1
REMARK minimizedAffinity -2.47459388
REMARK minimizedRMSD -1
REMARK  2 active torsions:
REMARK  status: ('A' for Active; 'I' for Inactive)
REMARK    1  A    between atoms: C1_2  and  C2_3 
REMARK    2  A    between atoms: C2_3  and  C3_4 
ROOT
ATOM      1  C3  UNL d   1       0.215  -1.699   0.389  0.00  0.00    -0.075 A 
ATOM      2  C4  UNL d   1      -0.591  -0.780   1.076  0.00  0.00     0.002 A 
ATOM      3  C5  UNL d   1      -0.058   0.427   1.532  0.00  0.00     0.002 A 
ATOM      4  C6  UNL d   1       1.286   0.724   1.316  0.00  0.00    -0.004 A 
ATOM      5  C7  UNL d   1       2.099  -0.189   0.649  0.00  0.00     0.002 A 
ATOM      6  C8  UNL d   1       1.568  -1.395   0.188  0.00  0.00     0.002 A 
ENDROOT
BRANCH   1   7
ATOM      7  C2  UNL d   1      -0.363  -2.993  -0.133  0.00  0.00     0.056 C 
BRANCH   7   8
ATOM      8  C1  UNL d   1      -1.714  -2.834  -0.837  0.00  0.00     0.007 C 
ATOM      9  C   UNL d   1      -2.226  -4.129  -1.454  0.00  0.00     0.009 C 
ENDBRANCH   7   8
ENDBRANCH   1   7
TORSDOF 2
ENDMDL
