MODEL 1
REMARK minimizedAffinity -0.219133824
REMARK minimizedRMSD -1
REMARK  2 active torsions:
REMARK  status: ('A' for Active; 'I' for Inactive)
REMARK    1  A    between atoms: C1_2  and  C2_3 
REMARK    2  A    between atoms: C2_3  and  C3_4 
ROOT
ATOM      1  C3  UNL d   1       2.303  -1.499   0.165  0.00  0.00    -0.075 A 
ATOM      2  C4  UNL d   1       1.367  -1.964   1.100  0.00  0.00     0.002 A 
ATOM      3  C5  UNL d   1       1.086  -3.327   1.204  0.00  0.00     0.002 A 
ATOM      4  C6  UNL d   1       1.728  -4.239   0.369  0.00  0.00    -0.004 A 
ATOM      5  C7  UNL d   1       2.648  -3.786  -0.575  0.00  0.00     0.002 A 
ATOM      6  C8  UNL d   1       2.934  -2.424  -0.678  0.00  0.00     0.002 A 
ENDROOT
BRANCH   1   7
ATOM      7  C2  UNL d   1       2.633  -0.029   0.068  0.00  0.00     0.056 C 
BRANCH   7   8
ATOM      8  C1  UNL d   1       1.990   0.828   1.163  0.00  0.00     0.007 C 
ATOM      9  C   UNL d   1       2.992   1.692   1.916  0.00  0.00     0.009 C 
ENDBRANCH   7   8
ENDBRANCH   1   7
TORSDOF 2
ENDMDL
